MODEL 1
REMARK VINA RESULT:     -12.9      0.000      0.000
REMARK SMILES O=C(NCCCCCCNC(=O)c1ccccc1Nc1nc(Cl)nc(Nc2ccc(N3CCOCC3=O)cc2)n1)c1ccc(-c2c3nc(c(-c4c(F)c(F)c(F)c(F)c4F)c4ccc([nH]4)c(-c4c(F)c(F)c(F)c(F)c4F)c4nc(c(-c5c(F)c(F)c(F)c(F)c5F)c5ccc2[nH]5)C=C4)C=C3)cc1
REMARK SMILES IDX 8 1 7 4 6 7 5 10 4 13 3 16 1 17 2 18 41 20 42 21 103 22
REMARK SMILES IDX 43 23 102 25 44 27 45 30 46 31 96 32 47 33 101 34 95 35
REMARK SMILES IDX 97 36 48 37 100 38 94 40 93 42 49 44 81 47 61 48 80 49 62 50
REMARK SMILES IDX 65 51 79 52 98 53 63 54 64 56 78 58 99 59 66 62 50 64 51 65
REMARK SMILES IDX 59 66 52 67 53 68 57 69 60 70 54 71 55 72 58 73 56 74 82 75
REMARK SMILES IDX 83 76 91 77 84 78 85 79 89 80 92 81 86 82 87 83 90 84 88 85
REMARK SMILES IDX 67 86 68 87 76 88 69 89 70 90 74 91 77 92 71 93 72 94 75 95
REMARK SMILES IDX 73 96 9 97 10 100 11 101 12 103 13 104 14 105 18 106 15 107
REMARK SMILES IDX 17 109 16 110 19 114 20 116 21 117 40 118 22 119 25 120
REMARK SMILES IDX 23 121 24 122 26 123 27 125 28 126 39 127 29 128 38 130
REMARK SMILES IDX 30 132 31 135 32 136 36 137 33 138 35 141 37 142 34 143
REMARK H PARENT 8 2 8 3 7 5 7 6 6 8 6 9 5 11 5 12 4 14 4 15 3 19 42 24 103 26
REMARK H PARENT 43 28 102 29 101 39 95 41 97 43 100 45 94 46 62 55 65 57 98 60
REMARK H PARENT 63 61 99 63 9 98 9 99 10 102 14 108 15 111 17 112 16 113
REMARK H PARENT 19 115 26 124 28 129 39 131 29 133 38 134 32 139 32 140 33 144
REMARK H PARENT 33 145 35 146 35 147
REMARK Flexibility Score: inf
ROOT
ATOM      1  C   UNL A   1      32.500  28.259  26.139  1.00  0.00    -0.036 C 
ATOM      2  H   UNL A   1      33.002  28.050  27.061  1.00  0.00     0.028 H 
ATOM      3  H   UNL A   1      32.880  27.701  25.309  1.00  0.00     0.028 H 
ENDROOT
BRANCH   1   4
ATOM      4  C   UNL A   1      32.729  29.736  25.799  1.00  0.00    -0.052 C 
ATOM      5  H   UNL A   1      33.269  30.179  26.609  1.00  0.00     0.027 H 
ATOM      6  H   UNL A   1      33.257  29.742  24.869  1.00  0.00     0.027 H 
BRANCH   4   7
ATOM      7  C   UNL A   1      31.464  30.568  25.567  1.00  0.00    -0.052 C 
ATOM      8  H   UNL A   1      31.489  30.932  24.560  1.00  0.00     0.027 H 
ATOM      9  H   UNL A   1      30.641  29.915  25.769  1.00  0.00     0.027 H 
BRANCH   7  10
ATOM     10  C   UNL A   1      31.285  31.769  26.497  1.00  0.00    -0.036 C 
ATOM     11  H   UNL A   1      30.671  32.488  25.997  1.00  0.00     0.028 H 
ATOM     12  H   UNL A   1      30.848  31.388  27.396  1.00  0.00     0.028 H 
BRANCH  10  13
ATOM     13  C   UNL A   1      32.579  32.460  26.913  1.00  0.00     0.018 C 
ATOM     14  H   UNL A   1      33.031  31.897  27.703  1.00  0.00     0.049 H 
ATOM     15  H   UNL A   1      33.213  32.510  26.053  1.00  0.00     0.049 H 
BRANCH  13  16
ATOM     16  N   UNL A   1      32.357  33.819  27.379  1.00  0.00    -0.352 N 
ATOM     17  O   UNL A   1      32.553  35.599  28.751  1.00  0.00    -0.269 OA
ATOM     18  C   UNL A   1      32.990  34.511  28.377  1.00  0.00     0.251 C 
ATOM     19  H   UNL A   1      31.649  34.315  26.907  1.00  0.00     0.163 HD
BRANCH  18  20
ATOM     20  C   UNL A   1      34.189  33.944  29.025  1.00  0.00     0.039 A 
ATOM     21  C   UNL A   1      35.466  34.439  28.735  1.00  0.00    -0.049 A 
ATOM     22  C   UNL A   1      34.027  32.918  29.958  1.00  0.00    -0.049 A 
ATOM     23  C   UNL A   1      36.587  33.832  29.292  1.00  0.00    -0.053 A 
ATOM     24  H   UNL A   1      35.575  35.251  28.109  1.00  0.00     0.063 H 
ATOM     25  C   UNL A   1      35.149  32.358  30.571  1.00  0.00    -0.053 A 
ATOM     26  H   UNL A   1      33.083  32.576  30.194  1.00  0.00     0.063 H 
ATOM     27  C   UNL A   1      36.438  32.795  30.226  1.00  0.00    -0.014 A 
ATOM     28  H   UNL A   1      37.531  34.145  29.019  1.00  0.00     0.063 H 
ATOM     29  H   UNL A   1      35.030  31.618  31.281  1.00  0.00     0.063 H 
BRANCH  27  30
ATOM     30  C   UNL A   1      37.624  32.199  30.886  1.00  0.00     0.031 A 
ATOM     31  C   UNL A   1      38.414  31.119  30.207  1.00  0.00     0.074 A 
ATOM     32  C   UNL A   1      37.955  32.602  32.126  1.00  0.00     0.049 A 
ATOM     33  N   UNL A   1      39.403  30.399  30.672  1.00  0.00    -0.248 NA
ATOM     34  C   UNL A   1      38.032  30.797  28.824  1.00  0.00    -0.034 C 
ATOM     35  C   UNL A   1      37.260  33.643  32.884  1.00  0.00    -0.036 A 
ATOM     36  N   UNL A   1      38.942  32.171  32.976  1.00  0.00    -0.354 N 
ATOM     37  C   UNL A   1      39.745  29.521  29.652  1.00  0.00     0.074 A 
ATOM     38  C   UNL A   1      38.840  29.783  28.551  1.00  0.00    -0.034 C 
ATOM     39  H   UNL A   1      37.321  31.243  28.224  1.00  0.00     0.065 H 
ATOM     40  C   UNL A   1      37.839  33.770  34.086  1.00  0.00    -0.036 A 
ATOM     41  H   UNL A   1      36.454  34.192  32.547  1.00  0.00     0.065 H 
ATOM     42  C   UNL A   1      38.902  32.777  34.207  1.00  0.00     0.049 A 
ATOM     43  H   UNL A   1      39.612  31.494  32.728  1.00  0.00     0.167 HD
ATOM     44  C   UNL A   1      40.726  28.586  29.638  1.00  0.00     0.037 A 
ATOM     45  H   UNL A   1      38.827  29.249  27.669  1.00  0.00     0.065 H 
ATOM     46  H   UNL A   1      37.577  34.459  34.809  1.00  0.00     0.065 H 
ATOM     47  C   UNL A   1      39.611  32.533  35.325  1.00  0.00     0.037 A 
ATOM     48  C   UNL A   1      41.619  28.338  30.742  1.00  0.00     0.049 A 
ATOM     49  C   UNL A   1      40.662  31.460  35.305  1.00  0.00     0.074 A 
ATOM     50  C   UNL A   1      42.672  27.445  30.817  1.00  0.00    -0.036 A 
ATOM     51  N   UNL A   1      41.549  28.977  31.974  1.00  0.00    -0.354 N 
ATOM     52  N   UNL A   1      41.006  30.662  34.326  1.00  0.00    -0.248 NA
ATOM     53  C   UNL A   1      41.424  31.256  36.544  1.00  0.00    -0.034 C 
ATOM     54  C   UNL A   1      43.198  27.496  32.112  1.00  0.00    -0.036 A 
ATOM     55  H   UNL A   1      43.012  26.844  30.049  1.00  0.00     0.065 H 
ATOM     56  C   UNL A   1      42.521  28.472  32.824  1.00  0.00     0.049 A 
ATOM     57  H   UNL A   1      40.906  29.683  32.209  1.00  0.00     0.167 HD
ATOM     58  C   UNL A   1      42.043  29.881  34.815  1.00  0.00     0.074 A 
ATOM     59  C   UNL A   1      42.272  30.301  36.181  1.00  0.00    -0.034 C 
ATOM     60  H   UNL A   1      41.326  31.729  37.456  1.00  0.00     0.065 H 
ATOM     61  H   UNL A   1      43.962  26.904  32.476  1.00  0.00     0.065 H 
ATOM     62  C   UNL A   1      42.746  28.909  34.181  1.00  0.00     0.037 A 
ATOM     63  H   UNL A   1      43.002  29.909  36.796  1.00  0.00     0.065 H 
BRANCH  44  64
ATOM     64  C   UNL A   1      40.856  27.735  28.405  1.00  0.00     0.064 A 
ATOM     65  C   UNL A   1      41.662  28.113  27.321  1.00  0.00     0.173 A 
ATOM     66  C   UNL A   1      40.168  26.515  28.313  1.00  0.00     0.173 A 
ATOM     67  F   UNL A   1      42.338  29.272  27.353  1.00  0.00    -0.203 F 
ATOM     68  C   UNL A   1      41.739  27.325  26.173  1.00  0.00     0.198 A 
ATOM     69  C   UNL A   1      40.275  25.712  27.180  1.00  0.00     0.198 A 
ATOM     70  F   UNL A   1      39.393  26.095  29.324  1.00  0.00    -0.203 F 
ATOM     71  F   UNL A   1      42.465  27.740  25.126  1.00  0.00    -0.200 F 
ATOM     72  C   UNL A   1      41.050  26.125  26.106  1.00  0.00     0.200 A 
ATOM     73  F   UNL A   1      39.623  24.542  27.124  1.00  0.00    -0.200 F 
ATOM     74  F   UNL A   1      41.125  25.367  25.002  1.00  0.00    -0.200 F 
ENDBRANCH  44  64
BRANCH  47  75
ATOM     75  C   UNL A   1      39.326  33.325  36.547  1.00  0.00     0.064 A 
ATOM     76  C   UNL A   1      38.451  32.847  37.530  1.00  0.00     0.173 A 
ATOM     77  C   UNL A   1      39.971  34.550  36.784  1.00  0.00     0.173 A 
ATOM     78  F   UNL A   1      37.801  31.689  37.342  1.00  0.00    -0.203 F 
ATOM     79  C   UNL A   1      38.230  33.564  38.704  1.00  0.00     0.198 A 
ATOM     80  C   UNL A   1      39.770  35.251  37.970  1.00  0.00     0.198 A 
ATOM     81  F   UNL A   1      40.825  35.045  35.876  1.00  0.00    -0.203 F 
ATOM     82  F   UNL A   1      37.369  33.096  39.619  1.00  0.00    -0.200 F 
ATOM     83  C   UNL A   1      38.897  34.759  38.927  1.00  0.00     0.200 A 
ATOM     84  F   UNL A   1      40.434  36.394  38.191  1.00  0.00    -0.200 F 
ATOM     85  F   UNL A   1      38.699  35.436  40.066  1.00  0.00    -0.200 F 
ENDBRANCH  47  75
BRANCH  62  86
ATOM     86  C   UNL A   1      43.873  28.263  34.934  1.00  0.00     0.064 A 
ATOM     87  C   UNL A   1      43.700  27.068  35.647  1.00  0.00     0.173 A 
ATOM     88  C   UNL A   1      45.164  28.811  34.871  1.00  0.00     0.173 A 
ATOM     89  F   UNL A   1      42.483  26.513  35.752  1.00  0.00    -0.203 F 
ATOM     90  C   UNL A   1      44.778  26.450  36.276  1.00  0.00     0.198 A 
ATOM     91  C   UNL A   1      46.244  28.174  35.476  1.00  0.00     0.198 A 
ATOM     92  F   UNL A   1      45.382  29.951  34.199  1.00  0.00    -0.203 F 
ATOM     93  F   UNL A   1      44.586  25.325  36.979  1.00  0.00    -0.200 F 
ATOM     94  C   UNL A   1      46.049  26.996  36.179  1.00  0.00     0.200 A 
ATOM     95  F   UNL A   1      47.473  28.697  35.368  1.00  0.00    -0.200 F 
ATOM     96  F   UNL A   1      47.089  26.387  36.767  1.00  0.00    -0.200 F 
ENDBRANCH  62  86
ENDBRANCH  27  30
ENDBRANCH  18  20
ENDBRANCH  13  16
ENDBRANCH  10  13
ENDBRANCH   7  10
ENDBRANCH   4   7
ENDBRANCH   1   4
BRANCH   1  97
ATOM     97  C   UNL A   1      31.038  27.844  26.295  1.00  0.00     0.018 C 
ATOM     98  H   UNL A   1      30.416  28.641  25.943  1.00  0.00     0.049 H 
ATOM     99  H   UNL A   1      30.865  27.640  27.330  1.00  0.00     0.049 H 
BRANCH  97 100
ATOM    100  N   UNL A   1      30.723  26.640  25.545  1.00  0.00    -0.352 N 
ATOM    101  C   UNL A   1      30.147  26.521  24.306  1.00  0.00     0.253 C 
ATOM    102  H   UNL A   1      30.955  25.792  25.988  1.00  0.00     0.163 HD
ATOM    103  O   UNL A   1      29.880  25.411  23.856  1.00  0.00    -0.269 OA
BRANCH 101 104
ATOM    104  C   UNL A   1      29.823  27.725  23.511  1.00  0.00     0.063 A 
ATOM    105  C   UNL A   1      28.480  28.129  23.503  1.00  0.00    -0.047 A 
ATOM    106  C   UNL A   1      30.793  28.424  22.768  1.00  0.00     0.054 A 
ATOM    107  C   UNL A   1      28.095  29.268  22.799  1.00  0.00    -0.061 A 
ATOM    108  H   UNL A   1      27.774  27.581  24.020  1.00  0.00     0.063 H 
ATOM    109  C   UNL A   1      30.386  29.596  22.108  1.00  0.00    -0.038 A 
ATOM    110  C   UNL A   1      29.052  30.008  22.114  1.00  0.00    -0.060 A 
ATOM    111  H   UNL A   1      27.105  29.560  22.785  1.00  0.00     0.062 H 
ATOM    112  H   UNL A   1      31.088  30.164  21.609  1.00  0.00     0.064 H 
ATOM    113  H   UNL A   1      28.775  30.866  21.609  1.00  0.00     0.062 H 
BRANCH 106 114
ATOM    114  N   UNL A   1      32.123  27.979  22.687  1.00  0.00    -0.323 N 
ATOM    115  H   UNL A   1      32.805  28.660  22.890  1.00  0.00     0.170 HD
BRANCH 114 116
ATOM    116  C   UNL A   1      32.620  26.723  22.367  1.00  0.00     0.233 A 
ATOM    117  N   UNL A   1      32.498  26.264  21.132  1.00  0.00    -0.182 NA
ATOM    118  N   UNL A   1      33.200  26.053  23.355  1.00  0.00    -0.176 NA
ATOM    119  C   UNL A   1      33.014  25.062  20.959  1.00  0.00     0.228 A 
ATOM    120  C   UNL A   1      33.611  24.819  23.077  1.00  0.00     0.233 A 
ATOM    121  Cl  UNL A   1      32.897  24.415  19.382  1.00  0.00    -0.041 Cl
ATOM    122  N   UNL A   1      33.575  24.287  21.867  1.00  0.00    -0.182 NA
BRANCH 120 123
ATOM    123  N   UNL A   1      33.972  24.045  24.176  1.00  0.00    -0.324 N 
ATOM    124  H   UNL A   1      34.354  24.538  24.939  1.00  0.00     0.170 HD
BRANCH 123 125
ATOM    125  C   UNL A   1      33.865  22.663  24.341  1.00  0.00     0.041 A 
ATOM    126  C   UNL A   1      32.640  22.030  24.108  1.00  0.00    -0.036 A 
ATOM    127  C   UNL A   1      34.980  21.873  24.628  1.00  0.00    -0.036 A 
ATOM    128  C   UNL A   1      32.533  20.634  24.154  1.00  0.00    -0.036 A 
ATOM    129  H   UNL A   1      31.803  22.597  23.901  1.00  0.00     0.065 H 
ATOM    130  C   UNL A   1      34.865  20.486  24.734  1.00  0.00    -0.036 A 
ATOM    131  H   UNL A   1      35.900  22.321  24.765  1.00  0.00     0.065 H 
ATOM    132  C   UNL A   1      33.644  19.852  24.484  1.00  0.00     0.044 A 
ATOM    133  H   UNL A   1      31.630  20.181  23.942  1.00  0.00     0.065 H 
ATOM    134  H   UNL A   1      35.689  19.924  24.998  1.00  0.00     0.065 H 
BRANCH 132 135
ATOM    135  N   UNL A   1      33.551  18.431  24.521  1.00  0.00    -0.308 N 
ATOM    136  C   UNL A   1      34.376  17.688  23.562  1.00  0.00     0.049 C 
ATOM    137  C   UNL A   1      32.976  17.785  25.622  1.00  0.00     0.253 C 
ATOM    138  C   UNL A   1      34.047  16.201  23.507  1.00  0.00     0.065 C 
ATOM    139  H   UNL A   1      35.403  17.798  23.840  1.00  0.00     0.052 H 
ATOM    140  H   UNL A   1      34.175  18.093  22.592  1.00  0.00     0.052 H 
ATOM    141  C   UNL A   1      33.078  16.252  25.621  1.00  0.00     0.126 C 
ATOM    142  O   UNL A   1      32.330  18.354  26.506  1.00  0.00    -0.272 OA
ATOM    143  O   UNL A   1      34.088  15.657  24.823  1.00  0.00    -0.370 OA
ATOM    144  H   UNL A   1      34.764  15.700  22.890  1.00  0.00     0.059 H 
ATOM    145  H   UNL A   1      33.068  16.068  23.097  1.00  0.00     0.059 H 
ATOM    146  H   UNL A   1      33.247  15.943  26.632  1.00  0.00     0.067 H 
ATOM    147  H   UNL A   1      32.160  15.922  25.184  1.00  0.00     0.067 H 
ENDBRANCH 132 135
ENDBRANCH 123 125
ENDBRANCH 120 123
ENDBRANCH 114 116
ENDBRANCH 106 114
ENDBRANCH 101 104
ENDBRANCH  97 100
ENDBRANCH   1  97
TORSDOF 18
ENDMDL
MODEL 2
REMARK VINA RESULT:     -12.5      5.467     11.123
REMARK SMILES O=C(NCCCCCCNC(=O)c1ccccc1Nc1nc(Cl)nc(Nc2ccc(N3CCOCC3=O)cc2)n1)c1ccc(-c2c3nc(c(-c4c(F)c(F)c(F)c(F)c4F)c4ccc([nH]4)c(-c4c(F)c(F)c(F)c(F)c4F)c4nc(c(-c5c(F)c(F)c(F)c(F)c5F)c5ccc2[nH]5)C=C4)C=C3)cc1
REMARK SMILES IDX 8 1 7 4 6 7 5 10 4 13 3 16 1 17 2 18 41 20 42 21 103 22
REMARK SMILES IDX 43 23 102 25 44 27 45 30 46 31 96 32 47 33 101 34 95 35
REMARK SMILES IDX 97 36 48 37 100 38 94 40 93 42 49 44 81 47 61 48 80 49 62 50
REMARK SMILES IDX 65 51 79 52 98 53 63 54 64 56 78 58 99 59 66 62 50 64 51 65
REMARK SMILES IDX 59 66 52 67 53 68 57 69 60 70 54 71 55 72 58 73 56 74 82 75
REMARK SMILES IDX 83 76 91 77 84 78 85 79 89 80 92 81 86 82 87 83 90 84 88 85
REMARK SMILES IDX 67 86 68 87 76 88 69 89 70 90 74 91 77 92 71 93 72 94 75 95
REMARK SMILES IDX 73 96 9 97 10 100 11 101 12 103 13 104 14 105 18 106 15 107
REMARK SMILES IDX 17 109 16 110 19 114 20 116 21 117 40 118 22 119 25 120
REMARK SMILES IDX 23 121 24 122 26 123 27 125 28 126 39 127 29 128 38 130
REMARK SMILES IDX 30 132 31 135 32 136 36 137 33 138 35 141 37 142 34 143
REMARK H PARENT 8 2 8 3 7 5 7 6 6 8 6 9 5 11 5 12 4 14 4 15 3 19 42 24 103 26
REMARK H PARENT 43 28 102 29 101 39 95 41 97 43 100 45 94 46 62 55 65 57 98 60
REMARK H PARENT 63 61 99 63 9 98 9 99 10 102 14 108 15 111 17 112 16 113
REMARK H PARENT 19 115 26 124 28 129 39 131 29 133 38 134 32 139 32 140 33 144
REMARK H PARENT 33 145 35 146 35 147
REMARK Flexibility Score: inf
ROOT
ATOM      1  C   UNL A   1      33.006  34.995  31.113  1.00  0.00    -0.036 C 
ATOM      2  H   UNL A   1      32.457  34.126  30.814  1.00  0.00     0.028 H 
ATOM      3  H   UNL A   1      32.460  35.643  31.765  1.00  0.00     0.028 H 
ENDROOT
BRANCH   1   4
ATOM      4  C   UNL A   1      33.315  35.816  29.856  1.00  0.00    -0.052 C 
ATOM      5  H   UNL A   1      32.390  36.008  29.354  1.00  0.00     0.027 H 
ATOM      6  H   UNL A   1      33.813  36.697  30.200  1.00  0.00     0.027 H 
BRANCH   4   7
ATOM      7  C   UNL A   1      34.268  35.162  28.851  1.00  0.00    -0.052 C 
ATOM      8  H   UNL A   1      34.530  35.896  28.118  1.00  0.00     0.027 H 
ATOM      9  H   UNL A   1      35.100  34.808  29.423  1.00  0.00     0.027 H 
BRANCH   7  10
ATOM     10  C   UNL A   1      33.714  33.940  28.117  1.00  0.00    -0.036 C 
ATOM     11  H   UNL A   1      32.709  33.781  28.449  1.00  0.00     0.028 H 
ATOM     12  H   UNL A   1      33.787  34.160  27.073  1.00  0.00     0.028 H 
BRANCH  10  13
ATOM     13  C   UNL A   1      34.494  32.648  28.335  1.00  0.00     0.018 C 
ATOM     14  H   UNL A   1      35.497  32.791  27.990  1.00  0.00     0.049 H 
ATOM     15  H   UNL A   1      34.466  32.423  29.380  1.00  0.00     0.049 H 
BRANCH  13  16
ATOM     16  N   UNL A   1      33.913  31.522  27.623  1.00  0.00    -0.352 N 
ATOM     17  O   UNL A   1      33.891  29.561  26.509  1.00  0.00    -0.269 OA
ATOM     18  C   UNL A   1      34.486  30.332  27.262  1.00  0.00     0.251 C 
ATOM     19  H   UNL A   1      32.969  31.631  27.363  1.00  0.00     0.163 HD
BRANCH  18  20
ATOM     20  C   UNL A   1      35.830  29.977  27.759  1.00  0.00     0.039 A 
ATOM     21  C   UNL A   1      36.970  30.221  26.985  1.00  0.00    -0.049 A 
ATOM     22  C   UNL A   1      35.950  29.415  29.031  1.00  0.00    -0.049 A 
ATOM     23  C   UNL A   1      38.217  29.800  27.436  1.00  0.00    -0.053 A 
ATOM     24  H   UNL A   1      36.886  30.711  26.081  1.00  0.00     0.063 H 
ATOM     25  C   UNL A   1      37.210  29.060  29.513  1.00  0.00    -0.053 A 
ATOM     26  H   UNL A   1      35.111  29.265  29.613  1.00  0.00     0.063 H 
ATOM     27  C   UNL A   1      38.350  29.228  28.711  1.00  0.00    -0.014 A 
ATOM     28  H   UNL A   1      39.047  29.910  26.833  1.00  0.00     0.063 H 
ATOM     29  H   UNL A   1      37.304  28.669  30.464  1.00  0.00     0.063 H 
BRANCH  27  30
ATOM     30  C   UNL A   1      39.686  28.853  29.232  1.00  0.00     0.031 A 
ATOM     31  C   UNL A   1      40.441  29.781  30.137  1.00  0.00     0.074 A 
ATOM     32  C   UNL A   1      40.239  27.690  28.841  1.00  0.00     0.049 A 
ATOM     33  N   UNL A   1      41.664  29.680  30.595  1.00  0.00    -0.248 NA
ATOM     34  C   UNL A   1      39.732  30.991  30.577  1.00  0.00    -0.034 C 
ATOM     35  C   UNL A   1      39.598  26.709  27.963  1.00  0.00    -0.036 A 
ATOM     36  N   UNL A   1      41.468  27.146  29.111  1.00  0.00    -0.354 N 
ATOM     37  C   UNL A   1      41.880  30.822  31.354  1.00  0.00     0.074 A 
ATOM     38  C   UNL A   1      40.670  31.615  31.274  1.00  0.00    -0.034 C 
ATOM     39  H   UNL A   1      38.758  31.279  30.391  1.00  0.00     0.065 H 
ATOM     40  C   UNL A   1      40.439  25.685  27.765  1.00  0.00    -0.036 A 
ATOM     41  H   UNL A   1      38.652  26.794  27.562  1.00  0.00     0.065 H 
ATOM     42  C   UNL A   1      41.698  25.966  28.447  1.00  0.00     0.049 A 
ATOM     43  H   UNL A   1      42.121  27.560  29.720  1.00  0.00     0.167 HD
ATOM     44  C   UNL A   1      42.987  31.173  32.052  1.00  0.00     0.037 A 
ATOM     45  H   UNL A   1      40.554  32.545  31.704  1.00  0.00     0.065 H 
ATOM     46  H   UNL A   1      40.230  24.834  27.219  1.00  0.00     0.065 H 
ATOM     47  C   UNL A   1      42.812  25.215  28.360  1.00  0.00     0.037 A 
ATOM     48  C   UNL A   1      44.183  30.372  32.122  1.00  0.00     0.049 A 
ATOM     49  C   UNL A   1      44.044  25.644  29.103  1.00  0.00     0.074 A 
ATOM     50  C   UNL A   1      45.344  30.614  32.834  1.00  0.00    -0.036 A 
ATOM     51  N   UNL A   1      44.377  29.179  31.437  1.00  0.00    -0.354 N 
ATOM     52  N   UNL A   1      44.229  26.704  29.849  1.00  0.00    -0.248 NA
ATOM     53  C   UNL A   1      45.221  24.772  28.995  1.00  0.00    -0.034 C 
ATOM     54  C   UNL A   1      46.262  29.604  32.531  1.00  0.00    -0.036 A 
ATOM     55  H   UNL A   1      45.505  31.404  33.479  1.00  0.00     0.065 H 
ATOM     56  C   UNL A   1      45.650  28.691  31.686  1.00  0.00     0.049 A 
ATOM     57  H   UNL A   1      43.709  28.743  30.861  1.00  0.00     0.167 HD
ATOM     58  C   UNL A   1      45.529  26.616  30.326  1.00  0.00     0.074 A 
ATOM     59  C   UNL A   1      46.089  25.396  29.782  1.00  0.00    -0.034 C 
ATOM     60  H   UNL A   1      45.342  23.904  28.450  1.00  0.00     0.065 H 
ATOM     61  H   UNL A   1      47.233  29.547  32.877  1.00  0.00     0.065 H 
ATOM     62  C   UNL A   1      46.192  27.467  31.147  1.00  0.00     0.037 A 
ATOM     63  H   UNL A   1      47.042  25.054  29.981  1.00  0.00     0.065 H 
BRANCH  44  64
ATOM     64  C   UNL A   1      42.969  32.498  32.762  1.00  0.00     0.064 A 
ATOM     65  C   UNL A   1      42.534  32.626  34.091  1.00  0.00     0.173 A 
ATOM     66  C   UNL A   1      43.402  33.659  32.104  1.00  0.00     0.173 A 
ATOM     67  F   UNL A   1      42.104  31.550  34.767  1.00  0.00    -0.203 F 
ATOM     68  C   UNL A   1      42.492  33.870  34.717  1.00  0.00     0.198 A 
ATOM     69  C   UNL A   1      43.393  34.896  32.744  1.00  0.00     0.198 A 
ATOM     70  F   UNL A   1      43.841  33.597  30.838  1.00  0.00    -0.203 F 
ATOM     71  F   UNL A   1      42.013  33.975  35.964  1.00  0.00    -0.200 F 
ATOM     72  C   UNL A   1      42.925  35.002  34.045  1.00  0.00     0.200 A 
ATOM     73  F   UNL A   1      43.830  35.987  32.098  1.00  0.00    -0.200 F 
ATOM     74  F   UNL A   1      42.885  36.199  34.648  1.00  0.00    -0.200 F 
ENDBRANCH  44  64
BRANCH  47  75
ATOM     75  C   UNL A   1      42.791  23.990  27.523  1.00  0.00     0.064 A 
ATOM     76  C   UNL A   1      43.181  24.026  26.179  1.00  0.00     0.173 A 
ATOM     77  C   UNL A   1      42.439  22.745  28.069  1.00  0.00     0.173 A 
ATOM     78  F   UNL A   1      43.513  25.195  25.610  1.00  0.00    -0.203 F 
ATOM     79  C   UNL A   1      43.217  22.865  25.410  1.00  0.00     0.198 A 
ATOM     80  C   UNL A   1      42.503  21.581  27.307  1.00  0.00     0.198 A 
ATOM     81  F   UNL A   1      42.067  22.657  29.354  1.00  0.00    -0.203 F 
ATOM     82  F   UNL A   1      43.572  22.931  24.119  1.00  0.00    -0.200 F 
ATOM     83  C   UNL A   1      42.889  21.642  25.977  1.00  0.00     0.200 A 
ATOM     84  F   UNL A   1      42.206  20.400  27.865  1.00  0.00    -0.200 F 
ATOM     85  F   UNL A   1      42.946  20.524  25.242  1.00  0.00    -0.200 F 
ENDBRANCH  47  75
BRANCH  62  86
ATOM     86  C   UNL A   1      47.585  27.090  31.561  1.00  0.00     0.064 A 
ATOM     87  C   UNL A   1      47.830  26.161  32.582  1.00  0.00     0.173 A 
ATOM     88  C   UNL A   1      48.689  27.610  30.867  1.00  0.00     0.173 A 
ATOM     89  F   UNL A   1      46.810  25.647  33.287  1.00  0.00    -0.203 F 
ATOM     90  C   UNL A   1      49.129  25.772  32.898  1.00  0.00     0.198 A 
ATOM     91  C   UNL A   1      49.984  27.196  31.165  1.00  0.00     0.198 A 
ATOM     92  F   UNL A   1      48.508  28.500  29.880  1.00  0.00    -0.203 F 
ATOM     93  F   UNL A   1      49.343  24.906  33.898  1.00  0.00    -0.200 F 
ATOM     94  C   UNL A   1      50.202  26.280  32.181  1.00  0.00     0.200 A 
ATOM     95  F   UNL A   1      51.018  27.678  30.462  1.00  0.00    -0.200 F 
ATOM     96  F   UNL A   1      51.451  25.887  32.473  1.00  0.00    -0.200 F 
ENDBRANCH  62  86
ENDBRANCH  27  30
ENDBRANCH  18  20
ENDBRANCH  13  16
ENDBRANCH  10  13
ENDBRANCH   7  10
ENDBRANCH   4   7
ENDBRANCH   1   4
BRANCH   1  97
ATOM     97  C   UNL A   1      34.227  34.531  31.904  1.00  0.00     0.018 C 
ATOM     98  H   UNL A   1      34.101  34.812  32.929  1.00  0.00     0.049 H 
ATOM     99  H   UNL A   1      35.090  34.995  31.475  1.00  0.00     0.049 H 
BRANCH  97 100
ATOM    100  N   UNL A   1      34.416  33.091  31.834  1.00  0.00    -0.352 N 
ATOM    101  C   UNL A   1      35.549  32.358  32.077  1.00  0.00     0.253 C 
ATOM    102  H   UNL A   1      33.620  32.572  31.577  1.00  0.00     0.163 HD
ATOM    103  O   UNL A   1      35.548  31.144  31.890  1.00  0.00    -0.269 OA
BRANCH 101 104
ATOM    104  C   UNL A   1      36.787  33.020  32.542  1.00  0.00     0.063 A 
ATOM    105  C   UNL A   1      37.049  34.296  32.022  1.00  0.00    -0.047 A 
ATOM    106  C   UNL A   1      37.684  32.403  33.435  1.00  0.00     0.054 A 
ATOM    107  C   UNL A   1      38.181  34.999  32.429  1.00  0.00    -0.061 A 
ATOM    108  H   UNL A   1      36.401  34.716  31.337  1.00  0.00     0.063 H 
ATOM    109  C   UNL A   1      38.791  33.154  33.865  1.00  0.00    -0.038 A 
ATOM    110  C   UNL A   1      39.044  34.432  33.361  1.00  0.00    -0.060 A 
ATOM    111  H   UNL A   1      38.379  35.934  32.040  1.00  0.00     0.062 H 
ATOM    112  H   UNL A   1      39.431  32.753  34.567  1.00  0.00     0.064 H 
ATOM    113  H   UNL A   1      39.872  34.958  33.682  1.00  0.00     0.062 H 
BRANCH 106 114
ATOM    114  N   UNL A   1      37.486  31.089  33.890  1.00  0.00    -0.323 N 
ATOM    115  H   UNL A   1      36.689  30.957  34.452  1.00  0.00     0.170 HD
BRANCH 114 116
ATOM    116  C   UNL A   1      38.246  29.949  33.664  1.00  0.00     0.233 A 
ATOM    117  N   UNL A   1      37.794  29.010  32.849  1.00  0.00    -0.182 NA
ATOM    118  N   UNL A   1      39.408  29.884  34.302  1.00  0.00    -0.176 NA
ATOM    119  C   UNL A   1      38.612  27.983  32.717  1.00  0.00     0.228 A 
ATOM    120  C   UNL A   1      40.108  28.763  34.150  1.00  0.00     0.233 A 
ATOM    121  Cl  UNL A   1      38.090  26.737  31.670  1.00  0.00    -0.041 Cl
ATOM    122  N   UNL A   1      39.765  27.787  33.326  1.00  0.00    -0.182 NA
BRANCH 120 123
ATOM    123  N   UNL A   1      41.182  28.604  35.021  1.00  0.00    -0.324 N 
ATOM    124  H   UNL A   1      41.368  29.369  35.614  1.00  0.00     0.170 HD
BRANCH 123 125
ATOM    125  C   UNL A   1      42.030  27.505  35.167  1.00  0.00     0.041 A 
ATOM    126  C   UNL A   1      41.693  26.482  36.059  1.00  0.00    -0.036 A 
ATOM    127  C   UNL A   1      43.159  27.343  34.362  1.00  0.00    -0.036 A 
ATOM    128  C   UNL A   1      42.466  25.317  36.140  1.00  0.00    -0.036 A 
ATOM    129  H   UNL A   1      40.866  26.587  36.667  1.00  0.00     0.065 H 
ATOM    130  C   UNL A   1      43.966  26.210  34.482  1.00  0.00    -0.036 A 
ATOM    131  H   UNL A   1      43.402  28.070  33.671  1.00  0.00     0.065 H 
ATOM    132  C   UNL A   1      43.619  25.180  35.362  1.00  0.00     0.044 A 
ATOM    133  H   UNL A   1      42.181  24.556  36.776  1.00  0.00     0.065 H 
ATOM    134  H   UNL A   1      44.825  26.132  33.916  1.00  0.00     0.065 H 
BRANCH 132 135
ATOM    135  N   UNL A   1      44.405  23.993  35.426  1.00  0.00    -0.308 N 
ATOM    136  C   UNL A   1      45.245  23.820  36.616  1.00  0.00     0.049 C 
ATOM    137  C   UNL A   1      44.133  22.914  34.577  1.00  0.00     0.253 C 
ATOM    138  C   UNL A   1      46.222  22.655  36.502  1.00  0.00     0.065 C 
ATOM    139  H   UNL A   1      44.609  23.647  37.459  1.00  0.00     0.052 H 
ATOM    140  H   UNL A   1      45.827  24.711  36.726  1.00  0.00     0.052 H 
ATOM    141  C   UNL A   1      44.941  21.635  34.850  1.00  0.00     0.126 C 
ATOM    142  O   UNL A   1      43.383  22.965  33.600  1.00  0.00    -0.272 OA
ATOM    143  O   UNL A   1      45.512  21.475  36.138  1.00  0.00    -0.370 OA
ATOM    144  H   UNL A   1      46.707  22.505  37.443  1.00  0.00     0.059 H 
ATOM    145  H   UNL A   1      46.953  22.876  35.753  1.00  0.00     0.059 H 
ATOM    146  H   UNL A   1      44.287  20.804  34.685  1.00  0.00     0.067 H 
ATOM    147  H   UNL A   1      45.780  21.701  34.190  1.00  0.00     0.067 H 
ENDBRANCH 132 135
ENDBRANCH 123 125
ENDBRANCH 120 123
ENDBRANCH 114 116
ENDBRANCH 106 114
ENDBRANCH 101 104
ENDBRANCH  97 100
ENDBRANCH   1  97
TORSDOF 18
ENDMDL
MODEL 3
REMARK VINA RESULT:     -12.3      5.293     10.696
REMARK SMILES O=C(NCCCCCCNC(=O)c1ccccc1Nc1nc(Cl)nc(Nc2ccc(N3CCOCC3=O)cc2)n1)c1ccc(-c2c3nc(c(-c4c(F)c(F)c(F)c(F)c4F)c4ccc([nH]4)c(-c4c(F)c(F)c(F)c(F)c4F)c4nc(c(-c5c(F)c(F)c(F)c(F)c5F)c5ccc2[nH]5)C=C4)C=C3)cc1
REMARK SMILES IDX 8 1 7 4 6 7 5 10 4 13 3 16 1 17 2 18 41 20 42 21 103 22
REMARK SMILES IDX 43 23 102 25 44 27 45 30 46 31 96 32 47 33 101 34 95 35
REMARK SMILES IDX 97 36 48 37 100 38 94 40 93 42 49 44 81 47 61 48 80 49 62 50
REMARK SMILES IDX 65 51 79 52 98 53 63 54 64 56 78 58 99 59 66 62 50 64 51 65
REMARK SMILES IDX 59 66 52 67 53 68 57 69 60 70 54 71 55 72 58 73 56 74 82 75
REMARK SMILES IDX 83 76 91 77 84 78 85 79 89 80 92 81 86 82 87 83 90 84 88 85
REMARK SMILES IDX 67 86 68 87 76 88 69 89 70 90 74 91 77 92 71 93 72 94 75 95
REMARK SMILES IDX 73 96 9 97 10 100 11 101 12 103 13 104 14 105 18 106 15 107
REMARK SMILES IDX 17 109 16 110 19 114 20 116 21 117 40 118 22 119 25 120
REMARK SMILES IDX 23 121 24 122 26 123 27 125 28 126 39 127 29 128 38 130
REMARK SMILES IDX 30 132 31 135 32 136 36 137 33 138 35 141 37 142 34 143
REMARK H PARENT 8 2 8 3 7 5 7 6 6 8 6 9 5 11 5 12 4 14 4 15 3 19 42 24 103 26
REMARK H PARENT 43 28 102 29 101 39 95 41 97 43 100 45 94 46 62 55 65 57 98 60
REMARK H PARENT 63 61 99 63 9 98 9 99 10 102 14 108 15 111 17 112 16 113
REMARK H PARENT 19 115 26 124 28 129 39 131 29 133 38 134 32 139 32 140 33 144
REMARK H PARENT 33 145 35 146 35 147
REMARK Flexibility Score: inf
ROOT
ATOM      1  C   UNL A   1      37.453  22.998  25.309  1.00  0.00    -0.036 C 
ATOM      2  H   UNL A   1      37.793  23.583  24.480  1.00  0.00     0.028 H 
ATOM      3  H   UNL A   1      37.490  23.517  26.243  1.00  0.00     0.028 H 
ENDROOT
BRANCH   1   4
ATOM      4  C   UNL A   1      38.391  21.794  25.455  1.00  0.00    -0.052 C 
ATOM      5  H   UNL A   1      37.813  20.968  25.812  1.00  0.00     0.027 H 
ATOM      6  H   UNL A   1      38.818  21.639  24.487  1.00  0.00     0.027 H 
BRANCH   4   7
ATOM      7  C   UNL A   1      39.576  21.985  26.408  1.00  0.00    -0.052 C 
ATOM      8  H   UNL A   1      40.310  22.580  25.907  1.00  0.00     0.027 H 
ATOM      9  H   UNL A   1      39.174  22.444  27.287  1.00  0.00     0.027 H 
BRANCH   7  10
ATOM     10  C   UNL A   1      40.255  20.698  26.880  1.00  0.00    -0.036 C 
ATOM     11  H   UNL A   1      41.259  20.938  27.163  1.00  0.00     0.028 H 
ATOM     12  H   UNL A   1      39.662  20.326  27.688  1.00  0.00     0.028 H 
BRANCH  10  13
ATOM     13  C   UNL A   1      40.311  19.581  25.844  1.00  0.00     0.018 C 
ATOM     14  H   UNL A   1      39.466  18.940  25.985  1.00  0.00     0.049 H 
ATOM     15  H   UNL A   1      40.303  20.035  24.875  1.00  0.00     0.049 H 
BRANCH  13  16
ATOM     16  N   UNL A   1      41.523  18.785  25.951  1.00  0.00    -0.352 N 
ATOM     17  O   UNL A   1      43.740  18.371  25.933  1.00  0.00    -0.269 OA
ATOM     18  C   UNL A   1      42.828  19.193  26.020  1.00  0.00     0.251 C 
ATOM     19  H   UNL A   1      41.384  17.810  25.978  1.00  0.00     0.163 HD
BRANCH  18  20
ATOM     20  C   UNL A   1      43.148  20.625  26.178  1.00  0.00     0.039 A 
ATOM     21  C   UNL A   1      43.333  21.449  25.062  1.00  0.00    -0.049 A 
ATOM     22  C   UNL A   1      43.238  21.156  27.467  1.00  0.00    -0.049 A 
ATOM     23  C   UNL A   1      43.719  22.775  25.235  1.00  0.00    -0.053 A 
ATOM     24  H   UNL A   1      43.185  21.073  24.113  1.00  0.00     0.063 H 
ATOM     25  C   UNL A   1      43.554  22.504  27.638  1.00  0.00    -0.053 A 
ATOM     26  H   UNL A   1      43.070  20.555  28.288  1.00  0.00     0.063 H 
ATOM     27  C   UNL A   1      43.819  23.318  26.524  1.00  0.00    -0.014 A 
ATOM     28  H   UNL A   1      43.931  23.360  24.412  1.00  0.00     0.063 H 
ATOM     29  H   UNL A   1      43.594  22.905  28.588  1.00  0.00     0.063 H 
BRANCH  27  30
ATOM     30  C   UNL A   1      44.148  24.751  26.714  1.00  0.00     0.031 A 
ATOM     31  C   UNL A   1      45.560  25.236  26.563  1.00  0.00     0.074 A 
ATOM     32  C   UNL A   1      43.173  25.605  27.077  1.00  0.00     0.049 A 
ATOM     33  N   UNL A   1      46.058  26.423  26.806  1.00  0.00    -0.248 NA
ATOM     34  C   UNL A   1      46.545  24.254  26.089  1.00  0.00    -0.034 C 
ATOM     35  C   UNL A   1      41.766  25.245  27.254  1.00  0.00    -0.036 A 
ATOM     36  N   UNL A   1      43.219  26.941  27.382  1.00  0.00    -0.354 N 
ATOM     37  C   UNL A   1      47.418  26.324  26.539  1.00  0.00     0.074 A 
ATOM     38  C   UNL A   1      47.669  24.954  26.141  1.00  0.00    -0.034 C 
ATOM     39  H   UNL A   1      46.399  23.276  25.794  1.00  0.00     0.065 H 
ATOM     40  C   UNL A   1      41.082  26.332  27.638  1.00  0.00    -0.036 A 
ATOM     41  H   UNL A   1      41.365  24.306  27.106  1.00  0.00     0.065 H 
ATOM     42  C   UNL A   1      42.011  27.446  27.796  1.00  0.00     0.049 A 
ATOM     43  H   UNL A   1      44.037  27.484  27.311  1.00  0.00     0.167 HD
ATOM     44  C   UNL A   1      48.364  27.290  26.619  1.00  0.00     0.037 A 
ATOM     45  H   UNL A   1      48.603  24.572  25.925  1.00  0.00     0.065 H 
ATOM     46  H   UNL A   1      40.062  26.375  27.796  1.00  0.00     0.065 H 
ATOM     47  C   UNL A   1      41.694  28.657  28.291  1.00  0.00     0.037 A 
ATOM     48  C   UNL A   1      48.097  28.649  27.017  1.00  0.00     0.049 A 
ATOM     49  C   UNL A   1      42.766  29.700  28.416  1.00  0.00     0.074 A 
ATOM     50  C   UNL A   1      48.975  29.716  27.091  1.00  0.00    -0.036 A 
ATOM     51  N   UNL A   1      46.858  29.124  27.427  1.00  0.00    -0.354 N 
ATOM     52  N   UNL A   1      44.040  29.612  28.126  1.00  0.00    -0.248 NA
ATOM     53  C   UNL A   1      42.357  31.012  28.936  1.00  0.00    -0.034 C 
ATOM     54  C   UNL A   1      48.284  30.817  27.605  1.00  0.00    -0.036 A 
ATOM     55  H   UNL A   1      49.969  29.701  26.814  1.00  0.00     0.065 H 
ATOM     56  C   UNL A   1      46.957  30.459  27.785  1.00  0.00     0.049 A 
ATOM     57  H   UNL A   1      46.031  28.592  27.458  1.00  0.00     0.167 HD
ATOM     58  C   UNL A   1      44.582  30.860  28.397  1.00  0.00     0.074 A 
ATOM     59  C   UNL A   1      43.497  31.690  28.876  1.00  0.00    -0.034 C 
ATOM     60  H   UNL A   1      41.429  31.323  29.262  1.00  0.00     0.065 H 
ATOM     61  H   UNL A   1      48.693  31.741  27.817  1.00  0.00     0.065 H 
ATOM     62  C   UNL A   1      45.864  31.278  28.250  1.00  0.00     0.037 A 
ATOM     63  H   UNL A   1      43.596  32.683  29.138  1.00  0.00     0.065 H 
BRANCH  44  64
ATOM     64  C   UNL A   1      49.783  26.899  26.309  1.00  0.00     0.064 A 
ATOM     65  C   UNL A   1      50.685  26.512  27.312  1.00  0.00     0.173 A 
ATOM     66  C   UNL A   1      50.244  26.903  24.983  1.00  0.00     0.173 A 
ATOM     67  F   UNL A   1      50.300  26.496  28.597  1.00  0.00    -0.203 F 
ATOM     68  C   UNL A   1      52.005  26.188  27.005  1.00  0.00     0.198 A 
ATOM     69  C   UNL A   1      51.554  26.544  24.675  1.00  0.00     0.198 A 
ATOM     70  F   UNL A   1      49.423  27.251  23.981  1.00  0.00    -0.203 F 
ATOM     71  F   UNL A   1      52.864  25.885  27.988  1.00  0.00    -0.200 F 
ATOM     72  C   UNL A   1      52.437  26.200  25.688  1.00  0.00     0.200 A 
ATOM     73  F   UNL A   1      51.964  26.538  23.399  1.00  0.00    -0.200 F 
ATOM     74  F   UNL A   1      53.707  25.888  25.393  1.00  0.00    -0.200 F 
ENDBRANCH  44  64
BRANCH  47  75
ATOM     75  C   UNL A   1      40.294  28.921  28.707  1.00  0.00     0.064 A 
ATOM     76  C   UNL A   1      39.307  29.234  27.764  1.00  0.00     0.173 A 
ATOM     77  C   UNL A   1      39.903  28.806  30.051  1.00  0.00     0.173 A 
ATOM     78  F   UNL A   1      39.636  29.368  26.470  1.00  0.00    -0.203 F 
ATOM     79  C   UNL A   1      37.981  29.423  28.149  1.00  0.00     0.198 A 
ATOM     80  C   UNL A   1      38.572  28.967  30.429  1.00  0.00     0.198 A 
ATOM     81  F   UNL A   1      40.810  28.499  30.989  1.00  0.00    -0.203 F 
ATOM     82  F   UNL A   1      37.060  29.745  27.230  1.00  0.00    -0.200 F 
ATOM     83  C   UNL A   1      37.614  29.280  29.479  1.00  0.00     0.200 A 
ATOM     84  F   UNL A   1      38.219  28.807  31.712  1.00  0.00    -0.200 F 
ATOM     85  F   UNL A   1      36.335  29.441  29.843  1.00  0.00    -0.200 F 
ENDBRANCH  47  75
BRANCH  62  86
ATOM     86  C   UNL A   1      46.164  32.717  28.558  1.00  0.00     0.064 A 
ATOM     87  C   UNL A   1      46.031  33.726  27.594  1.00  0.00     0.173 A 
ATOM     88  C   UNL A   1      46.514  33.097  29.864  1.00  0.00     0.173 A 
ATOM     89  F   UNL A   1      45.715  33.413  26.328  1.00  0.00    -0.203 F 
ATOM     90  C   UNL A   1      46.244  35.062  27.924  1.00  0.00     0.198 A 
ATOM     91  C   UNL A   1      46.697  34.436  30.197  1.00  0.00     0.198 A 
ATOM     92  F   UNL A   1      46.652  32.170  30.823  1.00  0.00    -0.203 F 
ATOM     93  F   UNL A   1      46.142  36.008  26.980  1.00  0.00    -0.200 F 
ATOM     94  C   UNL A   1      46.564  35.416  29.226  1.00  0.00     0.200 A 
ATOM     95  F   UNL A   1      46.992  34.776  31.459  1.00  0.00    -0.200 F 
ATOM     96  F   UNL A   1      46.748  36.705  29.546  1.00  0.00    -0.200 F 
ENDBRANCH  62  86
ENDBRANCH  27  30
ENDBRANCH  18  20
ENDBRANCH  13  16
ENDBRANCH  10  13
ENDBRANCH   7  10
ENDBRANCH   4   7
ENDBRANCH   1   4
BRANCH   1  97
ATOM     97  C   UNL A   1      35.985  22.654  25.072  1.00  0.00     0.018 C 
ATOM     98  H   UNL A   1      35.930  21.828  24.393  1.00  0.00     0.049 H 
ATOM     99  H   UNL A   1      35.507  23.523  24.670  1.00  0.00     0.049 H 
BRANCH  97 100
ATOM    100  N   UNL A   1      35.296  22.295  26.301  1.00  0.00    -0.352 N 
ATOM    101  C   UNL A   1      34.238  21.440  26.479  1.00  0.00     0.253 C 
ATOM    102  H   UNL A   1      35.636  22.726  27.118  1.00  0.00     0.163 HD
ATOM    103  O   UNL A   1      33.728  21.317  27.588  1.00  0.00    -0.269 OA
BRANCH 101 104
ATOM    104  C   UNL A   1      33.689  20.678  25.337  1.00  0.00     0.063 A 
ATOM    105  C   UNL A   1      34.043  19.323  25.259  1.00  0.00    -0.047 A 
ATOM    106  C   UNL A   1      32.877  21.273  24.352  1.00  0.00     0.054 A 
ATOM    107  C   UNL A   1      33.547  18.528  24.227  1.00  0.00    -0.061 A 
ATOM    108  H   UNL A   1      34.672  18.913  25.967  1.00  0.00     0.063 H 
ATOM    109  C   UNL A   1      32.352  20.437  23.352  1.00  0.00    -0.038 A 
ATOM    110  C   UNL A   1      32.690  19.083  23.283  1.00  0.00    -0.060 A 
ATOM    111  H   UNL A   1      33.815  17.534  24.164  1.00  0.00     0.062 H 
ATOM    112  H   UNL A   1      31.703  20.832  22.654  1.00  0.00     0.064 H 
ATOM    113  H   UNL A   1      32.302  18.493  22.530  1.00  0.00     0.062 H 
BRANCH 106 114
ATOM    114  N   UNL A   1      32.592  22.648  24.362  1.00  0.00    -0.323 N 
ATOM    115  H   UNL A   1      33.135  23.192  23.749  1.00  0.00     0.170 HD
BRANCH 114 116
ATOM    116  C   UNL A   1      31.656  23.353  25.107  1.00  0.00     0.233 A 
ATOM    117  N   UNL A   1      30.858  22.706  25.941  1.00  0.00    -0.182 NA
ATOM    118  N   UNL A   1      31.630  24.667  24.922  1.00  0.00    -0.176 NA
ATOM    119  C   UNL A   1      30.019  23.491  26.590  1.00  0.00     0.228 A 
ATOM    120  C   UNL A   1      30.688  25.342  25.575  1.00  0.00     0.233 A 
ATOM    121  Cl  UNL A   1      28.966  22.718  27.691  1.00  0.00    -0.041 Cl
ATOM    122  N   UNL A   1      29.873  24.796  26.462  1.00  0.00    -0.182 NA
BRANCH 120 123
ATOM    123  N   UNL A   1      30.508  26.662  25.173  1.00  0.00    -0.324 N 
ATOM    124  H   UNL A   1      29.901  26.798  24.409  1.00  0.00     0.170 HD
BRANCH 123 125
ATOM    125  C   UNL A   1      31.073  27.820  25.710  1.00  0.00     0.041 A 
ATOM    126  C   UNL A   1      31.456  27.846  27.055  1.00  0.00    -0.036 A 
ATOM    127  C   UNL A   1      31.368  28.926  24.911  1.00  0.00    -0.036 A 
ATOM    128  C   UNL A   1      32.129  28.953  27.588  1.00  0.00    -0.036 A 
ATOM    129  H   UNL A   1      31.240  27.041  27.662  1.00  0.00     0.065 H 
ATOM    130  C   UNL A   1      31.985  30.055  25.453  1.00  0.00    -0.036 A 
ATOM    131  H   UNL A   1      31.127  28.910  23.908  1.00  0.00     0.065 H 
ATOM    132  C   UNL A   1      32.384  30.074  26.793  1.00  0.00     0.044 A 
ATOM    133  H   UNL A   1      32.438  28.939  28.573  1.00  0.00     0.065 H 
ATOM    134  H   UNL A   1      32.148  30.883  24.859  1.00  0.00     0.065 H 
BRANCH 132 135
ATOM    135  N   UNL A   1      33.078  31.200  27.321  1.00  0.00    -0.308 N 
ATOM    136  C   UNL A   1      34.522  31.046  27.537  1.00  0.00     0.049 C 
ATOM    137  C   UNL A   1      32.487  32.469  27.310  1.00  0.00     0.253 C 
ATOM    138  C   UNL A   1      35.143  32.200  28.314  1.00  0.00     0.065 C 
ATOM    139  H   UNL A   1      35.002  30.982  26.583  1.00  0.00     0.052 H 
ATOM    140  H   UNL A   1      34.662  30.160  28.119  1.00  0.00     0.052 H 
ATOM    141  C   UNL A   1      33.392  33.627  27.756  1.00  0.00     0.126 C 
ATOM    142  O   UNL A   1      31.296  32.683  27.068  1.00  0.00    -0.272 OA
ATOM    143  O   UNL A   1      34.796  33.433  27.691  1.00  0.00    -0.370 OA
ATOM    144  H   UNL A   1      36.207  32.092  28.323  1.00  0.00     0.059 H 
ATOM    145  H   UNL A   1      34.773  32.193  29.318  1.00  0.00     0.059 H 
ATOM    146  H   UNL A   1      33.157  34.471  27.140  1.00  0.00     0.067 H 
ATOM    147  H   UNL A   1      33.185  33.745  28.799  1.00  0.00     0.067 H 
ENDBRANCH 132 135
ENDBRANCH 123 125
ENDBRANCH 120 123
ENDBRANCH 114 116
ENDBRANCH 106 114
ENDBRANCH 101 104
ENDBRANCH  97 100
ENDBRANCH   1  97
TORSDOF 18
ENDMDL
MODEL 4
REMARK VINA RESULT:     -12.3      4.587     12.182
REMARK SMILES O=C(NCCCCCCNC(=O)c1ccccc1Nc1nc(Cl)nc(Nc2ccc(N3CCOCC3=O)cc2)n1)c1ccc(-c2c3nc(c(-c4c(F)c(F)c(F)c(F)c4F)c4ccc([nH]4)c(-c4c(F)c(F)c(F)c(F)c4F)c4nc(c(-c5c(F)c(F)c(F)c(F)c5F)c5ccc2[nH]5)C=C4)C=C3)cc1
REMARK SMILES IDX 8 1 7 4 6 7 5 10 4 13 3 16 1 17 2 18 41 20 42 21 103 22
REMARK SMILES IDX 43 23 102 25 44 27 45 30 46 31 96 32 47 33 101 34 95 35
REMARK SMILES IDX 97 36 48 37 100 38 94 40 93 42 49 44 81 47 61 48 80 49 62 50
REMARK SMILES IDX 65 51 79 52 98 53 63 54 64 56 78 58 99 59 66 62 50 64 51 65
REMARK SMILES IDX 59 66 52 67 53 68 57 69 60 70 54 71 55 72 58 73 56 74 82 75
REMARK SMILES IDX 83 76 91 77 84 78 85 79 89 80 92 81 86 82 87 83 90 84 88 85
REMARK SMILES IDX 67 86 68 87 76 88 69 89 70 90 74 91 77 92 71 93 72 94 75 95
REMARK SMILES IDX 73 96 9 97 10 100 11 101 12 103 13 104 14 105 18 106 15 107
REMARK SMILES IDX 17 109 16 110 19 114 20 116 21 117 40 118 22 119 25 120
REMARK SMILES IDX 23 121 24 122 26 123 27 125 28 126 39 127 29 128 38 130
REMARK SMILES IDX 30 132 31 135 32 136 36 137 33 138 35 141 37 142 34 143
REMARK H PARENT 8 2 8 3 7 5 7 6 6 8 6 9 5 11 5 12 4 14 4 15 3 19 42 24 103 26
REMARK H PARENT 43 28 102 29 101 39 95 41 97 43 100 45 94 46 62 55 65 57 98 60
REMARK H PARENT 63 61 99 63 9 98 9 99 10 102 14 108 15 111 17 112 16 113
REMARK H PARENT 19 115 26 124 28 129 39 131 29 133 38 134 32 139 32 140 33 144
REMARK H PARENT 33 145 35 146 35 147
REMARK Flexibility Score: inf
ROOT
ATOM      1  C   UNL A   1      44.941  25.266  31.381  1.00  0.00    -0.036 C 
ATOM      2  H   UNL A   1      45.974  25.509  31.521  1.00  0.00     0.028 H 
ATOM      3  H   UNL A   1      44.278  26.078  31.590  1.00  0.00     0.028 H 
ENDROOT
BRANCH   1   4
ATOM      4  C   UNL A   1      44.578  24.154  32.372  1.00  0.00    -0.052 C 
ATOM      5  H   UNL A   1      43.635  23.745  32.075  1.00  0.00     0.027 H 
ATOM      6  H   UNL A   1      45.387  23.456  32.335  1.00  0.00     0.027 H 
BRANCH   4   7
ATOM      7  C   UNL A   1      44.464  24.582  33.838  1.00  0.00    -0.052 C 
ATOM      8  H   UNL A   1      44.578  25.645  33.882  1.00  0.00     0.027 H 
ATOM      9  H   UNL A   1      43.508  24.237  34.171  1.00  0.00     0.027 H 
BRANCH   7  10
ATOM     10  C   UNL A   1      45.489  23.959  34.788  1.00  0.00    -0.036 C 
ATOM     11  H   UNL A   1      45.006  23.780  35.726  1.00  0.00     0.028 H 
ATOM     12  H   UNL A   1      45.836  23.068  34.310  1.00  0.00     0.028 H 
BRANCH  10  13
ATOM     13  C   UNL A   1      46.726  24.811  35.050  1.00  0.00     0.018 C 
ATOM     14  H   UNL A   1      47.595  24.242  34.792  1.00  0.00     0.049 H 
ATOM     15  H   UNL A   1      46.645  25.696  34.453  1.00  0.00     0.049 H 
BRANCH  13  16
ATOM     16  N   UNL A   1      46.833  25.222  36.440  1.00  0.00    -0.352 N 
ATOM     17  O   UNL A   1      46.591  26.578  38.226  1.00  0.00    -0.269 OA
ATOM     18  C   UNL A   1      46.249  26.282  37.081  1.00  0.00     0.251 C 
ATOM     19  H   UNL A   1      47.409  24.655  37.003  1.00  0.00     0.163 HD
BRANCH  18  20
ATOM     20  C   UNL A   1      45.222  27.088  36.393  1.00  0.00     0.039 A 
ATOM     21  C   UNL A   1      43.859  26.866  36.624  1.00  0.00    -0.049 A 
ATOM     22  C   UNL A   1      45.632  28.100  35.523  1.00  0.00    -0.049 A 
ATOM     23  C   UNL A   1      42.908  27.579  35.901  1.00  0.00    -0.053 A 
ATOM     24  H   UNL A   1      43.561  26.175  37.329  1.00  0.00     0.063 H 
ATOM     25  C   UNL A   1      44.677  28.863  34.852  1.00  0.00    -0.053 A 
ATOM     26  H   UNL A   1      46.637  28.283  35.378  1.00  0.00     0.063 H 
ATOM     27  C   UNL A   1      43.308  28.594  35.018  1.00  0.00    -0.014 A 
ATOM     28  H   UNL A   1      41.906  27.362  36.014  1.00  0.00     0.063 H 
ATOM     29  H   UNL A   1      44.978  29.630  34.229  1.00  0.00     0.063 H 
BRANCH  27  30
ATOM     30  C   UNL A   1      42.299  29.414  34.306  1.00  0.00     0.031 A 
ATOM     31  C   UNL A   1      41.685  30.612  34.966  1.00  0.00     0.074 A 
ATOM     32  C   UNL A   1      41.901  29.039  33.076  1.00  0.00     0.049 A 
ATOM     33  N   UNL A   1      40.706  31.377  34.550  1.00  0.00    -0.248 NA
ATOM     34  C   UNL A   1      42.234  30.995  36.275  1.00  0.00    -0.034 C 
ATOM     35  C   UNL A   1      42.429  27.892  32.336  1.00  0.00    -0.036 A 
ATOM     36  N   UNL A   1      40.949  29.567  32.242  1.00  0.00    -0.354 N 
ATOM     37  C   UNL A   1      40.505  32.314  35.555  1.00  0.00     0.074 A 
ATOM     38  C   UNL A   1      41.447  32.006  36.612  1.00  0.00    -0.034 C 
ATOM     39  H   UNL A   1      43.025  30.584  36.794  1.00  0.00     0.065 H 
ATOM     40  C   UNL A   1      41.793  27.800  31.160  1.00  0.00    -0.036 A 
ATOM     41  H   UNL A   1      43.171  27.256  32.667  1.00  0.00     0.065 H 
ATOM     42  C   UNL A   1      40.772  28.840  31.091  1.00  0.00     0.049 A 
ATOM     43  H   UNL A   1      40.443  30.385  32.449  1.00  0.00     0.167 HD
ATOM     44  C   UNL A   1      39.616  33.336  35.587  1.00  0.00     0.037 A 
ATOM     45  H   UNL A   1      41.497  32.509  37.511  1.00  0.00     0.065 H 
ATOM     46  H   UNL A   1      41.993  27.106  30.422  1.00  0.00     0.065 H 
ATOM     47  C   UNL A   1      39.860  28.968  30.109  1.00  0.00     0.037 A 
ATOM     48  C   UNL A   1      38.685  33.629  34.527  1.00  0.00     0.049 A 
ATOM     49  C   UNL A   1      38.853  30.079  30.185  1.00  0.00     0.074 A 
ATOM     50  C   UNL A   1      37.773  34.665  34.440  1.00  0.00    -0.036 A 
ATOM     51  N   UNL A   1      38.538  32.871  33.372  1.00  0.00    -0.354 N 
ATOM     52  N   UNL A   1      38.693  30.984  31.118  1.00  0.00    -0.248 NA
ATOM     53  C   UNL A   1      37.900  30.188  29.072  1.00  0.00    -0.034 C 
ATOM     54  C   UNL A   1      37.030  34.498  33.267  1.00  0.00    -0.036 A 
ATOM     55  H   UNL A   1      37.660  35.430  35.124  1.00  0.00     0.065 H 
ATOM     56  C   UNL A   1      37.527  33.399  32.584  1.00  0.00     0.049 A 
ATOM     57  H   UNL A   1      39.073  32.076  33.146  1.00  0.00     0.167 HD
ATOM     58  C   UNL A   1      37.646  31.789  30.695  1.00  0.00     0.074 A 
ATOM     59  C   UNL A   1      37.206  31.264  29.419  1.00  0.00    -0.034 C 
ATOM     60  H   UNL A   1      37.798  29.586  28.240  1.00  0.00     0.065 H 
ATOM     61  H   UNL A   1      36.243  35.092  32.962  1.00  0.00     0.065 H 
ATOM     62  C   UNL A   1      37.106  32.872  31.309  1.00  0.00     0.037 A 
ATOM     63  H   UNL A   1      36.448  31.675  28.851  1.00  0.00     0.065 H 
BRANCH  44  64
ATOM     64  C   UNL A   1      39.581  34.186  36.827  1.00  0.00     0.064 A 
ATOM     65  C   UNL A   1      38.850  33.813  37.966  1.00  0.00     0.173 A 
ATOM     66  C   UNL A   1      40.300  35.391  36.880  1.00  0.00     0.173 A 
ATOM     67  F   UNL A   1      38.140  32.675  37.969  1.00  0.00    -0.203 F 
ATOM     68  C   UNL A   1      38.803  34.634  39.091  1.00  0.00     0.198 A 
ATOM     69  C   UNL A   1      40.281  36.192  38.019  1.00  0.00     0.198 A 
ATOM     70  F   UNL A   1      41.027  35.792  35.827  1.00  0.00    -0.203 F 
ATOM     71  F   UNL A   1      38.046  34.286  40.140  1.00  0.00    -0.200 F 
ATOM     72  C   UNL A   1      39.521  35.820  39.118  1.00  0.00     0.200 A 
ATOM     73  F   UNL A   1      40.991  37.328  38.049  1.00  0.00    -0.200 F 
ATOM     74  F   UNL A   1      39.477  36.609  40.201  1.00  0.00    -0.200 F 
ENDBRANCH  44  64
BRANCH  47  75
ATOM     75  C   UNL A   1      39.872  28.000  28.983  1.00  0.00     0.064 A 
ATOM     76  C   UNL A   1      40.503  28.308  27.772  1.00  0.00     0.173 A 
ATOM     77  C   UNL A   1      39.305  26.722  29.120  1.00  0.00     0.173 A 
ATOM     78  F   UNL A   1      41.046  29.521  27.590  1.00  0.00    -0.203 F 
ATOM     79  C   UNL A   1      40.565  27.377  26.738  1.00  0.00     0.198 A 
ATOM     80  C   UNL A   1      39.393  25.783  28.096  1.00  0.00     0.198 A 
ATOM     81  F   UNL A   1      38.698  26.377  30.265  1.00  0.00    -0.203 F 
ATOM     82  F   UNL A   1      41.154  27.705  25.579  1.00  0.00    -0.200 F 
ATOM     83  C   UNL A   1      40.019  26.112  26.904  1.00  0.00     0.200 A 
ATOM     84  F   UNL A   1      38.883  24.556  28.270  1.00  0.00    -0.200 F 
ATOM     85  F   UNL A   1      40.099  25.211  25.917  1.00  0.00    -0.200 F 
ENDBRANCH  47  75
BRANCH  62  86
ATOM     86  C   UNL A   1      36.012  33.605  30.588  1.00  0.00     0.064 A 
ATOM     87  C   UNL A   1      36.136  33.992  29.246  1.00  0.00     0.173 A 
ATOM     88  C   UNL A   1      34.789  33.852  31.233  1.00  0.00     0.173 A 
ATOM     89  F   UNL A   1      37.290  33.794  28.590  1.00  0.00    -0.203 F 
ATOM     90  C   UNL A   1      35.079  34.606  28.579  1.00  0.00     0.198 A 
ATOM     91  C   UNL A   1      33.725  34.438  30.554  1.00  0.00     0.198 A 
ATOM     92  F   UNL A   1      34.620  33.499  32.516  1.00  0.00    -0.203 F 
ATOM     93  F   UNL A   1      35.229  34.995  27.305  1.00  0.00    -0.200 F 
ATOM     94  C   UNL A   1      33.872  34.816  29.229  1.00  0.00     0.200 A 
ATOM     95  F   UNL A   1      32.556  34.627  31.181  1.00  0.00    -0.200 F 
ATOM     96  F   UNL A   1      32.849  35.387  28.578  1.00  0.00    -0.200 F 
ENDBRANCH  62  86
ENDBRANCH  27  30
ENDBRANCH  18  20
ENDBRANCH  13  16
ENDBRANCH  10  13
ENDBRANCH   7  10
ENDBRANCH   4   7
ENDBRANCH   1   4
BRANCH   1  97
ATOM     97  C   UNL A   1      44.735  24.918  29.908  1.00  0.00     0.018 C 
ATOM     98  H   UNL A   1      44.290  25.757  29.415  1.00  0.00     0.049 H 
ATOM     99  H   UNL A   1      44.102  24.057  29.862  1.00  0.00     0.049 H 
BRANCH  97 100
ATOM    100  N   UNL A   1      45.982  24.590  29.238  1.00  0.00    -0.352 N 
ATOM    101  C   UNL A   1      46.244  24.513  27.894  1.00  0.00     0.253 C 
ATOM    102  H   UNL A   1      46.744  24.397  29.831  1.00  0.00     0.163 HD
ATOM    103  O   UNL A   1      47.347  24.141  27.503  1.00  0.00    -0.269 OA
BRANCH 101 104
ATOM    104  C   UNL A   1      45.200  24.854  26.905  1.00  0.00     0.063 A 
ATOM    105  C   UNL A   1      45.151  26.190  26.479  1.00  0.00    -0.047 A 
ATOM    106  C   UNL A   1      44.273  23.908  26.427  1.00  0.00     0.054 A 
ATOM    107  C   UNL A   1      44.212  26.589  25.530  1.00  0.00    -0.061 A 
ATOM    108  H   UNL A   1      45.811  26.880  26.870  1.00  0.00     0.063 H 
ATOM    109  C   UNL A   1      43.370  24.327  25.434  1.00  0.00    -0.038 A 
ATOM    110  C   UNL A   1      43.332  25.653  24.998  1.00  0.00    -0.060 A 
ATOM    111  H   UNL A   1      44.169  27.574  25.224  1.00  0.00     0.062 H 
ATOM    112  H   UNL A   1      42.722  23.640  25.020  1.00  0.00     0.064 H 
ATOM    113  H   UNL A   1      42.650  25.939  24.278  1.00  0.00     0.062 H 
BRANCH 106 114
ATOM    114  N   UNL A   1      44.247  22.590  26.912  1.00  0.00    -0.323 N 
ATOM    115  H   UNL A   1      44.620  22.470  27.815  1.00  0.00     0.170 HD
BRANCH 114 116
ATOM    116  C   UNL A   1      43.772  21.433  26.310  1.00  0.00     0.233 A 
ATOM    117  N   UNL A   1      44.489  20.841  25.369  1.00  0.00    -0.182 NA
ATOM    118  N   UNL A   1      42.596  20.991  26.738  1.00  0.00    -0.176 NA
ATOM    119  C   UNL A   1      43.928  19.750  24.881  1.00  0.00     0.228 A 
ATOM    120  C   UNL A   1      42.098  19.926  26.115  1.00  0.00     0.233 A 
ATOM    121  Cl  UNL A   1      44.808  18.932  23.667  1.00  0.00    -0.041 Cl
ATOM    122  N   UNL A   1      42.754  19.239  25.195  1.00  0.00    -0.182 NA
BRANCH 120 123
ATOM    123  N   UNL A   1      40.764  19.638  26.392  1.00  0.00    -0.324 N 
ATOM    124  H   UNL A   1      40.610  18.907  27.035  1.00  0.00     0.170 HD
BRANCH 123 125
ATOM    125  C   UNL A   1      39.617  20.247  25.881  1.00  0.00     0.041 A 
ATOM    126  C   UNL A   1      38.645  19.469  25.243  1.00  0.00    -0.036 A 
ATOM    127  C   UNL A   1      39.359  21.603  26.083  1.00  0.00    -0.036 A 
ATOM    128  C   UNL A   1      37.434  20.036  24.824  1.00  0.00    -0.036 A 
ATOM    129  H   UNL A   1      38.821  18.466  25.079  1.00  0.00     0.065 H 
ATOM    130  C   UNL A   1      38.180  22.185  25.614  1.00  0.00    -0.036 A 
ATOM    131  H   UNL A   1      40.049  22.184  26.585  1.00  0.00     0.065 H 
ATOM    132  C   UNL A   1      37.200  21.404  24.993  1.00  0.00     0.044 A 
ATOM    133  H   UNL A   1      36.712  19.440  24.390  1.00  0.00     0.065 H 
ATOM    134  H   UNL A   1      38.030  23.199  25.727  1.00  0.00     0.065 H 
BRANCH 132 135
ATOM    135  N   UNL A   1      35.968  21.989  24.582  1.00  0.00    -0.308 N 
ATOM    136  C   UNL A   1      36.048  23.272  23.874  1.00  0.00     0.049 C 
ATOM    137  C   UNL A   1      34.794  21.226  24.552  1.00  0.00     0.253 C 
ATOM    138  C   UNL A   1      34.692  23.939  23.678  1.00  0.00     0.065 C 
ATOM    139  H   UNL A   1      36.484  23.103  22.912  1.00  0.00     0.052 H 
ATOM    140  H   UNL A   1      36.640  23.929  24.476  1.00  0.00     0.052 H 
ATOM    141  C   UNL A   1      33.567  21.920  23.940  1.00  0.00     0.126 C 
ATOM    142  O   UNL A   1      34.674  20.110  25.063  1.00  0.00    -0.272 OA
ATOM    143  O   UNL A   1      33.793  23.017  23.070  1.00  0.00    -0.370 OA
ATOM    144  H   UNL A   1      34.804  24.797  23.049  1.00  0.00     0.059 H 
ATOM    145  H   UNL A   1      34.303  24.241  24.628  1.00  0.00     0.059 H 
ATOM    146  H   UNL A   1      33.026  21.179  23.387  1.00  0.00     0.067 H 
ATOM    147  H   UNL A   1      33.051  22.341  24.776  1.00  0.00     0.067 H 
ENDBRANCH 132 135
ENDBRANCH 123 125
ENDBRANCH 120 123
ENDBRANCH 114 116
ENDBRANCH 106 114
ENDBRANCH 101 104
ENDBRANCH  97 100
ENDBRANCH   1  97
TORSDOF 18
ENDMDL
MODEL 5
REMARK VINA RESULT:     -12.2      5.217     11.498
REMARK SMILES O=C(NCCCCCCNC(=O)c1ccccc1Nc1nc(Cl)nc(Nc2ccc(N3CCOCC3=O)cc2)n1)c1ccc(-c2c3nc(c(-c4c(F)c(F)c(F)c(F)c4F)c4ccc([nH]4)c(-c4c(F)c(F)c(F)c(F)c4F)c4nc(c(-c5c(F)c(F)c(F)c(F)c5F)c5ccc2[nH]5)C=C4)C=C3)cc1
REMARK SMILES IDX 8 1 7 4 6 7 5 10 4 13 3 16 1 17 2 18 41 20 42 21 103 22
REMARK SMILES IDX 43 23 102 25 44 27 45 30 46 31 96 32 47 33 101 34 95 35
REMARK SMILES IDX 97 36 48 37 100 38 94 40 93 42 49 44 81 47 61 48 80 49 62 50
REMARK SMILES IDX 65 51 79 52 98 53 63 54 64 56 78 58 99 59 66 62 50 64 51 65
REMARK SMILES IDX 59 66 52 67 53 68 57 69 60 70 54 71 55 72 58 73 56 74 82 75
REMARK SMILES IDX 83 76 91 77 84 78 85 79 89 80 92 81 86 82 87 83 90 84 88 85
REMARK SMILES IDX 67 86 68 87 76 88 69 89 70 90 74 91 77 92 71 93 72 94 75 95
REMARK SMILES IDX 73 96 9 97 10 100 11 101 12 103 13 104 14 105 18 106 15 107
REMARK SMILES IDX 17 109 16 110 19 114 20 116 21 117 40 118 22 119 25 120
REMARK SMILES IDX 23 121 24 122 26 123 27 125 28 126 39 127 29 128 38 130
REMARK SMILES IDX 30 132 31 135 32 136 36 137 33 138 35 141 37 142 34 143
REMARK H PARENT 8 2 8 3 7 5 7 6 6 8 6 9 5 11 5 12 4 14 4 15 3 19 42 24 103 26
REMARK H PARENT 43 28 102 29 101 39 95 41 97 43 100 45 94 46 62 55 65 57 98 60
REMARK H PARENT 63 61 99 63 9 98 9 99 10 102 14 108 15 111 17 112 16 113
REMARK H PARENT 19 115 26 124 28 129 39 131 29 133 38 134 32 139 32 140 33 144
REMARK H PARENT 33 145 35 146 35 147
REMARK Flexibility Score: inf
ROOT
ATOM      1  C   UNL A   1      37.354  23.151  25.342  1.00  0.00    -0.036 C 
ATOM      2  H   UNL A   1      37.676  23.763  24.526  1.00  0.00     0.028 H 
ATOM      3  H   UNL A   1      37.409  23.639  26.292  1.00  0.00     0.028 H 
ENDROOT
BRANCH   1   4
ATOM      4  C   UNL A   1      38.296  21.945  25.429  1.00  0.00    -0.052 C 
ATOM      5  H   UNL A   1      37.716  21.095  25.722  1.00  0.00     0.027 H 
ATOM      6  H   UNL A   1      38.741  21.853  24.461  1.00  0.00     0.027 H 
BRANCH   4   7
ATOM      7  C   UNL A   1      39.462  22.080  26.413  1.00  0.00    -0.052 C 
ATOM      8  H   UNL A   1      40.207  22.700  25.959  1.00  0.00     0.027 H 
ATOM      9  H   UNL A   1      39.044  22.493  27.308  1.00  0.00     0.027 H 
BRANCH   7  10
ATOM     10  C   UNL A   1      40.130  20.768  26.828  1.00  0.00    -0.036 C 
ATOM     11  H   UNL A   1      41.146  20.981  27.088  1.00  0.00     0.028 H 
ATOM     12  H   UNL A   1      39.553  20.384  27.643  1.00  0.00     0.028 H 
BRANCH  10  13
ATOM     13  C   UNL A   1      40.133  19.681  25.760  1.00  0.00     0.018 C 
ATOM     14  H   UNL A   1      39.239  19.100  25.858  1.00  0.00     0.049 H 
ATOM     15  H   UNL A   1      40.187  20.162  24.805  1.00  0.00     0.049 H 
BRANCH  13  16
ATOM     16  N   UNL A   1      41.279  18.794  25.874  1.00  0.00    -0.352 N 
ATOM     17  O   UNL A   1      43.459  18.228  25.994  1.00  0.00    -0.269 OA
ATOM     18  C   UNL A   1      42.595  19.098  26.100  1.00  0.00     0.251 C 
ATOM     19  H   UNL A   1      41.080  17.834  25.775  1.00  0.00     0.163 HD
BRANCH  18  20
ATOM     20  C   UNL A   1      42.986  20.477  26.451  1.00  0.00     0.039 A 
ATOM     21  C   UNL A   1      42.982  20.911  27.782  1.00  0.00    -0.049 A 
ATOM     22  C   UNL A   1      43.390  21.341  25.431  1.00  0.00    -0.049 A 
ATOM     23  C   UNL A   1      43.271  22.239  28.079  1.00  0.00    -0.053 A 
ATOM     24  H   UNL A   1      42.763  20.247  28.540  1.00  0.00     0.063 H 
ATOM     25  C   UNL A   1      43.750  22.653  25.739  1.00  0.00    -0.053 A 
ATOM     26  H   UNL A   1      43.424  21.011  24.454  1.00  0.00     0.063 H 
ATOM     27  C   UNL A   1      43.671  23.119  27.062  1.00  0.00    -0.014 A 
ATOM     28  H   UNL A   1      43.192  22.577  29.050  1.00  0.00     0.063 H 
ATOM     29  H   UNL A   1      44.075  23.286  24.991  1.00  0.00     0.063 H 
BRANCH  27  30
ATOM     30  C   UNL A   1      44.060  24.513  27.383  1.00  0.00     0.031 A 
ATOM     31  C   UNL A   1      43.031  25.510  27.827  1.00  0.00     0.074 A 
ATOM     32  C   UNL A   1      45.342  24.889  27.220  1.00  0.00     0.049 A 
ATOM     33  N   UNL A   1      43.160  26.796  28.036  1.00  0.00    -0.248 NA
ATOM     34  C   UNL A   1      41.674  24.995  28.055  1.00  0.00    -0.034 C 
ATOM     35  C   UNL A   1      46.428  24.006  26.792  1.00  0.00    -0.036 A 
ATOM     36  N   UNL A   1      45.944  26.111  27.371  1.00  0.00    -0.354 N 
ATOM     37  C   UNL A   1      41.897  27.250  28.394  1.00  0.00     0.074 A 
ATOM     38  C   UNL A   1      41.011  26.104  28.349  1.00  0.00    -0.034 C 
ATOM     39  H   UNL A   1      41.327  24.025  28.000  1.00  0.00     0.065 H 
ATOM     40  C   UNL A   1      47.563  24.714  26.714  1.00  0.00    -0.036 A 
ATOM     41  H   UNL A   1      46.335  22.999  26.585  1.00  0.00     0.065 H 
ATOM     42  C   UNL A   1      47.272  26.111  27.022  1.00  0.00     0.049 A 
ATOM     43  H   UNL A   1      45.471  26.910  27.698  1.00  0.00     0.167 HD
ATOM     44  C   UNL A   1      41.518  28.507  28.729  1.00  0.00     0.037 A 
ATOM     45  H   UNL A   1      39.995  26.147  28.523  1.00  0.00     0.065 H 
ATOM     46  H   UNL A   1      48.493  24.334  26.475  1.00  0.00     0.065 H 
ATOM     47  C   UNL A   1      48.149  27.127  26.918  1.00  0.00     0.037 A 
ATOM     48  C   UNL A   1      42.412  29.636  28.769  1.00  0.00     0.049 A 
ATOM     49  C   UNL A   1      47.697  28.520  27.249  1.00  0.00     0.074 A 
ATOM     50  C   UNL A   1      42.140  30.941  29.136  1.00  0.00    -0.036 A 
ATOM     51  N   UNL A   1      43.754  29.594  28.411  1.00  0.00    -0.354 N 
ATOM     52  N   UNL A   1      46.513  28.935  27.623  1.00  0.00    -0.248 NA
ATOM     53  C   UNL A   1      48.703  29.586  27.145  1.00  0.00    -0.034 C 
ATOM     54  C   UNL A   1      43.296  31.702  28.940  1.00  0.00    -0.036 A 
ATOM     55  H   UNL A   1      41.238  31.293  29.494  1.00  0.00     0.065 H 
ATOM     56  C   UNL A   1      44.312  30.858  28.519  1.00  0.00     0.049 A 
ATOM     57  H   UNL A   1      44.238  28.787  28.124  1.00  0.00     0.167 HD
ATOM     58  C   UNL A   1      46.634  30.302  27.830  1.00  0.00     0.074 A 
ATOM     59  C   UNL A   1      48.010  30.647  27.537  1.00  0.00    -0.034 C 
ATOM     60  H   UNL A   1      49.688  29.525  26.844  1.00  0.00     0.065 H 
ATOM     61  H   UNL A   1      43.380  32.721  29.083  1.00  0.00     0.065 H 
ATOM     62  C   UNL A   1      45.689  31.186  28.235  1.00  0.00     0.037 A 
ATOM     63  H   UNL A   1      48.402  31.598  27.624  1.00  0.00     0.065 H 
BRANCH  44  64
ATOM     64  C   UNL A   1      40.063  28.732  29.039  1.00  0.00     0.064 A 
ATOM     65  C   UNL A   1      39.133  29.066  28.043  1.00  0.00     0.173 A 
ATOM     66  C   UNL A   1      39.592  28.603  30.355  1.00  0.00     0.173 A 
ATOM     67  F   UNL A   1      39.529  29.208  26.769  1.00  0.00    -0.203 F 
ATOM     68  C   UNL A   1      37.797  29.306  28.359  1.00  0.00     0.198 A 
ATOM     69  C   UNL A   1      38.250  28.808  30.663  1.00  0.00     0.198 A 
ATOM     70  F   UNL A   1      40.433  28.274  31.347  1.00  0.00    -0.203 F 
ATOM     71  F   UNL A   1      36.941  29.686  27.400  1.00  0.00    -0.200 F 
ATOM     72  C   UNL A   1      37.356  29.173  29.667  1.00  0.00     0.200 A 
ATOM     73  F   UNL A   1      37.822  28.661  31.924  1.00  0.00    -0.200 F 
ATOM     74  F   UNL A   1      36.071  29.403  29.970  1.00  0.00    -0.200 F 
ENDBRANCH  44  64
BRANCH  47  75
ATOM     75  C   UNL A   1      49.534  26.840  26.469  1.00  0.00     0.064 A 
ATOM     76  C   UNL A   1      50.516  26.425  27.376  1.00  0.00     0.173 A 
ATOM     77  C   UNL A   1      49.888  26.919  25.112  1.00  0.00     0.173 A 
ATOM     78  F   UNL A   1      50.229  26.348  28.685  1.00  0.00    -0.203 F 
ATOM     79  C   UNL A   1      51.800  26.099  26.945  1.00  0.00     0.198 A 
ATOM     80  C   UNL A   1      51.163  26.566  24.679  1.00  0.00     0.198 A 
ATOM     81  F   UNL A   1      48.979  27.304  24.203  1.00  0.00    -0.203 F 
ATOM     82  F   UNL A   1      52.729  25.726  27.837  1.00  0.00    -0.200 F 
ATOM     83  C   UNL A   1      52.119  26.160  25.597  1.00  0.00     0.200 A 
ATOM     84  F   UNL A   1      51.460  26.606  23.373  1.00  0.00    -0.200 F 
ATOM     85  F   UNL A   1      53.348  25.826  25.182  1.00  0.00    -0.200 F 
ENDBRANCH  47  75
BRANCH  62  86
ATOM     86  C   UNL A   1      46.114  32.611  28.443  1.00  0.00     0.064 A 
ATOM     87  C   UNL A   1      46.643  33.057  29.663  1.00  0.00     0.173 A 
ATOM     88  C   UNL A   1      46.063  33.522  27.376  1.00  0.00     0.173 A 
ATOM     89  F   UNL A   1      46.697  32.230  30.718  1.00  0.00    -0.203 F 
ATOM     90  C   UNL A   1      47.098  34.364  29.808  1.00  0.00     0.198 A 
ATOM     91  C   UNL A   1      46.547  34.820  27.517  1.00  0.00     0.198 A 
ATOM     92  F   UNL A   1      45.568  33.144  26.188  1.00  0.00    -0.203 F 
ATOM     93  F   UNL A   1      47.572  34.780  30.991  1.00  0.00    -0.200 F 
ATOM     94  C   UNL A   1      47.062  35.239  28.733  1.00  0.00     0.200 A 
ATOM     95  F   UNL A   1      46.523  35.658  26.472  1.00  0.00    -0.200 F 
ATOM     96  F   UNL A   1      47.521  36.492  28.869  1.00  0.00    -0.200 F 
ENDBRANCH  62  86
ENDBRANCH  27  30
ENDBRANCH  18  20
ENDBRANCH  13  16
ENDBRANCH  10  13
ENDBRANCH   7  10
ENDBRANCH   4   7
ENDBRANCH   1   4
BRANCH   1  97
ATOM     97  C   UNL A   1      35.881  22.812  25.124  1.00  0.00     0.018 C 
ATOM     98  H   UNL A   1      35.812  22.016  24.413  1.00  0.00     0.049 H 
ATOM     99  H   UNL A   1      35.392  23.696  24.771  1.00  0.00     0.049 H 
BRANCH  97 100
ATOM    100  N   UNL A   1      35.222  22.400  26.352  1.00  0.00    -0.352 N 
ATOM    101  C   UNL A   1      34.214  21.485  26.524  1.00  0.00     0.253 C 
ATOM    102  H   UNL A   1      35.543  22.837  27.173  1.00  0.00     0.163 HD
ATOM    103  O   UNL A   1      33.719  21.318  27.635  1.00  0.00    -0.269 OA
BRANCH 101 104
ATOM    104  C   UNL A   1      33.700  20.709  25.376  1.00  0.00     0.063 A 
ATOM    105  C   UNL A   1      34.079  19.360  25.310  1.00  0.00    -0.047 A 
ATOM    106  C   UNL A   1      32.897  21.285  24.373  1.00  0.00     0.054 A 
ATOM    107  C   UNL A   1      33.617  18.552  24.272  1.00  0.00    -0.061 A 
ATOM    108  H   UNL A   1      34.701  18.964  26.031  1.00  0.00     0.063 H 
ATOM    109  C   UNL A   1      32.406  20.437  23.366  1.00  0.00    -0.038 A 
ATOM    110  C   UNL A   1      32.769  19.089  23.310  1.00  0.00    -0.060 A 
ATOM    111  H   UNL A   1      33.903  17.563  24.218  1.00  0.00     0.062 H 
ATOM    112  H   UNL A   1      31.764  20.817  22.655  1.00  0.00     0.064 H 
ATOM    113  H   UNL A   1      32.406  18.489  22.552  1.00  0.00     0.062 H 
BRANCH 106 114
ATOM    114  N   UNL A   1      32.588  22.655  24.372  1.00  0.00    -0.323 N 
ATOM    115  H   UNL A   1      33.113  23.202  23.745  1.00  0.00     0.170 HD
BRANCH 114 116
ATOM    116  C   UNL A   1      31.650  23.353  25.122  1.00  0.00     0.233 A 
ATOM    117  N   UNL A   1      30.861  22.699  25.958  1.00  0.00    -0.182 NA
ATOM    118  N   UNL A   1      31.614  24.667  24.940  1.00  0.00    -0.176 NA
ATOM    119  C   UNL A   1      30.019  23.477  26.612  1.00  0.00     0.228 A 
ATOM    120  C   UNL A   1      30.670  25.334  25.597  1.00  0.00     0.233 A 
ATOM    121  Cl  UNL A   1      28.976  22.694  27.716  1.00  0.00    -0.041 Cl
ATOM    122  N   UNL A   1      29.863  24.780  26.487  1.00  0.00    -0.182 NA
BRANCH 120 123
ATOM    123  N   UNL A   1      30.479  26.654  25.198  1.00  0.00    -0.324 N 
ATOM    124  H   UNL A   1      29.865  26.786  24.439  1.00  0.00     0.170 HD
BRANCH 123 125
ATOM    125  C   UNL A   1      31.041  27.814  25.732  1.00  0.00     0.041 A 
ATOM    126  C   UNL A   1      31.457  27.834  27.068  1.00  0.00    -0.036 A 
ATOM    127  C   UNL A   1      31.303  28.931  24.936  1.00  0.00    -0.036 A 
ATOM    128  C   UNL A   1      32.128  28.944  27.595  1.00  0.00    -0.036 A 
ATOM    129  H   UNL A   1      31.266  27.020  27.673  1.00  0.00     0.065 H 
ATOM    130  C   UNL A   1      31.918  30.063  25.473  1.00  0.00    -0.036 A 
ATOM    131  H   UNL A   1      31.039  28.920  23.939  1.00  0.00     0.065 H 
ATOM    132  C   UNL A   1      32.349  30.075  26.803  1.00  0.00     0.044 A 
ATOM    133  H   UNL A   1      32.461  28.927  28.571  1.00  0.00     0.065 H 
ATOM    134  H   UNL A   1      32.057  30.898  24.883  1.00  0.00     0.065 H 
BRANCH 132 135
ATOM    135  N   UNL A   1      33.041  31.206  27.325  1.00  0.00    -0.308 N 
ATOM    136  C   UNL A   1      34.482  31.051  27.557  1.00  0.00     0.049 C 
ATOM    137  C   UNL A   1      32.454  32.476  27.292  1.00  0.00     0.253 C 
ATOM    138  C   UNL A   1      35.098  32.213  28.327  1.00  0.00     0.065 C 
ATOM    139  H   UNL A   1      34.972  30.974  26.609  1.00  0.00     0.052 H 
ATOM    140  H   UNL A   1      34.614  30.172  28.152  1.00  0.00     0.052 H 
ATOM    141  C   UNL A   1      33.358  33.637  27.734  1.00  0.00     0.126 C 
ATOM    142  O   UNL A   1      31.266  32.690  27.035  1.00  0.00    -0.272 OA
ATOM    143  O   UNL A   1      34.761  33.439  27.685  1.00  0.00    -0.370 OA
ATOM    144  H   UNL A   1      36.162  32.101  28.348  1.00  0.00     0.059 H 
ATOM    145  H   UNL A   1      34.719  32.219  29.327  1.00  0.00     0.059 H 
ATOM    146  H   UNL A   1      33.132  34.474  27.104  1.00  0.00     0.067 H 
ATOM    147  H   UNL A   1      33.140  33.769  28.772  1.00  0.00     0.067 H 
ENDBRANCH 132 135
ENDBRANCH 123 125
ENDBRANCH 120 123
ENDBRANCH 114 116
ENDBRANCH 106 114
ENDBRANCH 101 104
ENDBRANCH  97 100
ENDBRANCH   1  97
TORSDOF 18
ENDMDL
MODEL 6
REMARK VINA RESULT:     -12.2      5.028     11.527
REMARK SMILES O=C(NCCCCCCNC(=O)c1ccccc1Nc1nc(Cl)nc(Nc2ccc(N3CCOCC3=O)cc2)n1)c1ccc(-c2c3nc(c(-c4c(F)c(F)c(F)c(F)c4F)c4ccc([nH]4)c(-c4c(F)c(F)c(F)c(F)c4F)c4nc(c(-c5c(F)c(F)c(F)c(F)c5F)c5ccc2[nH]5)C=C4)C=C3)cc1
REMARK SMILES IDX 8 1 7 4 6 7 5 10 4 13 3 16 1 17 2 18 41 20 42 21 103 22
REMARK SMILES IDX 43 23 102 25 44 27 45 30 46 31 96 32 47 33 101 34 95 35
REMARK SMILES IDX 97 36 48 37 100 38 94 40 93 42 49 44 81 47 61 48 80 49 62 50
REMARK SMILES IDX 65 51 79 52 98 53 63 54 64 56 78 58 99 59 66 62 50 64 51 65
REMARK SMILES IDX 59 66 52 67 53 68 57 69 60 70 54 71 55 72 58 73 56 74 82 75
REMARK SMILES IDX 83 76 91 77 84 78 85 79 89 80 92 81 86 82 87 83 90 84 88 85
REMARK SMILES IDX 67 86 68 87 76 88 69 89 70 90 74 91 77 92 71 93 72 94 75 95
REMARK SMILES IDX 73 96 9 97 10 100 11 101 12 103 13 104 14 105 18 106 15 107
REMARK SMILES IDX 17 109 16 110 19 114 20 116 21 117 40 118 22 119 25 120
REMARK SMILES IDX 23 121 24 122 26 123 27 125 28 126 39 127 29 128 38 130
REMARK SMILES IDX 30 132 31 135 32 136 36 137 33 138 35 141 37 142 34 143
REMARK H PARENT 8 2 8 3 7 5 7 6 6 8 6 9 5 11 5 12 4 14 4 15 3 19 42 24 103 26
REMARK H PARENT 43 28 102 29 101 39 95 41 97 43 100 45 94 46 62 55 65 57 98 60
REMARK H PARENT 63 61 99 63 9 98 9 99 10 102 14 108 15 111 17 112 16 113
REMARK H PARENT 19 115 26 124 28 129 39 131 29 133 38 134 32 139 32 140 33 144
REMARK H PARENT 33 145 35 146 35 147
REMARK Flexibility Score: inf
ROOT
ATOM      1  C   UNL A   1      37.076  23.688  25.496  1.00  0.00    -0.036 C 
ATOM      2  H   UNL A   1      37.730  24.360  24.979  1.00  0.00     0.028 H 
ATOM      3  H   UNL A   1      36.909  23.955  26.518  1.00  0.00     0.028 H 
ENDROOT
BRANCH   1   4
ATOM      4  C   UNL A   1      37.740  22.306  25.521  1.00  0.00    -0.052 C 
ATOM      5  H   UNL A   1      37.114  21.651  26.089  1.00  0.00     0.027 H 
ATOM      6  H   UNL A   1      37.853  22.020  24.496  1.00  0.00     0.027 H 
BRANCH   4   7
ATOM      7  C   UNL A   1      39.146  22.255  26.126  1.00  0.00    -0.052 C 
ATOM      8  H   UNL A   1      39.839  22.586  25.381  1.00  0.00     0.027 H 
ATOM      9  H   UNL A   1      39.115  22.879  26.994  1.00  0.00     0.027 H 
BRANCH   7  10
ATOM     10  C   UNL A   1      39.603  20.878  26.615  1.00  0.00    -0.036 C 
ATOM     11  H   UNL A   1      40.596  20.976  27.001  1.00  0.00     0.028 H 
ATOM     12  H   UNL A   1      38.889  20.571  27.349  1.00  0.00     0.028 H 
BRANCH  10  13
ATOM     13  C   UNL A   1      39.616  19.788  25.549  1.00  0.00     0.018 C 
ATOM     14  H   UNL A   1      38.681  19.268  25.579  1.00  0.00     0.049 H 
ATOM     15  H   UNL A   1      39.774  20.260  24.602  1.00  0.00     0.049 H 
BRANCH  13  16
ATOM     16  N   UNL A   1      40.689  18.828  25.751  1.00  0.00    -0.352 N 
ATOM     17  O   UNL A   1      42.813  18.118  26.015  1.00  0.00    -0.269 OA
ATOM     18  C   UNL A   1      42.007  19.047  26.051  1.00  0.00     0.251 C 
ATOM     19  H   UNL A   1      40.430  17.882  25.659  1.00  0.00     0.163 HD
BRANCH  18  20
ATOM     20  C   UNL A   1      42.471  20.405  26.397  1.00  0.00     0.039 A 
ATOM     21  C   UNL A   1      42.546  20.821  27.732  1.00  0.00    -0.049 A 
ATOM     22  C   UNL A   1      42.863  21.265  25.370  1.00  0.00    -0.049 A 
ATOM     23  C   UNL A   1      42.904  22.132  28.030  1.00  0.00    -0.053 A 
ATOM     24  H   UNL A   1      42.336  20.157  28.493  1.00  0.00     0.063 H 
ATOM     25  C   UNL A   1      43.290  22.557  25.675  1.00  0.00    -0.053 A 
ATOM     26  H   UNL A   1      42.837  20.946  24.389  1.00  0.00     0.063 H 
ATOM     27  C   UNL A   1      43.293  23.008  27.005  1.00  0.00    -0.014 A 
ATOM     28  H   UNL A   1      42.884  22.461  29.008  1.00  0.00     0.063 H 
ATOM     29  H   UNL A   1      43.607  23.185  24.919  1.00  0.00     0.063 H 
BRANCH  27  30
ATOM     30  C   UNL A   1      43.755  24.380  27.322  1.00  0.00     0.031 A 
ATOM     31  C   UNL A   1      42.795  25.406  27.849  1.00  0.00     0.074 A 
ATOM     32  C   UNL A   1      45.037  24.712  27.082  1.00  0.00     0.049 A 
ATOM     33  N   UNL A   1      42.985  26.683  28.070  1.00  0.00    -0.248 NA
ATOM     34  C   UNL A   1      41.436  24.938  28.157  1.00  0.00    -0.034 C 
ATOM     35  C   UNL A   1      46.058  23.798  26.570  1.00  0.00    -0.036 A 
ATOM     36  N   UNL A   1      45.692  25.909  27.213  1.00  0.00    -0.354 N 
ATOM     37  C   UNL A   1      41.766  27.175  28.517  1.00  0.00     0.074 A 
ATOM     38  C   UNL A   1      40.836  26.064  28.512  1.00  0.00    -0.034 C 
ATOM     39  H   UNL A   1      41.051  23.981  28.109  1.00  0.00     0.065 H 
ATOM     40  C   UNL A   1      47.211  24.466  26.428  1.00  0.00    -0.036 A 
ATOM     41  H   UNL A   1      45.914  22.800  26.352  1.00  0.00     0.065 H 
ATOM     42  C   UNL A   1      46.994  25.866  26.778  1.00  0.00     0.049 A 
ATOM     43  H   UNL A   1      45.272  26.719  27.583  1.00  0.00     0.167 HD
ATOM     44  C   UNL A   1      41.457  28.439  28.897  1.00  0.00     0.037 A 
ATOM     45  H   UNL A   1      39.836  26.141  28.753  1.00  0.00     0.065 H 
ATOM     46  H   UNL A   1      48.109  24.057  26.123  1.00  0.00     0.065 H 
ATOM     47  C   UNL A   1      47.900  26.852  26.633  1.00  0.00     0.037 A 
ATOM     48  C   UNL A   1      42.394  29.534  28.896  1.00  0.00     0.049 A 
ATOM     49  C   UNL A   1      47.524  28.254  27.016  1.00  0.00     0.074 A 
ATOM     50  C   UNL A   1      42.195  30.841  29.302  1.00  0.00    -0.036 A 
ATOM     51  N   UNL A   1      43.708  29.450  28.451  1.00  0.00    -0.354 N 
ATOM     52  N   UNL A   1      46.382  28.705  27.474  1.00  0.00    -0.248 NA
ATOM     53  C   UNL A   1      48.560  29.284  26.863  1.00  0.00    -0.034 C 
ATOM     54  C   UNL A   1      43.365  31.563  29.043  1.00  0.00    -0.036 A 
ATOM     55  H   UNL A   1      41.333  31.219  29.724  1.00  0.00     0.065 H 
ATOM     56  C   UNL A   1      44.319  30.690  28.542  1.00  0.00     0.049 A 
ATOM     57  H   UNL A   1      44.141  28.630  28.120  1.00  0.00     0.167 HD
ATOM     58  C   UNL A   1      46.568  30.062  27.694  1.00  0.00     0.074 A 
ATOM     59  C   UNL A   1      47.934  30.362  27.318  1.00  0.00    -0.034 C 
ATOM     60  H   UNL A   1      49.521  29.193  26.498  1.00  0.00     0.065 H 
ATOM     61  H   UNL A   1      43.495  32.575  29.196  1.00  0.00     0.065 H 
ATOM     62  C   UNL A   1      45.685  30.973  28.174  1.00  0.00     0.037 A 
ATOM     63  H   UNL A   1      48.367  31.296  27.394  1.00  0.00     0.065 H 
BRANCH  44  64
ATOM     64  C   UNL A   1      40.035  28.712  29.305  1.00  0.00     0.064 A 
ATOM     65  C   UNL A   1      39.597  28.555  30.629  1.00  0.00     0.173 A 
ATOM     66  C   UNL A   1      39.098  29.147  28.355  1.00  0.00     0.173 A 
ATOM     67  F   UNL A   1      40.449  28.136  31.577  1.00  0.00    -0.203 F 
ATOM     68  C   UNL A   1      38.267  28.779  30.977  1.00  0.00     0.198 A 
ATOM     69  C   UNL A   1      37.777  29.405  28.713  1.00  0.00     0.198 A 
ATOM     70  F   UNL A   1      39.462  29.328  27.077  1.00  0.00    -0.203 F 
ATOM     71  F   UNL A   1      37.859  28.560  32.235  1.00  0.00    -0.200 F 
ATOM     72  C   UNL A   1      37.359  29.208  30.021  1.00  0.00     0.200 A 
ATOM     73  F   UNL A   1      36.906  29.838  27.790  1.00  0.00    -0.200 F 
ATOM     74  F   UNL A   1      36.080  29.424  30.356  1.00  0.00    -0.200 F 
ENDBRANCH  44  64
BRANCH  47  75
ATOM     75  C   UNL A   1      49.242  26.523  26.090  1.00  0.00     0.064 A 
ATOM     76  C   UNL A   1      49.566  26.791  24.755  1.00  0.00     0.173 A 
ATOM     77  C   UNL A   1      50.246  25.989  26.913  1.00  0.00     0.173 A 
ATOM     78  F   UNL A   1      48.635  27.288  23.926  1.00  0.00    -0.203 F 
ATOM     79  C   UNL A   1      50.844  26.537  24.262  1.00  0.00     0.198 A 
ATOM     80  C   UNL A   1      51.531  25.763  26.426  1.00  0.00     0.198 A 
ATOM     81  F   UNL A   1      49.987  25.724  28.202  1.00  0.00    -0.203 F 
ATOM     82  F   UNL A   1      51.122  26.781  22.973  1.00  0.00    -0.200 F 
ATOM     83  C   UNL A   1      51.827  26.033  25.100  1.00  0.00     0.200 A 
ATOM     84  F   UNL A   1      52.483  25.296  27.245  1.00  0.00    -0.200 F 
ATOM     85  F   UNL A   1      53.061  25.809  24.629  1.00  0.00    -0.200 F 
ENDBRANCH  47  75
BRANCH  62  86
ATOM     86  C   UNL A   1      46.176  32.377  28.378  1.00  0.00     0.064 A 
ATOM     87  C   UNL A   1      46.021  33.367  27.398  1.00  0.00     0.173 A 
ATOM     88  C   UNL A   1      46.740  32.752  29.608  1.00  0.00     0.173 A 
ATOM     89  F   UNL A   1      45.505  33.056  26.199  1.00  0.00    -0.203 F 
ATOM     90  C   UNL A   1      46.419  34.680  27.639  1.00  0.00     0.198 A 
ATOM     91  C   UNL A   1      47.108  34.071  29.857  1.00  0.00     0.198 A 
ATOM     92  F   UNL A   1      46.907  31.842  30.580  1.00  0.00    -0.203 F 
ATOM     93  F   UNL A   1      46.290  35.605  26.678  1.00  0.00    -0.200 F 
ATOM     94  C   UNL A   1      46.949  35.032  28.871  1.00  0.00     0.200 A 
ATOM     95  F   UNL A   1      47.606  34.411  31.053  1.00  0.00    -0.200 F 
ATOM     96  F   UNL A   1      47.311  36.301  29.109  1.00  0.00    -0.200 F 
ENDBRANCH  62  86
ENDBRANCH  27  30
ENDBRANCH  18  20
ENDBRANCH  13  16
ENDBRANCH  10  13
ENDBRANCH   7  10
ENDBRANCH   4   7
ENDBRANCH   1   4
BRANCH   1  97
ATOM     97  C   UNL A   1      35.711  23.742  24.815  1.00  0.00     0.018 C 
ATOM     98  H   UNL A   1      35.520  22.797  24.351  1.00  0.00     0.049 H 
ATOM     99  H   UNL A   1      35.736  24.534  24.096  1.00  0.00     0.049 H 
BRANCH  97 100
ATOM    100  N   UNL A   1      34.637  24.027  25.753  1.00  0.00    -0.352 N 
ATOM    101  C   UNL A   1      33.390  23.461  25.834  1.00  0.00     0.253 C 
ATOM    102  H   UNL A   1      34.833  24.723  26.422  1.00  0.00     0.163 HD
ATOM    103  O   UNL A   1      32.575  23.885  26.648  1.00  0.00    -0.269 OA
BRANCH 101 104
ATOM    104  C   UNL A   1      33.008  22.355  24.930  1.00  0.00     0.063 A 
ATOM    105  C   UNL A   1      33.148  21.055  25.437  1.00  0.00    -0.047 A 
ATOM    106  C   UNL A   1      32.555  22.575  23.616  1.00  0.00     0.054 A 
ATOM    107  C   UNL A   1      32.786  19.957  24.659  1.00  0.00    -0.061 A 
ATOM    108  H   UNL A   1      33.520  20.910  26.389  1.00  0.00     0.063 H 
ATOM    109  C   UNL A   1      32.151  21.453  22.872  1.00  0.00    -0.038 A 
ATOM    110  C   UNL A   1      32.275  20.159  23.382  1.00  0.00    -0.060 A 
ATOM    111  H   UNL A   1      32.898  19.000  25.028  1.00  0.00     0.062 H 
ATOM    112  H   UNL A   1      31.755  21.589  21.929  1.00  0.00     0.064 H 
ATOM    113  H   UNL A   1      31.984  19.350  22.810  1.00  0.00     0.062 H 
BRANCH 106 114
ATOM    114  N   UNL A   1      32.499  23.864  23.060  1.00  0.00    -0.323 N 
ATOM    115  H   UNL A   1      33.019  23.985  22.234  1.00  0.00     0.170 HD
BRANCH 114 116
ATOM    116  C   UNL A   1      31.819  24.991  23.502  1.00  0.00     0.233 A 
ATOM    117  N   UNL A   1      30.503  24.955  23.627  1.00  0.00    -0.182 NA
ATOM    118  N   UNL A   1      32.564  26.054  23.776  1.00  0.00    -0.176 NA
ATOM    119  C   UNL A   1      29.979  26.087  24.059  1.00  0.00     0.228 A 
ATOM    120  C   UNL A   1      31.915  27.161  24.128  1.00  0.00     0.233 A 
ATOM    121  Cl  UNL A   1      28.282  26.106  24.251  1.00  0.00    -0.041 Cl
ATOM    122  N   UNL A   1      30.608  27.216  24.324  1.00  0.00    -0.182 NA
BRANCH 120 123
ATOM    123  N   UNL A   1      32.681  28.323  24.156  1.00  0.00    -0.324 N 
ATOM    124  H   UNL A   1      33.175  28.528  23.329  1.00  0.00     0.170 HD
BRANCH 123 125
ATOM    125  C   UNL A   1      32.841  29.235  25.199  1.00  0.00     0.041 A 
ATOM    126  C   UNL A   1      34.048  29.277  25.905  1.00  0.00    -0.036 A 
ATOM    127  C   UNL A   1      31.864  30.189  25.492  1.00  0.00    -0.036 A 
ATOM    128  C   UNL A   1      34.277  30.259  26.878  1.00  0.00    -0.036 A 
ATOM    129  H   UNL A   1      34.779  28.577  25.707  1.00  0.00     0.065 H 
ATOM    130  C   UNL A   1      32.064  31.131  26.502  1.00  0.00    -0.036 A 
ATOM    131  H   UNL A   1      30.983  30.197  24.955  1.00  0.00     0.065 H 
ATOM    132  C   UNL A   1      33.278  31.184  27.195  1.00  0.00     0.044 A 
ATOM    133  H   UNL A   1      35.187  30.299  27.362  1.00  0.00     0.065 H 
ATOM    134  H   UNL A   1      31.310  31.794  26.739  1.00  0.00     0.065 H 
BRANCH 132 135
ATOM    135  N   UNL A   1      33.503  32.194  28.175  1.00  0.00    -0.308 N 
ATOM    136  C   UNL A   1      34.631  31.987  29.091  1.00  0.00     0.049 C 
ATOM    137  C   UNL A   1      32.904  33.453  28.048  1.00  0.00     0.253 C 
ATOM    138  C   UNL A   1      34.662  32.983  30.244  1.00  0.00     0.065 C 
ATOM    139  H   UNL A   1      35.541  32.082  28.536  1.00  0.00     0.052 H 
ATOM    140  H   UNL A   1      34.518  31.013  29.517  1.00  0.00     0.052 H 
ATOM    141  C   UNL A   1      33.349  34.506  29.074  1.00  0.00     0.126 C 
ATOM    142  O   UNL A   1      32.001  33.719  27.251  1.00  0.00    -0.272 OA
ATOM    143  O   UNL A   1      34.592  34.309  29.728  1.00  0.00    -0.370 OA
ATOM    144  H   UNL A   1      35.571  32.861  30.795  1.00  0.00     0.059 H 
ATOM    145  H   UNL A   1      33.826  32.808  30.888  1.00  0.00     0.059 H 
ATOM    146  H   UNL A   1      33.402  35.446  28.563  1.00  0.00     0.067 H 
ATOM    147  H   UNL A   1      32.621  34.445  29.855  1.00  0.00     0.067 H 
ENDBRANCH 132 135
ENDBRANCH 123 125
ENDBRANCH 120 123
ENDBRANCH 114 116
ENDBRANCH 106 114
ENDBRANCH 101 104
ENDBRANCH  97 100
ENDBRANCH   1  97
TORSDOF 18
ENDMDL
MODEL 7
REMARK VINA RESULT:     -11.9      5.975     11.518
REMARK SMILES O=C(NCCCCCCNC(=O)c1ccccc1Nc1nc(Cl)nc(Nc2ccc(N3CCOCC3=O)cc2)n1)c1ccc(-c2c3nc(c(-c4c(F)c(F)c(F)c(F)c4F)c4ccc([nH]4)c(-c4c(F)c(F)c(F)c(F)c4F)c4nc(c(-c5c(F)c(F)c(F)c(F)c5F)c5ccc2[nH]5)C=C4)C=C3)cc1
REMARK SMILES IDX 8 1 7 4 6 7 5 10 4 13 3 16 1 17 2 18 41 20 42 21 103 22
REMARK SMILES IDX 43 23 102 25 44 27 45 30 46 31 96 32 47 33 101 34 95 35
REMARK SMILES IDX 97 36 48 37 100 38 94 40 93 42 49 44 81 47 61 48 80 49 62 50
REMARK SMILES IDX 65 51 79 52 98 53 63 54 64 56 78 58 99 59 66 62 50 64 51 65
REMARK SMILES IDX 59 66 52 67 53 68 57 69 60 70 54 71 55 72 58 73 56 74 82 75
REMARK SMILES IDX 83 76 91 77 84 78 85 79 89 80 92 81 86 82 87 83 90 84 88 85
REMARK SMILES IDX 67 86 68 87 76 88 69 89 70 90 74 91 77 92 71 93 72 94 75 95
REMARK SMILES IDX 73 96 9 97 10 100 11 101 12 103 13 104 14 105 18 106 15 107
REMARK SMILES IDX 17 109 16 110 19 114 20 116 21 117 40 118 22 119 25 120
REMARK SMILES IDX 23 121 24 122 26 123 27 125 28 126 39 127 29 128 38 130
REMARK SMILES IDX 30 132 31 135 32 136 36 137 33 138 35 141 37 142 34 143
REMARK H PARENT 8 2 8 3 7 5 7 6 6 8 6 9 5 11 5 12 4 14 4 15 3 19 42 24 103 26
REMARK H PARENT 43 28 102 29 101 39 95 41 97 43 100 45 94 46 62 55 65 57 98 60
REMARK H PARENT 63 61 99 63 9 98 9 99 10 102 14 108 15 111 17 112 16 113
REMARK H PARENT 19 115 26 124 28 129 39 131 29 133 38 134 32 139 32 140 33 144
REMARK H PARENT 33 145 35 146 35 147
REMARK Flexibility Score: inf
ROOT
ATOM      1  C   UNL A   1      43.737  23.760  28.563  1.00  0.00    -0.036 C 
ATOM      2  H   UNL A   1      44.266  23.812  29.492  1.00  0.00     0.028 H 
ATOM      3  H   UNL A   1      43.340  22.790  28.350  1.00  0.00     0.028 H 
ENDROOT
BRANCH   1   4
ATOM      4  C   UNL A   1      44.727  24.071  27.436  1.00  0.00    -0.052 C 
ATOM      5  H   UNL A   1      44.868  25.131  27.406  1.00  0.00     0.027 H 
ATOM      6  H   UNL A   1      45.615  23.521  27.669  1.00  0.00     0.027 H 
BRANCH   4   7
ATOM      7  C   UNL A   1      44.308  23.613  26.036  1.00  0.00    -0.052 C 
ATOM      8  H   UNL A   1      43.960  22.604  26.109  1.00  0.00     0.027 H 
ATOM      9  H   UNL A   1      43.559  24.305  25.713  1.00  0.00     0.027 H 
BRANCH   7  10
ATOM     10  C   UNL A   1      45.406  23.656  24.972  1.00  0.00    -0.036 C 
ATOM     11  H   UNL A   1      45.505  22.675  24.557  1.00  0.00     0.028 H 
ATOM     12  H   UNL A   1      45.101  24.391  24.257  1.00  0.00     0.028 H 
BRANCH  10  13
ATOM     13  C   UNL A   1      46.776  24.096  25.477  1.00  0.00     0.018 C 
ATOM     14  H   UNL A   1      46.660  24.527  26.450  1.00  0.00     0.049 H 
ATOM     15  H   UNL A   1      47.407  23.233  25.501  1.00  0.00     0.049 H 
BRANCH  13  16
ATOM     16  N   UNL A   1      47.400  25.078  24.605  1.00  0.00    -0.352 N 
ATOM     17  O   UNL A   1      47.769  27.111  23.701  1.00  0.00    -0.269 OA
ATOM     18  C   UNL A   1      47.309  26.444  24.627  1.00  0.00     0.251 C 
ATOM     19  H   UNL A   1      47.971  24.706  23.894  1.00  0.00     0.163 HD
BRANCH  18  20
ATOM     20  C   UNL A   1      46.638  27.123  25.753  1.00  0.00     0.039 A 
ATOM     21  C   UNL A   1      45.245  27.253  25.788  1.00  0.00    -0.049 A 
ATOM     22  C   UNL A   1      47.417  27.612  26.804  1.00  0.00    -0.049 A 
ATOM     23  C   UNL A   1      44.641  27.971  26.816  1.00  0.00    -0.053 A 
ATOM     24  H   UNL A   1      44.667  26.818  25.053  1.00  0.00     0.063 H 
ATOM     25  C   UNL A   1      46.804  28.269  27.870  1.00  0.00    -0.053 A 
ATOM     26  H   UNL A   1      48.441  27.487  26.792  1.00  0.00     0.063 H 
ATOM     27  C   UNL A   1      45.414  28.474  27.874  1.00  0.00    -0.014 A 
ATOM     28  H   UNL A   1      43.623  28.134  26.801  1.00  0.00     0.063 H 
ATOM     29  H   UNL A   1      47.374  28.608  28.661  1.00  0.00     0.063 H 
BRANCH  27  30
ATOM     30  C   UNL A   1      44.769  29.168  29.014  1.00  0.00     0.031 A 
ATOM     31  C   UNL A   1      44.428  30.626  28.925  1.00  0.00     0.074 A 
ATOM     32  C   UNL A   1      44.540  28.487  30.151  1.00  0.00     0.049 A 
ATOM     33  N   UNL A   1      43.973  31.429  29.855  1.00  0.00    -0.248 NA
ATOM     34  C   UNL A   1      44.638  31.272  27.622  1.00  0.00    -0.034 C 
ATOM     35  C   UNL A   1      44.832  27.067  30.352  1.00  0.00    -0.036 A 
ATOM     36  N   UNL A   1      44.034  28.899  31.357  1.00  0.00    -0.354 N 
ATOM     37  C   UNL A   1      43.867  32.678  29.258  1.00  0.00     0.074 A 
ATOM     38  C   UNL A   1      44.329  32.532  27.892  1.00  0.00    -0.034 C 
ATOM     39  H   UNL A   1      44.945  30.854  26.730  1.00  0.00     0.065 H 
ATOM     40  C   UNL A   1      44.501  26.725  31.605  1.00  0.00    -0.036 A 
ATOM     41  H   UNL A   1      45.228  26.431  29.643  1.00  0.00     0.065 H 
ATOM     42  C   UNL A   1      44.037  27.913  32.313  1.00  0.00     0.049 A 
ATOM     43  H   UNL A   1      43.701  29.810  31.521  1.00  0.00     0.167 HD
ATOM     44  C   UNL A   1      43.422  33.837  29.802  1.00  0.00     0.037 A 
ATOM     45  H   UNL A   1      44.408  33.309  27.218  1.00  0.00     0.065 H 
ATOM     46  H   UNL A   1      44.564  25.775  32.005  1.00  0.00     0.065 H 
ATOM     47  C   UNL A   1      43.741  27.968  33.625  1.00  0.00     0.037 A 
ATOM     48  C   UNL A   1      42.966  33.965  31.163  1.00  0.00     0.049 A 
ATOM     49  C   UNL A   1      43.295  29.272  34.222  1.00  0.00     0.074 A 
ATOM     50  C   UNL A   1      42.456  35.081  31.801  1.00  0.00    -0.036 A 
ATOM     51  N   UNL A   1      42.980  32.941  32.102  1.00  0.00    -0.354 N 
ATOM     52  N   UNL A   1      43.160  30.440  33.643  1.00  0.00    -0.248 NA
ATOM     53  C   UNL A   1      42.959  29.268  35.651  1.00  0.00    -0.034 C 
ATOM     54  C   UNL A   1      42.223  34.753  33.140  1.00  0.00    -0.036 A 
ATOM     55  H   UNL A   1      42.278  35.999  31.364  1.00  0.00     0.065 H 
ATOM     56  C   UNL A   1      42.519  33.411  33.322  1.00  0.00     0.049 A 
ATOM     57  H   UNL A   1      43.274  32.019  31.927  1.00  0.00     0.167 HD
ATOM     58  C   UNL A   1      42.695  31.302  34.625  1.00  0.00     0.074 A 
ATOM     59  C   UNL A   1      42.572  30.523  35.839  1.00  0.00    -0.034 C 
ATOM     60  H   UNL A   1      43.011  28.493  36.330  1.00  0.00     0.065 H 
ATOM     61  H   UNL A   1      41.889  35.400  33.871  1.00  0.00     0.065 H 
ATOM     62  C   UNL A   1      42.390  32.620  34.522  1.00  0.00     0.037 A 
ATOM     63  H   UNL A   1      42.227  30.896  36.737  1.00  0.00     0.065 H 
BRANCH  44  64
ATOM     64  C   UNL A   1      43.449  35.065  28.935  1.00  0.00     0.064 A 
ATOM     65  C   UNL A   1      42.291  35.572  28.325  1.00  0.00     0.173 A 
ATOM     66  C   UNL A   1      44.654  35.752  28.719  1.00  0.00     0.173 A 
ATOM     67  F   UNL A   1      41.113  34.952  28.493  1.00  0.00    -0.203 F 
ATOM     68  C   UNL A   1      42.346  36.691  27.497  1.00  0.00     0.198 A 
ATOM     69  C   UNL A   1      44.700  36.892  27.920  1.00  0.00     0.198 A 
ATOM     70  F   UNL A   1      45.790  35.322  29.287  1.00  0.00    -0.203 F 
ATOM     71  F   UNL A   1      41.238  37.117  26.875  1.00  0.00    -0.200 F 
ATOM     72  C   UNL A   1      43.548  37.352  27.299  1.00  0.00     0.200 A 
ATOM     73  F   UNL A   1      45.860  37.540  27.745  1.00  0.00    -0.200 F 
ATOM     74  F   UNL A   1      43.600  38.430  26.503  1.00  0.00    -0.200 F 
ENDBRANCH  44  64
BRANCH  47  75
ATOM     75  C   UNL A   1      43.874  26.739  34.446  1.00  0.00     0.064 A 
ATOM     76  C   UNL A   1      42.759  25.949  34.751  1.00  0.00     0.173 A 
ATOM     77  C   UNL A   1      45.131  26.297  34.892  1.00  0.00     0.173 A 
ATOM     78  F   UNL A   1      41.536  26.338  34.359  1.00  0.00    -0.203 F 
ATOM     79  C   UNL A   1      42.894  24.764  35.472  1.00  0.00     0.198 A 
ATOM     80  C   UNL A   1      45.267  25.098  35.586  1.00  0.00     0.198 A 
ATOM     81  F   UNL A   1      46.230  27.014  34.617  1.00  0.00    -0.203 F 
ATOM     82  F   UNL A   1      41.807  24.039  35.770  1.00  0.00    -0.200 F 
ATOM     83  C   UNL A   1      44.148  24.335  35.879  1.00  0.00     0.200 A 
ATOM     84  F   UNL A   1      46.483  24.677  35.960  1.00  0.00    -0.200 F 
ATOM     85  F   UNL A   1      44.278  23.185  36.553  1.00  0.00    -0.200 F 
ENDBRANCH  47  75
BRANCH  62  86
ATOM     86  C   UNL A   1      41.838  33.302  35.740  1.00  0.00     0.064 A 
ATOM     87  C   UNL A   1      40.463  33.341  36.009  1.00  0.00     0.173 A 
ATOM     88  C   UNL A   1      42.710  33.856  36.691  1.00  0.00     0.173 A 
ATOM     89  F   UNL A   1      39.586  32.842  35.124  1.00  0.00    -0.203 F 
ATOM     90  C   UNL A   1      39.980  33.916  37.182  1.00  0.00     0.198 A 
ATOM     91  C   UNL A   1      42.226  34.402  37.876  1.00  0.00     0.198 A 
ATOM     92  F   UNL A   1      44.035  33.841  36.481  1.00  0.00    -0.203 F 
ATOM     93  F   UNL A   1      38.660  33.970  37.406  1.00  0.00    -0.200 F 
ATOM     94  C   UNL A   1      40.862  34.433  38.119  1.00  0.00     0.200 A 
ATOM     95  F   UNL A   1      43.082  34.888  38.786  1.00  0.00    -0.200 F 
ATOM     96  F   UNL A   1      40.397  34.966  39.258  1.00  0.00    -0.200 F 
ENDBRANCH  62  86
ENDBRANCH  27  30
ENDBRANCH  18  20
ENDBRANCH  13  16
ENDBRANCH  10  13
ENDBRANCH   7  10
ENDBRANCH   4   7
ENDBRANCH   1   4
BRANCH   1  97
ATOM     97  C   UNL A   1      42.535  24.698  28.652  1.00  0.00     0.018 C 
ATOM     98  H   UNL A   1      42.802  25.641  28.221  1.00  0.00     0.049 H 
ATOM     99  H   UNL A   1      42.276  24.800  29.685  1.00  0.00     0.049 H 
BRANCH  97 100
ATOM    100  N   UNL A   1      41.374  24.176  27.951  1.00  0.00    -0.352 N 
ATOM    101  C   UNL A   1      40.482  24.839  27.147  1.00  0.00     0.253 C 
ATOM    102  H   UNL A   1      41.204  23.214  28.071  1.00  0.00     0.163 HD
ATOM    103  O   UNL A   1      39.505  24.249  26.696  1.00  0.00    -0.269 OA
BRANCH 101 104
ATOM    104  C   UNL A   1      40.676  26.271  26.832  1.00  0.00     0.063 A 
ATOM    105  C   UNL A   1      41.530  26.568  25.760  1.00  0.00    -0.047 A 
ATOM    106  C   UNL A   1      40.067  27.297  27.579  1.00  0.00     0.054 A 
ATOM    107  C   UNL A   1      41.746  27.892  25.383  1.00  0.00    -0.061 A 
ATOM    108  H   UNL A   1      42.000  25.804  25.249  1.00  0.00     0.063 H 
ATOM    109  C   UNL A   1      40.264  28.620  27.146  1.00  0.00    -0.038 A 
ATOM    110  C   UNL A   1      41.101  28.915  26.068  1.00  0.00    -0.060 A 
ATOM    111  H   UNL A   1      42.382  28.111  24.601  1.00  0.00     0.062 H 
ATOM    112  H   UNL A   1      39.779  29.388  27.635  1.00  0.00     0.064 H 
ATOM    113  H   UNL A   1      41.240  29.896  25.778  1.00  0.00     0.062 H 
BRANCH 106 114
ATOM    114  N   UNL A   1      39.286  27.021  28.714  1.00  0.00    -0.323 N 
ATOM    115  H   UNL A   1      38.942  26.101  28.770  1.00  0.00     0.170 HD
BRANCH 114 116
ATOM    116  C   UNL A   1      38.928  27.852  29.767  1.00  0.00     0.233 A 
ATOM    117  N   UNL A   1      39.639  27.842  30.882  1.00  0.00    -0.182 NA
ATOM    118  N   UNL A   1      37.864  28.621  29.570  1.00  0.00    -0.176 NA
ATOM    119  C   UNL A   1      39.197  28.679  31.802  1.00  0.00     0.228 A 
ATOM    120  C   UNL A   1      37.469  29.365  30.599  1.00  0.00     0.233 A 
ATOM    121  Cl  UNL A   1      40.078  28.722  33.265  1.00  0.00    -0.041 Cl
ATOM    122  N   UNL A   1      38.135  29.458  31.738  1.00  0.00    -0.182 NA
BRANCH 120 123
ATOM    123  N   UNL A   1      36.216  29.957  30.466  1.00  0.00    -0.324 N 
ATOM    124  H   UNL A   1      35.507  29.380  30.098  1.00  0.00     0.170 HD
BRANCH 123 125
ATOM    125  C   UNL A   1      35.831  31.261  30.784  1.00  0.00     0.041 A 
ATOM    126  C   UNL A   1      35.635  32.195  29.762  1.00  0.00    -0.036 A 
ATOM    127  C   UNL A   1      35.527  31.633  32.095  1.00  0.00    -0.036 A 
ATOM    128  C   UNL A   1      35.138  33.474  30.044  1.00  0.00    -0.036 A 
ATOM    129  H   UNL A   1      35.860  31.941  28.788  1.00  0.00     0.065 H 
ATOM    130  C   UNL A   1      35.089  32.925  32.388  1.00  0.00    -0.036 A 
ATOM    131  H   UNL A   1      35.629  30.944  32.857  1.00  0.00     0.065 H 
ATOM    132  C   UNL A   1      34.877  33.853  31.364  1.00  0.00     0.044 A 
ATOM    133  H   UNL A   1      34.964  34.138  29.274  1.00  0.00     0.065 H 
ATOM    134  H   UNL A   1      34.919  33.197  33.368  1.00  0.00     0.065 H 
BRANCH 132 135
ATOM    135  N   UNL A   1      34.359  35.147  31.662  1.00  0.00    -0.308 N 
ATOM    136  C   UNL A   1      33.243  35.620  30.835  1.00  0.00     0.049 C 
ATOM    137  C   UNL A   1      34.668  35.774  32.875  1.00  0.00     0.253 C 
ATOM    138  C   UNL A   1      32.905  37.089  31.060  1.00  0.00     0.065 C 
ATOM    139  H   UNL A   1      32.378  35.034  31.065  1.00  0.00     0.052 H 
ATOM    140  H   UNL A   1      33.540  35.516  29.813  1.00  0.00     0.052 H 
ATOM    141  C   UNL A   1      33.924  37.090  33.150  1.00  0.00     0.126 C 
ATOM    142  O   UNL A   1      35.544  35.392  33.655  1.00  0.00    -0.272 OA
ATOM    143  O   UNL A   1      32.713  37.324  32.451  1.00  0.00    -0.370 OA
ATOM    144  H   UNL A   1      32.009  37.334  30.529  1.00  0.00     0.059 H 
ATOM    145  H   UNL A   1      33.710  37.698  30.704  1.00  0.00     0.059 H 
ATOM    146  H   UNL A   1      33.699  37.115  34.197  1.00  0.00     0.067 H 
ATOM    147  H   UNL A   1      34.588  37.852  32.802  1.00  0.00     0.067 H 
ENDBRANCH 132 135
ENDBRANCH 123 125
ENDBRANCH 120 123
ENDBRANCH 114 116
ENDBRANCH 106 114
ENDBRANCH 101 104
ENDBRANCH  97 100
ENDBRANCH   1  97
TORSDOF 18
ENDMDL
MODEL 8
REMARK VINA RESULT:     -11.9      6.411     12.178
REMARK SMILES O=C(NCCCCCCNC(=O)c1ccccc1Nc1nc(Cl)nc(Nc2ccc(N3CCOCC3=O)cc2)n1)c1ccc(-c2c3nc(c(-c4c(F)c(F)c(F)c(F)c4F)c4ccc([nH]4)c(-c4c(F)c(F)c(F)c(F)c4F)c4nc(c(-c5c(F)c(F)c(F)c(F)c5F)c5ccc2[nH]5)C=C4)C=C3)cc1
REMARK SMILES IDX 8 1 7 4 6 7 5 10 4 13 3 16 1 17 2 18 41 20 42 21 103 22
REMARK SMILES IDX 43 23 102 25 44 27 45 30 46 31 96 32 47 33 101 34 95 35
REMARK SMILES IDX 97 36 48 37 100 38 94 40 93 42 49 44 81 47 61 48 80 49 62 50
REMARK SMILES IDX 65 51 79 52 98 53 63 54 64 56 78 58 99 59 66 62 50 64 51 65
REMARK SMILES IDX 59 66 52 67 53 68 57 69 60 70 54 71 55 72 58 73 56 74 82 75
REMARK SMILES IDX 83 76 91 77 84 78 85 79 89 80 92 81 86 82 87 83 90 84 88 85
REMARK SMILES IDX 67 86 68 87 76 88 69 89 70 90 74 91 77 92 71 93 72 94 75 95
REMARK SMILES IDX 73 96 9 97 10 100 11 101 12 103 13 104 14 105 18 106 15 107
REMARK SMILES IDX 17 109 16 110 19 114 20 116 21 117 40 118 22 119 25 120
REMARK SMILES IDX 23 121 24 122 26 123 27 125 28 126 39 127 29 128 38 130
REMARK SMILES IDX 30 132 31 135 32 136 36 137 33 138 35 141 37 142 34 143
REMARK H PARENT 8 2 8 3 7 5 7 6 6 8 6 9 5 11 5 12 4 14 4 15 3 19 42 24 103 26
REMARK H PARENT 43 28 102 29 101 39 95 41 97 43 100 45 94 46 62 55 65 57 98 60
REMARK H PARENT 63 61 99 63 9 98 9 99 10 102 14 108 15 111 17 112 16 113
REMARK H PARENT 19 115 26 124 28 129 39 131 29 133 38 134 32 139 32 140 33 144
REMARK H PARENT 33 145 35 146 35 147
REMARK Flexibility Score: inf
ROOT
ATOM      1  C   UNL A   1      36.980  33.827  36.650  1.00  0.00    -0.036 C 
ATOM      2  H   UNL A   1      37.214  34.867  36.738  1.00  0.00     0.028 H 
ATOM      3  H   UNL A   1      36.498  33.423  37.515  1.00  0.00     0.028 H 
ENDROOT
BRANCH   1   4
ATOM      4  C   UNL A   1      38.296  33.056  36.497  1.00  0.00    -0.052 C 
ATOM      5  H   UNL A   1      38.100  32.186  35.906  1.00  0.00     0.027 H 
ATOM      6  H   UNL A   1      38.983  33.741  36.047  1.00  0.00     0.027 H 
BRANCH   4   7
ATOM      7  C   UNL A   1      38.955  32.600  37.802  1.00  0.00    -0.052 C 
ATOM      8  H   UNL A   1      39.064  31.536  37.762  1.00  0.00     0.027 H 
ATOM      9  H   UNL A   1      39.885  33.127  37.861  1.00  0.00     0.027 H 
BRANCH   7  10
ATOM     10  C   UNL A   1      38.193  32.948  39.082  1.00  0.00    -0.036 C 
ATOM     11  H   UNL A   1      37.779  33.927  38.966  1.00  0.00     0.028 H 
ATOM     12  H   UNL A   1      37.454  32.185  39.206  1.00  0.00     0.028 H 
BRANCH  10  13
ATOM     13  C   UNL A   1      39.033  32.938  40.355  1.00  0.00     0.018 C 
ATOM     14  H   UNL A   1      38.673  32.161  40.997  1.00  0.00     0.049 H 
ATOM     15  H   UNL A   1      40.052  32.773  40.072  1.00  0.00     0.049 H 
BRANCH  13  16
ATOM     16  N   UNL A   1      38.970  34.201  41.070  1.00  0.00    -0.352 N 
ATOM     17  O   UNL A   1      39.545  36.319  41.594  1.00  0.00    -0.269 OA
ATOM     18  C   UNL A   1      39.571  35.397  40.779  1.00  0.00     0.251 C 
ATOM     19  H   UNL A   1      38.414  34.197  41.883  1.00  0.00     0.163 HD
BRANCH  18  20
ATOM     20  C   UNL A   1      40.272  35.579  39.493  1.00  0.00     0.039 A 
ATOM     21  C   UNL A   1      41.536  35.019  39.276  1.00  0.00    -0.049 A 
ATOM     22  C   UNL A   1      39.639  36.299  38.478  1.00  0.00    -0.049 A 
ATOM     23  C   UNL A   1      42.214  35.275  38.089  1.00  0.00    -0.053 A 
ATOM     24  H   UNL A   1      41.965  34.418  39.997  1.00  0.00     0.063 H 
ATOM     25  C   UNL A   1      40.290  36.495  37.260  1.00  0.00    -0.053 A 
ATOM     26  H   UNL A   1      38.693  36.684  38.627  1.00  0.00     0.063 H 
ATOM     27  C   UNL A   1      41.591  36.004  37.064  1.00  0.00    -0.014 A 
ATOM     28  H   UNL A   1      43.177  34.928  37.960  1.00  0.00     0.063 H 
ATOM     29  H   UNL A   1      39.813  37.003  36.498  1.00  0.00     0.063 H 
BRANCH  27  30
ATOM     30  C   UNL A   1      42.274  36.211  35.765  1.00  0.00     0.031 A 
ATOM     31  C   UNL A   1      43.353  37.245  35.625  1.00  0.00     0.074 A 
ATOM     32  C   UNL A   1      41.880  35.495  34.696  1.00  0.00     0.049 A 
ATOM     33  N   UNL A   1      43.977  37.650  34.548  1.00  0.00    -0.248 NA
ATOM     34  C   UNL A   1      43.775  37.923  36.858  1.00  0.00    -0.034 C 
ATOM     35  C   UNL A   1      40.842  34.463  34.713  1.00  0.00    -0.036 A 
ATOM     36  N   UNL A   1      42.286  35.540  33.387  1.00  0.00    -0.354 N 
ATOM     37  C   UNL A   1      44.848  38.647  34.968  1.00  0.00     0.074 A 
ATOM     38  C   UNL A   1      44.652  38.803  36.395  1.00  0.00    -0.034 C 
ATOM     39  H   UNL A   1      43.470  37.758  37.830  1.00  0.00     0.065 H 
ATOM     40  C   UNL A   1      40.690  33.974  33.475  1.00  0.00    -0.036 A 
ATOM     41  H   UNL A   1      40.312  34.161  35.545  1.00  0.00     0.065 H 
ATOM     42  C   UNL A   1      41.572  34.701  32.567  1.00  0.00     0.049 A 
ATOM     43  H   UNL A   1      43.016  36.117  33.066  1.00  0.00     0.167 HD
ATOM     44  C   UNL A   1      45.729  39.363  34.228  1.00  0.00     0.037 A 
ATOM     45  H   UNL A   1      45.132  39.508  36.975  1.00  0.00     0.065 H 
ATOM     46  H   UNL A   1      40.054  33.207  33.206  1.00  0.00     0.065 H 
ATOM     47  C   UNL A   1      41.593  34.561  31.228  1.00  0.00     0.037 A 
ATOM     48  C   UNL A   1      45.912  39.196  32.808  1.00  0.00     0.049 A 
ATOM     49  C   UNL A   1      42.543  35.397  30.420  1.00  0.00     0.074 A 
ATOM     50  C   UNL A   1      46.806  39.838  31.971  1.00  0.00    -0.036 A 
ATOM     51  N   UNL A   1      45.172  38.330  32.012  1.00  0.00    -0.354 N 
ATOM     52  N   UNL A   1      43.389  36.309  30.827  1.00  0.00    -0.248 NA
ATOM     53  C   UNL A   1      42.543  35.183  28.966  1.00  0.00    -0.034 C 
ATOM     54  C   UNL A   1      46.564  39.412  30.661  1.00  0.00    -0.036 A 
ATOM     55  H   UNL A   1      47.528  40.516  32.263  1.00  0.00     0.065 H 
ATOM     56  C   UNL A   1      45.568  38.448  30.689  1.00  0.00     0.049 A 
ATOM     57  H   UNL A   1      44.470  37.723  32.338  1.00  0.00     0.167 HD
ATOM     58  C   UNL A   1      44.045  36.758  29.690  1.00  0.00     0.074 A 
ATOM     59  C   UNL A   1      43.496  36.017  28.573  1.00  0.00    -0.034 C 
ATOM     60  H   UNL A   1      41.955  34.551  28.401  1.00  0.00     0.065 H 
ATOM     61  H   UNL A   1      47.045  39.757  29.816  1.00  0.00     0.065 H 
ATOM     62  C   UNL A   1      45.020  37.695  29.587  1.00  0.00     0.037 A 
ATOM     63  H   UNL A   1      43.808  36.124  27.595  1.00  0.00     0.065 H 
BRANCH  44  64
ATOM     64  C   UNL A   1      46.531  40.421  34.935  1.00  0.00     0.064 A 
ATOM     65  C   UNL A   1      46.066  41.737  35.077  1.00  0.00     0.173 A 
ATOM     66  C   UNL A   1      47.782  40.108  35.487  1.00  0.00     0.173 A 
ATOM     67  F   UNL A   1      44.878  42.093  34.563  1.00  0.00    -0.203 F 
ATOM     68  C   UNL A   1      46.841  42.709  35.705  1.00  0.00     0.198 A 
ATOM     69  C   UNL A   1      48.540  41.073  36.146  1.00  0.00     0.198 A 
ATOM     70  F   UNL A   1      48.272  38.863  35.394  1.00  0.00    -0.203 F 
ATOM     71  F   UNL A   1      46.403  43.974  35.771  1.00  0.00    -0.200 F 
ATOM     72  C   UNL A   1      48.075  42.376  36.242  1.00  0.00     0.200 A 
ATOM     73  F   UNL A   1      49.724  40.744  36.681  1.00  0.00    -0.200 F 
ATOM     74  F   UNL A   1      48.821  43.312  36.847  1.00  0.00    -0.200 F 
ENDBRANCH  44  64
BRANCH  47  75
ATOM     75  C   UNL A   1      40.668  33.591  30.590  1.00  0.00     0.064 A 
ATOM     76  C   UNL A   1      40.923  32.215  30.632  1.00  0.00     0.173 A 
ATOM     77  C   UNL A   1      39.478  34.019  29.978  1.00  0.00     0.173 A 
ATOM     78  F   UNL A   1      42.053  31.761  31.194  1.00  0.00    -0.203 F 
ATOM     79  C   UNL A   1      40.024  31.302  30.085  1.00  0.00     0.198 A 
ATOM     80  C   UNL A   1      38.568  33.103  29.457  1.00  0.00     0.198 A 
ATOM     81  F   UNL A   1      39.186  35.326  29.921  1.00  0.00    -0.203 F 
ATOM     82  F   UNL A   1      40.303  29.991  30.117  1.00  0.00    -0.200 F 
ATOM     83  C   UNL A   1      38.844  31.746  29.508  1.00  0.00     0.200 A 
ATOM     84  F   UNL A   1      37.419  33.535  28.920  1.00  0.00    -0.200 F 
ATOM     85  F   UNL A   1      37.971  30.865  29.001  1.00  0.00    -0.200 F 
ENDBRANCH  47  75
BRANCH  62  86
ATOM     86  C   UNL A   1      45.606  37.941  28.226  1.00  0.00     0.064 A 
ATOM     87  C   UNL A   1      45.148  38.973  27.396  1.00  0.00     0.173 A 
ATOM     88  C   UNL A   1      46.700  37.178  27.784  1.00  0.00     0.173 A 
ATOM     89  F   UNL A   1      44.095  39.719  27.764  1.00  0.00    -0.203 F 
ATOM     90  C   UNL A   1      45.756  39.228  26.170  1.00  0.00     0.198 A 
ATOM     91  C   UNL A   1      47.324  37.455  26.572  1.00  0.00     0.198 A 
ATOM     92  F   UNL A   1      47.178  36.181  28.544  1.00  0.00    -0.203 F 
ATOM     93  F   UNL A   1      45.282  40.199  25.377  1.00  0.00    -0.200 F 
ATOM     94  C   UNL A   1      46.851  38.478  25.766  1.00  0.00     0.200 A 
ATOM     95  F   UNL A   1      48.391  36.738  26.191  1.00  0.00    -0.200 F 
ATOM     96  F   UNL A   1      47.449  38.739  24.595  1.00  0.00    -0.200 F 
ENDBRANCH  62  86
ENDBRANCH  27  30
ENDBRANCH  18  20
ENDBRANCH  13  16
ENDBRANCH  10  13
ENDBRANCH   7  10
ENDBRANCH   4   7
ENDBRANCH   1   4
BRANCH   1  97
ATOM     97  C   UNL A   1      35.991  33.662  35.498  1.00  0.00     0.018 C 
ATOM     98  H   UNL A   1      35.026  33.994  35.822  1.00  0.00     0.049 H 
ATOM     99  H   UNL A   1      35.977  32.628  35.225  1.00  0.00     0.049 H 
BRANCH  97 100
ATOM    100  N   UNL A   1      36.378  34.427  34.324  1.00  0.00    -0.352 N 
ATOM    101  C   UNL A   1      36.889  33.978  33.133  1.00  0.00     0.253 C 
ATOM    102  H   UNL A   1      36.257  35.401  34.394  1.00  0.00     0.163 HD
ATOM    103  O   UNL A   1      37.237  34.780  32.272  1.00  0.00    -0.269 OA
BRANCH 101 104
ATOM    104  C   UNL A   1      37.046  32.529  32.882  1.00  0.00     0.063 A 
ATOM    105  C   UNL A   1      38.260  31.952  33.281  1.00  0.00    -0.047 A 
ATOM    106  C   UNL A   1      36.052  31.760  32.248  1.00  0.00     0.054 A 
ATOM    107  C   UNL A   1      38.478  30.586  33.103  1.00  0.00    -0.061 A 
ATOM    108  H   UNL A   1      38.994  32.538  33.708  1.00  0.00     0.063 H 
ATOM    109  C   UNL A   1      36.279  30.378  32.127  1.00  0.00    -0.038 A 
ATOM    110  C   UNL A   1      37.481  29.799  32.539  1.00  0.00    -0.060 A 
ATOM    111  H   UNL A   1      39.375  30.163  33.388  1.00  0.00     0.062 H 
ATOM    112  H   UNL A   1      35.541  29.780  31.724  1.00  0.00     0.064 H 
ATOM    113  H   UNL A   1      37.629  28.784  32.426  1.00  0.00     0.062 H 
BRANCH 106 114
ATOM    114  N   UNL A   1      34.871  32.340  31.757  1.00  0.00    -0.323 N 
ATOM    115  H   UNL A   1      34.147  32.438  32.416  1.00  0.00     0.170 HD
BRANCH 114 116
ATOM    116  C   UNL A   1      34.573  32.798  30.480  1.00  0.00     0.233 A 
ATOM    117  N   UNL A   1      33.972  33.966  30.326  1.00  0.00    -0.182 NA
ATOM    118  N   UNL A   1      34.925  32.005  29.476  1.00  0.00    -0.176 NA
ATOM    119  C   UNL A   1      33.750  34.287  29.065  1.00  0.00     0.228 A 
ATOM    120  C   UNL A   1      34.577  32.400  28.255  1.00  0.00     0.233 A 
ATOM    121  Cl  UNL A   1      32.983  35.790  28.795  1.00  0.00    -0.041 Cl
ATOM    122  N   UNL A   1      34.015  33.568  27.992  1.00  0.00    -0.182 NA
BRANCH 120 123
ATOM    123  N   UNL A   1      34.718  31.444  27.252  1.00  0.00    -0.324 N 
ATOM    124  H   UNL A   1      35.566  31.473  26.751  1.00  0.00     0.170 HD
BRANCH 123 125
ATOM    125  C   UNL A   1      33.818  30.451  26.863  1.00  0.00     0.041 A 
ATOM    126  C   UNL A   1      32.489  30.788  26.590  1.00  0.00    -0.036 A 
ATOM    127  C   UNL A   1      34.235  29.139  26.633  1.00  0.00    -0.036 A 
ATOM    128  C   UNL A   1      31.595  29.833  26.089  1.00  0.00    -0.036 A 
ATOM    129  H   UNL A   1      32.161  31.751  26.761  1.00  0.00     0.065 H 
ATOM    130  C   UNL A   1      33.333  28.170  26.190  1.00  0.00    -0.036 A 
ATOM    131  H   UNL A   1      35.221  28.881  26.792  1.00  0.00     0.065 H 
ATOM    132  C   UNL A   1      32.008  28.511  25.900  1.00  0.00     0.044 A 
ATOM    133  H   UNL A   1      30.628  30.108  25.857  1.00  0.00     0.065 H 
ATOM    134  H   UNL A   1      33.647  27.194  26.075  1.00  0.00     0.065 H 
BRANCH 132 135
ATOM    135  N   UNL A   1      31.111  27.534  25.378  1.00  0.00    -0.308 N 
ATOM    136  C   UNL A   1      30.635  27.739  24.006  1.00  0.00     0.049 C 
ATOM    137  C   UNL A   1      30.969  26.292  26.009  1.00  0.00     0.253 C 
ATOM    138  C   UNL A   1      29.510  26.790  23.609  1.00  0.00     0.065 C 
ATOM    139  H   UNL A   1      31.456  27.591  23.336  1.00  0.00     0.052 H 
ATOM    140  H   UNL A   1      30.244  28.733  23.951  1.00  0.00     0.052 H 
ATOM    141  C   UNL A   1      30.099  25.267  25.265  1.00  0.00     0.126 C 
ATOM    142  O   UNL A   1      31.405  26.024  27.131  1.00  0.00    -0.272 OA
ATOM    143  O   UNL A   1      29.907  25.447  23.872  1.00  0.00    -0.370 OA
ATOM    144  H   UNL A   1      29.301  26.903  22.566  1.00  0.00     0.059 H 
ATOM    145  H   UNL A   1      28.634  27.020  24.178  1.00  0.00     0.059 H 
ATOM    146  H   UNL A   1      30.551  24.306  25.404  1.00  0.00     0.067 H 
ATOM    147  H   UNL A   1      29.124  25.383  25.689  1.00  0.00     0.067 H 
ENDBRANCH 132 135
ENDBRANCH 123 125
ENDBRANCH 120 123
ENDBRANCH 114 116
ENDBRANCH 106 114
ENDBRANCH 101 104
ENDBRANCH  97 100
ENDBRANCH   1  97
TORSDOF 18
ENDMDL
MODEL 9
REMARK VINA RESULT:     -11.9      4.727     10.283
REMARK SMILES O=C(NCCCCCCNC(=O)c1ccccc1Nc1nc(Cl)nc(Nc2ccc(N3CCOCC3=O)cc2)n1)c1ccc(-c2c3nc(c(-c4c(F)c(F)c(F)c(F)c4F)c4ccc([nH]4)c(-c4c(F)c(F)c(F)c(F)c4F)c4nc(c(-c5c(F)c(F)c(F)c(F)c5F)c5ccc2[nH]5)C=C4)C=C3)cc1
REMARK SMILES IDX 8 1 7 4 6 7 5 10 4 13 3 16 1 17 2 18 41 20 42 21 103 22
REMARK SMILES IDX 43 23 102 25 44 27 45 30 46 31 96 32 47 33 101 34 95 35
REMARK SMILES IDX 97 36 48 37 100 38 94 40 93 42 49 44 81 47 61 48 80 49 62 50
REMARK SMILES IDX 65 51 79 52 98 53 63 54 64 56 78 58 99 59 66 62 50 64 51 65
REMARK SMILES IDX 59 66 52 67 53 68 57 69 60 70 54 71 55 72 58 73 56 74 82 75
REMARK SMILES IDX 83 76 91 77 84 78 85 79 89 80 92 81 86 82 87 83 90 84 88 85
REMARK SMILES IDX 67 86 68 87 76 88 69 89 70 90 74 91 77 92 71 93 72 94 75 95
REMARK SMILES IDX 73 96 9 97 10 100 11 101 12 103 13 104 14 105 18 106 15 107
REMARK SMILES IDX 17 109 16 110 19 114 20 116 21 117 40 118 22 119 25 120
REMARK SMILES IDX 23 121 24 122 26 123 27 125 28 126 39 127 29 128 38 130
REMARK SMILES IDX 30 132 31 135 32 136 36 137 33 138 35 141 37 142 34 143
REMARK H PARENT 8 2 8 3 7 5 7 6 6 8 6 9 5 11 5 12 4 14 4 15 3 19 42 24 103 26
REMARK H PARENT 43 28 102 29 101 39 95 41 97 43 100 45 94 46 62 55 65 57 98 60
REMARK H PARENT 63 61 99 63 9 98 9 99 10 102 14 108 15 111 17 112 16 113
REMARK H PARENT 19 115 26 124 28 129 39 131 29 133 38 134 32 139 32 140 33 144
REMARK H PARENT 33 145 35 146 35 147
REMARK Flexibility Score: inf
ROOT
ATOM      1  C   UNL A   1      38.422  30.879  36.105  1.00  0.00    -0.036 C 
ATOM      2  H   UNL A   1      37.408  30.596  36.297  1.00  0.00     0.028 H 
ATOM      3  H   UNL A   1      39.126  30.091  36.274  1.00  0.00     0.028 H 
ENDROOT
BRANCH   1   4
ATOM      4  C   UNL A   1      38.795  31.999  37.082  1.00  0.00    -0.052 C 
ATOM      5  H   UNL A   1      39.708  31.722  37.567  1.00  0.00     0.027 H 
ATOM      6  H   UNL A   1      38.870  32.887  36.491  1.00  0.00     0.027 H 
BRANCH   4   7
ATOM      7  C   UNL A   1      37.760  32.307  38.168  1.00  0.00    -0.052 C 
ATOM      8  H   UNL A   1      36.795  32.039  37.790  1.00  0.00     0.027 H 
ATOM      9  H   UNL A   1      38.058  31.742  39.027  1.00  0.00     0.027 H 
BRANCH   7  10
ATOM     10  C   UNL A   1      37.698  33.765  38.626  1.00  0.00    -0.036 C 
ATOM     11  H   UNL A   1      37.589  34.381  37.757  1.00  0.00     0.028 H 
ATOM     12  H   UNL A   1      36.872  33.832  39.302  1.00  0.00     0.028 H 
BRANCH  10  13
ATOM     13  C   UNL A   1      38.921  34.251  39.398  1.00  0.00     0.018 C 
ATOM     14  H   UNL A   1      38.763  34.066  40.440  1.00  0.00     0.049 H 
ATOM     15  H   UNL A   1      39.772  33.718  39.028  1.00  0.00     0.049 H 
BRANCH  13  16
ATOM     16  N   UNL A   1      39.169  35.670  39.208  1.00  0.00    -0.352 N 
ATOM     17  O   UNL A   1      40.181  37.504  38.372  1.00  0.00    -0.269 OA
ATOM     18  C   UNL A   1      39.950  36.299  38.275  1.00  0.00     0.251 C 
ATOM     19  H   UNL A   1      38.708  36.266  39.842  1.00  0.00     0.163 HD
BRANCH  18  20
ATOM     20  C   UNL A   1      40.537  35.530  37.161  1.00  0.00     0.039 A 
ATOM     21  C   UNL A   1      39.803  35.276  35.996  1.00  0.00    -0.049 A 
ATOM     22  C   UNL A   1      41.853  35.079  37.275  1.00  0.00    -0.049 A 
ATOM     23  C   UNL A   1      40.346  34.476  34.995  1.00  0.00    -0.053 A 
ATOM     24  H   UNL A   1      38.861  35.681  35.881  1.00  0.00     0.063 H 
ATOM     25  C   UNL A   1      42.422  34.337  36.239  1.00  0.00    -0.053 A 
ATOM     26  H   UNL A   1      42.404  35.294  38.121  1.00  0.00     0.063 H 
ATOM     27  C   UNL A   1      41.665  34.011  35.101  1.00  0.00    -0.014 A 
ATOM     28  H   UNL A   1      39.777  34.225  34.172  1.00  0.00     0.063 H 
ATOM     29  H   UNL A   1      43.404  34.026  36.309  1.00  0.00     0.063 H 
BRANCH  27  30
ATOM     30  C   UNL A   1      42.278  33.227  34.003  1.00  0.00     0.031 A 
ATOM     31  C   UNL A   1      42.589  33.874  32.685  1.00  0.00     0.074 A 
ATOM     32  C   UNL A   1      42.505  31.913  34.183  1.00  0.00     0.049 A 
ATOM     33  N   UNL A   1      43.013  33.327  31.573  1.00  0.00    -0.248 NA
ATOM     34  C   UNL A   1      42.384  35.327  32.601  1.00  0.00    -0.034 C 
ATOM     35  C   UNL A   1      42.242  31.178  35.421  1.00  0.00    -0.036 A 
ATOM     36  N   UNL A   1      42.986  30.960  33.323  1.00  0.00    -0.354 N 
ATOM     37  C   UNL A   1      43.100  34.362  30.652  1.00  0.00     0.074 A 
ATOM     38  C   UNL A   1      42.661  35.565  31.328  1.00  0.00    -0.034 C 
ATOM     39  H   UNL A   1      42.098  35.988  33.341  1.00  0.00     0.065 H 
ATOM     40  C   UNL A   1      42.562  29.889  35.240  1.00  0.00    -0.036 A 
ATOM     41  H   UNL A   1      41.870  31.587  36.292  1.00  0.00     0.065 H 
ATOM     42  C   UNL A   1      42.990  29.696  33.859  1.00  0.00     0.049 A 
ATOM     43  H   UNL A   1      43.296  31.161  32.411  1.00  0.00     0.167 HD
ATOM     44  C   UNL A   1      43.512  34.308  29.361  1.00  0.00     0.037 A 
ATOM     45  H   UNL A   1      42.575  36.488  30.876  1.00  0.00     0.065 H 
ATOM     46  H   UNL A   1      42.514  29.152  35.962  1.00  0.00     0.065 H 
ATOM     47  C   UNL A   1      43.266  28.507  33.291  1.00  0.00     0.037 A 
ATOM     48  C   UNL A   1      43.946  33.102  28.703  1.00  0.00     0.049 A 
ATOM     49  C   UNL A   1      43.675  28.462  31.847  1.00  0.00     0.074 A 
ATOM     50  C   UNL A   1      44.422  32.945  27.414  1.00  0.00    -0.036 A 
ATOM     51  N   UNL A   1      43.940  31.839  29.282  1.00  0.00    -0.354 N 
ATOM     52  N   UNL A   1      43.792  29.448  30.993  1.00  0.00    -0.248 NA
ATOM     53  C   UNL A   1      43.990  27.141  31.288  1.00  0.00    -0.034 C 
ATOM     54  C   UNL A   1      44.642  31.582  27.191  1.00  0.00    -0.036 A 
ATOM     55  H   UNL A   1      44.586  33.703  26.733  1.00  0.00     0.065 H 
ATOM     56  C   UNL A   1      44.373  30.895  28.364  1.00  0.00     0.049 A 
ATOM     57  H   UNL A   1      43.669  31.643  30.207  1.00  0.00     0.167 HD
ATOM     58  C   UNL A   1      44.224  28.876  29.805  1.00  0.00     0.074 A 
ATOM     59  C   UNL A   1      44.347  27.454  30.049  1.00  0.00    -0.034 C 
ATOM     60  H   UNL A   1      43.945  26.214  31.739  1.00  0.00     0.065 H 
ATOM     61  H   UNL A   1      44.952  31.159  26.302  1.00  0.00     0.065 H 
ATOM     62  C   UNL A   1      44.502  29.481  28.624  1.00  0.00     0.037 A 
ATOM     63  H   UNL A   1      44.671  26.770  29.347  1.00  0.00     0.065 H 
BRANCH  44  64
ATOM     64  C   UNL A   1      43.471  35.584  28.566  1.00  0.00     0.064 A 
ATOM     65  C   UNL A   1      42.288  36.056  27.976  1.00  0.00     0.173 A 
ATOM     66  C   UNL A   1      44.634  36.352  28.401  1.00  0.00     0.173 A 
ATOM     67  F   UNL A   1      41.148  35.360  28.098  1.00  0.00    -0.203 F 
ATOM     68  C   UNL A   1      42.281  37.223  27.214  1.00  0.00     0.198 A 
ATOM     69  C   UNL A   1      44.617  37.536  27.669  1.00  0.00     0.198 A 
ATOM     70  F   UNL A   1      45.791  35.957  28.953  1.00  0.00    -0.203 F 
ATOM     71  F   UNL A   1      41.154  37.618  26.608  1.00  0.00    -0.200 F 
ATOM     72  C   UNL A   1      43.443  37.963  27.064  1.00  0.00     0.200 A 
ATOM     73  F   UNL A   1      45.737  38.260  27.541  1.00  0.00    -0.200 F 
ATOM     74  F   UNL A   1      43.436  39.086  26.332  1.00  0.00    -0.200 F 
ENDBRANCH  44  64
BRANCH  47  75
ATOM     75  C   UNL A   1      43.148  27.273  34.109  1.00  0.00     0.064 A 
ATOM     76  C   UNL A   1      41.895  26.743  34.438  1.00  0.00     0.173 A 
ATOM     77  C   UNL A   1      44.288  26.568  34.525  1.00  0.00     0.173 A 
ATOM     78  F   UNL A   1      40.777  27.389  34.074  1.00  0.00    -0.203 F 
ATOM     79  C   UNL A   1      41.786  25.553  35.155  1.00  0.00     0.198 A 
ATOM     80  C   UNL A   1      44.177  25.364  35.217  1.00  0.00     0.198 A 
ATOM     81  F   UNL A   1      45.510  27.032  34.226  1.00  0.00    -0.203 F 
ATOM     82  F   UNL A   1      40.574  25.078  35.478  1.00  0.00    -0.200 F 
ATOM     83  C   UNL A   1      42.926  24.860  35.534  1.00  0.00     0.200 A 
ATOM     84  F   UNL A   1      45.281  24.688  35.562  1.00  0.00    -0.200 F 
ATOM     85  F   UNL A   1      42.818  23.705  36.205  1.00  0.00    -0.200 F 
ENDBRANCH  47  75
BRANCH  62  86
ATOM     86  C   UNL A   1      45.022  28.621  27.508  1.00  0.00     0.064 A 
ATOM     87  C   UNL A   1      46.394  28.419  27.305  1.00  0.00     0.173 A 
ATOM     88  C   UNL A   1      44.125  27.927  26.680  1.00  0.00     0.173 A 
ATOM     89  F   UNL A   1      47.293  29.073  28.057  1.00  0.00    -0.203 F 
ATOM     90  C   UNL A   1      46.850  27.559  26.309  1.00  0.00     0.198 A 
ATOM     91  C   UNL A   1      44.584  27.045  25.706  1.00  0.00     0.198 A 
ATOM     92  F   UNL A   1      42.802  28.084  26.837  1.00  0.00    -0.203 F 
ATOM     93  F   UNL A   1      48.166  27.403  26.111  1.00  0.00    -0.200 F 
ATOM     94  C   UNL A   1      45.945  26.863  25.521  1.00  0.00     0.200 A 
ATOM     95  F   UNL A   1      43.707  26.364  24.956  1.00  0.00    -0.200 F 
ATOM     96  F   UNL A   1      46.386  26.019  24.577  1.00  0.00    -0.200 F 
ENDBRANCH  62  86
ENDBRANCH  27  30
ENDBRANCH  18  20
ENDBRANCH  13  16
ENDBRANCH  10  13
ENDBRANCH   7  10
ENDBRANCH   4   7
ENDBRANCH   1   4
BRANCH   1  97
ATOM     97  C   UNL A   1      38.539  31.239  34.625  1.00  0.00     0.018 C 
ATOM     98  H   UNL A   1      39.464  30.856  34.250  1.00  0.00     0.049 H 
ATOM     99  H   UNL A   1      38.494  32.305  34.545  1.00  0.00     0.049 H 
BRANCH  97 100
ATOM    100  N   UNL A   1      37.450  30.688  33.836  1.00  0.00    -0.352 N 
ATOM    101  C   UNL A   1      37.072  30.998  32.554  1.00  0.00     0.253 C 
ATOM    102  H   UNL A   1      36.910  29.997  34.283  1.00  0.00     0.163 HD
ATOM    103  O   UNL A   1      36.068  30.484  32.068  1.00  0.00    -0.269 OA
BRANCH 101 104
ATOM    104  C   UNL A   1      37.852  31.966  31.755  1.00  0.00     0.063 A 
ATOM    105  C   UNL A   1      39.107  31.537  31.300  1.00  0.00    -0.047 A 
ATOM    106  C   UNL A   1      37.389  33.267  31.481  1.00  0.00     0.054 A 
ATOM    107  C   UNL A   1      39.895  32.381  30.518  1.00  0.00    -0.061 A 
ATOM    108  H   UNL A   1      39.449  30.595  31.543  1.00  0.00     0.063 H 
ATOM    109  C   UNL A   1      38.181  34.078  30.651  1.00  0.00    -0.038 A 
ATOM    110  C   UNL A   1      39.424  33.645  30.183  1.00  0.00    -0.060 A 
ATOM    111  H   UNL A   1      40.823  32.069  30.191  1.00  0.00     0.062 H 
ATOM    112  H   UNL A   1      37.837  35.012  30.381  1.00  0.00     0.064 H 
ATOM    113  H   UNL A   1      39.994  34.265  29.586  1.00  0.00     0.062 H 
BRANCH 106 114
ATOM    114  N   UNL A   1      36.178  33.746  32.009  1.00  0.00    -0.323 N 
ATOM    115  H   UNL A   1      36.122  33.749  32.991  1.00  0.00     0.170 HD
BRANCH 114 116
ATOM    116  C   UNL A   1      35.049  34.216  31.351  1.00  0.00     0.233 A 
ATOM    117  N   UNL A   1      34.097  34.827  32.036  1.00  0.00    -0.182 NA
ATOM    118  N   UNL A   1      35.007  34.011  30.040  1.00  0.00    -0.176 NA
ATOM    119  C   UNL A   1      33.082  35.228  31.294  1.00  0.00     0.228 A 
ATOM    120  C   UNL A   1      33.897  34.391  29.413  1.00  0.00     0.233 A 
ATOM    121  Cl  UNL A   1      31.821  36.035  32.118  1.00  0.00    -0.041 Cl
ATOM    122  N   UNL A   1      32.910  35.048  29.999  1.00  0.00    -0.182 NA
BRANCH 120 123
ATOM    123  N   UNL A   1      33.762  33.937  28.104  1.00  0.00    -0.324 N 
ATOM    124  H   UNL A   1      34.092  34.547  27.405  1.00  0.00     0.170 HD
BRANCH 123 125
ATOM    125  C   UNL A   1      33.222  32.732  27.652  1.00  0.00     0.041 A 
ATOM    126  C   UNL A   1      31.940  32.713  27.093  1.00  0.00    -0.036 A 
ATOM    127  C   UNL A   1      33.971  31.555  27.642  1.00  0.00    -0.036 A 
ATOM    128  C   UNL A   1      31.421  31.542  26.527  1.00  0.00    -0.036 A 
ATOM    129  H   UNL A   1      31.369  33.572  27.097  1.00  0.00     0.065 H 
ATOM    130  C   UNL A   1      33.435  30.370  27.134  1.00  0.00    -0.036 A 
ATOM    131  H   UNL A   1      34.933  31.559  28.016  1.00  0.00     0.065 H 
ATOM    132  C   UNL A   1      32.160  30.356  26.559  1.00  0.00     0.044 A 
ATOM    133  H   UNL A   1      30.488  31.555  26.085  1.00  0.00     0.065 H 
ATOM    134  H   UNL A   1      33.984  29.498  27.182  1.00  0.00     0.065 H 
BRANCH 132 135
ATOM    135  N   UNL A   1      31.647  29.161  25.976  1.00  0.00    -0.308 N 
ATOM    136  C   UNL A   1      31.719  29.054  24.514  1.00  0.00     0.049 C 
ATOM    137  C   UNL A   1      31.410  28.030  26.766  1.00  0.00     0.253 C 
ATOM    138  C   UNL A   1      30.946  27.865  23.957  1.00  0.00     0.065 C 
ATOM    139  H   UNL A   1      32.745  28.955  24.231  1.00  0.00     0.052 H 
ATOM    140  H   UNL A   1      31.273  29.939  24.110  1.00  0.00     0.052 H 
ATOM    141  C   UNL A   1      31.013  26.758  26.001  1.00  0.00     0.126 C 
ATOM    142  O   UNL A   1      31.405  28.028  27.999  1.00  0.00    -0.272 OA
ATOM    143  O   UNL A   1      31.356  26.677  24.627  1.00  0.00    -0.370 OA
ATOM    144  H   UNL A   1      31.144  27.771  22.910  1.00  0.00     0.059 H 
ATOM    145  H   UNL A   1      29.898  28.017  24.110  1.00  0.00     0.059 H 
ATOM    146  H   UNL A   1      31.479  25.930  26.496  1.00  0.00     0.067 H 
ATOM    147  H   UNL A   1      29.943  26.760  26.012  1.00  0.00     0.067 H 
ENDBRANCH 132 135
ENDBRANCH 123 125
ENDBRANCH 120 123
ENDBRANCH 114 116
ENDBRANCH 106 114
ENDBRANCH 101 104
ENDBRANCH  97 100
ENDBRANCH   1  97
TORSDOF 18
ENDMDL
MODEL 10
REMARK VINA RESULT:     -11.7      5.446     11.847
REMARK SMILES O=C(NCCCCCCNC(=O)c1ccccc1Nc1nc(Cl)nc(Nc2ccc(N3CCOCC3=O)cc2)n1)c1ccc(-c2c3nc(c(-c4c(F)c(F)c(F)c(F)c4F)c4ccc([nH]4)c(-c4c(F)c(F)c(F)c(F)c4F)c4nc(c(-c5c(F)c(F)c(F)c(F)c5F)c5ccc2[nH]5)C=C4)C=C3)cc1
REMARK SMILES IDX 8 1 7 4 6 7 5 10 4 13 3 16 1 17 2 18 41 20 42 21 103 22
REMARK SMILES IDX 43 23 102 25 44 27 45 30 46 31 96 32 47 33 101 34 95 35
REMARK SMILES IDX 97 36 48 37 100 38 94 40 93 42 49 44 81 47 61 48 80 49 62 50
REMARK SMILES IDX 65 51 79 52 98 53 63 54 64 56 78 58 99 59 66 62 50 64 51 65
REMARK SMILES IDX 59 66 52 67 53 68 57 69 60 70 54 71 55 72 58 73 56 74 82 75
REMARK SMILES IDX 83 76 91 77 84 78 85 79 89 80 92 81 86 82 87 83 90 84 88 85
REMARK SMILES IDX 67 86 68 87 76 88 69 89 70 90 74 91 77 92 71 93 72 94 75 95
REMARK SMILES IDX 73 96 9 97 10 100 11 101 12 103 13 104 14 105 18 106 15 107
REMARK SMILES IDX 17 109 16 110 19 114 20 116 21 117 40 118 22 119 25 120
REMARK SMILES IDX 23 121 24 122 26 123 27 125 28 126 39 127 29 128 38 130
REMARK SMILES IDX 30 132 31 135 32 136 36 137 33 138 35 141 37 142 34 143
REMARK H PARENT 8 2 8 3 7 5 7 6 6 8 6 9 5 11 5 12 4 14 4 15 3 19 42 24 103 26
REMARK H PARENT 43 28 102 29 101 39 95 41 97 43 100 45 94 46 62 55 65 57 98 60
REMARK H PARENT 63 61 99 63 9 98 9 99 10 102 14 108 15 111 17 112 16 113
REMARK H PARENT 19 115 26 124 28 129 39 131 29 133 38 134 32 139 32 140 33 144
REMARK H PARENT 33 145 35 146 35 147
REMARK Flexibility Score: inf
ROOT
ATOM      1  C   UNL A   1      41.116  34.221  29.888  1.00  0.00    -0.036 C 
ATOM      2  H   UNL A   1      41.136  33.486  29.109  1.00  0.00     0.028 H 
ATOM      3  H   UNL A   1      40.572  35.104  29.629  1.00  0.00     0.028 H 
ENDROOT
BRANCH   1   4
ATOM      4  C   UNL A   1      42.558  34.671  30.151  1.00  0.00    -0.052 C 
ATOM      5  H   UNL A   1      43.212  33.981  29.661  1.00  0.00     0.027 H 
ATOM      6  H   UNL A   1      42.623  35.671  29.778  1.00  0.00     0.027 H 
BRANCH   4   7
ATOM      7  C   UNL A   1      42.972  34.747  31.623  1.00  0.00    -0.052 C 
ATOM      8  H   UNL A   1      42.087  34.672  32.220  1.00  0.00     0.027 H 
ATOM      9  H   UNL A   1      43.665  33.946  31.776  1.00  0.00     0.027 H 
BRANCH   7  10
ATOM     10  C   UNL A   1      43.711  36.023  32.035  1.00  0.00    -0.036 C 
ATOM     11  H   UNL A   1      42.996  36.698  32.457  1.00  0.00     0.028 H 
ATOM     12  H   UNL A   1      44.470  35.719  32.724  1.00  0.00     0.028 H 
BRANCH  10  13
ATOM     13  C   UNL A   1      44.430  36.745  30.901  1.00  0.00     0.018 C 
ATOM     14  H   UNL A   1      44.253  36.213  29.989  1.00  0.00     0.049 H 
ATOM     15  H   UNL A   1      44.047  37.743  30.855  1.00  0.00     0.049 H 
BRANCH  13  16
ATOM     16  N   UNL A   1      45.865  36.830  31.119  1.00  0.00    -0.352 N 
ATOM     17  O   UNL A   1      47.962  36.064  31.439  1.00  0.00    -0.269 OA
ATOM     18  C   UNL A   1      46.814  35.845  31.053  1.00  0.00     0.251 C 
ATOM     19  H   UNL A   1      46.203  37.726  31.347  1.00  0.00     0.163 HD
BRANCH  18  20
ATOM     20  C   UNL A   1      46.459  34.508  30.538  1.00  0.00     0.039 A 
ATOM     21  C   UNL A   1      46.314  33.418  31.405  1.00  0.00    -0.049 A 
ATOM     22  C   UNL A   1      46.241  34.351  29.168  1.00  0.00    -0.049 A 
ATOM     23  C   UNL A   1      46.064  32.150  30.889  1.00  0.00    -0.053 A 
ATOM     24  H   UNL A   1      46.395  33.555  32.424  1.00  0.00     0.063 H 
ATOM     25  C   UNL A   1      45.919  33.092  28.660  1.00  0.00    -0.053 A 
ATOM     26  H   UNL A   1      46.317  35.161  28.535  1.00  0.00     0.063 H 
ATOM     27  C   UNL A   1      45.850  31.978  29.513  1.00  0.00    -0.014 A 
ATOM     28  H   UNL A   1      46.035  31.335  31.520  1.00  0.00     0.063 H 
ATOM     29  H   UNL A   1      45.730  32.979  27.651  1.00  0.00     0.063 H 
BRANCH  27  30
ATOM     30  C   UNL A   1      45.502  30.645  28.966  1.00  0.00     0.031 A 
ATOM     31  C   UNL A   1      44.071  30.199  28.896  1.00  0.00     0.074 A 
ATOM     32  C   UNL A   1      46.490  29.817  28.581  1.00  0.00     0.049 A 
ATOM     33  N   UNL A   1      43.583  29.031  28.561  1.00  0.00    -0.248 NA
ATOM     34  C   UNL A   1      43.054  31.195  29.262  1.00  0.00    -0.034 C 
ATOM     35  C   UNL A   1      47.916  30.143  28.605  1.00  0.00    -0.036 A 
ATOM     36  N   UNL A   1      46.448  28.528  28.116  1.00  0.00    -0.354 N 
ATOM     37  C   UNL A   1      42.206  29.142  28.702  1.00  0.00     0.074 A 
ATOM     38  C   UNL A   1      41.938  30.485  29.175  1.00  0.00    -0.034 C 
ATOM     39  H   UNL A   1      43.176  32.187  29.518  1.00  0.00     0.065 H 
ATOM     40  C   UNL A   1      48.615  29.082  28.177  1.00  0.00    -0.036 A 
ATOM     41  H   UNL A   1      48.319  31.045  28.904  1.00  0.00     0.065 H 
ATOM     42  C   UNL A   1      47.692  27.984  27.910  1.00  0.00     0.049 A 
ATOM     43  H   UNL A   1      45.610  28.040  27.947  1.00  0.00     0.167 HD
ATOM     44  C   UNL A   1      41.256  28.207  28.455  1.00  0.00     0.037 A 
ATOM     45  H   UNL A   1      41.001  30.841  29.415  1.00  0.00     0.065 H 
ATOM     46  H   UNL A   1      49.639  29.048  28.055  1.00  0.00     0.065 H 
ATOM     47  C   UNL A   1      48.054  26.728  27.586  1.00  0.00     0.037 A 
ATOM     48  C   UNL A   1      41.539  26.875  27.984  1.00  0.00     0.049 A 
ATOM     49  C   UNL A   1      46.989  25.694  27.362  1.00  0.00     0.074 A 
ATOM     50  C   UNL A   1      40.650  25.866  27.662  1.00  0.00    -0.036 A 
ATOM     51  N   UNL A   1      42.814  26.362  27.782  1.00  0.00    -0.354 N 
ATOM     52  N   UNL A   1      45.689  25.816  27.459  1.00  0.00    -0.248 NA
ATOM     53  C   UNL A   1      47.440  24.348  26.983  1.00  0.00    -0.034 C 
ATOM     54  C   UNL A   1      41.385  24.723  27.329  1.00  0.00    -0.036 A 
ATOM     55  H   UNL A   1      39.620  25.942  27.666  1.00  0.00     0.065 H 
ATOM     56  C   UNL A   1      42.734  25.040  27.373  1.00  0.00     0.049 A 
ATOM     57  H   UNL A   1      43.652  26.862  27.912  1.00  0.00     0.167 HD
ATOM     58  C   UNL A   1      45.162  24.577  27.124  1.00  0.00     0.074 A 
ATOM     59  C   UNL A   1      46.286  23.715  26.822  1.00  0.00    -0.034 C 
ATOM     60  H   UNL A   1      48.402  23.991  26.872  1.00  0.00     0.065 H 
ATOM     61  H   UNL A   1      40.990  23.800  27.093  1.00  0.00     0.065 H 
ATOM     62  C   UNL A   1      43.862  24.195  27.064  1.00  0.00     0.037 A 
ATOM     63  H   UNL A   1      46.200  22.732  26.520  1.00  0.00     0.065 H 
BRANCH  44  64
ATOM     64  C   UNL A   1      39.826  28.582  28.731  1.00  0.00     0.064 A 
ATOM     65  C   UNL A   1      39.015  29.192  27.762  1.00  0.00     0.173 A 
ATOM     66  C   UNL A   1      39.255  28.317  29.986  1.00  0.00     0.173 A 
ATOM     67  F   UNL A   1      39.511  29.473  26.547  1.00  0.00    -0.203 F 
ATOM     68  C   UNL A   1      37.704  29.563  28.051  1.00  0.00     0.198 A 
ATOM     69  C   UNL A   1      37.933  28.656  30.261  1.00  0.00     0.198 A 
ATOM     70  F   UNL A   1      39.978  27.724  30.947  1.00  0.00    -0.203 F 
ATOM     71  F   UNL A   1      36.971  30.202  27.129  1.00  0.00    -0.200 F 
ATOM     72  C   UNL A   1      37.163  29.291  29.298  1.00  0.00     0.200 A 
ATOM     73  F   UNL A   1      37.406  28.375  31.461  1.00  0.00    -0.200 F 
ATOM     74  F   UNL A   1      35.901  29.647  29.576  1.00  0.00    -0.200 F 
ENDBRANCH  44  64
BRANCH  47  75
ATOM     75  C   UNL A   1      49.498  26.402  27.469  1.00  0.00     0.064 A 
ATOM     76  C   UNL A   1      50.115  26.299  26.216  1.00  0.00     0.173 A 
ATOM     77  C   UNL A   1      50.301  26.246  28.610  1.00  0.00     0.173 A 
ATOM     78  F   UNL A   1      49.386  26.427  25.098  1.00  0.00    -0.203 F 
ATOM     79  C   UNL A   1      51.482  26.052  26.109  1.00  0.00     0.198 A 
ATOM     80  C   UNL A   1      51.671  26.027  28.500  1.00  0.00     0.198 A 
ATOM     81  F   UNL A   1      49.756  26.344  29.832  1.00  0.00    -0.203 F 
ATOM     82  F   UNL A   1      52.045  25.935  24.898  1.00  0.00    -0.200 F 
ATOM     83  C   UNL A   1      52.260  25.926  27.250  1.00  0.00     0.200 A 
ATOM     84  F   UNL A   1      52.422  25.927  29.606  1.00  0.00    -0.200 F 
ATOM     85  F   UNL A   1      53.578  25.709  27.144  1.00  0.00    -0.200 F 
ENDBRANCH  47  75
BRANCH  62  86
ATOM     86  C   UNL A   1      43.569  22.797  26.603  1.00  0.00     0.064 A 
ATOM     87  C   UNL A   1      43.981  22.327  25.348  1.00  0.00     0.173 A 
ATOM     88  C   UNL A   1      42.934  21.891  27.468  1.00  0.00     0.173 A 
ATOM     89  F   UNL A   1      44.577  23.157  24.478  1.00  0.00    -0.203 F 
ATOM     90  C   UNL A   1      43.762  21.004  24.973  1.00  0.00     0.198 A 
ATOM     91  C   UNL A   1      42.743  20.562  27.101  1.00  0.00     0.198 A 
ATOM     92  F   UNL A   1      42.523  22.290  28.681  1.00  0.00    -0.203 F 
ATOM     93  F   UNL A   1      44.136  20.583  23.757  1.00  0.00    -0.200 F 
ATOM     94  C   UNL A   1      43.156  20.121  25.854  1.00  0.00     0.200 A 
ATOM     95  F   UNL A   1      42.171  19.707  27.960  1.00  0.00    -0.200 F 
ATOM     96  F   UNL A   1      42.965  18.842  25.499  1.00  0.00    -0.200 F 
ENDBRANCH  62  86
ENDBRANCH  27  30
ENDBRANCH  18  20
ENDBRANCH  13  16
ENDBRANCH  10  13
ENDBRANCH   7  10
ENDBRANCH   4   7
ENDBRANCH   1   4
BRANCH   1  97
ATOM     97  C   UNL A   1      40.393  33.615  31.089  1.00  0.00     0.018 C 
ATOM     98  H   UNL A   1      41.123  33.284  31.798  1.00  0.00     0.049 H 
ATOM     99  H   UNL A   1      39.796  32.802  30.734  1.00  0.00     0.049 H 
BRANCH  97 100
ATOM    100  N   UNL A   1      39.508  34.567  31.738  1.00  0.00    -0.352 N 
ATOM    101  C   UNL A   1      38.531  34.337  32.673  1.00  0.00     0.253 C 
ATOM    102  H   UNL A   1      39.627  35.507  31.471  1.00  0.00     0.163 HD
ATOM    103  O   UNL A   1      37.819  35.260  33.058  1.00  0.00    -0.269 OA
BRANCH 101 104
ATOM    104  C   UNL A   1      38.309  32.977  33.207  1.00  0.00     0.063 A 
ATOM    105  C   UNL A   1      38.952  32.665  34.414  1.00  0.00    -0.047 A 
ATOM    106  C   UNL A   1      37.522  32.020  32.538  1.00  0.00     0.054 A 
ATOM    107  C   UNL A   1      38.775  31.412  34.999  1.00  0.00    -0.061 A 
ATOM    108  H   UNL A   1      39.558  33.364  34.871  1.00  0.00     0.063 H 
ATOM    109  C   UNL A   1      37.322  30.784  33.174  1.00  0.00    -0.038 A 
ATOM    110  C   UNL A   1      37.948  30.478  34.385  1.00  0.00    -0.060 A 
ATOM    111  H   UNL A   1      39.255  31.179  35.882  1.00  0.00     0.062 H 
ATOM    112  H   UNL A   1      36.699  30.087  32.738  1.00  0.00     0.064 H 
ATOM    113  H   UNL A   1      37.795  29.557  34.826  1.00  0.00     0.062 H 
BRANCH 106 114
ATOM    114  N   UNL A   1      36.950  32.284  31.282  1.00  0.00    -0.323 N 
ATOM    115  H   UNL A   1      37.417  31.878  30.517  1.00  0.00     0.170 HD
BRANCH 114 116
ATOM    116  C   UNL A   1      35.823  33.029  30.961  1.00  0.00     0.233 A 
ATOM    117  N   UNL A   1      35.184  33.694  31.909  1.00  0.00    -0.182 NA
ATOM    118  N   UNL A   1      35.459  33.018  29.684  1.00  0.00    -0.176 NA
ATOM    119  C   UNL A   1      34.134  34.365  31.472  1.00  0.00     0.228 A 
ATOM    120  C   UNL A   1      34.339  33.667  29.380  1.00  0.00     0.233 A 
ATOM    121  Cl  UNL A   1      33.269  35.255  32.646  1.00  0.00    -0.041 Cl
ATOM    122  N   UNL A   1      33.654  34.398  30.244  1.00  0.00    -0.182 NA
BRANCH 120 123
ATOM    123  N   UNL A   1      33.835  33.430  28.104  1.00  0.00    -0.324 N 
ATOM    124  H   UNL A   1      33.888  34.187  27.476  1.00  0.00     0.170 HD
BRANCH 123 125
ATOM    125  C   UNL A   1      33.266  32.261  27.596  1.00  0.00     0.041 A 
ATOM    126  C   UNL A   1      31.972  32.292  27.067  1.00  0.00    -0.036 A 
ATOM    127  C   UNL A   1      33.997  31.075  27.501  1.00  0.00    -0.036 A 
ATOM    128  C   UNL A   1      31.422  31.163  26.448  1.00  0.00    -0.036 A 
ATOM    129  H   UNL A   1      31.414  33.158  27.134  1.00  0.00     0.065 H 
ATOM    130  C   UNL A   1      33.431  29.930  26.939  1.00  0.00    -0.036 A 
ATOM    131  H   UNL A   1      34.967  31.044  27.852  1.00  0.00     0.065 H 
ATOM    132  C   UNL A   1      32.143  29.967  26.394  1.00  0.00     0.044 A 
ATOM    133  H   UNL A   1      30.480  31.215  26.029  1.00  0.00     0.065 H 
ATOM    134  H   UNL A   1      33.967  29.049  26.924  1.00  0.00     0.065 H 
BRANCH 132 135
ATOM    135  N   UNL A   1      31.599  28.815  25.756  1.00  0.00    -0.308 N 
ATOM    136  C   UNL A   1      31.733  28.741  24.297  1.00  0.00     0.049 C 
ATOM    137  C   UNL A   1      31.269  27.678  26.503  1.00  0.00     0.253 C 
ATOM    138  C   UNL A   1      30.928  27.608  23.673  1.00  0.00     0.065 C 
ATOM    139  H   UNL A   1      32.765  28.596  24.057  1.00  0.00     0.052 H 
ATOM    140  H   UNL A   1      31.351  29.658  23.897  1.00  0.00     0.052 H 
ATOM    141  C   UNL A   1      30.844  26.447  25.687  1.00  0.00     0.126 C 
ATOM    142  O   UNL A   1      31.207  27.645  27.735  1.00  0.00    -0.272 OA
ATOM    143  O   UNL A   1      31.246  26.384  24.328  1.00  0.00    -0.370 OA
ATOM    144  H   UNL A   1      31.170  27.530  22.633  1.00  0.00     0.059 H 
ATOM    145  H   UNL A   1      29.883  27.810  23.783  1.00  0.00     0.059 H 
ATOM    146  H   UNL A   1      31.245  25.585  26.179  1.00  0.00     0.067 H 
ATOM    147  H   UNL A   1      29.777  26.504  25.650  1.00  0.00     0.067 H 
ENDBRANCH 132 135
ENDBRANCH 123 125
ENDBRANCH 120 123
ENDBRANCH 114 116
ENDBRANCH 106 114
ENDBRANCH 101 104
ENDBRANCH  97 100
ENDBRANCH   1  97
TORSDOF 18
ENDMDL
