MODEL 1
REMARK VINA RESULT:     -12.4      0.000      0.000
REMARK SMILES Nc1c(CC(=O)NCCCCCCNC(=O)c2ccc(-c3c4nc(c(-c5c(F)c(F)c(F)c(F)c5F)c5ccc([nH]5)c(-c5c(F)c(F)c(F)c(F)c5F)c5nc(c(-c6c(F)c(F)c(F)c(F)c6F)c6ccc3[nH]6)C=C5)C=C4)cc2)cccc1C(=O)c1ccc(Br)cc1
REMARK SMILES IDX 10 1 9 4 8 7 7 10 5 11 6 12 4 14 3 17 2 18 83 19 80 20 82 21
REMARK SMILES IDX 81 22 1 26 84 29 85 30 86 31 87 32 92 33 88 34 91 36 89 38
REMARK SMILES IDX 90 41 11 42 12 45 13 48 14 51 15 52 16 54 17 55 18 56 79 57
REMARK SMILES IDX 19 58 78 60 20 62 21 65 22 66 72 67 23 68 77 69 71 70 73 71
REMARK SMILES IDX 24 72 76 73 70 75 69 77 25 79 57 82 37 83 56 84 38 85 41 86
REMARK SMILES IDX 55 87 74 88 39 89 40 91 54 93 75 94 42 97 26 99 27 100
REMARK SMILES IDX 35 101 28 102 29 103 33 104 36 105 30 106 31 107 34 108
REMARK SMILES IDX 32 109 58 110 59 111 67 112 60 113 61 114 65 115 68 116
REMARK SMILES IDX 62 117 63 118 66 119 64 120 43 121 44 122 52 123 45 124
REMARK SMILES IDX 46 125 50 126 53 127 47 128 48 129 51 130 49 131
REMARK H PARENT 10 2 10 3 9 5 9 6 8 8 8 9 7 13 4 15 4 16 80 23 82 24 81 25
REMARK H PARENT 1 27 1 28 87 35 92 37 88 39 91 40 11 43 11 44 12 46 12 47
REMARK H PARENT 13 49 13 50 14 53 18 59 79 61 19 63 78 64 77 74 71 76 73 78
REMARK H PARENT 76 80 70 81 38 90 41 92 74 95 39 96 75 98
REMARK Flexibility Score: inf
ROOT
ATOM      1  C   UNL A   1      32.337  30.293  26.842  1.00  0.00    -0.052 C 
ATOM      2  H   UNL A   1      33.130  30.082  26.156  1.00  0.00     0.027 H 
ATOM      3  H   UNL A   1      32.655  30.859  27.693  1.00  0.00     0.027 H 
ENDROOT
BRANCH   1   4
ATOM      4  C   UNL A   1      31.805  28.960  27.383  1.00  0.00    -0.036 C 
ATOM      5  H   UNL A   1      32.479  28.605  28.135  1.00  0.00     0.028 H 
ATOM      6  H   UNL A   1      30.826  29.142  27.775  1.00  0.00     0.028 H 
BRANCH   4   7
ATOM      7  C   UNL A   1      31.670  27.885  26.305  1.00  0.00     0.017 C 
ATOM      8  H   UNL A   1      30.953  28.205  25.579  1.00  0.00     0.049 H 
ATOM      9  H   UNL A   1      32.627  27.739  25.849  1.00  0.00     0.049 H 
BRANCH   7  10
ATOM     10  N   UNL A   1      31.237  26.626  26.874  1.00  0.00    -0.356 N 
ATOM     11  C   UNL A   1      31.670  25.362  26.596  1.00  0.00     0.224 C 
ATOM     12  O   UNL A   1      31.070  24.416  27.111  1.00  0.00    -0.275 OA
ATOM     13  H   UNL A   1      30.531  26.691  27.556  1.00  0.00     0.163 HD
BRANCH  11  14
ATOM     14  C   UNL A   1      32.910  25.137  25.746  1.00  0.00     0.054 C 
ATOM     15  H   UNL A   1      32.982  25.941  25.045  1.00  0.00     0.042 H 
ATOM     16  H   UNL A   1      33.733  25.091  26.428  1.00  0.00     0.042 H 
BRANCH  14  17
ATOM     17  C   UNL A   1      32.934  23.832  24.968  1.00  0.00    -0.015 A 
ATOM     18  C   UNL A   1      33.733  22.719  25.353  1.00  0.00     0.046 A 
ATOM     19  C   UNL A   1      33.754  21.570  24.519  1.00  0.00     0.046 A 
ATOM     20  C   UNL A   1      32.152  23.766  23.800  1.00  0.00    -0.056 A 
ATOM     21  C   UNL A   1      32.966  21.552  23.351  1.00  0.00    -0.049 A 
ATOM     22  C   UNL A   1      32.168  22.635  22.996  1.00  0.00    -0.061 A 
ATOM     23  H   UNL A   1      31.558  24.568  23.538  1.00  0.00     0.063 H 
ATOM     24  H   UNL A   1      32.982  20.717  22.745  1.00  0.00     0.063 H 
ATOM     25  H   UNL A   1      31.594  22.598  22.141  1.00  0.00     0.062 H 
BRANCH  18  26
ATOM     26  N   UNL A   1      34.498  22.826  26.509  1.00  0.00    -0.398 N 
ATOM     27  H   UNL A   1      35.475  22.713  26.466  1.00  0.00     0.156 HD
ATOM     28  H   UNL A   1      34.063  23.015  27.373  1.00  0.00     0.156 HD
ENDBRANCH  18  26
BRANCH  19  29
ATOM     29  C   UNL A   1      34.595  20.340  24.724  1.00  0.00     0.195 C 
ATOM     30  O   UNL A   1      35.813  20.442  24.874  1.00  0.00    -0.289 OA
BRANCH  29  31
ATOM     31  C   UNL A   1      34.039  18.980  24.842  1.00  0.00     0.023 A 
ATOM     32  C   UNL A   1      34.753  17.930  24.252  1.00  0.00    -0.050 A 
ATOM     33  C   UNL A   1      32.863  18.723  25.555  1.00  0.00    -0.050 A 
ATOM     34  C   UNL A   1      34.335  16.612  24.439  1.00  0.00    -0.047 A 
ATOM     35  H   UNL A   1      35.588  18.130  23.679  1.00  0.00     0.063 H 
ATOM     36  C   UNL A   1      32.453  17.402  25.751  1.00  0.00    -0.047 A 
ATOM     37  H   UNL A   1      32.302  19.503  25.931  1.00  0.00     0.063 H 
ATOM     38  C   UNL A   1      33.198  16.354  25.204  1.00  0.00     0.018 A 
ATOM     39  H   UNL A   1      34.863  15.834  24.014  1.00  0.00     0.063 H 
ATOM     40  H   UNL A   1      31.603  17.200  26.300  1.00  0.00     0.063 H 
ATOM     41  Br  UNL A   1      32.676  14.565  25.524  1.00  0.00    -0.051 Br
ENDBRANCH  29  31
ENDBRANCH  19  29
ENDBRANCH  14  17
ENDBRANCH  11  14
ENDBRANCH   7  10
ENDBRANCH   4   7
ENDBRANCH   1   4
BRANCH   1  42
ATOM     42  C   UNL A   1      31.294  31.154  26.117  1.00  0.00    -0.052 C 
ATOM     43  H   UNL A   1      30.325  30.757  26.338  1.00  0.00     0.027 H 
ATOM     44  H   UNL A   1      31.542  31.113  25.078  1.00  0.00     0.027 H 
BRANCH  42  45
ATOM     45  C   UNL A   1      31.301  32.636  26.502  1.00  0.00    -0.036 C 
ATOM     46  H   UNL A   1      30.442  32.827  27.111  1.00  0.00     0.028 H 
ATOM     47  H   UNL A   1      31.293  33.190  25.587  1.00  0.00     0.028 H 
BRANCH  45  48
ATOM     48  C   UNL A   1      32.540  33.078  27.273  1.00  0.00     0.018 C 
ATOM     49  H   UNL A   1      33.390  33.019  26.626  1.00  0.00     0.049 H 
ATOM     50  H   UNL A   1      32.653  32.432  28.118  1.00  0.00     0.049 H 
BRANCH  48  51
ATOM     51  N   UNL A   1      32.414  34.443  27.762  1.00  0.00    -0.352 N 
ATOM     52  C   UNL A   1      33.053  35.057  28.805  1.00  0.00     0.251 C 
ATOM     53  H   UNL A   1      31.776  35.009  27.269  1.00  0.00     0.163 HD
ATOM     54  O   UNL A   1      32.665  36.154  29.211  1.00  0.00    -0.269 OA
BRANCH  52  55
ATOM     55  C   UNL A   1      34.202  34.400  29.460  1.00  0.00     0.039 A 
ATOM     56  C   UNL A   1      33.969  33.553  30.547  1.00  0.00    -0.049 A 
ATOM     57  C   UNL A   1      35.506  34.632  29.015  1.00  0.00    -0.049 A 
ATOM     58  C   UNL A   1      35.041  32.896  31.153  1.00  0.00    -0.053 A 
ATOM     59  H   UNL A   1      33.010  33.415  30.899  1.00  0.00     0.063 H 
ATOM     60  C   UNL A   1      36.565  33.921  29.573  1.00  0.00    -0.053 A 
ATOM     61  H   UNL A   1      35.685  35.329  28.274  1.00  0.00     0.063 H 
ATOM     62  C   UNL A   1      36.343  33.051  30.651  1.00  0.00    -0.014 A 
ATOM     63  H   UNL A   1      34.875  32.293  31.974  1.00  0.00     0.063 H 
ATOM     64  H   UNL A   1      37.517  34.035  29.192  1.00  0.00     0.063 H 
BRANCH  62  65
ATOM     65  C   UNL A   1      37.489  32.318  31.245  1.00  0.00     0.031 A 
ATOM     66  C   UNL A   1      38.006  32.698  32.604  1.00  0.00     0.074 A 
ATOM     67  C   UNL A   1      38.101  31.351  30.535  1.00  0.00     0.049 A 
ATOM     68  N   UNL A   1      39.037  32.227  33.260  1.00  0.00    -0.248 NA
ATOM     69  C   UNL A   1      37.285  33.770  33.309  1.00  0.00    -0.034 C 
ATOM     70  C   UNL A   1      37.718  30.921  29.190  1.00  0.00    -0.036 A 
ATOM     71  N   UNL A   1      39.183  30.564  30.840  1.00  0.00    -0.354 N 
ATOM     72  C   UNL A   1      39.094  32.953  34.444  1.00  0.00     0.074 A 
ATOM     73  C   UNL A   1      38.031  33.932  34.391  1.00  0.00    -0.034 C 
ATOM     74  H   UNL A   1      36.424  34.266  33.031  1.00  0.00     0.065 H 
ATOM     75  C   UNL A   1      38.537  29.933  28.794  1.00  0.00    -0.036 A 
ATOM     76  H   UNL A   1      36.942  31.313  28.634  1.00  0.00     0.065 H 
ATOM     77  C   UNL A   1      39.527  29.689  29.839  1.00  0.00     0.049 A 
ATOM     78  H   UNL A   1      39.666  30.621  31.696  1.00  0.00     0.167 HD
ATOM     79  C   UNL A   1      39.943  32.801  35.487  1.00  0.00     0.037 A 
ATOM     80  H   UNL A   1      37.873  34.661  35.105  1.00  0.00     0.065 H 
ATOM     81  H   UNL A   1      38.477  29.429  27.896  1.00  0.00     0.065 H 
ATOM     82  C   UNL A   1      40.533  28.797  29.770  1.00  0.00     0.037 A 
ATOM     83  C   UNL A   1      40.987  31.811  35.543  1.00  0.00     0.049 A 
ATOM     84  C   UNL A   1      41.471  28.657  30.938  1.00  0.00     0.074 A 
ATOM     85  C   UNL A   1      41.863  31.537  36.579  1.00  0.00    -0.036 A 
ATOM     86  N   UNL A   1      41.298  30.933  34.514  1.00  0.00    -0.354 N 
ATOM     87  N   UNL A   1      41.475  29.301  32.079  1.00  0.00    -0.248 NA
ATOM     88  C   UNL A   1      42.543  27.660  30.810  1.00  0.00    -0.034 C 
ATOM     89  C   UNL A   1      42.736  30.527  36.158  1.00  0.00    -0.036 A 
ATOM     90  H   UNL A   1      41.872  31.998  37.502  1.00  0.00     0.065 H 
ATOM     91  C   UNL A   1      42.369  30.133  34.882  1.00  0.00     0.049 A 
ATOM     92  H   UNL A   1      40.828  30.886  33.651  1.00  0.00     0.167 HD
ATOM     93  C   UNL A   1      42.524  28.770  32.815  1.00  0.00     0.074 A 
ATOM     94  C   UNL A   1      43.127  27.738  31.996  1.00  0.00    -0.034 C 
ATOM     95  H   UNL A   1      42.779  27.057  30.006  1.00  0.00     0.065 H 
ATOM     96  H   UNL A   1      43.521  30.142  36.706  1.00  0.00     0.065 H 
ATOM     97  C   UNL A   1      42.952  29.105  34.058  1.00  0.00     0.037 A 
ATOM     98  H   UNL A   1      43.911  27.140  32.299  1.00  0.00     0.065 H 
BRANCH  79  99
ATOM     99  C   UNL A   1      39.776  33.726  36.658  1.00  0.00     0.064 A 
ATOM    100  C   UNL A   1      38.927  33.410  37.731  1.00  0.00     0.173 A 
ATOM    101  C   UNL A   1      40.499  34.926  36.728  1.00  0.00     0.173 A 
ATOM    102  F   UNL A   1      38.205  32.279  37.710  1.00  0.00    -0.203 F 
ATOM    103  C   UNL A   1      38.784  34.276  38.811  1.00  0.00     0.198 A 
ATOM    104  C   UNL A   1      40.378  35.775  37.826  1.00  0.00     0.198 A 
ATOM    105  F   UNL A   1      41.331  35.274  35.734  1.00  0.00    -0.203 F 
ATOM    106  F   UNL A   1      37.927  33.978  39.798  1.00  0.00    -0.200 F 
ATOM    107  C   UNL A   1      39.514  35.454  38.862  1.00  0.00     0.200 A 
ATOM    108  F   UNL A   1      41.096  36.905  37.880  1.00  0.00    -0.200 F 
ATOM    109  F   UNL A   1      39.381  36.283  39.905  1.00  0.00    -0.200 F 
ENDBRANCH  79  99
BRANCH  82 110
ATOM    110  C   UNL A   1      40.693  27.950  28.558  1.00  0.00     0.064 A 
ATOM    111  C   UNL A   1      41.454  28.392  27.467  1.00  0.00     0.173 A 
ATOM    112  C   UNL A   1      40.087  26.689  28.463  1.00  0.00     0.173 A 
ATOM    113  F   UNL A   1      42.037  29.600  27.504  1.00  0.00    -0.203 F 
ATOM    114  C   UNL A   1      41.585  27.616  26.318  1.00  0.00     0.198 A 
ATOM    115  C   UNL A   1      40.243  25.900  27.324  1.00  0.00     0.198 A 
ATOM    116  F   UNL A   1      39.355  26.215  29.481  1.00  0.00    -0.203 F 
ATOM    117  F   UNL A   1      42.278  28.084  25.272  1.00  0.00    -0.200 F 
ATOM    118  C   UNL A   1      40.984  26.368  26.249  1.00  0.00     0.200 A 
ATOM    119  F   UNL A   1      39.675  24.688  27.269  1.00  0.00    -0.200 F 
ATOM    120  F   UNL A   1      41.113  25.620  25.146  1.00  0.00    -0.200 F 
ENDBRANCH  82 110
BRANCH  97 121
ATOM    121  C   UNL A   1      44.103  28.325  34.623  1.00  0.00     0.064 A 
ATOM    122  C   UNL A   1      43.909  27.109  35.295  1.00  0.00     0.173 A 
ATOM    123  C   UNL A   1      45.419  28.780  34.455  1.00  0.00     0.173 A 
ATOM    124  F   UNL A   1      42.670  26.638  35.496  1.00  0.00    -0.203 F 
ATOM    125  C   UNL A   1      44.990  26.391  35.802  1.00  0.00     0.198 A 
ATOM    126  C   UNL A   1      46.500  28.045  34.934  1.00  0.00     0.198 A 
ATOM    127  F   UNL A   1      45.660  29.934  33.813  1.00  0.00    -0.203 F 
ATOM    128  F   UNL A   1      44.778  25.258  36.484  1.00  0.00    -0.200 F 
ATOM    129  C   UNL A   1      46.284  26.855  35.614  1.00  0.00     0.200 A 
ATOM    130  F   UNL A   1      47.750  28.488  34.739  1.00  0.00    -0.200 F 
ATOM    131  F   UNL A   1      47.323  26.159  36.095  1.00  0.00    -0.200 F 
ENDBRANCH  97 121
ENDBRANCH  62  65
ENDBRANCH  52  55
ENDBRANCH  48  51
ENDBRANCH  45  48
ENDBRANCH  42  45
ENDBRANCH   1  42
TORSDOF 17
ENDMDL
MODEL 2
REMARK VINA RESULT:     -12.3      0.530      7.383
REMARK SMILES Nc1c(CC(=O)NCCCCCCNC(=O)c2ccc(-c3c4nc(c(-c5c(F)c(F)c(F)c(F)c5F)c5ccc([nH]5)c(-c5c(F)c(F)c(F)c(F)c5F)c5nc(c(-c6c(F)c(F)c(F)c(F)c6F)c6ccc3[nH]6)C=C5)C=C4)cc2)cccc1C(=O)c1ccc(Br)cc1
REMARK SMILES IDX 10 1 9 4 8 7 7 10 5 11 6 12 4 14 3 17 2 18 83 19 80 20 82 21
REMARK SMILES IDX 81 22 1 26 84 29 85 30 86 31 87 32 92 33 88 34 91 36 89 38
REMARK SMILES IDX 90 41 11 42 12 45 13 48 14 51 15 52 16 54 17 55 18 56 79 57
REMARK SMILES IDX 19 58 78 60 20 62 21 65 22 66 72 67 23 68 77 69 71 70 73 71
REMARK SMILES IDX 24 72 76 73 70 75 69 77 25 79 57 82 37 83 56 84 38 85 41 86
REMARK SMILES IDX 55 87 74 88 39 89 40 91 54 93 75 94 42 97 26 99 27 100
REMARK SMILES IDX 35 101 28 102 29 103 33 104 36 105 30 106 31 107 34 108
REMARK SMILES IDX 32 109 58 110 59 111 67 112 60 113 61 114 65 115 68 116
REMARK SMILES IDX 62 117 63 118 66 119 64 120 43 121 44 122 52 123 45 124
REMARK SMILES IDX 46 125 50 126 53 127 47 128 48 129 51 130 49 131
REMARK H PARENT 10 2 10 3 9 5 9 6 8 8 8 9 7 13 4 15 4 16 80 23 82 24 81 25
REMARK H PARENT 1 27 1 28 87 35 92 37 88 39 91 40 11 43 11 44 12 46 12 47
REMARK H PARENT 13 49 13 50 14 53 18 59 79 61 19 63 78 64 77 74 71 76 73 78
REMARK H PARENT 76 80 70 81 38 90 41 92 74 95 39 96 75 98
REMARK Flexibility Score: inf
ROOT
ATOM      1  C   UNL A   1      31.381  30.168  25.190  1.00  0.00    -0.052 C 
ATOM      2  H   UNL A   1      30.477  30.431  24.683  1.00  0.00     0.027 H 
ATOM      3  H   UNL A   1      32.261  30.516  24.691  1.00  0.00     0.027 H 
ENDROOT
BRANCH   1   4
ATOM      4  C   UNL A   1      31.481  28.637  25.226  1.00  0.00    -0.036 C 
ATOM      5  H   UNL A   1      30.501  28.230  25.093  1.00  0.00     0.028 H 
ATOM      6  H   UNL A   1      32.147  28.343  24.441  1.00  0.00     0.028 H 
BRANCH   4   7
ATOM      7  C   UNL A   1      32.058  28.102  26.536  1.00  0.00     0.017 C 
ATOM      8  H   UNL A   1      33.109  27.945  26.418  1.00  0.00     0.049 H 
ATOM      9  H   UNL A   1      31.870  28.820  27.308  1.00  0.00     0.049 H 
BRANCH   7  10
ATOM     10  N   UNL A   1      31.432  26.851  26.910  1.00  0.00    -0.356 N 
ATOM     11  C   UNL A   1      31.749  25.582  26.522  1.00  0.00     0.224 C 
ATOM     12  O   UNL A   1      30.998  24.666  26.863  1.00  0.00    -0.275 OA
ATOM     13  H   UNL A   1      30.672  26.927  27.530  1.00  0.00     0.163 HD
BRANCH  11  14
ATOM     14  C   UNL A   1      33.037  25.301  25.764  1.00  0.00     0.054 C 
ATOM     15  H   UNL A   1      33.198  26.103  25.075  1.00  0.00     0.042 H 
ATOM     16  H   UNL A   1      33.804  25.215  26.505  1.00  0.00     0.042 H 
BRANCH  14  17
ATOM     17  C   UNL A   1      33.057  23.998  24.983  1.00  0.00    -0.015 A 
ATOM     18  C   UNL A   1      33.838  22.875  25.377  1.00  0.00     0.046 A 
ATOM     19  C   UNL A   1      33.859  21.728  24.540  1.00  0.00     0.046 A 
ATOM     20  C   UNL A   1      32.293  23.945  23.802  1.00  0.00    -0.056 A 
ATOM     21  C   UNL A   1      33.089  21.723  23.359  1.00  0.00    -0.049 A 
ATOM     22  C   UNL A   1      32.309  22.817  22.995  1.00  0.00    -0.061 A 
ATOM     23  H   UNL A   1      31.713  24.755  23.533  1.00  0.00     0.063 H 
ATOM     24  H   UNL A   1      33.105  20.890  22.751  1.00  0.00     0.063 H 
ATOM     25  H   UNL A   1      31.748  22.788  22.131  1.00  0.00     0.062 H 
BRANCH  18  26
ATOM     26  N   UNL A   1      34.585  22.970  26.545  1.00  0.00    -0.398 N 
ATOM     27  H   UNL A   1      35.539  23.212  26.502  1.00  0.00     0.156 HD
ATOM     28  H   UNL A   1      34.162  22.794  27.417  1.00  0.00     0.156 HD
ENDBRANCH  18  26
BRANCH  19  29
ATOM     29  C   UNL A   1      34.681  20.488  24.753  1.00  0.00     0.195 C 
ATOM     30  O   UNL A   1      35.898  20.575  24.924  1.00  0.00    -0.289 OA
BRANCH  29  31
ATOM     31  C   UNL A   1      34.108  19.135  24.858  1.00  0.00     0.023 A 
ATOM     32  C   UNL A   1      34.834  18.074  24.301  1.00  0.00    -0.050 A 
ATOM     33  C   UNL A   1      32.903  18.893  25.527  1.00  0.00    -0.050 A 
ATOM     34  C   UNL A   1      34.396  16.762  24.480  1.00  0.00    -0.047 A 
ATOM     35  H   UNL A   1      35.692  18.263  23.759  1.00  0.00     0.063 H 
ATOM     36  C   UNL A   1      32.473  17.577  25.715  1.00  0.00    -0.047 A 
ATOM     37  H   UNL A   1      32.336  19.681  25.877  1.00  0.00     0.063 H 
ATOM     38  C   UNL A   1      33.229  16.518  25.203  1.00  0.00     0.018 A 
ATOM     39  H   UNL A   1      34.932  15.976  24.079  1.00  0.00     0.063 H 
ATOM     40  H   UNL A   1      31.601  17.386  26.231  1.00  0.00     0.063 H 
ATOM     41  Br  UNL A   1      32.677  14.737  25.512  1.00  0.00    -0.051 Br
ENDBRANCH  29  31
ENDBRANCH  19  29
ENDBRANCH  14  17
ENDBRANCH  11  14
ENDBRANCH   7  10
ENDBRANCH   4   7
ENDBRANCH   1   4
BRANCH   1  42
ATOM     42  C   UNL A   1      31.370  30.843  26.567  1.00  0.00    -0.052 C 
ATOM     43  H   UNL A   1      32.215  30.486  27.119  1.00  0.00     0.027 H 
ATOM     44  H   UNL A   1      30.433  30.590  27.018  1.00  0.00     0.027 H 
BRANCH  42  45
ATOM     45  C   UNL A   1      31.432  32.372  26.536  1.00  0.00    -0.036 C 
ATOM     46  H   UNL A   1      30.568  32.753  27.038  1.00  0.00     0.028 H 
ATOM     47  H   UNL A   1      31.473  32.656  25.506  1.00  0.00     0.028 H 
BRANCH  45  48
ATOM     48  C   UNL A   1      32.670  32.963  27.202  1.00  0.00     0.018 C 
ATOM     49  H   UNL A   1      33.482  32.943  26.506  1.00  0.00     0.049 H 
ATOM     50  H   UNL A   1      32.891  32.377  28.070  1.00  0.00     0.049 H 
BRANCH  48  51
ATOM     51  N   UNL A   1      32.450  34.337  27.630  1.00  0.00    -0.352 N 
ATOM     52  C   UNL A   1      33.021  35.029  28.665  1.00  0.00     0.251 C 
ATOM     53  H   UNL A   1      31.795  34.844  27.097  1.00  0.00     0.163 HD
ATOM     54  O   UNL A   1      32.557  36.116  29.014  1.00  0.00    -0.269 OA
BRANCH  52  55
ATOM     55  C   UNL A   1      34.185  34.468  29.378  1.00  0.00     0.039 A 
ATOM     56  C   UNL A   1      33.982  33.807  30.592  1.00  0.00    -0.049 A 
ATOM     57  C   UNL A   1      35.476  34.609  28.860  1.00  0.00    -0.049 A 
ATOM     58  C   UNL A   1      35.068  33.240  31.261  1.00  0.00    -0.053 A 
ATOM     59  H   UNL A   1      33.034  33.739  30.993  1.00  0.00     0.063 H 
ATOM     60  C   UNL A   1      36.547  33.981  29.490  1.00  0.00    -0.053 A 
ATOM     61  H   UNL A   1      35.635  35.177  28.013  1.00  0.00     0.063 H 
ATOM     62  C   UNL A   1      36.354  33.295  30.699  1.00  0.00    -0.014 A 
ATOM     63  H   UNL A   1      34.926  32.776  32.171  1.00  0.00     0.063 H 
ATOM     64  H   UNL A   1      37.487  34.020  29.065  1.00  0.00     0.063 H 
BRANCH  62  65
ATOM     65  C   UNL A   1      37.513  32.649  31.365  1.00  0.00     0.031 A 
ATOM     66  C   UNL A   1      38.234  31.515  30.692  1.00  0.00     0.074 A 
ATOM     67  C   UNL A   1      37.876  33.043  32.601  1.00  0.00     0.049 A 
ATOM     68  N   UNL A   1      39.219  30.778  31.139  1.00  0.00    -0.248 NA
ATOM     69  C   UNL A   1      37.768  31.142  29.347  1.00  0.00    -0.034 C 
ATOM     70  C   UNL A   1      37.227  34.104  33.373  1.00  0.00    -0.036 A 
ATOM     71  N   UNL A   1      38.871  32.589  33.429  1.00  0.00    -0.354 N 
ATOM     72  C   UNL A   1      39.479  29.849  30.140  1.00  0.00     0.074 A 
ATOM     73  C   UNL A   1      38.515  30.079  29.087  1.00  0.00    -0.034 C 
ATOM     74  H   UNL A   1      37.048  31.592  28.760  1.00  0.00     0.065 H 
ATOM     75  C   UNL A   1      37.854  34.234  34.553  1.00  0.00    -0.036 A 
ATOM     76  H   UNL A   1      36.417  34.662  33.061  1.00  0.00     0.065 H 
ATOM     77  C   UNL A   1      38.921  33.241  34.637  1.00  0.00     0.049 A 
ATOM     78  H   UNL A   1      39.490  31.865  33.181  1.00  0.00     0.167 HD
ATOM     79  C   UNL A   1      40.450  28.906  30.095  1.00  0.00     0.037 A 
ATOM     80  H   UNL A   1      38.420  29.492  28.243  1.00  0.00     0.065 H 
ATOM     81  H   UNL A   1      37.619  34.924  35.283  1.00  0.00     0.065 H 
ATOM     82  C   UNL A   1      39.732  33.052  35.695  1.00  0.00     0.037 A 
ATOM     83  C   UNL A   1      41.421  28.695  31.137  1.00  0.00     0.049 A 
ATOM     84  C   UNL A   1      40.793  31.987  35.626  1.00  0.00     0.074 A 
ATOM     85  C   UNL A   1      42.480  27.804  31.163  1.00  0.00    -0.036 A 
ATOM     86  N   UNL A   1      41.448  29.383  32.342  1.00  0.00    -0.354 N 
ATOM     87  N   UNL A   1      41.074  31.160  34.648  1.00  0.00    -0.248 NA
ATOM     88  C   UNL A   1      41.655  31.834  36.807  1.00  0.00    -0.034 C 
ATOM     89  C   UNL A   1      43.118  27.918  32.403  1.00  0.00    -0.036 A 
ATOM     90  H   UNL A   1      42.752  27.165  30.399  1.00  0.00     0.065 H 
ATOM     91  C   UNL A   1      42.492  28.919  33.128  1.00  0.00     0.049 A 
ATOM     92  H   UNL A   1      40.819  30.095  32.600  1.00  0.00     0.167 HD
ATOM     93  C   UNL A   1      42.159  30.412  35.081  1.00  0.00     0.074 A 
ATOM     94  C   UNL A   1      42.496  30.892  36.406  1.00  0.00    -0.034 C 
ATOM     95  H   UNL A   1      41.614  32.330  37.711  1.00  0.00     0.065 H 
ATOM     96  H   UNL A   1      43.919  27.352  32.724  1.00  0.00     0.065 H 
ATOM     97  C   UNL A   1      42.818  29.414  34.441  1.00  0.00     0.037 A 
ATOM     98  H   UNL A   1      43.291  30.547  36.965  1.00  0.00     0.065 H 
BRANCH  79  99
ATOM     99  C   UNL A   1      40.511  28.030  28.877  1.00  0.00     0.064 A 
ATOM    100  C   UNL A   1      41.286  28.377  27.759  1.00  0.00     0.173 A 
ATOM    101  C   UNL A   1      39.815  26.812  28.838  1.00  0.00     0.173 A 
ATOM    102  F   UNL A   1      41.964  29.535  27.740  1.00  0.00    -0.203 F 
ATOM    103  C   UNL A   1      41.336  27.554  26.637  1.00  0.00     0.198 A 
ATOM    104  C   UNL A   1      39.893  25.976  27.727  1.00  0.00     0.198 A 
ATOM    105  F   UNL A   1      39.065  26.427  29.882  1.00  0.00    -0.203 F 
ATOM    106  F   UNL A   1      42.040  27.932  25.562  1.00  0.00    -0.200 F 
ATOM    107  C   UNL A   1      40.645  26.352  26.624  1.00  0.00     0.200 A 
ATOM    108  F   UNL A   1      39.237  24.808  27.722  1.00  0.00    -0.200 F 
ATOM    109  F   UNL A   1      40.700  25.558  25.546  1.00  0.00    -0.200 F 
ENDBRANCH  79  99
BRANCH  82 110
ATOM    110  C   UNL A   1      39.586  33.904  36.905  1.00  0.00     0.064 A 
ATOM    111  C   UNL A   1      38.837  33.467  38.006  1.00  0.00     0.173 A 
ATOM    112  C   UNL A   1      40.184  35.170  36.983  1.00  0.00     0.173 A 
ATOM    113  F   UNL A   1      38.229  32.271  37.971  1.00  0.00    -0.203 F 
ATOM    114  C   UNL A   1      38.673  34.273  39.131  1.00  0.00     0.198 A 
ATOM    115  C   UNL A   1      40.043  35.963  38.122  1.00  0.00     0.198 A 
ATOM    116  F   UNL A   1      40.917  35.633  35.960  1.00  0.00    -0.203 F 
ATOM    117  F   UNL A   1      37.912  33.849  40.149  1.00  0.00    -0.200 F 
ATOM    118  C   UNL A   1      39.281  35.517  39.190  1.00  0.00     0.200 A 
ATOM    119  F   UNL A   1      40.647  37.158  38.180  1.00  0.00    -0.200 F 
ATOM    120  F   UNL A   1      39.126  36.290  40.273  1.00  0.00    -0.200 F 
ENDBRANCH  82 110
BRANCH  97 121
ATOM    121  C   UNL A   1      43.994  28.802  35.146  1.00  0.00     0.064 A 
ATOM    122  C   UNL A   1      45.296  29.290  34.966  1.00  0.00     0.173 A 
ATOM    123  C   UNL A   1      43.807  27.740  36.044  1.00  0.00     0.173 A 
ATOM    124  F   UNL A   1      45.530  30.293  34.107  1.00  0.00    -0.203 F 
ATOM    125  C   UNL A   1      46.374  28.719  35.639  1.00  0.00     0.198 A 
ATOM    126  C   UNL A   1      44.882  27.193  36.740  1.00  0.00     0.198 A 
ATOM    127  F   UNL A   1      42.581  27.241  36.258  1.00  0.00    -0.203 F 
ATOM    128  F   UNL A   1      47.616  29.167  35.415  1.00  0.00    -0.200 F 
ATOM    129  C   UNL A   1      46.165  27.677  36.532  1.00  0.00     0.200 A 
ATOM    130  F   UNL A   1      44.676  26.196  37.612  1.00  0.00    -0.200 F 
ATOM    131  F   UNL A   1      47.201  27.134  37.185  1.00  0.00    -0.200 F 
ENDBRANCH  97 121
ENDBRANCH  62  65
ENDBRANCH  52  55
ENDBRANCH  48  51
ENDBRANCH  45  48
ENDBRANCH  42  45
ENDBRANCH   1  42
TORSDOF 17
ENDMDL
MODEL 3
REMARK VINA RESULT:     -12.3      1.514      7.528
REMARK SMILES Nc1c(CC(=O)NCCCCCCNC(=O)c2ccc(-c3c4nc(c(-c5c(F)c(F)c(F)c(F)c5F)c5ccc([nH]5)c(-c5c(F)c(F)c(F)c(F)c5F)c5nc(c(-c6c(F)c(F)c(F)c(F)c6F)c6ccc3[nH]6)C=C5)C=C4)cc2)cccc1C(=O)c1ccc(Br)cc1
REMARK SMILES IDX 10 1 9 4 8 7 7 10 5 11 6 12 4 14 3 17 2 18 83 19 80 20 82 21
REMARK SMILES IDX 81 22 1 26 84 29 85 30 86 31 87 32 92 33 88 34 91 36 89 38
REMARK SMILES IDX 90 41 11 42 12 45 13 48 14 51 15 52 16 54 17 55 18 56 79 57
REMARK SMILES IDX 19 58 78 60 20 62 21 65 22 66 72 67 23 68 77 69 71 70 73 71
REMARK SMILES IDX 24 72 76 73 70 75 69 77 25 79 57 82 37 83 56 84 38 85 41 86
REMARK SMILES IDX 55 87 74 88 39 89 40 91 54 93 75 94 42 97 26 99 27 100
REMARK SMILES IDX 35 101 28 102 29 103 33 104 36 105 30 106 31 107 34 108
REMARK SMILES IDX 32 109 58 110 59 111 67 112 60 113 61 114 65 115 68 116
REMARK SMILES IDX 62 117 63 118 66 119 64 120 43 121 44 122 52 123 45 124
REMARK SMILES IDX 46 125 50 126 53 127 47 128 48 129 51 130 49 131
REMARK H PARENT 10 2 10 3 9 5 9 6 8 8 8 9 7 13 4 15 4 16 80 23 82 24 81 25
REMARK H PARENT 1 27 1 28 87 35 92 37 88 39 91 40 11 43 11 44 12 46 12 47
REMARK H PARENT 13 49 13 50 14 53 18 59 79 61 19 63 78 64 77 74 71 76 73 78
REMARK H PARENT 76 80 70 81 38 90 41 92 74 95 39 96 75 98
REMARK Flexibility Score: inf
ROOT
ATOM      1  C   UNL A   1      32.737  30.195  26.919  1.00  0.00    -0.052 C 
ATOM      2  H   UNL A   1      33.434  30.965  27.174  1.00  0.00     0.027 H 
ATOM      3  H   UNL A   1      32.552  29.511  27.721  1.00  0.00     0.027 H 
ENDROOT
BRANCH   1   4
ATOM      4  C   UNL A   1      33.338  29.367  25.776  1.00  0.00    -0.036 C 
ATOM      5  H   UNL A   1      34.292  29.780  25.522  1.00  0.00     0.028 H 
ATOM      6  H   UNL A   1      33.417  28.357  26.121  1.00  0.00     0.028 H 
BRANCH   4   7
ATOM      7  C   UNL A   1      32.465  29.352  24.521  1.00  0.00     0.017 C 
ATOM      8  H   UNL A   1      31.755  28.556  24.599  1.00  0.00     0.049 H 
ATOM      9  H   UNL A   1      31.966  30.295  24.443  1.00  0.00     0.049 H 
BRANCH   7  10
ATOM     10  N   UNL A   1      33.266  29.156  23.330  1.00  0.00    -0.356 N 
ATOM     11  C   UNL A   1      33.345  28.062  22.518  1.00  0.00     0.224 C 
ATOM     12  O   UNL A   1      34.194  28.064  21.624  1.00  0.00    -0.275 OA
ATOM     13  H   UNL A   1      33.832  29.918  23.071  1.00  0.00     0.163 HD
BRANCH  11  14
ATOM     14  C   UNL A   1      32.357  26.916  22.662  1.00  0.00     0.054 C 
ATOM     15  H   UNL A   1      31.443  27.312  23.051  1.00  0.00     0.042 H 
ATOM     16  H   UNL A   1      32.255  26.488  21.686  1.00  0.00     0.042 H 
BRANCH  14  17
ATOM     17  C   UNL A   1      32.805  25.785  23.573  1.00  0.00    -0.015 A 
ATOM     18  C   UNL A   1      32.023  24.616  23.792  1.00  0.00     0.046 A 
ATOM     19  C   UNL A   1      32.484  23.649  24.724  1.00  0.00     0.046 A 
ATOM     20  C   UNL A   1      34.030  25.949  24.245  1.00  0.00    -0.056 A 
ATOM     21  C   UNL A   1      33.710  23.860  25.386  1.00  0.00    -0.049 A 
ATOM     22  C   UNL A   1      34.480  24.994  25.146  1.00  0.00    -0.061 A 
ATOM     23  H   UNL A   1      34.602  26.789  24.066  1.00  0.00     0.063 H 
ATOM     24  H   UNL A   1      34.044  23.157  26.063  1.00  0.00     0.063 H 
ATOM     25  H   UNL A   1      35.378  25.124  25.636  1.00  0.00     0.062 H 
BRANCH  18  26
ATOM     26  N   UNL A   1      30.815  24.495  23.115  1.00  0.00    -0.398 N 
ATOM     27  H   UNL A   1      30.343  25.301  22.801  1.00  0.00     0.156 HD
ATOM     28  H   UNL A   1      30.429  23.604  22.949  1.00  0.00     0.156 HD
ENDBRANCH  18  26
BRANCH  19  29
ATOM     29  C   UNL A   1      31.758  22.400  25.139  1.00  0.00     0.195 C 
ATOM     30  O   UNL A   1      30.691  22.479  25.751  1.00  0.00    -0.289 OA
BRANCH  29  31
ATOM     31  C   UNL A   1      32.202  21.040  24.785  1.00  0.00     0.023 A 
ATOM     32  C   UNL A   1      32.057  20.633  23.452  1.00  0.00    -0.050 A 
ATOM     33  C   UNL A   1      32.792  20.188  25.724  1.00  0.00    -0.050 A 
ATOM     34  C   UNL A   1      32.573  19.405  23.040  1.00  0.00    -0.047 A 
ATOM     35  H   UNL A   1      31.570  21.242  22.776  1.00  0.00     0.063 H 
ATOM     36  C   UNL A   1      33.319  18.963  25.306  1.00  0.00    -0.047 A 
ATOM     37  H   UNL A   1      32.837  20.461  26.718  1.00  0.00     0.063 H 
ATOM     38  C   UNL A   1      33.219  18.584  23.964  1.00  0.00     0.018 A 
ATOM     39  H   UNL A   1      32.477  19.104  22.057  1.00  0.00     0.063 H 
ATOM     40  H   UNL A   1      33.781  18.340  25.985  1.00  0.00     0.063 H 
ATOM     41  Br  UNL A   1      33.986  16.955  23.390  1.00  0.00    -0.051 Br
ENDBRANCH  29  31
ENDBRANCH  19  29
ENDBRANCH  14  17
ENDBRANCH  11  14
ENDBRANCH   7  10
ENDBRANCH   4   7
ENDBRANCH   1   4
BRANCH   1  42
ATOM     42  C   UNL A   1      31.392  30.856  26.595  1.00  0.00    -0.052 C 
ATOM     43  H   UNL A   1      30.673  30.513  27.309  1.00  0.00     0.027 H 
ATOM     44  H   UNL A   1      31.156  30.580  25.589  1.00  0.00     0.027 H 
BRANCH  42  45
ATOM     45  C   UNL A   1      31.402  32.387  26.628  1.00  0.00    -0.036 C 
ATOM     46  H   UNL A   1      30.558  32.715  27.198  1.00  0.00     0.028 H 
ATOM     47  H   UNL A   1      31.370  32.716  25.610  1.00  0.00     0.028 H 
BRANCH  45  48
ATOM     48  C   UNL A   1      32.659  32.993  27.244  1.00  0.00     0.018 C 
ATOM     49  H   UNL A   1      33.441  32.984  26.515  1.00  0.00     0.049 H 
ATOM     50  H   UNL A   1      32.923  32.409  28.100  1.00  0.00     0.049 H 
BRANCH  48  51
ATOM     51  N   UNL A   1      32.440  34.364  27.682  1.00  0.00    -0.352 N 
ATOM     52  C   UNL A   1      32.999  35.042  28.732  1.00  0.00     0.251 C 
ATOM     53  H   UNL A   1      31.795  34.879  27.146  1.00  0.00     0.163 HD
ATOM     54  O   UNL A   1      32.536  36.128  29.085  1.00  0.00    -0.269 OA
BRANCH  52  55
ATOM     55  C   UNL A   1      34.150  34.468  29.455  1.00  0.00     0.039 A 
ATOM     56  C   UNL A   1      33.933  33.838  30.683  1.00  0.00    -0.049 A 
ATOM     57  C   UNL A   1      35.443  34.567  28.933  1.00  0.00    -0.049 A 
ATOM     58  C   UNL A   1      35.007  33.258  31.362  1.00  0.00    -0.053 A 
ATOM     59  H   UNL A   1      32.985  33.801  31.086  1.00  0.00     0.063 H 
ATOM     60  C   UNL A   1      36.500  33.927  29.575  1.00  0.00    -0.053 A 
ATOM     61  H   UNL A   1      35.615  35.114  28.075  1.00  0.00     0.063 H 
ATOM     62  C   UNL A   1      36.293  33.272  30.798  1.00  0.00    -0.014 A 
ATOM     63  H   UNL A   1      34.854  32.817  32.282  1.00  0.00     0.063 H 
ATOM     64  H   UNL A   1      37.440  33.935  29.149  1.00  0.00     0.063 H 
BRANCH  62  65
ATOM     65  C   UNL A   1      37.437  32.612  31.476  1.00  0.00     0.031 A 
ATOM     66  C   UNL A   1      38.141  31.459  30.818  1.00  0.00     0.074 A 
ATOM     67  C   UNL A   1      37.800  33.012  32.710  1.00  0.00     0.049 A 
ATOM     68  N   UNL A   1      39.111  30.709  31.278  1.00  0.00    -0.248 NA
ATOM     69  C   UNL A   1      37.676  31.081  29.474  1.00  0.00    -0.034 C 
ATOM     70  C   UNL A   1      37.167  34.091  33.469  1.00  0.00    -0.036 A 
ATOM     71  N   UNL A   1      38.783  32.548  33.548  1.00  0.00    -0.354 N 
ATOM     72  C   UNL A   1      39.360  29.766  30.288  1.00  0.00     0.074 A 
ATOM     73  C   UNL A   1      38.404  30.003  29.229  1.00  0.00    -0.034 C 
ATOM     74  H   UNL A   1      36.966  31.537  28.880  1.00  0.00     0.065 H 
ATOM     75  C   UNL A   1      37.790  34.222  34.651  1.00  0.00    -0.036 A 
ATOM     76  H   UNL A   1      36.368  34.660  33.147  1.00  0.00     0.065 H 
ATOM     77  C   UNL A   1      38.839  33.211  34.749  1.00  0.00     0.049 A 
ATOM     78  H   UNL A   1      39.391  31.811  33.310  1.00  0.00     0.167 HD
ATOM     79  C   UNL A   1      40.314  28.805  30.258  1.00  0.00     0.037 A 
ATOM     80  H   UNL A   1      38.304  29.409  28.390  1.00  0.00     0.065 H 
ATOM     81  H   UNL A   1      37.564  34.923  35.373  1.00  0.00     0.065 H 
ATOM     82  C   UNL A   1      39.641  33.018  35.814  1.00  0.00     0.037 A 
ATOM     83  C   UNL A   1      41.276  28.588  31.306  1.00  0.00     0.049 A 
ATOM     84  C   UNL A   1      40.684  31.934  35.760  1.00  0.00     0.074 A 
ATOM     85  C   UNL A   1      42.319  27.679  31.347  1.00  0.00    -0.036 A 
ATOM     86  N   UNL A   1      41.309  29.287  32.505  1.00  0.00    -0.354 N 
ATOM     87  N   UNL A   1      40.955  31.093  34.792  1.00  0.00    -0.248 NA
ATOM     88  C   UNL A   1      41.537  31.778  36.947  1.00  0.00    -0.034 C 
ATOM     89  C   UNL A   1      42.953  27.794  32.589  1.00  0.00    -0.036 A 
ATOM     90  H   UNL A   1      42.584  27.028  30.590  1.00  0.00     0.065 H 
ATOM     91  C   UNL A   1      42.341  28.812  33.301  1.00  0.00     0.049 A 
ATOM     92  H   UNL A   1      40.692  30.012  32.752  1.00  0.00     0.167 HD
ATOM     93  C   UNL A   1      42.025  30.330  35.238  1.00  0.00     0.074 A 
ATOM     94  C   UNL A   1      42.364  30.817  36.559  1.00  0.00    -0.034 C 
ATOM     95  H   UNL A   1      41.500  32.283  37.846  1.00  0.00     0.065 H 
ATOM     96  H   UNL A   1      43.743  27.218  32.919  1.00  0.00     0.065 H 
ATOM     97  C   UNL A   1      42.669  29.315  34.610  1.00  0.00     0.037 A 
ATOM     98  H   UNL A   1      43.150  30.464  37.126  1.00  0.00     0.065 H 
BRANCH  79  99
ATOM     99  C   UNL A   1      40.366  27.917  29.048  1.00  0.00     0.064 A 
ATOM    100  C   UNL A   1      41.143  28.246  27.926  1.00  0.00     0.173 A 
ATOM    101  C   UNL A   1      39.659  26.705  29.022  1.00  0.00     0.173 A 
ATOM    102  F   UNL A   1      41.831  29.397  27.895  1.00  0.00    -0.203 F 
ATOM    103  C   UNL A   1      41.184  27.411  26.812  1.00  0.00     0.198 A 
ATOM    104  C   UNL A   1      39.727  25.857  27.919  1.00  0.00     0.198 A 
ATOM    105  F   UNL A   1      38.906  26.338  30.070  1.00  0.00    -0.203 F 
ATOM    106  F   UNL A   1      41.891  27.772  25.733  1.00  0.00    -0.200 F 
ATOM    107  C   UNL A   1      40.482  26.215  26.812  1.00  0.00     0.200 A 
ATOM    108  F   UNL A   1      39.061  24.695  27.927  1.00  0.00    -0.200 F 
ATOM    109  F   UNL A   1      40.528  25.410  25.743  1.00  0.00    -0.200 F 
ENDBRANCH  79  99
BRANCH  82 110
ATOM    110  C   UNL A   1      39.504  33.885  37.014  1.00  0.00     0.064 A 
ATOM    111  C   UNL A   1      40.140  35.133  37.075  1.00  0.00     0.173 A 
ATOM    112  C   UNL A   1      38.744  33.484  38.122  1.00  0.00     0.173 A 
ATOM    113  F   UNL A   1      40.893  35.551  36.047  1.00  0.00    -0.203 F 
ATOM    114  C   UNL A   1      40.039  35.937  38.208  1.00  0.00     0.198 A 
ATOM    115  C   UNL A   1      38.620  34.304  39.244  1.00  0.00     0.198 A 
ATOM    116  F   UNL A   1      38.110  32.303  38.112  1.00  0.00    -0.203 F 
ATOM    117  F   UNL A   1      40.696  37.104  38.258  1.00  0.00    -0.200 F 
ATOM    118  C   UNL A   1      39.275  35.525  39.289  1.00  0.00     0.200 A 
ATOM    119  F   UNL A   1      37.867  33.908  40.279  1.00  0.00    -0.200 F 
ATOM    120  F   UNL A   1      39.175  36.301  40.376  1.00  0.00    -0.200 F 
ENDBRANCH  82 110
BRANCH  97 121
ATOM    121  C   UNL A   1      43.830  28.689  35.328  1.00  0.00     0.064 A 
ATOM    122  C   UNL A   1      45.142  29.155  35.152  1.00  0.00     0.173 A 
ATOM    123  C   UNL A   1      43.621  27.637  36.232  1.00  0.00     0.173 A 
ATOM    124  F   UNL A   1      45.397  30.148  34.287  1.00  0.00    -0.203 F 
ATOM    125  C   UNL A   1      46.206  28.571  35.836  1.00  0.00     0.198 A 
ATOM    126  C   UNL A   1      44.683  27.077  36.939  1.00  0.00     0.198 A 
ATOM    127  F   UNL A   1      42.386  27.159  36.441  1.00  0.00    -0.203 F 
ATOM    128  F   UNL A   1      47.456  28.998  35.616  1.00  0.00    -0.200 F 
ATOM    129  C   UNL A   1      45.975  27.539  36.735  1.00  0.00     0.200 A 
ATOM    130  F   UNL A   1      44.455  26.090  37.816  1.00  0.00    -0.200 F 
ATOM    131  F   UNL A   1      46.998  26.984  37.398  1.00  0.00    -0.200 F 
ENDBRANCH  97 121
ENDBRANCH  62  65
ENDBRANCH  52  55
ENDBRANCH  48  51
ENDBRANCH  45  48
ENDBRANCH  42  45
ENDBRANCH   1  42
TORSDOF 17
ENDMDL
MODEL 4
REMARK VINA RESULT:     -12.3      5.044      8.869
REMARK SMILES Nc1c(CC(=O)NCCCCCCNC(=O)c2ccc(-c3c4nc(c(-c5c(F)c(F)c(F)c(F)c5F)c5ccc([nH]5)c(-c5c(F)c(F)c(F)c(F)c5F)c5nc(c(-c6c(F)c(F)c(F)c(F)c6F)c6ccc3[nH]6)C=C5)C=C4)cc2)cccc1C(=O)c1ccc(Br)cc1
REMARK SMILES IDX 10 1 9 4 8 7 7 10 5 11 6 12 4 14 3 17 2 18 83 19 80 20 82 21
REMARK SMILES IDX 81 22 1 26 84 29 85 30 86 31 87 32 92 33 88 34 91 36 89 38
REMARK SMILES IDX 90 41 11 42 12 45 13 48 14 51 15 52 16 54 17 55 18 56 79 57
REMARK SMILES IDX 19 58 78 60 20 62 21 65 22 66 72 67 23 68 77 69 71 70 73 71
REMARK SMILES IDX 24 72 76 73 70 75 69 77 25 79 57 82 37 83 56 84 38 85 41 86
REMARK SMILES IDX 55 87 74 88 39 89 40 91 54 93 75 94 42 97 26 99 27 100
REMARK SMILES IDX 35 101 28 102 29 103 33 104 36 105 30 106 31 107 34 108
REMARK SMILES IDX 32 109 58 110 59 111 67 112 60 113 61 114 65 115 68 116
REMARK SMILES IDX 62 117 63 118 66 119 64 120 43 121 44 122 52 123 45 124
REMARK SMILES IDX 46 125 50 126 53 127 47 128 48 129 51 130 49 131
REMARK H PARENT 10 2 10 3 9 5 9 6 8 8 8 9 7 13 4 15 4 16 80 23 82 24 81 25
REMARK H PARENT 1 27 1 28 87 35 92 37 88 39 91 40 11 43 11 44 12 46 12 47
REMARK H PARENT 13 49 13 50 14 53 18 59 79 61 19 63 78 64 77 74 71 76 73 78
REMARK H PARENT 76 80 70 81 38 90 41 92 74 95 39 96 75 98
REMARK Flexibility Score: inf
ROOT
ATOM      1  C   UNL A   1      37.390  33.033  30.296  1.00  0.00    -0.052 C 
ATOM      2  H   UNL A   1      36.439  32.761  30.706  1.00  0.00     0.027 H 
ATOM      3  H   UNL A   1      38.086  32.220  30.271  1.00  0.00     0.027 H 
ENDROOT
BRANCH   1   4
ATOM      4  C   UNL A   1      38.011  34.106  31.200  1.00  0.00    -0.036 C 
ATOM      5  H   UNL A   1      39.062  33.920  31.274  1.00  0.00     0.028 H 
ATOM      6  H   UNL A   1      37.801  35.056  30.756  1.00  0.00     0.028 H 
BRANCH   4   7
ATOM      7  C   UNL A   1      37.419  34.121  32.609  1.00  0.00     0.017 C 
ATOM      8  H   UNL A   1      36.671  34.883  32.666  1.00  0.00     0.049 H 
ATOM      9  H   UNL A   1      36.992  33.161  32.809  1.00  0.00     0.049 H 
BRANCH   7  10
ATOM     10  N   UNL A   1      38.440  34.386  33.601  1.00  0.00    -0.356 N 
ATOM     11  C   UNL A   1      38.699  33.723  34.766  1.00  0.00     0.224 C 
ATOM     12  O   UNL A   1      39.542  34.199  35.529  1.00  0.00    -0.275 OA
ATOM     13  H   UNL A   1      39.029  35.150  33.409  1.00  0.00     0.163 HD
BRANCH  11  14
ATOM     14  C   UNL A   1      38.029  32.392  35.067  1.00  0.00     0.054 C 
ATOM     15  H   UNL A   1      37.856  32.340  36.122  1.00  0.00     0.042 H 
ATOM     16  H   UNL A   1      37.130  32.375  34.487  1.00  0.00     0.042 H 
BRANCH  14  17
ATOM     17  C   UNL A   1      38.820  31.161  34.658  1.00  0.00    -0.015 A 
ATOM     18  C   UNL A   1      39.907  30.654  35.424  1.00  0.00     0.046 A 
ATOM     19  C   UNL A   1      40.641  29.547  34.921  1.00  0.00     0.046 A 
ATOM     20  C   UNL A   1      38.464  30.543  33.445  1.00  0.00    -0.056 A 
ATOM     21  C   UNL A   1      40.258  28.967  33.695  1.00  0.00    -0.049 A 
ATOM     22  C   UNL A   1      39.178  29.454  32.966  1.00  0.00    -0.061 A 
ATOM     23  H   UNL A   1      37.661  30.903  32.905  1.00  0.00     0.063 H 
ATOM     24  H   UNL A   1      40.792  28.163  33.330  1.00  0.00     0.063 H 
ATOM     25  H   UNL A   1      38.911  29.009  32.075  1.00  0.00     0.062 H 
BRANCH  18  26
ATOM     26  N   UNL A   1      40.233  31.298  36.612  1.00  0.00    -0.398 N 
ATOM     27  H   UNL A   1      41.175  31.482  36.830  1.00  0.00     0.156 HD
ATOM     28  H   UNL A   1      39.521  31.570  37.237  1.00  0.00     0.156 HD
ENDBRANCH  18  26
BRANCH  19  29
ATOM     29  C   UNL A   1      41.860  28.931  35.550  1.00  0.00     0.195 C 
ATOM     30  O   UNL A   1      42.246  29.314  36.654  1.00  0.00    -0.289 OA
BRANCH  29  31
ATOM     31  C   UNL A   1      42.605  27.806  34.957  1.00  0.00     0.023 A 
ATOM     32  C   UNL A   1      42.265  26.510  35.367  1.00  0.00    -0.050 A 
ATOM     33  C   UNL A   1      43.589  28.005  33.983  1.00  0.00    -0.050 A 
ATOM     34  C   UNL A   1      42.854  25.408  34.748  1.00  0.00    -0.047 A 
ATOM     35  H   UNL A   1      41.580  26.372  36.126  1.00  0.00     0.063 H 
ATOM     36  C   UNL A   1      44.169  26.898  33.356  1.00  0.00    -0.047 A 
ATOM     37  H   UNL A   1      43.886  28.960  33.730  1.00  0.00     0.063 H 
ATOM     38  C   UNL A   1      43.788  25.607  33.732  1.00  0.00     0.018 A 
ATOM     39  H   UNL A   1      42.601  24.451  35.041  1.00  0.00     0.063 H 
ATOM     40  H   UNL A   1      44.875  27.034  32.616  1.00  0.00     0.063 H 
ATOM     41  Br  UNL A   1      44.528  24.114  32.839  1.00  0.00    -0.051 Br
ENDBRANCH  29  31
ENDBRANCH  19  29
ENDBRANCH  14  17
ENDBRANCH  11  14
ENDBRANCH   7  10
ENDBRANCH   4   7
ENDBRANCH   1   4
BRANCH   1  42
ATOM     42  C   UNL A   1      37.176  33.465  28.840  1.00  0.00    -0.052 C 
ATOM     43  H   UNL A   1      37.787  32.846  28.217  1.00  0.00     0.027 H 
ATOM     44  H   UNL A   1      37.436  34.501  28.793  1.00  0.00     0.027 H 
BRANCH  42  45
ATOM     45  C   UNL A   1      35.731  33.361  28.343  1.00  0.00    -0.036 C 
ATOM     46  H   UNL A   1      35.740  32.882  27.386  1.00  0.00     0.028 H 
ATOM     47  H   UNL A   1      35.349  34.360  28.304  1.00  0.00     0.028 H 
BRANCH  45  48
ATOM     48  C   UNL A   1      34.806  32.573  29.263  1.00  0.00     0.018 C 
ATOM     49  H   UNL A   1      34.096  33.244  29.699  1.00  0.00     0.049 H 
ATOM     50  H   UNL A   1      35.406  32.104  30.015  1.00  0.00     0.049 H 
BRANCH  48  51
ATOM     51  N   UNL A   1      34.088  31.530  28.544  1.00  0.00    -0.352 N 
ATOM     52  C   UNL A   1      34.564  30.380  27.973  1.00  0.00     0.251 C 
ATOM     53  H   UNL A   1      33.118  31.672  28.456  1.00  0.00     0.163 HD
ATOM     54  O   UNL A   1      33.847  29.721  27.218  1.00  0.00    -0.269 OA
BRANCH  52  55
ATOM     55  C   UNL A   1      35.944  29.934  28.246  1.00  0.00     0.039 A 
ATOM     56  C   UNL A   1      36.914  30.084  27.252  1.00  0.00    -0.049 A 
ATOM     57  C   UNL A   1      36.276  29.351  29.473  1.00  0.00    -0.049 A 
ATOM     58  C   UNL A   1      38.232  29.700  27.508  1.00  0.00    -0.053 A 
ATOM     59  H   UNL A   1      36.658  30.477  26.334  1.00  0.00     0.063 H 
ATOM     60  C   UNL A   1      37.603  29.035  29.752  1.00  0.00    -0.053 A 
ATOM     61  H   UNL A   1      35.540  29.154  30.169  1.00  0.00     0.063 H 
ATOM     62  C   UNL A   1      38.592  29.201  28.771  1.00  0.00    -0.014 A 
ATOM     63  H   UNL A   1      38.944  29.783  26.767  1.00  0.00     0.063 H 
ATOM     64  H   UNL A   1      37.860  28.678  30.686  1.00  0.00     0.063 H 
BRANCH  62  65
ATOM     65  C   UNL A   1      39.998  28.840  29.083  1.00  0.00     0.031 A 
ATOM     66  C   UNL A   1      40.877  29.805  29.827  1.00  0.00     0.074 A 
ATOM     67  C   UNL A   1      40.498  27.671  28.641  1.00  0.00     0.049 A 
ATOM     68  N   UNL A   1      42.147  29.704  30.131  1.00  0.00    -0.248 NA
ATOM     69  C   UNL A   1      40.254  31.064  30.266  1.00  0.00    -0.034 C 
ATOM     70  C   UNL A   1      39.756  26.671  27.873  1.00  0.00    -0.036 A 
ATOM     71  N   UNL A   1      41.754  27.131  28.765  1.00  0.00    -0.354 N 
ATOM     72  C   UNL A   1      42.475  30.887  30.782  1.00  0.00     0.074 A 
ATOM     73  C   UNL A   1      41.287  31.713  30.780  1.00  0.00    -0.034 C 
ATOM     74  H   UNL A   1      39.268  31.362  30.192  1.00  0.00     0.065 H 
ATOM     75  C   UNL A   1      40.562  25.629  27.612  1.00  0.00    -0.036 A 
ATOM     76  H   UNL A   1      38.770  26.753  27.578  1.00  0.00     0.065 H 
ATOM     77  C   UNL A   1      41.887  25.905  28.159  1.00  0.00     0.049 A 
ATOM     78  H   UNL A   1      42.489  27.579  29.243  1.00  0.00     0.167 HD
ATOM     79  C   UNL A   1      43.652  31.241  31.348  1.00  0.00     0.037 A 
ATOM     80  H   UNL A   1      41.250  32.683  31.134  1.00  0.00     0.065 H 
ATOM     81  H   UNL A   1      40.289  24.773  27.106  1.00  0.00     0.065 H 
ATOM     82  C   UNL A   1      42.961  25.101  28.050  1.00  0.00     0.037 A 
ATOM     83  C   UNL A   1      44.825  30.406  31.365  1.00  0.00     0.049 A 
ATOM     84  C   UNL A   1      44.263  25.524  28.676  1.00  0.00     0.074 A 
ATOM     85  C   UNL A   1      46.049  30.649  31.963  1.00  0.00    -0.036 A 
ATOM     86  N   UNL A   1      44.919  29.165  30.751  1.00  0.00    -0.354 N 
ATOM     87  N   UNL A   1      44.542  26.614  29.348  1.00  0.00    -0.248 NA
ATOM     88  C   UNL A   1      45.396  24.600  28.535  1.00  0.00    -0.034 C 
ATOM     89  C   UNL A   1      46.900  29.578  31.669  1.00  0.00    -0.036 A 
ATOM     90  H   UNL A   1      46.293  31.478  32.528  1.00  0.00     0.065 H 
ATOM     91  C   UNL A   1      46.190  28.642  30.936  1.00  0.00     0.049 A 
ATOM     92  H   UNL A   1      44.192  28.723  30.257  1.00  0.00     0.167 HD
ATOM     93  C   UNL A   1      45.870  26.495  29.733  1.00  0.00     0.074 A 
ATOM     94  C   UNL A   1      46.337  25.219  29.233  1.00  0.00    -0.034 C 
ATOM     95  H   UNL A   1      45.447  23.704  28.024  1.00  0.00     0.065 H 
ATOM     96  H   UNL A   1      47.890  29.498  31.951  1.00  0.00     0.065 H 
ATOM     97  C   UNL A   1      46.636  27.365  30.438  1.00  0.00     0.037 A 
ATOM     98  H   UNL A   1      47.282  24.838  29.401  1.00  0.00     0.065 H 
BRANCH  79  99
ATOM     99  C   UNL A   1      43.730  32.592  32.000  1.00  0.00     0.064 A 
ATOM    100  C   UNL A   1      44.152  33.728  31.292  1.00  0.00     0.173 A 
ATOM    101  C   UNL A   1      43.346  32.760  33.339  1.00  0.00     0.173 A 
ATOM    102  F   UNL A   1      44.540  33.621  30.012  1.00  0.00    -0.203 F 
ATOM    103  C   UNL A   1      44.217  34.975  31.909  1.00  0.00     0.198 A 
ATOM    104  C   UNL A   1      43.381  34.015  33.944  1.00  0.00     0.198 A 
ATOM    105  F   UNL A   1      42.927  31.710  34.061  1.00  0.00    -0.203 F 
ATOM    106  F   UNL A   1      44.673  36.034  31.227  1.00  0.00    -0.200 F 
ATOM    107  C   UNL A   1      43.825  35.119  33.232  1.00  0.00     0.200 A 
ATOM    108  F   UNL A   1      42.989  34.155  35.217  1.00  0.00    -0.200 F 
ATOM    109  F   UNL A   1      43.882  36.320  33.821  1.00  0.00    -0.200 F 
ENDBRANCH  79  99
BRANCH  82 110
ATOM    110  C   UNL A   1      42.847  23.801  27.336  1.00  0.00     0.064 A 
ATOM    111  C   UNL A   1      42.356  22.662  27.991  1.00  0.00     0.173 A 
ATOM    112  C   UNL A   1      43.227  23.668  25.993  1.00  0.00     0.173 A 
ATOM    113  F   UNL A   1      41.998  22.735  29.282  1.00  0.00    -0.203 F 
ATOM    114  C   UNL A   1      42.273  21.436  27.337  1.00  0.00     0.198 A 
ATOM    115  C   UNL A   1      43.116  22.446  25.331  1.00  0.00     0.198 A 
ATOM    116  F   UNL A   1      43.696  24.728  25.319  1.00  0.00    -0.203 F 
ATOM    117  F   UNL A   1      41.846  20.353  28.001  1.00  0.00    -0.200 F 
ATOM    118  C   UNL A   1      42.647  21.329  26.006  1.00  0.00     0.200 A 
ATOM    119  F   UNL A   1      43.463  22.353  24.040  1.00  0.00    -0.200 F 
ATOM    120  F   UNL A   1      42.563  20.150  25.376  1.00  0.00    -0.200 F 
ENDBRANCH  82 110
BRANCH  97 121
ATOM    121  C   UNL A   1      48.046  26.950  30.744  1.00  0.00     0.064 A 
ATOM    122  C   UNL A   1      49.111  27.279  29.893  1.00  0.00     0.173 A 
ATOM    123  C   UNL A   1      48.338  26.249  31.923  1.00  0.00     0.173 A 
ATOM    124  F   UNL A   1      48.883  27.935  28.746  1.00  0.00    -0.203 F 
ATOM    125  C   UNL A   1      50.415  26.897  30.200  1.00  0.00     0.198 A 
ATOM    126  C   UNL A   1      49.647  25.897  32.243  1.00  0.00     0.198 A 
ATOM    127  F   UNL A   1      47.356  25.916  32.774  1.00  0.00    -0.203 F 
ATOM    128  F   UNL A   1      51.411  27.178  29.349  1.00  0.00    -0.200 F 
ATOM    129  C   UNL A   1      50.683  26.214  31.377  1.00  0.00     0.200 A 
ATOM    130  F   UNL A   1      49.904  25.249  33.388  1.00  0.00    -0.200 F 
ATOM    131  F   UNL A   1      51.939  25.854  31.675  1.00  0.00    -0.200 F 
ENDBRANCH  97 121
ENDBRANCH  62  65
ENDBRANCH  52  55
ENDBRANCH  48  51
ENDBRANCH  45  48
ENDBRANCH  42  45
ENDBRANCH   1  42
TORSDOF 17
ENDMDL
MODEL 5
REMARK VINA RESULT:     -12.2      5.571     10.050
REMARK SMILES Nc1c(CC(=O)NCCCCCCNC(=O)c2ccc(-c3c4nc(c(-c5c(F)c(F)c(F)c(F)c5F)c5ccc([nH]5)c(-c5c(F)c(F)c(F)c(F)c5F)c5nc(c(-c6c(F)c(F)c(F)c(F)c6F)c6ccc3[nH]6)C=C5)C=C4)cc2)cccc1C(=O)c1ccc(Br)cc1
REMARK SMILES IDX 10 1 9 4 8 7 7 10 5 11 6 12 4 14 3 17 2 18 83 19 80 20 82 21
REMARK SMILES IDX 81 22 1 26 84 29 85 30 86 31 87 32 92 33 88 34 91 36 89 38
REMARK SMILES IDX 90 41 11 42 12 45 13 48 14 51 15 52 16 54 17 55 18 56 79 57
REMARK SMILES IDX 19 58 78 60 20 62 21 65 22 66 72 67 23 68 77 69 71 70 73 71
REMARK SMILES IDX 24 72 76 73 70 75 69 77 25 79 57 82 37 83 56 84 38 85 41 86
REMARK SMILES IDX 55 87 74 88 39 89 40 91 54 93 75 94 42 97 26 99 27 100
REMARK SMILES IDX 35 101 28 102 29 103 33 104 36 105 30 106 31 107 34 108
REMARK SMILES IDX 32 109 58 110 59 111 67 112 60 113 61 114 65 115 68 116
REMARK SMILES IDX 62 117 63 118 66 119 64 120 43 121 44 122 52 123 45 124
REMARK SMILES IDX 46 125 50 126 53 127 47 128 48 129 51 130 49 131
REMARK H PARENT 10 2 10 3 9 5 9 6 8 8 8 9 7 13 4 15 4 16 80 23 82 24 81 25
REMARK H PARENT 1 27 1 28 87 35 92 37 88 39 91 40 11 43 11 44 12 46 12 47
REMARK H PARENT 13 49 13 50 14 53 18 59 79 61 19 63 78 64 77 74 71 76 73 78
REMARK H PARENT 76 80 70 81 38 90 41 92 74 95 39 96 75 98
REMARK Flexibility Score: inf
ROOT
ATOM      1  C   UNL A   1      35.903  21.301  24.784  1.00  0.00    -0.052 C 
ATOM      2  H   UNL A   1      35.403  21.713  23.933  1.00  0.00     0.027 H 
ATOM      3  H   UNL A   1      35.632  20.284  24.981  1.00  0.00     0.027 H 
ENDROOT
BRANCH   1   4
ATOM      4  C   UNL A   1      35.484  22.107  26.020  1.00  0.00    -0.036 C 
ATOM      5  H   UNL A   1      36.338  22.226  26.654  1.00  0.00     0.028 H 
ATOM      6  H   UNL A   1      35.106  23.046  25.675  1.00  0.00     0.028 H 
BRANCH   4   7
ATOM      7  C   UNL A   1      34.371  21.437  26.826  1.00  0.00     0.017 C 
ATOM      8  H   UNL A   1      34.779  21.058  27.739  1.00  0.00     0.049 H 
ATOM      9  H   UNL A   1      33.613  22.165  27.028  1.00  0.00     0.049 H 
BRANCH   7  10
ATOM     10  N   UNL A   1      33.774  20.345  26.086  1.00  0.00    -0.356 N 
ATOM     11  C   UNL A   1      32.549  20.279  25.490  1.00  0.00     0.224 C 
ATOM     12  O   UNL A   1      32.190  19.198  25.017  1.00  0.00    -0.275 OA
ATOM     13  H   UNL A   1      34.330  19.538  26.001  1.00  0.00     0.163 HD
BRANCH  11  14
ATOM     14  C   UNL A   1      31.691  21.526  25.338  1.00  0.00     0.054 C 
ATOM     15  H   UNL A   1      30.718  21.221  25.016  1.00  0.00     0.042 H 
ATOM     16  H   UNL A   1      31.693  22.005  26.295  1.00  0.00     0.042 H 
BRANCH  14  17
ATOM     17  C   UNL A   1      32.213  22.555  24.350  1.00  0.00    -0.015 A 
ATOM     18  C   UNL A   1      32.226  23.952  24.626  1.00  0.00     0.046 A 
ATOM     19  C   UNL A   1      32.655  24.846  23.610  1.00  0.00     0.046 A 
ATOM     20  C   UNL A   1      32.659  22.079  23.103  1.00  0.00    -0.056 A 
ATOM     21  C   UNL A   1      33.080  24.327  22.370  1.00  0.00    -0.049 A 
ATOM     22  C   UNL A   1      33.088  22.959  22.119  1.00  0.00    -0.061 A 
ATOM     23  H   UNL A   1      32.667  21.064  22.917  1.00  0.00     0.063 H 
ATOM     24  H   UNL A   1      33.392  24.977  21.632  1.00  0.00     0.063 H 
ATOM     25  H   UNL A   1      33.411  22.601  21.207  1.00  0.00     0.062 H 
BRANCH  18  26
ATOM     26  N   UNL A   1      31.769  24.382  25.866  1.00  0.00    -0.398 N 
ATOM     27  H   UNL A   1      31.022  25.020  25.922  1.00  0.00     0.156 HD
ATOM     28  H   UNL A   1      32.194  24.049  26.690  1.00  0.00     0.156 HD
ENDBRANCH  18  26
BRANCH  19  29
ATOM     29  C   UNL A   1      32.661  26.347  23.693  1.00  0.00     0.195 C 
ATOM     30  O   UNL A   1      33.685  26.944  24.026  1.00  0.00    -0.289 OA
BRANCH  29  31
ATOM     31  C   UNL A   1      31.513  27.190  23.314  1.00  0.00     0.023 A 
ATOM     32  C   UNL A   1      30.229  26.721  23.621  1.00  0.00    -0.050 A 
ATOM     33  C   UNL A   1      31.684  28.440  22.708  1.00  0.00    -0.050 A 
ATOM     34  C   UNL A   1      29.119  27.534  23.394  1.00  0.00    -0.047 A 
ATOM     35  H   UNL A   1      30.105  25.775  24.015  1.00  0.00     0.063 H 
ATOM     36  C   UNL A   1      30.571  29.257  22.494  1.00  0.00    -0.047 A 
ATOM     37  H   UNL A   1      32.623  28.755  22.421  1.00  0.00     0.063 H 
ATOM     38  C   UNL A   1      29.297  28.806  22.850  1.00  0.00     0.018 A 
ATOM     39  H   UNL A   1      28.171  27.197  23.627  1.00  0.00     0.063 H 
ATOM     40  H   UNL A   1      30.689  30.192  22.074  1.00  0.00     0.063 H 
ATOM     41  Br  UNL A   1      27.801  29.938  22.615  1.00  0.00    -0.051 Br
ENDBRANCH  29  31
ENDBRANCH  19  29
ENDBRANCH  14  17
ENDBRANCH  11  14
ENDBRANCH   7  10
ENDBRANCH   4   7
ENDBRANCH   1   4
BRANCH   1  42
ATOM     42  C   UNL A   1      37.409  21.300  24.498  1.00  0.00    -0.052 C 
ATOM     43  H   UNL A   1      37.852  22.106  25.046  1.00  0.00     0.027 H 
ATOM     44  H   UNL A   1      37.514  21.400  23.439  1.00  0.00     0.027 H 
BRANCH  42  45
ATOM     45  C   UNL A   1      38.137  20.008  24.881  1.00  0.00    -0.036 C 
ATOM     46  H   UNL A   1      38.699  19.677  24.033  1.00  0.00     0.028 H 
ATOM     47  H   UNL A   1      37.384  19.310  25.180  1.00  0.00     0.028 H 
BRANCH  45  48
ATOM     48  C   UNL A   1      39.093  20.153  26.060  1.00  0.00     0.018 C 
ATOM     49  H   UNL A   1      38.544  20.025  26.969  1.00  0.00     0.049 H 
ATOM     50  H   UNL A   1      39.536  21.126  26.011  1.00  0.00     0.049 H 
BRANCH  48  51
ATOM     51  N   UNL A   1      40.163  19.167  26.014  1.00  0.00    -0.352 N 
ATOM     52  C   UNL A   1      41.519  19.352  26.039  1.00  0.00     0.251 C 
ATOM     53  H   UNL A   1      39.868  18.229  25.956  1.00  0.00     0.163 HD
ATOM     54  O   UNL A   1      42.277  18.417  25.774  1.00  0.00    -0.269 OA
BRANCH  52  55
ATOM     55  C   UNL A   1      42.080  20.677  26.370  1.00  0.00     0.039 A 
ATOM     56  C   UNL A   1      42.367  21.569  25.334  1.00  0.00    -0.049 A 
ATOM     57  C   UNL A   1      42.339  21.032  27.697  1.00  0.00    -0.049 A 
ATOM     58  C   UNL A   1      42.864  22.839  25.633  1.00  0.00    -0.053 A 
ATOM     59  H   UNL A   1      42.213  21.291  24.353  1.00  0.00     0.063 H 
ATOM     60  C   UNL A   1      42.766  22.322  27.998  1.00  0.00    -0.053 A 
ATOM     61  H   UNL A   1      42.215  20.339  28.452  1.00  0.00     0.063 H 
ATOM     62  C   UNL A   1      43.037  23.236  26.968  1.00  0.00    -0.014 A 
ATOM     63  H   UNL A   1      43.104  23.489  24.869  1.00  0.00     0.063 H 
ATOM     64  H   UNL A   1      42.882  22.608  28.983  1.00  0.00     0.063 H 
BRANCH  62  65
ATOM     65  C   UNL A   1      43.510  24.601  27.310  1.00  0.00     0.031 A 
ATOM     66  C   UNL A   1      42.549  25.616  27.863  1.00  0.00     0.074 A 
ATOM     67  C   UNL A   1      44.789  24.944  27.063  1.00  0.00     0.049 A 
ATOM     68  N   UNL A   1      42.752  26.876  28.155  1.00  0.00    -0.248 NA
ATOM     69  C   UNL A   1      41.169  25.162  28.094  1.00  0.00    -0.034 C 
ATOM     70  C   UNL A   1      45.805  24.060  26.491  1.00  0.00    -0.036 A 
ATOM     71  N   UNL A   1      45.450  26.131  27.253  1.00  0.00    -0.354 N 
ATOM     72  C   UNL A   1      41.527  27.365  28.588  1.00  0.00     0.074 A 
ATOM     73  C   UNL A   1      40.574  26.284  28.469  1.00  0.00    -0.034 C 
ATOM     74  H   UNL A   1      40.770  24.216  27.989  1.00  0.00     0.065 H 
ATOM     75  C   UNL A   1      46.966  24.728  26.395  1.00  0.00    -0.036 A 
ATOM     76  H   UNL A   1      45.653  23.080  26.205  1.00  0.00     0.065 H 
ATOM     77  C   UNL A   1      46.766  26.097  26.862  1.00  0.00     0.049 A 
ATOM     78  H   UNL A   1      45.021  26.932  27.634  1.00  0.00     0.167 HD
ATOM     79  C   UNL A   1      41.230  28.598  29.064  1.00  0.00     0.037 A 
ATOM     80  H   UNL A   1      39.562  26.374  28.654  1.00  0.00     0.065 H 
ATOM     81  H   UNL A   1      47.855  24.337  26.047  1.00  0.00     0.065 H 
ATOM     82  C   UNL A   1      47.702  27.064  26.870  1.00  0.00     0.037 A 
ATOM     83  C   UNL A   1      42.187  29.665  29.200  1.00  0.00     0.049 A 
ATOM     84  C   UNL A   1      47.342  28.430  27.390  1.00  0.00     0.074 A 
ATOM     85  C   UNL A   1      41.999  30.932  29.724  1.00  0.00    -0.036 A 
ATOM     86  N   UNL A   1      43.515  29.589  28.804  1.00  0.00    -0.354 N 
ATOM     87  N   UNL A   1      46.198  28.861  27.861  1.00  0.00    -0.248 NA
ATOM     88  C   UNL A   1      48.409  29.442  27.386  1.00  0.00    -0.034 C 
ATOM     89  C   UNL A   1      43.199  31.639  29.600  1.00  0.00    -0.036 A 
ATOM     90  H   UNL A   1      41.124  31.293  30.136  1.00  0.00     0.065 H 
ATOM     91  C   UNL A   1      44.151  30.796  29.050  1.00  0.00     0.049 A 
ATOM     92  H   UNL A   1      43.941  28.796  28.406  1.00  0.00     0.167 HD
ATOM     93  C   UNL A   1      46.412  30.180  28.236  1.00  0.00     0.074 A 
ATOM     94  C   UNL A   1      47.801  30.475  27.951  1.00  0.00    -0.034 C 
ATOM     95  H   UNL A   1      49.376  29.367  27.034  1.00  0.00     0.065 H 
ATOM     96  H   UNL A   1      43.351  32.623  29.872  1.00  0.00     0.065 H 
ATOM     97  C   UNL A   1      45.537  31.070  28.767  1.00  0.00     0.037 A 
ATOM     98  H   UNL A   1      48.261  31.374  28.162  1.00  0.00     0.065 H 
BRANCH  79  99
ATOM     99  C   UNL A   1      39.809  28.859  29.476  1.00  0.00     0.064 A 
ATOM    100  C   UNL A   1      38.859  29.357  28.569  1.00  0.00     0.173 A 
ATOM    101  C   UNL A   1      39.382  28.576  30.782  1.00  0.00     0.173 A 
ATOM    102  F   UNL A   1      39.217  29.653  27.311  1.00  0.00    -0.203 F 
ATOM    103  C   UNL A   1      37.545  29.592  28.964  1.00  0.00     0.198 A 
ATOM    104  C   UNL A   1      38.058  28.781  31.165  1.00  0.00     0.198 A 
ATOM    105  F   UNL A   1      40.246  28.091  31.687  1.00  0.00    -0.203 F 
ATOM    106  F   UNL A   1      36.670  30.116  28.096  1.00  0.00    -0.200 F 
ATOM    107  C   UNL A   1      37.144  29.297  30.259  1.00  0.00     0.200 A 
ATOM    108  F   UNL A   1      37.669  28.483  32.411  1.00  0.00    -0.200 F 
ATOM    109  F   UNL A   1      35.877  29.517  30.635  1.00  0.00    -0.200 F 
ENDBRANCH  79  99
BRANCH  82 110
ATOM    110  C   UNL A   1      49.079  26.771  26.390  1.00  0.00     0.064 A 
ATOM    111  C   UNL A   1      50.059  26.287  27.268  1.00  0.00     0.173 A 
ATOM    112  C   UNL A   1      49.444  26.970  25.051  1.00  0.00     0.173 A 
ATOM    113  F   UNL A   1      49.762  26.098  28.563  1.00  0.00    -0.203 F 
ATOM    114  C   UNL A   1      51.357  26.037  26.831  1.00  0.00     0.198 A 
ATOM    115  C   UNL A   1      50.737  26.691  24.608  1.00  0.00     0.198 A 
ATOM    116  F   UNL A   1      48.543  27.424  24.168  1.00  0.00    -0.203 F 
ATOM    117  F   UNL A   1      52.286  25.622  27.703  1.00  0.00    -0.200 F 
ATOM    118  C   UNL A   1      51.694  26.233  25.501  1.00  0.00     0.200 A 
ATOM    119  F   UNL A   1      51.052  26.867  23.318  1.00  0.00    -0.200 F 
ATOM    120  F   UNL A   1      52.942  25.989  25.080  1.00  0.00    -0.200 F 
ENDBRANCH  82 110
BRANCH  97 121
ATOM    121  C   UNL A   1      46.064  32.432  29.112  1.00  0.00     0.064 A 
ATOM    122  C   UNL A   1      46.009  33.496  28.200  1.00  0.00     0.173 A 
ATOM    123  C   UNL A   1      46.594  32.686  30.386  1.00  0.00     0.173 A 
ATOM    124  F   UNL A   1      45.526  33.302  26.963  1.00  0.00    -0.203 F 
ATOM    125  C   UNL A   1      46.491  34.758  28.541  1.00  0.00     0.198 A 
ATOM    126  C   UNL A   1      47.045  33.956  30.736  1.00  0.00     0.198 A 
ATOM    127  F   UNL A   1      46.663  31.705  31.298  1.00  0.00    -0.203 F 
ATOM    128  F   UNL A   1      46.475  35.746  27.637  1.00  0.00    -0.200 F 
ATOM    129  C   UNL A   1      47.001  34.989  29.811  1.00  0.00     0.200 A 
ATOM    130  F   UNL A   1      47.524  34.180  31.967  1.00  0.00    -0.200 F 
ATOM    131  F   UNL A   1      47.456  36.205  30.140  1.00  0.00    -0.200 F 
ENDBRANCH  97 121
ENDBRANCH  62  65
ENDBRANCH  52  55
ENDBRANCH  48  51
ENDBRANCH  45  48
ENDBRANCH  42  45
ENDBRANCH   1  42
TORSDOF 17
ENDMDL
MODEL 6
REMARK VINA RESULT:     -12.2      5.959     11.670
REMARK SMILES Nc1c(CC(=O)NCCCCCCNC(=O)c2ccc(-c3c4nc(c(-c5c(F)c(F)c(F)c(F)c5F)c5ccc([nH]5)c(-c5c(F)c(F)c(F)c(F)c5F)c5nc(c(-c6c(F)c(F)c(F)c(F)c6F)c6ccc3[nH]6)C=C5)C=C4)cc2)cccc1C(=O)c1ccc(Br)cc1
REMARK SMILES IDX 10 1 9 4 8 7 7 10 5 11 6 12 4 14 3 17 2 18 83 19 80 20 82 21
REMARK SMILES IDX 81 22 1 26 84 29 85 30 86 31 87 32 92 33 88 34 91 36 89 38
REMARK SMILES IDX 90 41 11 42 12 45 13 48 14 51 15 52 16 54 17 55 18 56 79 57
REMARK SMILES IDX 19 58 78 60 20 62 21 65 22 66 72 67 23 68 77 69 71 70 73 71
REMARK SMILES IDX 24 72 76 73 70 75 69 77 25 79 57 82 37 83 56 84 38 85 41 86
REMARK SMILES IDX 55 87 74 88 39 89 40 91 54 93 75 94 42 97 26 99 27 100
REMARK SMILES IDX 35 101 28 102 29 103 33 104 36 105 30 106 31 107 34 108
REMARK SMILES IDX 32 109 58 110 59 111 67 112 60 113 61 114 65 115 68 116
REMARK SMILES IDX 62 117 63 118 66 119 64 120 43 121 44 122 52 123 45 124
REMARK SMILES IDX 46 125 50 126 53 127 47 128 48 129 51 130 49 131
REMARK H PARENT 10 2 10 3 9 5 9 6 8 8 8 9 7 13 4 15 4 16 80 23 82 24 81 25
REMARK H PARENT 1 27 1 28 87 35 92 37 88 39 91 40 11 43 11 44 12 46 12 47
REMARK H PARENT 13 49 13 50 14 53 18 59 79 61 19 63 78 64 77 74 71 76 73 78
REMARK H PARENT 76 80 70 81 38 90 41 92 74 95 39 96 75 98
REMARK Flexibility Score: inf
ROOT
ATOM      1  C   UNL A   1      40.688  22.075  26.330  1.00  0.00    -0.052 C 
ATOM      2  H   UNL A   1      41.410  22.781  26.682  1.00  0.00     0.027 H 
ATOM      3  H   UNL A   1      40.771  21.874  25.282  1.00  0.00     0.027 H 
ENDROOT
BRANCH   1   4
ATOM      4  C   UNL A   1      39.291  22.670  26.546  1.00  0.00    -0.036 C 
ATOM      5  H   UNL A   1      39.052  22.605  27.588  1.00  0.00     0.028 H 
ATOM      6  H   UNL A   1      39.320  23.684  26.204  1.00  0.00     0.028 H 
BRANCH   4   7
ATOM      7  C   UNL A   1      38.201  21.953  25.751  1.00  0.00     0.017 C 
ATOM      8  H   UNL A   1      38.581  21.016  25.402  1.00  0.00     0.049 H 
ATOM      9  H   UNL A   1      37.358  21.801  26.392  1.00  0.00     0.049 H 
BRANCH   7  10
ATOM     10  N   UNL A   1      37.777  22.744  24.615  1.00  0.00    -0.356 N 
ATOM     11  C   UNL A   1      36.654  22.617  23.850  1.00  0.00     0.224 C 
ATOM     12  O   UNL A   1      36.554  23.324  22.845  1.00  0.00    -0.275 OA
ATOM     13  H   UNL A   1      38.384  23.475  24.358  1.00  0.00     0.163 HD
BRANCH  11  14
ATOM     14  C   UNL A   1      35.525  21.693  24.277  1.00  0.00     0.054 C 
ATOM     15  H   UNL A   1      34.963  21.432  23.405  1.00  0.00     0.042 H 
ATOM     16  H   UNL A   1      35.991  20.855  24.751  1.00  0.00     0.042 H 
BRANCH  14  17
ATOM     17  C   UNL A   1      34.563  22.275  25.299  1.00  0.00    -0.015 A 
ATOM     18  C   UNL A   1      33.682  23.354  25.002  1.00  0.00     0.046 A 
ATOM     19  C   UNL A   1      32.877  23.887  26.043  1.00  0.00     0.046 A 
ATOM     20  C   UNL A   1      34.597  21.731  26.596  1.00  0.00    -0.056 A 
ATOM     21  C   UNL A   1      32.953  23.320  27.332  1.00  0.00    -0.049 A 
ATOM     22  C   UNL A   1      33.799  22.249  27.605  1.00  0.00    -0.061 A 
ATOM     23  H   UNL A   1      35.222  20.936  26.799  1.00  0.00     0.063 H 
ATOM     24  H   UNL A   1      32.369  23.707  28.088  1.00  0.00     0.063 H 
ATOM     25  H   UNL A   1      33.832  21.845  28.554  1.00  0.00     0.062 H 
BRANCH  18  26
ATOM     26  N   UNL A   1      33.684  23.870  23.711  1.00  0.00    -0.398 N 
ATOM     27  H   UNL A   1      33.550  23.271  22.941  1.00  0.00     0.156 HD
ATOM     28  H   UNL A   1      33.821  24.834  23.566  1.00  0.00     0.156 HD
ENDBRANCH  18  26
BRANCH  19  29
ATOM     29  C   UNL A   1      31.953  25.068  25.935  1.00  0.00     0.195 C 
ATOM     30  O   UNL A   1      30.759  24.898  25.687  1.00  0.00    -0.289 OA
BRANCH  29  31
ATOM     31  C   UNL A   1      32.370  26.458  26.193  1.00  0.00     0.023 A 
ATOM     32  C   UNL A   1      31.471  27.293  26.869  1.00  0.00    -0.050 A 
ATOM     33  C   UNL A   1      33.633  26.930  25.823  1.00  0.00    -0.050 A 
ATOM     34  C   UNL A   1      31.864  28.578  27.245  1.00  0.00    -0.047 A 
ATOM     35  H   UNL A   1      30.520  26.958  27.089  1.00  0.00     0.063 H 
ATOM     36  C   UNL A   1      34.028  28.213  26.212  1.00  0.00    -0.047 A 
ATOM     37  H   UNL A   1      34.269  26.337  25.267  1.00  0.00     0.063 H 
ATOM     38  C   UNL A   1      33.147  29.024  26.932  1.00  0.00     0.018 A 
ATOM     39  H   UNL A   1      31.208  29.194  27.751  1.00  0.00     0.063 H 
ATOM     40  H   UNL A   1      34.969  28.561  25.969  1.00  0.00     0.063 H 
ATOM     41  Br  UNL A   1      33.706  30.735  27.510  1.00  0.00    -0.051 Br
ENDBRANCH  29  31
ENDBRANCH  19  29
ENDBRANCH  14  17
ENDBRANCH  11  14
ENDBRANCH   7  10
ENDBRANCH   4   7
ENDBRANCH   1   4
BRANCH   1  42
ATOM     42  C   UNL A   1      40.936  20.741  27.046  1.00  0.00    -0.052 C 
ATOM     43  H   UNL A   1      40.042  20.475  27.571  1.00  0.00     0.027 H 
ATOM     44  H   UNL A   1      41.775  20.897  27.690  1.00  0.00     0.027 H 
BRANCH  42  45
ATOM     45  C   UNL A   1      41.312  19.576  26.127  1.00  0.00    -0.036 C 
ATOM     46  H   UNL A   1      41.422  19.956  25.133  1.00  0.00     0.028 H 
ATOM     47  H   UNL A   1      40.528  18.853  26.211  1.00  0.00     0.028 H 
BRANCH  45  48
ATOM     48  C   UNL A   1      42.605  18.866  26.512  1.00  0.00     0.018 C 
ATOM     49  H   UNL A   1      42.365  17.919  26.947  1.00  0.00     0.049 H 
ATOM     50  H   UNL A   1      43.131  19.487  27.207  1.00  0.00     0.049 H 
BRANCH  48  51
ATOM     51  N   UNL A   1      43.468  18.649  25.359  1.00  0.00    -0.352 N 
ATOM     52  C   UNL A   1      44.144  19.561  24.594  1.00  0.00     0.251 C 
ATOM     53  H   UNL A   1      43.583  17.709  25.091  1.00  0.00     0.163 HD
ATOM     54  O   UNL A   1      44.654  19.218  23.526  1.00  0.00    -0.269 OA
BRANCH  52  55
ATOM     55  C   UNL A   1      44.252  20.965  25.037  1.00  0.00     0.039 A 
ATOM     56  C   UNL A   1      44.825  21.241  26.281  1.00  0.00    -0.049 A 
ATOM     57  C   UNL A   1      43.773  22.006  24.236  1.00  0.00    -0.049 A 
ATOM     58  C   UNL A   1      44.968  22.566  26.699  1.00  0.00    -0.053 A 
ATOM     59  H   UNL A   1      45.142  20.470  26.888  1.00  0.00     0.063 H 
ATOM     60  C   UNL A   1      43.981  23.328  24.621  1.00  0.00    -0.053 A 
ATOM     61  H   UNL A   1      43.266  21.796  23.362  1.00  0.00     0.063 H 
ATOM     62  C   UNL A   1      44.575  23.620  25.859  1.00  0.00    -0.014 A 
ATOM     63  H   UNL A   1      45.364  22.771  27.629  1.00  0.00     0.063 H 
ATOM     64  H   UNL A   1      43.697  24.096  23.993  1.00  0.00     0.063 H 
BRANCH  62  65
ATOM     65  C   UNL A   1      44.770  25.036  26.259  1.00  0.00     0.031 A 
ATOM     66  C   UNL A   1      46.129  25.668  26.158  1.00  0.00     0.074 A 
ATOM     67  C   UNL A   1      43.736  25.731  26.771  1.00  0.00     0.049 A 
ATOM     68  N   UNL A   1      46.516  26.865  26.523  1.00  0.00    -0.248 NA
ATOM     69  C   UNL A   1      47.205  24.836  25.596  1.00  0.00    -0.034 C 
ATOM     70  C   UNL A   1      42.380  25.214  26.957  1.00  0.00    -0.036 A 
ATOM     71  N   UNL A   1      43.668  27.019  27.239  1.00  0.00    -0.354 N 
ATOM     72  C   UNL A   1      47.876  26.922  26.249  1.00  0.00     0.074 A 
ATOM     73  C   UNL A   1      48.260  25.624  25.739  1.00  0.00    -0.034 C 
ATOM     74  H   UNL A   1      47.150  23.886  25.196  1.00  0.00     0.065 H 
ATOM     75  C   UNL A   1      41.608  26.181  27.480  1.00  0.00    -0.036 A 
ATOM     76  H   UNL A   1      42.066  24.259  26.724  1.00  0.00     0.065 H 
ATOM     77  C   UNL A   1      42.424  27.371  27.702  1.00  0.00     0.049 A 
ATOM     78  H   UNL A   1      44.438  27.633  27.242  1.00  0.00     0.167 HD
ATOM     79  C   UNL A   1      48.723  27.970  26.389  1.00  0.00     0.037 A 
ATOM     80  H   UNL A   1      49.229  25.348  25.515  1.00  0.00     0.065 H 
ATOM     81  H   UNL A   1      40.602  26.095  27.690  1.00  0.00     0.065 H 
ATOM     82  C   UNL A   1      41.993  28.522  28.253  1.00  0.00     0.037 A 
ATOM     83  C   UNL A   1      48.331  29.266  26.877  1.00  0.00     0.049 A 
ATOM     84  C   UNL A   1      42.958  29.666  28.410  1.00  0.00     0.074 A 
ATOM     85  C   UNL A   1      49.100  30.411  27.002  1.00  0.00    -0.036 A 
ATOM     86  N   UNL A   1      47.058  29.589  27.326  1.00  0.00    -0.354 N 
ATOM     87  N   UNL A   1      44.225  29.732  28.084  1.00  0.00    -0.248 NA
ATOM     88  C   UNL A   1      42.428  30.901  29.006  1.00  0.00    -0.034 C 
ATOM     89  C   UNL A   1      48.306  31.411  27.573  1.00  0.00    -0.036 A 
ATOM     90  H   UNL A   1      50.089  30.509  26.723  1.00  0.00     0.065 H 
ATOM     91  C   UNL A   1      47.027  30.908  27.752  1.00  0.00     0.049 A 
ATOM     92  H   UNL A   1      46.291  28.972  27.341  1.00  0.00     0.167 HD
ATOM     93  C   UNL A   1      44.637  31.017  28.407  1.00  0.00     0.074 A 
ATOM     94  C   UNL A   1      43.479  31.705  28.941  1.00  0.00    -0.034 C 
ATOM     95  H   UNL A   1      41.484  31.091  29.379  1.00  0.00     0.065 H 
ATOM     96  H   UNL A   1      48.619  32.363  27.819  1.00  0.00     0.065 H 
ATOM     97  C   UNL A   1      45.864  31.579  28.273  1.00  0.00     0.037 A 
ATOM     98  H   UNL A   1      43.473  32.694  29.232  1.00  0.00     0.065 H 
BRANCH  79  99
ATOM     99  C   UNL A   1      50.159  27.758  26.005  1.00  0.00     0.064 A 
ATOM    100  C   UNL A   1      51.150  27.509  26.968  1.00  0.00     0.173 A 
ATOM    101  C   UNL A   1      50.545  27.768  24.656  1.00  0.00     0.173 A 
ATOM    102  F   UNL A   1      50.836  27.499  28.272  1.00  0.00    -0.203 F 
ATOM    103  C   UNL A   1      52.477  27.312  26.597  1.00  0.00     0.198 A 
ATOM    104  C   UNL A   1      51.868  27.538  24.286  1.00  0.00     0.198 A 
ATOM    105  F   UNL A   1      49.638  27.993  23.693  1.00  0.00    -0.203 F 
ATOM    106  F   UNL A   1      53.413  27.129  27.538  1.00  0.00    -0.200 F 
ATOM    107  C   UNL A   1      52.835  27.319  25.257  1.00  0.00     0.200 A 
ATOM    108  F   UNL A   1      52.209  27.530  22.991  1.00  0.00    -0.200 F 
ATOM    109  F   UNL A   1      54.111  27.122  24.902  1.00  0.00    -0.200 F 
ENDBRANCH  79  99
BRANCH  82 110
ATOM    110  C   UNL A   1      40.574  28.658  28.676  1.00  0.00     0.064 A 
ATOM    111  C   UNL A   1      40.190  28.387  29.998  1.00  0.00     0.173 A 
ATOM    112  C   UNL A   1      39.576  29.053  27.774  1.00  0.00     0.173 A 
ATOM    113  F   UNL A   1      41.105  27.987  30.893  1.00  0.00    -0.203 F 
ATOM    114  C   UNL A   1      38.858  28.485  30.394  1.00  0.00     0.198 A 
ATOM    115  C   UNL A   1      38.248  29.178  28.180  1.00  0.00     0.198 A 
ATOM    116  F   UNL A   1      39.892  29.330  26.501  1.00  0.00    -0.203 F 
ATOM    117  F   UNL A   1      38.512  28.174  31.651  1.00  0.00    -0.200 F 
ATOM    118  C   UNL A   1      37.889  28.886  29.487  1.00  0.00     0.200 A 
ATOM    119  F   UNL A   1      37.319  29.582  27.303  1.00  0.00    -0.200 F 
ATOM    120  F   UNL A   1      36.609  28.984  29.869  1.00  0.00    -0.200 F 
ENDBRANCH  82 110
BRANCH  97 121
ATOM    121  C   UNL A   1      46.009  33.018  28.676  1.00  0.00     0.064 A 
ATOM    122  C   UNL A   1      46.395  33.386  29.973  1.00  0.00     0.173 A 
ATOM    123  C   UNL A   1      45.798  34.041  27.738  1.00  0.00     0.173 A 
ATOM    124  F   UNL A   1      46.594  32.447  30.910  1.00  0.00    -0.203 F 
ATOM    125  C   UNL A   1      46.538  34.726  30.325  1.00  0.00     0.198 A 
ATOM    126  C   UNL A   1      45.973  35.378  28.084  1.00  0.00     0.198 A 
ATOM    127  F   UNL A   1      45.434  33.743  26.482  1.00  0.00    -0.203 F 
ATOM    128  F   UNL A   1      46.859  35.055  31.583  1.00  0.00    -0.200 F 
ATOM    129  C   UNL A   1      46.335  35.720  29.379  1.00  0.00     0.200 A 
ATOM    130  F   UNL A   1      45.790  36.336  27.165  1.00  0.00    -0.200 F 
ATOM    131  F   UNL A   1      46.481  37.009  29.717  1.00  0.00    -0.200 F 
ENDBRANCH  97 121
ENDBRANCH  62  65
ENDBRANCH  52  55
ENDBRANCH  48  51
ENDBRANCH  45  48
ENDBRANCH  42  45
ENDBRANCH   1  42
TORSDOF 17
ENDMDL
MODEL 7
REMARK VINA RESULT:     -12.2      5.861     10.492
REMARK SMILES Nc1c(CC(=O)NCCCCCCNC(=O)c2ccc(-c3c4nc(c(-c5c(F)c(F)c(F)c(F)c5F)c5ccc([nH]5)c(-c5c(F)c(F)c(F)c(F)c5F)c5nc(c(-c6c(F)c(F)c(F)c(F)c6F)c6ccc3[nH]6)C=C5)C=C4)cc2)cccc1C(=O)c1ccc(Br)cc1
REMARK SMILES IDX 10 1 9 4 8 7 7 10 5 11 6 12 4 14 3 17 2 18 83 19 80 20 82 21
REMARK SMILES IDX 81 22 1 26 84 29 85 30 86 31 87 32 92 33 88 34 91 36 89 38
REMARK SMILES IDX 90 41 11 42 12 45 13 48 14 51 15 52 16 54 17 55 18 56 79 57
REMARK SMILES IDX 19 58 78 60 20 62 21 65 22 66 72 67 23 68 77 69 71 70 73 71
REMARK SMILES IDX 24 72 76 73 70 75 69 77 25 79 57 82 37 83 56 84 38 85 41 86
REMARK SMILES IDX 55 87 74 88 39 89 40 91 54 93 75 94 42 97 26 99 27 100
REMARK SMILES IDX 35 101 28 102 29 103 33 104 36 105 30 106 31 107 34 108
REMARK SMILES IDX 32 109 58 110 59 111 67 112 60 113 61 114 65 115 68 116
REMARK SMILES IDX 62 117 63 118 66 119 64 120 43 121 44 122 52 123 45 124
REMARK SMILES IDX 46 125 50 126 53 127 47 128 48 129 51 130 49 131
REMARK H PARENT 10 2 10 3 9 5 9 6 8 8 8 9 7 13 4 15 4 16 80 23 82 24 81 25
REMARK H PARENT 1 27 1 28 87 35 92 37 88 39 91 40 11 43 11 44 12 46 12 47
REMARK H PARENT 13 49 13 50 14 53 18 59 79 61 19 63 78 64 77 74 71 76 73 78
REMARK H PARENT 76 80 70 81 38 90 41 92 74 95 39 96 75 98
REMARK Flexibility Score: inf
ROOT
ATOM      1  C   UNL A   1      37.450  21.896  24.704  1.00  0.00    -0.052 C 
ATOM      2  H   UNL A   1      37.663  22.213  25.704  1.00  0.00     0.027 H 
ATOM      3  H   UNL A   1      38.306  21.919  24.063  1.00  0.00     0.027 H 
ENDROOT
BRANCH   1   4
ATOM      4  C   UNL A   1      36.432  22.872  24.100  1.00  0.00    -0.036 C 
ATOM      5  H   UNL A   1      36.878  23.345  23.250  1.00  0.00     0.028 H 
ATOM      6  H   UNL A   1      35.565  22.303  23.834  1.00  0.00     0.028 H 
BRANCH   4   7
ATOM      7  C   UNL A   1      35.981  23.955  25.080  1.00  0.00     0.017 C 
ATOM      8  H   UNL A   1      36.839  24.349  25.583  1.00  0.00     0.049 H 
ATOM      9  H   UNL A   1      35.482  24.725  24.529  1.00  0.00     0.049 H 
BRANCH   7  10
ATOM     10  N   UNL A   1      35.060  23.421  26.061  1.00  0.00    -0.356 N 
ATOM     11  C   UNL A   1      33.696  23.428  26.051  1.00  0.00     0.224 C 
ATOM     12  O   UNL A   1      33.106  23.028  27.058  1.00  0.00    -0.275 OA
ATOM     13  H   UNL A   1      35.476  22.995  26.844  1.00  0.00     0.163 HD
BRANCH  11  14
ATOM     14  C   UNL A   1      32.930  23.835  24.803  1.00  0.00     0.054 C 
ATOM     15  H   UNL A   1      33.627  23.903  23.994  1.00  0.00     0.042 H 
ATOM     16  H   UNL A   1      32.180  23.085  24.657  1.00  0.00     0.042 H 
BRANCH  14  17
ATOM     17  C   UNL A   1      32.191  25.159  24.899  1.00  0.00    -0.015 A 
ATOM     18  C   UNL A   1      30.899  25.363  24.337  1.00  0.00     0.046 A 
ATOM     19  C   UNL A   1      30.320  26.658  24.404  1.00  0.00     0.046 A 
ATOM     20  C   UNL A   1      32.854  26.220  25.543  1.00  0.00    -0.056 A 
ATOM     21  C   UNL A   1      31.026  27.696  25.046  1.00  0.00    -0.049 A 
ATOM     22  C   UNL A   1      32.277  27.479  25.615  1.00  0.00    -0.061 A 
ATOM     23  H   UNL A   1      33.781  26.059  25.967  1.00  0.00     0.063 H 
ATOM     24  H   UNL A   1      30.605  28.636  25.095  1.00  0.00     0.063 H 
ATOM     25  H   UNL A   1      32.772  28.251  26.087  1.00  0.00     0.062 H 
BRANCH  18  26
ATOM     26  N   UNL A   1      30.280  24.292  23.702  1.00  0.00    -0.398 N 
ATOM     27  H   UNL A   1      29.659  24.454  22.955  1.00  0.00     0.156 HD
ATOM     28  H   UNL A   1      30.463  23.371  23.999  1.00  0.00     0.156 HD
ENDBRANCH  18  26
BRANCH  19  29
ATOM     29  C   UNL A   1      29.009  27.077  23.800  1.00  0.00     0.195 C 
ATOM     30  O   UNL A   1      28.029  26.335  23.875  1.00  0.00    -0.289 OA
BRANCH  29  31
ATOM     31  C   UNL A   1      28.780  28.390  23.173  1.00  0.00     0.023 A 
ATOM     32  C   UNL A   1      29.787  28.900  22.341  1.00  0.00    -0.050 A 
ATOM     33  C   UNL A   1      27.588  29.098  23.354  1.00  0.00    -0.050 A 
ATOM     34  C   UNL A   1      29.569  30.079  21.628  1.00  0.00    -0.047 A 
ATOM     35  H   UNL A   1      30.687  28.403  22.255  1.00  0.00     0.063 H 
ATOM     36  C   UNL A   1      27.368  30.272  22.629  1.00  0.00    -0.047 A 
ATOM     37  H   UNL A   1      26.876  28.756  24.019  1.00  0.00     0.063 H 
ATOM     38  C   UNL A   1      28.353  30.749  21.761  1.00  0.00     0.018 A 
ATOM     39  H   UNL A   1      30.303  30.454  21.007  1.00  0.00     0.063 H 
ATOM     40  H   UNL A   1      26.479  30.786  22.734  1.00  0.00     0.063 H 
ATOM     41  Br  UNL A   1      28.028  32.304  20.736  1.00  0.00    -0.051 Br
ENDBRANCH  29  31
ENDBRANCH  19  29
ENDBRANCH  14  17
ENDBRANCH  11  14
ENDBRANCH   7  10
ENDBRANCH   4   7
ENDBRANCH   1   4
BRANCH   1  42
ATOM     42  C   UNL A   1      36.987  20.435  24.756  1.00  0.00    -0.052 C 
ATOM     43  H   UNL A   1      36.553  20.190  23.809  1.00  0.00     0.027 H 
ATOM     44  H   UNL A   1      36.295  20.368  25.568  1.00  0.00     0.027 H 
BRANCH  42  45
ATOM     45  C   UNL A   1      38.093  19.418  25.049  1.00  0.00    -0.036 C 
ATOM     46  H   UNL A   1      38.412  18.993  24.121  1.00  0.00     0.028 H 
ATOM     47  H   UNL A   1      37.674  18.693  25.716  1.00  0.00     0.028 H 
BRANCH  45  48
ATOM     48  C   UNL A   1      39.313  20.004  25.751  1.00  0.00     0.018 C 
ATOM     49  H   UNL A   1      39.017  20.376  26.709  1.00  0.00     0.049 H 
ATOM     50  H   UNL A   1      39.705  20.787  25.137  1.00  0.00     0.049 H 
BRANCH  48  51
ATOM     51  N   UNL A   1      40.361  19.010  25.935  1.00  0.00    -0.352 N 
ATOM     52  C   UNL A   1      41.705  19.186  26.126  1.00  0.00     0.251 C 
ATOM     53  H   UNL A   1      40.058  18.073  25.921  1.00  0.00     0.163 HD
ATOM     54  O   UNL A   1      42.473  18.226  26.048  1.00  0.00    -0.269 OA
BRANCH  52  55
ATOM     55  C   UNL A   1      42.242  20.531  26.411  1.00  0.00     0.039 A 
ATOM     56  C   UNL A   1      42.720  21.308  25.353  1.00  0.00    -0.049 A 
ATOM     57  C   UNL A   1      42.292  21.017  27.721  1.00  0.00    -0.049 A 
ATOM     58  C   UNL A   1      43.198  22.596  25.602  1.00  0.00    -0.053 A 
ATOM     59  H   UNL A   1      42.720  20.932  24.393  1.00  0.00     0.063 H 
ATOM     60  C   UNL A   1      42.701  22.327  27.958  1.00  0.00    -0.053 A 
ATOM     61  H   UNL A   1      42.027  20.407  28.510  1.00  0.00     0.063 H 
ATOM     62  C   UNL A   1      43.163  23.126  26.902  1.00  0.00    -0.014 A 
ATOM     63  H   UNL A   1      43.578  23.161  24.827  1.00  0.00     0.063 H 
ATOM     64  H   UNL A   1      42.663  22.711  28.915  1.00  0.00     0.063 H 
BRANCH  62  65
ATOM     65  C   UNL A   1      43.613  24.513  27.179  1.00  0.00     0.031 A 
ATOM     66  C   UNL A   1      42.634  25.538  27.678  1.00  0.00     0.074 A 
ATOM     67  C   UNL A   1      44.888  24.864  26.921  1.00  0.00     0.049 A 
ATOM     68  N   UNL A   1      42.817  26.815  27.910  1.00  0.00    -0.248 NA
ATOM     69  C   UNL A   1      41.260  25.074  27.925  1.00  0.00    -0.034 C 
ATOM     70  C   UNL A   1      45.920  23.969  26.396  1.00  0.00    -0.036 A 
ATOM     71  N   UNL A   1      45.529  26.069  27.056  1.00  0.00    -0.354 N 
ATOM     72  C   UNL A   1      41.581  27.305  28.315  1.00  0.00     0.074 A 
ATOM     73  C   UNL A   1      40.646  26.204  28.244  1.00  0.00    -0.034 C 
ATOM     74  H   UNL A   1      40.876  24.119  27.865  1.00  0.00     0.065 H 
ATOM     75  C   UNL A   1      47.071  24.650  26.273  1.00  0.00    -0.036 A 
ATOM     76  H   UNL A   1      45.785  22.974  26.157  1.00  0.00     0.065 H 
ATOM     77  C   UNL A   1      46.848  26.037  26.672  1.00  0.00     0.049 A 
ATOM     78  H   UNL A   1      45.087  26.881  27.396  1.00  0.00     0.167 HD
ATOM     79  C   UNL A   1      41.263  28.554  28.729  1.00  0.00     0.037 A 
ATOM     80  H   UNL A   1      39.632  26.287  28.420  1.00  0.00     0.065 H 
ATOM     81  H   UNL A   1      47.967  24.257  25.948  1.00  0.00     0.065 H 
ATOM     82  C   UNL A   1      47.769  27.018  26.637  1.00  0.00     0.037 A 
ATOM     83  C   UNL A   1      42.203  29.641  28.817  1.00  0.00     0.049 A 
ATOM     84  C   UNL A   1      47.385  28.401  27.090  1.00  0.00     0.074 A 
ATOM     85  C   UNL A   1      41.993  30.929  29.279  1.00  0.00    -0.036 A 
ATOM     86  N   UNL A   1      43.534  29.567  28.431  1.00  0.00    -0.354 N 
ATOM     87  N   UNL A   1      46.233  28.837  27.535  1.00  0.00    -0.248 NA
ATOM     88  C   UNL A   1      48.436  29.428  27.041  1.00  0.00    -0.034 C 
ATOM     89  C   UNL A   1      43.183  31.648  29.126  1.00  0.00    -0.036 A 
ATOM     90  H   UNL A   1      41.111  31.295  29.669  1.00  0.00     0.065 H 
ATOM     91  C   UNL A   1      44.150  30.794  28.621  1.00  0.00     0.049 A 
ATOM     92  H   UNL A   1      43.974  28.762  28.074  1.00  0.00     0.167 HD
ATOM     93  C   UNL A   1      46.425  30.175  27.846  1.00  0.00     0.074 A 
ATOM     94  C   UNL A   1      47.811  30.478  27.553  1.00  0.00    -0.034 C 
ATOM     95  H   UNL A   1      49.406  29.351  26.697  1.00  0.00     0.065 H 
ATOM     96  H   UNL A   1      43.318  32.646  29.350  1.00  0.00     0.065 H 
ATOM     97  C   UNL A   1      45.533  31.076  28.331  1.00  0.00     0.037 A 
ATOM     98  H   UNL A   1      48.255  31.393  27.722  1.00  0.00     0.065 H 
BRANCH  79  99
ATOM     99  C   UNL A   1      39.837  28.812  29.122  1.00  0.00     0.064 A 
ATOM    100  C   UNL A   1      39.395  28.645  30.444  1.00  0.00     0.173 A 
ATOM    101  C   UNL A   1      38.907  29.266  28.174  1.00  0.00     0.173 A 
ATOM    102  F   UNL A   1      40.241  28.204  31.388  1.00  0.00    -0.203 F 
ATOM    103  C   UNL A   1      38.071  28.890  30.795  1.00  0.00     0.198 A 
ATOM    104  C   UNL A   1      37.590  29.542  28.535  1.00  0.00     0.198 A 
ATOM    105  F   UNL A   1      39.276  29.451  26.898  1.00  0.00    -0.203 F 
ATOM    106  F   UNL A   1      37.661  28.673  32.052  1.00  0.00    -0.200 F 
ATOM    107  C   UNL A   1      37.171  29.345  29.843  1.00  0.00     0.200 A 
ATOM    108  F   UNL A   1      36.726  29.996  27.618  1.00  0.00    -0.200 F 
ATOM    109  F   UNL A   1      35.899  29.588  30.184  1.00  0.00    -0.200 F 
ENDBRANCH  79  99
BRANCH  82 110
ATOM    110  C   UNL A   1      49.152  26.723  26.177  1.00  0.00     0.064 A 
ATOM    111  C   UNL A   1      50.119  26.242  27.071  1.00  0.00     0.173 A 
ATOM    112  C   UNL A   1      49.536  26.919  24.843  1.00  0.00     0.173 A 
ATOM    113  F   UNL A   1      49.805  26.056  28.362  1.00  0.00    -0.203 F 
ATOM    114  C   UNL A   1      51.424  25.990  26.653  1.00  0.00     0.198 A 
ATOM    115  C   UNL A   1      50.835  26.638  24.420  1.00  0.00     0.198 A 
ATOM    116  F   UNL A   1      48.647  27.370  23.946  1.00  0.00    -0.203 F 
ATOM    117  F   UNL A   1      52.340  25.577  27.539  1.00  0.00    -0.200 F 
ATOM    118  C   UNL A   1      51.779  26.183  25.327  1.00  0.00     0.200 A 
ATOM    119  F   UNL A   1      51.169  26.811  23.133  1.00  0.00    -0.200 F 
ATOM    120  F   UNL A   1      53.033  25.937  24.924  1.00  0.00    -0.200 F 
ENDBRANCH  82 110
BRANCH  97 121
ATOM    121  C   UNL A   1      46.038  32.461  28.611  1.00  0.00     0.064 A 
ATOM    122  C   UNL A   1      45.913  33.495  27.672  1.00  0.00     0.173 A 
ATOM    123  C   UNL A   1      46.618  32.767  29.852  1.00  0.00     0.173 A 
ATOM    124  F   UNL A   1      45.380  33.251  26.466  1.00  0.00    -0.203 F 
ATOM    125  C   UNL A   1      46.374  34.779  27.955  1.00  0.00     0.198 A 
ATOM    126  C   UNL A   1      47.049  34.058  30.144  1.00  0.00     0.198 A 
ATOM    127  F   UNL A   1      46.755  31.815  30.788  1.00  0.00    -0.203 F 
ATOM    128  F   UNL A   1      46.290  35.739  27.025  1.00  0.00    -0.200 F 
ATOM    129  C   UNL A   1      46.934  35.061  29.193  1.00  0.00     0.200 A 
ATOM    130  F   UNL A   1      47.577  34.331  31.345  1.00  0.00    -0.200 F 
ATOM    131  F   UNL A   1      47.371  36.298  29.466  1.00  0.00    -0.200 F 
ENDBRANCH  97 121
ENDBRANCH  62  65
ENDBRANCH  52  55
ENDBRANCH  48  51
ENDBRANCH  45  48
ENDBRANCH  42  45
ENDBRANCH   1  42
TORSDOF 17
ENDMDL
MODEL 8
REMARK VINA RESULT:     -12.1      1.839      7.742
REMARK SMILES Nc1c(CC(=O)NCCCCCCNC(=O)c2ccc(-c3c4nc(c(-c5c(F)c(F)c(F)c(F)c5F)c5ccc([nH]5)c(-c5c(F)c(F)c(F)c(F)c5F)c5nc(c(-c6c(F)c(F)c(F)c(F)c6F)c6ccc3[nH]6)C=C5)C=C4)cc2)cccc1C(=O)c1ccc(Br)cc1
REMARK SMILES IDX 10 1 9 4 8 7 7 10 5 11 6 12 4 14 3 17 2 18 83 19 80 20 82 21
REMARK SMILES IDX 81 22 1 26 84 29 85 30 86 31 87 32 92 33 88 34 91 36 89 38
REMARK SMILES IDX 90 41 11 42 12 45 13 48 14 51 15 52 16 54 17 55 18 56 79 57
REMARK SMILES IDX 19 58 78 60 20 62 21 65 22 66 72 67 23 68 77 69 71 70 73 71
REMARK SMILES IDX 24 72 76 73 70 75 69 77 25 79 57 82 37 83 56 84 38 85 41 86
REMARK SMILES IDX 55 87 74 88 39 89 40 91 54 93 75 94 42 97 26 99 27 100
REMARK SMILES IDX 35 101 28 102 29 103 33 104 36 105 30 106 31 107 34 108
REMARK SMILES IDX 32 109 58 110 59 111 67 112 60 113 61 114 65 115 68 116
REMARK SMILES IDX 62 117 63 118 66 119 64 120 43 121 44 122 52 123 45 124
REMARK SMILES IDX 46 125 50 126 53 127 47 128 48 129 51 130 49 131
REMARK H PARENT 10 2 10 3 9 5 9 6 8 8 8 9 7 13 4 15 4 16 80 23 82 24 81 25
REMARK H PARENT 1 27 1 28 87 35 92 37 88 39 91 40 11 43 11 44 12 46 12 47
REMARK H PARENT 13 49 13 50 14 53 18 59 79 61 19 63 78 64 77 74 71 76 73 78
REMARK H PARENT 76 80 70 81 38 90 41 92 74 95 39 96 75 98
REMARK Flexibility Score: inf
ROOT
ATOM      1  C   UNL A   1      32.879  30.280  26.151  1.00  0.00    -0.052 C 
ATOM      2  H   UNL A   1      33.496  30.886  25.521  1.00  0.00     0.027 H 
ATOM      3  H   UNL A   1      33.170  30.309  27.181  1.00  0.00     0.027 H 
ENDROOT
BRANCH   1   4
ATOM      4  C   UNL A   1      33.026  28.820  25.702  1.00  0.00    -0.036 C 
ATOM      5  H   UNL A   1      33.750  28.343  26.330  1.00  0.00     0.028 H 
ATOM      6  H   UNL A   1      32.062  28.363  25.782  1.00  0.00     0.028 H 
BRANCH   4   7
ATOM      7  C   UNL A   1      33.477  28.681  24.248  1.00  0.00     0.017 C 
ATOM      8  H   UNL A   1      34.370  29.250  24.102  1.00  0.00     0.049 H 
ATOM      9  H   UNL A   1      33.654  27.645  24.046  1.00  0.00     0.049 H 
BRANCH   7  10
ATOM     10  N   UNL A   1      32.457  29.158  23.338  1.00  0.00    -0.356 N 
ATOM     11  C   UNL A   1      31.311  28.539  22.929  1.00  0.00     0.224 C 
ATOM     12  O   UNL A   1      30.644  29.079  22.044  1.00  0.00    -0.275 OA
ATOM     13  H   UNL A   1      32.612  30.054  22.961  1.00  0.00     0.163 HD
BRANCH  11  14
ATOM     14  C   UNL A   1      30.832  27.267  23.609  1.00  0.00     0.054 C 
ATOM     15  H   UNL A   1      30.857  27.427  24.667  1.00  0.00     0.042 H 
ATOM     16  H   UNL A   1      29.849  27.080  23.230  1.00  0.00     0.042 H 
BRANCH  14  17
ATOM     17  C   UNL A   1      31.647  26.022  23.303  1.00  0.00    -0.015 A 
ATOM     18  C   UNL A   1      31.999  25.066  24.298  1.00  0.00     0.046 A 
ATOM     19  C   UNL A   1      32.833  23.976  23.935  1.00  0.00     0.046 A 
ATOM     20  C   UNL A   1      32.092  25.855  21.979  1.00  0.00    -0.056 A 
ATOM     21  C   UNL A   1      33.267  23.856  22.600  1.00  0.00    -0.049 A 
ATOM     22  C   UNL A   1      32.897  24.781  21.629  1.00  0.00    -0.061 A 
ATOM     23  H   UNL A   1      31.816  26.540  21.258  1.00  0.00     0.063 H 
ATOM     24  H   UNL A   1      33.873  23.063  22.337  1.00  0.00     0.063 H 
ATOM     25  H   UNL A   1      33.220  24.669  20.656  1.00  0.00     0.062 H 
BRANCH  18  26
ATOM     26  N   UNL A   1      31.546  25.271  25.597  1.00  0.00    -0.398 N 
ATOM     27  H   UNL A   1      31.697  24.583  26.285  1.00  0.00     0.156 HD
ATOM     28  H   UNL A   1      31.074  26.104  25.828  1.00  0.00     0.156 HD
ENDBRANCH  18  26
BRANCH  19  29
ATOM     29  C   UNL A   1      33.368  22.921  24.863  1.00  0.00     0.195 C 
ATOM     30  O   UNL A   1      32.592  22.182  25.471  1.00  0.00    -0.289 OA
BRANCH  29  31
ATOM     31  C   UNL A   1      34.803  22.642  25.043  1.00  0.00     0.023 A 
ATOM     32  C   UNL A   1      35.626  23.699  25.457  1.00  0.00    -0.050 A 
ATOM     33  C   UNL A   1      35.336  21.363  24.855  1.00  0.00    -0.050 A 
ATOM     34  C   UNL A   1      36.966  23.459  25.759  1.00  0.00    -0.047 A 
ATOM     35  H   UNL A   1      35.240  24.653  25.539  1.00  0.00     0.063 H 
ATOM     36  C   UNL A   1      36.677  21.124  25.170  1.00  0.00    -0.047 A 
ATOM     37  H   UNL A   1      34.745  20.602  24.485  1.00  0.00     0.063 H 
ATOM     38  C   UNL A   1      37.480  22.169  25.633  1.00  0.00     0.018 A 
ATOM     39  H   UNL A   1      37.574  24.232  26.073  1.00  0.00     0.063 H 
ATOM     40  H   UNL A   1      37.073  20.177  25.062  1.00  0.00     0.063 H 
ATOM     41  Br  UNL A   1      39.276  21.829  26.117  1.00  0.00    -0.051 Br
ENDBRANCH  29  31
ENDBRANCH  19  29
ENDBRANCH  14  17
ENDBRANCH  11  14
ENDBRANCH   7  10
ENDBRANCH   4   7
ENDBRANCH   1   4
BRANCH   1  42
ATOM     42  C   UNL A   1      31.448  30.829  26.090  1.00  0.00    -0.052 C 
ATOM     43  H   UNL A   1      30.826  30.201  26.693  1.00  0.00     0.027 H 
ATOM     44  H   UNL A   1      31.172  30.833  25.057  1.00  0.00     0.027 H 
BRANCH  42  45
ATOM     45  C   UNL A   1      31.290  32.271  26.582  1.00  0.00    -0.036 C 
ATOM     46  H   UNL A   1      30.459  32.305  27.255  1.00  0.00     0.028 H 
ATOM     47  H   UNL A   1      31.146  32.876  25.712  1.00  0.00     0.028 H 
BRANCH  45  48
ATOM     48  C   UNL A   1      32.513  32.825  27.305  1.00  0.00     0.018 C 
ATOM     49  H   UNL A   1      33.366  32.729  26.666  1.00  0.00     0.049 H 
ATOM     50  H   UNL A   1      32.644  32.269  28.209  1.00  0.00     0.049 H 
BRANCH  48  51
ATOM     51  N   UNL A   1      32.343  34.227  27.658  1.00  0.00    -0.352 N 
ATOM     52  C   UNL A   1      32.952  34.956  28.644  1.00  0.00     0.251 C 
ATOM     53  H   UNL A   1      31.696  34.724  27.106  1.00  0.00     0.163 HD
ATOM     54  O   UNL A   1      32.528  36.076  28.937  1.00  0.00    -0.269 OA
BRANCH  52  55
ATOM     55  C   UNL A   1      34.109  34.398  29.371  1.00  0.00     0.039 A 
ATOM     56  C   UNL A   1      33.906  33.818  30.625  1.00  0.00    -0.049 A 
ATOM     57  C   UNL A   1      35.394  34.464  28.825  1.00  0.00    -0.049 A 
ATOM     58  C   UNL A   1      34.984  33.253  31.309  1.00  0.00    -0.053 A 
ATOM     59  H   UNL A   1      32.963  33.806  31.044  1.00  0.00     0.063 H 
ATOM     60  C   UNL A   1      36.455  33.838  29.474  1.00  0.00    -0.053 A 
ATOM     61  H   UNL A   1      35.557  34.976  27.944  1.00  0.00     0.063 H 
ATOM     62  C   UNL A   1      36.261  33.232  30.725  1.00  0.00    -0.014 A 
ATOM     63  H   UNL A   1      34.842  32.850  32.247  1.00  0.00     0.063 H 
ATOM     64  H   UNL A   1      37.388  33.819  29.033  1.00  0.00     0.063 H 
BRANCH  62  65
ATOM     65  C   UNL A   1      37.409  32.587  31.410  1.00  0.00     0.031 A 
ATOM     66  C   UNL A   1      38.123  31.434  30.762  1.00  0.00     0.074 A 
ATOM     67  C   UNL A   1      37.767  32.999  32.641  1.00  0.00     0.049 A 
ATOM     68  N   UNL A   1      39.098  30.695  31.229  1.00  0.00    -0.248 NA
ATOM     69  C   UNL A   1      37.663  31.042  29.420  1.00  0.00    -0.034 C 
ATOM     70  C   UNL A   1      37.124  34.079  33.390  1.00  0.00    -0.036 A 
ATOM     71  N   UNL A   1      38.752  32.550  33.484  1.00  0.00    -0.354 N 
ATOM     72  C   UNL A   1      39.356  29.746  30.247  1.00  0.00     0.074 A 
ATOM     73  C   UNL A   1      38.401  29.967  29.184  1.00  0.00    -0.034 C 
ATOM     74  H   UNL A   1      36.951  31.488  28.821  1.00  0.00     0.065 H 
ATOM     75  C   UNL A   1      37.745  34.224  34.572  1.00  0.00    -0.036 A 
ATOM     76  H   UNL A   1      36.322  34.639  33.063  1.00  0.00     0.065 H 
ATOM     77  C   UNL A   1      38.801  33.223  34.680  1.00  0.00     0.049 A 
ATOM     78  H   UNL A   1      39.367  31.816  33.252  1.00  0.00     0.167 HD
ATOM     79  C   UNL A   1      40.318  28.794  30.226  1.00  0.00     0.037 A 
ATOM     80  H   UNL A   1      38.306  29.366  28.350  1.00  0.00     0.065 H 
ATOM     81  H   UNL A   1      37.511  34.929  35.288  1.00  0.00     0.065 H 
ATOM     82  C   UNL A   1      39.603  33.044  35.747  1.00  0.00     0.037 A 
ATOM     83  C   UNL A   1      41.280  28.592  31.278  1.00  0.00     0.049 A 
ATOM     84  C   UNL A   1      40.654  31.968  35.703  1.00  0.00     0.074 A 
ATOM     85  C   UNL A   1      42.330  27.692  31.326  1.00  0.00    -0.036 A 
ATOM     86  N   UNL A   1      41.306  29.301  32.470  1.00  0.00    -0.354 N 
ATOM     87  N   UNL A   1      40.934  31.122  34.743  1.00  0.00    -0.248 NA
ATOM     88  C   UNL A   1      41.507  31.828  36.893  1.00  0.00    -0.034 C 
ATOM     89  C   UNL A   1      42.961  27.821  32.568  1.00  0.00    -0.036 A 
ATOM     90  H   UNL A   1      42.601  27.037  30.576  1.00  0.00     0.065 H 
ATOM     91  C   UNL A   1      42.340  28.841  33.272  1.00  0.00     0.049 A 
ATOM     92  H   UNL A   1      40.682  30.023  32.711  1.00  0.00     0.167 HD
ATOM     93  C   UNL A   1      42.009  30.371  35.196  1.00  0.00     0.074 A 
ATOM     94  C   UNL A   1      42.342  30.872  36.514  1.00  0.00    -0.034 C 
ATOM     95  H   UNL A   1      41.465  32.340  37.788  1.00  0.00     0.065 H 
ATOM     96  H   UNL A   1      43.755  27.254  32.904  1.00  0.00     0.065 H 
ATOM     97  C   UNL A   1      42.662  29.356  34.578  1.00  0.00     0.037 A 
ATOM     98  H   UNL A   1      43.130  30.529  37.085  1.00  0.00     0.065 H 
BRANCH  79  99
ATOM     99  C   UNL A   1      40.379  27.896  29.024  1.00  0.00     0.064 A 
ATOM    100  C   UNL A   1      41.155  28.222  27.900  1.00  0.00     0.173 A 
ATOM    101  C   UNL A   1      39.681  26.679  29.006  1.00  0.00     0.173 A 
ATOM    102  F   UNL A   1      41.834  29.378  27.861  1.00  0.00    -0.203 F 
ATOM    103  C   UNL A   1      41.204  27.379  26.793  1.00  0.00     0.198 A 
ATOM    104  C   UNL A   1      39.758  25.822  27.910  1.00  0.00     0.198 A 
ATOM    105  F   UNL A   1      38.929  26.314  30.056  1.00  0.00    -0.203 F 
ATOM    106  F   UNL A   1      41.910  27.736  25.712  1.00  0.00    -0.200 F 
ATOM    107  C   UNL A   1      40.512  26.177  26.801  1.00  0.00     0.200 A 
ATOM    108  F   UNL A   1      39.100  24.655  27.926  1.00  0.00    -0.200 F 
ATOM    109  F   UNL A   1      40.566  25.364  25.738  1.00  0.00    -0.200 F 
ENDBRANCH  79  99
BRANCH  82 110
ATOM    110  C   UNL A   1      39.457  33.920  36.940  1.00  0.00     0.064 A 
ATOM    111  C   UNL A   1      38.704  33.505  38.048  1.00  0.00     0.173 A 
ATOM    112  C   UNL A   1      40.060  35.184  36.997  1.00  0.00     0.173 A 
ATOM    113  F   UNL A   1      38.093  32.311  38.033  1.00  0.00    -0.203 F 
ATOM    114  C   UNL A   1      38.541  34.331  39.157  1.00  0.00     0.198 A 
ATOM    115  C   UNL A   1      39.919  35.998  38.120  1.00  0.00     0.198 A 
ATOM    116  F   UNL A   1      40.796  35.626  35.967  1.00  0.00    -0.203 F 
ATOM    117  F   UNL A   1      37.776  33.929  40.182  1.00  0.00    -0.200 F 
ATOM    118  C   UNL A   1      39.153  35.575  39.195  1.00  0.00     0.200 A 
ATOM    119  F   UNL A   1      40.527  37.192  38.159  1.00  0.00    -0.200 F 
ATOM    120  F   UNL A   1      38.999  36.368  40.264  1.00  0.00    -0.200 F 
ENDBRANCH  82 110
BRANCH  97 121
ATOM    121  C   UNL A   1      43.827  28.745  35.302  1.00  0.00     0.064 A 
ATOM    122  C   UNL A   1      45.135  29.219  35.124  1.00  0.00     0.173 A 
ATOM    123  C   UNL A   1      43.625  27.699  36.215  1.00  0.00     0.173 A 
ATOM    124  F   UNL A   1      45.384  30.207  34.251  1.00  0.00    -0.203 F 
ATOM    125  C   UNL A   1      46.203  28.650  35.814  1.00  0.00     0.198 A 
ATOM    126  C   UNL A   1      44.690  27.154  36.927  1.00  0.00     0.198 A 
ATOM    127  F   UNL A   1      42.393  27.214  36.426  1.00  0.00    -0.203 F 
ATOM    128  F   UNL A   1      47.450  29.085  35.592  1.00  0.00    -0.200 F 
ATOM    129  C   UNL A   1      45.978  27.624  36.721  1.00  0.00     0.200 A 
ATOM    130  F   UNL A   1      44.468  26.172  37.813  1.00  0.00    -0.200 F 
ATOM    131  F   UNL A   1      47.005  27.082  37.390  1.00  0.00    -0.200 F 
ENDBRANCH  97 121
ENDBRANCH  62  65
ENDBRANCH  52  55
ENDBRANCH  48  51
ENDBRANCH  45  48
ENDBRANCH  42  45
ENDBRANCH   1  42
TORSDOF 17
ENDMDL
MODEL 9
REMARK VINA RESULT:     -12.1      2.903      8.579
REMARK SMILES Nc1c(CC(=O)NCCCCCCNC(=O)c2ccc(-c3c4nc(c(-c5c(F)c(F)c(F)c(F)c5F)c5ccc([nH]5)c(-c5c(F)c(F)c(F)c(F)c5F)c5nc(c(-c6c(F)c(F)c(F)c(F)c6F)c6ccc3[nH]6)C=C5)C=C4)cc2)cccc1C(=O)c1ccc(Br)cc1
REMARK SMILES IDX 10 1 9 4 8 7 7 10 5 11 6 12 4 14 3 17 2 18 83 19 80 20 82 21
REMARK SMILES IDX 81 22 1 26 84 29 85 30 86 31 87 32 92 33 88 34 91 36 89 38
REMARK SMILES IDX 90 41 11 42 12 45 13 48 14 51 15 52 16 54 17 55 18 56 79 57
REMARK SMILES IDX 19 58 78 60 20 62 21 65 22 66 72 67 23 68 77 69 71 70 73 71
REMARK SMILES IDX 24 72 76 73 70 75 69 77 25 79 57 82 37 83 56 84 38 85 41 86
REMARK SMILES IDX 55 87 74 88 39 89 40 91 54 93 75 94 42 97 26 99 27 100
REMARK SMILES IDX 35 101 28 102 29 103 33 104 36 105 30 106 31 107 34 108
REMARK SMILES IDX 32 109 58 110 59 111 67 112 60 113 61 114 65 115 68 116
REMARK SMILES IDX 62 117 63 118 66 119 64 120 43 121 44 122 52 123 45 124
REMARK SMILES IDX 46 125 50 126 53 127 47 128 48 129 51 130 49 131
REMARK H PARENT 10 2 10 3 9 5 9 6 8 8 8 9 7 13 4 15 4 16 80 23 82 24 81 25
REMARK H PARENT 1 27 1 28 87 35 92 37 88 39 91 40 11 43 11 44 12 46 12 47
REMARK H PARENT 13 49 13 50 14 53 18 59 79 61 19 63 78 64 77 74 71 76 73 78
REMARK H PARENT 76 80 70 81 38 90 41 92 74 95 39 96 75 98
REMARK Flexibility Score: inf
ROOT
ATOM      1  C   UNL A   1      34.310  25.631  24.947  1.00  0.00    -0.052 C 
ATOM      2  H   UNL A   1      33.479  25.278  24.373  1.00  0.00     0.027 H 
ATOM      3  H   UNL A   1      34.952  26.289  24.399  1.00  0.00     0.027 H 
ENDROOT
BRANCH   1   4
ATOM      4  C   UNL A   1      35.167  24.421  25.341  1.00  0.00    -0.036 C 
ATOM      5  H   UNL A   1      36.198  24.680  25.218  1.00  0.00     0.028 H 
ATOM      6  H   UNL A   1      34.932  24.182  26.357  1.00  0.00     0.028 H 
BRANCH   4   7
ATOM      7  C   UNL A   1      34.874  23.177  24.502  1.00  0.00     0.017 C 
ATOM      8  H   UNL A   1      34.053  23.382  23.848  1.00  0.00     0.049 H 
ATOM      9  H   UNL A   1      35.751  22.934  23.938  1.00  0.00     0.049 H 
BRANCH   7  10
ATOM     10  N   UNL A   1      34.540  22.047  25.342  1.00  0.00    -0.356 N 
ATOM     11  C   UNL A   1      33.355  21.380  25.455  1.00  0.00     0.224 C 
ATOM     12  O   UNL A   1      33.254  20.520  26.332  1.00  0.00    -0.275 OA
ATOM     13  H   UNL A   1      35.269  21.713  25.912  1.00  0.00     0.163 HD
BRANCH  11  14
ATOM     14  C   UNL A   1      32.225  21.633  24.469  1.00  0.00     0.054 C 
ATOM     15  H   UNL A   1      32.628  21.570  23.480  1.00  0.00     0.042 H 
ATOM     16  H   UNL A   1      31.481  20.892  24.674  1.00  0.00     0.042 H 
BRANCH  14  17
ATOM     17  C   UNL A   1      31.532  22.978  24.610  1.00  0.00    -0.015 A 
ATOM     18  C   UNL A   1      31.470  23.928  23.551  1.00  0.00     0.046 A 
ATOM     19  C   UNL A   1      30.873  25.192  23.800  1.00  0.00     0.046 A 
ATOM     20  C   UNL A   1      30.973  23.284  25.864  1.00  0.00    -0.056 A 
ATOM     21  C   UNL A   1      30.338  25.462  25.075  1.00  0.00    -0.049 A 
ATOM     22  C   UNL A   1      30.381  24.517  26.096  1.00  0.00    -0.061 A 
ATOM     23  H   UNL A   1      31.004  22.584  26.621  1.00  0.00     0.063 H 
ATOM     24  H   UNL A   1      29.905  26.380  25.256  1.00  0.00     0.063 H 
ATOM     25  H   UNL A   1      29.976  24.734  27.020  1.00  0.00     0.062 H 
BRANCH  18  26
ATOM     26  N   UNL A   1      32.041  23.590  22.329  1.00  0.00    -0.398 N 
ATOM     27  H   UNL A   1      31.473  23.267  21.592  1.00  0.00     0.156 HD
ATOM     28  H   UNL A   1      33.014  23.674  22.200  1.00  0.00     0.156 HD
ENDBRANCH  18  26
BRANCH  19  29
ATOM     29  C   UNL A   1      30.789  26.339  22.832  1.00  0.00     0.195 C 
ATOM     30  O   UNL A   1      31.343  26.264  21.734  1.00  0.00    -0.289 OA
BRANCH  29  31
ATOM     31  C   UNL A   1      29.997  27.558  23.076  1.00  0.00     0.023 A 
ATOM     32  C   UNL A   1      30.690  28.766  23.228  1.00  0.00    -0.050 A 
ATOM     33  C   UNL A   1      28.599  27.534  23.113  1.00  0.00    -0.050 A 
ATOM     34  C   UNL A   1      29.983  29.964  23.339  1.00  0.00    -0.047 A 
ATOM     35  H   UNL A   1      31.722  28.770  23.258  1.00  0.00     0.063 H 
ATOM     36  C   UNL A   1      27.894  28.737  23.211  1.00  0.00    -0.047 A 
ATOM     37  H   UNL A   1      28.092  26.637  23.068  1.00  0.00     0.063 H 
ATOM     38  C   UNL A   1      28.589  29.945  23.310  1.00  0.00     0.018 A 
ATOM     39  H   UNL A   1      30.489  30.858  23.442  1.00  0.00     0.063 H 
ATOM     40  H   UNL A   1      26.862  28.733  23.210  1.00  0.00     0.063 H 
ATOM     41  Br  UNL A   1      27.633  31.575  23.381  1.00  0.00    -0.051 Br
ENDBRANCH  29  31
ENDBRANCH  19  29
ENDBRANCH  14  17
ENDBRANCH  11  14
ENDBRANCH   7  10
ENDBRANCH   4   7
ENDBRANCH   1   4
BRANCH   1  42
ATOM     42  C   UNL A   1      33.764  26.444  26.127  1.00  0.00    -0.052 C 
ATOM     43  H   UNL A   1      34.595  26.777  26.713  1.00  0.00     0.027 H 
ATOM     44  H   UNL A   1      33.104  25.792  26.660  1.00  0.00     0.027 H 
BRANCH  42  45
ATOM     45  C   UNL A   1      32.934  27.670  25.737  1.00  0.00    -0.036 C 
ATOM     46  H   UNL A   1      32.333  27.948  26.577  1.00  0.00     0.028 H 
ATOM     47  H   UNL A   1      32.352  27.387  24.885  1.00  0.00     0.028 H 
BRANCH  45  48
ATOM     48  C   UNL A   1      33.761  28.880  25.320  1.00  0.00     0.018 C 
ATOM     49  H   UNL A   1      33.894  28.861  24.259  1.00  0.00     0.049 H 
ATOM     50  H   UNL A   1      34.702  28.830  25.827  1.00  0.00     0.049 H 
BRANCH  48  51
ATOM     51  N   UNL A   1      33.116  30.131  25.691  1.00  0.00    -0.352 N 
ATOM     52  C   UNL A   1      33.350  30.947  26.765  1.00  0.00     0.251 C 
ATOM     53  H   UNL A   1      32.406  30.435  25.080  1.00  0.00     0.163 HD
ATOM     54  O   UNL A   1      32.561  31.854  27.038  1.00  0.00    -0.269 OA
BRANCH  52  55
ATOM     55  C   UNL A   1      34.540  30.734  27.612  1.00  0.00     0.039 A 
ATOM     56  C   UNL A   1      34.629  29.567  28.375  1.00  0.00    -0.049 A 
ATOM     57  C   UNL A   1      35.558  31.691  27.666  1.00  0.00    -0.049 A 
ATOM     58  C   UNL A   1      35.765  29.334  29.153  1.00  0.00    -0.053 A 
ATOM     59  H   UNL A   1      33.859  28.882  28.365  1.00  0.00     0.063 H 
ATOM     60  C   UNL A   1      36.721  31.424  28.384  1.00  0.00    -0.053 A 
ATOM     61  H   UNL A   1      35.448  32.592  27.176  1.00  0.00     0.063 H 
ATOM     62  C   UNL A   1      36.832  30.246  29.139  1.00  0.00    -0.014 A 
ATOM     63  H   UNL A   1      35.820  28.488  29.739  1.00  0.00     0.063 H 
ATOM     64  H   UNL A   1      37.504  32.096  28.360  1.00  0.00     0.063 H 
BRANCH  62  65
ATOM     65  C   UNL A   1      38.073  29.990  29.913  1.00  0.00     0.031 A 
ATOM     66  C   UNL A   1      39.134  29.081  29.359  1.00  0.00     0.074 A 
ATOM     67  C   UNL A   1      38.214  30.527  31.140  1.00  0.00     0.049 A 
ATOM     68  N   UNL A   1      40.251  28.678  29.912  1.00  0.00    -0.248 NA
ATOM     69  C   UNL A   1      38.896  28.530  28.015  1.00  0.00    -0.034 C 
ATOM     70  C   UNL A   1      37.236  31.390  31.802  1.00  0.00    -0.036 A 
ATOM     71  N   UNL A   1      39.231  30.415  32.054  1.00  0.00    -0.354 N 
ATOM     72  C   UNL A   1      40.838  27.819  28.992  1.00  0.00     0.074 A 
ATOM     73  C   UNL A   1      39.931  27.715  27.870  1.00  0.00    -0.034 C 
ATOM     74  H   UNL A   1      38.125  28.728  27.359  1.00  0.00     0.065 H 
ATOM     75  C   UNL A   1      37.709  31.748  33.007  1.00  0.00    -0.036 A 
ATOM     76  H   UNL A   1      36.327  31.678  31.407  1.00  0.00     0.065 H 
ATOM     77  C   UNL A   1      39.004  31.107  33.218  1.00  0.00     0.049 A 
ATOM     78  H   UNL A   1      40.048  29.888  31.891  1.00  0.00     0.167 HD
ATOM     79  C   UNL A   1      42.037  27.193  29.067  1.00  0.00     0.037 A 
ATOM     80  H   UNL A   1      40.071  27.089  27.062  1.00  0.00     0.065 H 
ATOM     81  H   UNL A   1      37.234  32.374  33.675  1.00  0.00     0.065 H 
ATOM     82  C   UNL A   1      39.752  31.206  34.333  1.00  0.00     0.037 A 
ATOM     83  C   UNL A   1      42.946  27.316  30.176  1.00  0.00     0.049 A 
ATOM     84  C   UNL A   1      41.073  30.488  34.396  1.00  0.00     0.074 A 
ATOM     85  C   UNL A   1      44.208  26.769  30.323  1.00  0.00    -0.036 A 
ATOM     86  N   UNL A   1      42.686  28.037  31.333  1.00  0.00    -0.354 N 
ATOM     87  N   UNL A   1      41.650  29.734  33.493  1.00  0.00    -0.248 NA
ATOM     88  C   UNL A   1      41.851  30.642  35.634  1.00  0.00    -0.034 C 
ATOM     89  C   UNL A   1      44.692  27.117  31.589  1.00  0.00    -0.036 A 
ATOM     90  H   UNL A   1      44.707  26.201  29.620  1.00  0.00     0.065 H 
ATOM     91  C   UNL A   1      43.755  27.927  32.209  1.00  0.00     0.049 A 
ATOM     92  H   UNL A   1      41.863  28.549  31.506  1.00  0.00     0.167 HD
ATOM     93  C   UNL A   1      42.866  29.348  34.038  1.00  0.00     0.074 A 
ATOM     94  C   UNL A   1      42.952  29.964  35.346  1.00  0.00    -0.034 C 
ATOM     95  H   UNL A   1      41.603  31.146  36.501  1.00  0.00     0.065 H 
ATOM     96  H   UNL A   1      45.594  26.820  31.993  1.00  0.00     0.065 H 
ATOM     97  C   UNL A   1      43.827  28.554  33.504  1.00  0.00     0.037 A 
ATOM     98  H   UNL A   1      43.768  29.887  35.973  1.00  0.00     0.065 H 
BRANCH  79  99
ATOM     99  C   UNL A   1      42.435  26.318  27.913  1.00  0.00     0.064 A 
ATOM    100  C   UNL A   1      41.965  25.001  27.791  1.00  0.00     0.173 A 
ATOM    101  C   UNL A   1      43.270  26.811  26.898  1.00  0.00     0.173 A 
ATOM    102  F   UNL A   1      41.173  24.476  28.738  1.00  0.00    -0.203 F 
ATOM    103  C   UNL A   1      42.341  24.201  26.715  1.00  0.00     0.198 A 
ATOM    104  C   UNL A   1      43.618  26.020  25.806  1.00  0.00     0.198 A 
ATOM    105  F   UNL A   1      43.742  28.066  26.960  1.00  0.00    -0.203 F 
ATOM    106  F   UNL A   1      41.922  22.931  26.648  1.00  0.00    -0.200 F 
ATOM    107  C   UNL A   1      43.161  24.713  25.720  1.00  0.00     0.200 A 
ATOM    108  F   UNL A   1      44.397  26.520  24.839  1.00  0.00    -0.200 F 
ATOM    109  F   UNL A   1      43.515  23.945  24.682  1.00  0.00    -0.200 F 
ENDBRANCH  79  99
BRANCH  82 110
ATOM    110  C   UNL A   1      39.279  32.035  35.474  1.00  0.00     0.064 A 
ATOM    111  C   UNL A   1      39.597  33.398  35.552  1.00  0.00     0.173 A 
ATOM    112  C   UNL A   1      38.509  31.484  36.508  1.00  0.00     0.173 A 
ATOM    113  F   UNL A   1      40.348  33.966  34.596  1.00  0.00    -0.203 F 
ATOM    114  C   UNL A   1      39.182  34.174  36.632  1.00  0.00     0.198 A 
ATOM    115  C   UNL A   1      38.070  32.268  37.574  1.00  0.00     0.198 A 
ATOM    116  F   UNL A   1      38.172  30.187  36.478  1.00  0.00    -0.203 F 
ATOM    117  F   UNL A   1      39.541  35.463  36.704  1.00  0.00    -0.200 F 
ATOM    118  C   UNL A   1      38.414  33.610  37.639  1.00  0.00     0.200 A 
ATOM    119  F   UNL A   1      37.313  31.722  38.536  1.00  0.00    -0.200 F 
ATOM    120  F   UNL A   1      38.011  34.357  38.675  1.00  0.00    -0.200 F 
ENDBRANCH  82 110
BRANCH  97 121
ATOM    121  C   UNL A   1      45.071  28.337  34.317  1.00  0.00     0.064 A 
ATOM    122  C   UNL A   1      46.167  29.209  34.234  1.00  0.00     0.173 A 
ATOM    123  C   UNL A   1      45.150  27.266  35.219  1.00  0.00     0.173 A 
ATOM    124  F   UNL A   1      46.147  30.239  33.375  1.00  0.00    -0.203 F 
ATOM    125  C   UNL A   1      47.307  29.000  35.005  1.00  0.00     0.198 A 
ATOM    126  C   UNL A   1      46.279  27.078  36.013  1.00  0.00     0.198 A 
ATOM    127  F   UNL A   1      44.127  26.407  35.342  1.00  0.00    -0.203 F 
ATOM    128  F   UNL A   1      48.361  29.816  34.873  1.00  0.00    -0.200 F 
ATOM    129  C   UNL A   1      47.359  27.941  35.900  1.00  0.00     0.200 A 
ATOM    130  F   UNL A   1      46.321  26.063  36.886  1.00  0.00    -0.200 F 
ATOM    131  F   UNL A   1      48.454  27.746  36.647  1.00  0.00    -0.200 F 
ENDBRANCH  97 121
ENDBRANCH  62  65
ENDBRANCH  52  55
ENDBRANCH  48  51
ENDBRANCH  45  48
ENDBRANCH  42  45
ENDBRANCH   1  42
TORSDOF 17
ENDMDL
MODEL 10
REMARK VINA RESULT:     -12.1      6.011     11.669
REMARK SMILES Nc1c(CC(=O)NCCCCCCNC(=O)c2ccc(-c3c4nc(c(-c5c(F)c(F)c(F)c(F)c5F)c5ccc([nH]5)c(-c5c(F)c(F)c(F)c(F)c5F)c5nc(c(-c6c(F)c(F)c(F)c(F)c6F)c6ccc3[nH]6)C=C5)C=C4)cc2)cccc1C(=O)c1ccc(Br)cc1
REMARK SMILES IDX 10 1 9 4 8 7 7 10 5 11 6 12 4 14 3 17 2 18 83 19 80 20 82 21
REMARK SMILES IDX 81 22 1 26 84 29 85 30 86 31 87 32 92 33 88 34 91 36 89 38
REMARK SMILES IDX 90 41 11 42 12 45 13 48 14 51 15 52 16 54 17 55 18 56 79 57
REMARK SMILES IDX 19 58 78 60 20 62 21 65 22 66 72 67 23 68 77 69 71 70 73 71
REMARK SMILES IDX 24 72 76 73 70 75 69 77 25 79 57 82 37 83 56 84 38 85 41 86
REMARK SMILES IDX 55 87 74 88 39 89 40 91 54 93 75 94 42 97 26 99 27 100
REMARK SMILES IDX 35 101 28 102 29 103 33 104 36 105 30 106 31 107 34 108
REMARK SMILES IDX 32 109 58 110 59 111 67 112 60 113 61 114 65 115 68 116
REMARK SMILES IDX 62 117 63 118 66 119 64 120 43 121 44 122 52 123 45 124
REMARK SMILES IDX 46 125 50 126 53 127 47 128 48 129 51 130 49 131
REMARK H PARENT 10 2 10 3 9 5 9 6 8 8 8 9 7 13 4 15 4 16 80 23 82 24 81 25
REMARK H PARENT 1 27 1 28 87 35 92 37 88 39 91 40 11 43 11 44 12 46 12 47
REMARK H PARENT 13 49 13 50 14 53 18 59 79 61 19 63 78 64 77 74 71 76 73 78
REMARK H PARENT 76 80 70 81 38 90 41 92 74 95 39 96 75 98
REMARK Flexibility Score: inf
ROOT
ATOM      1  C   UNL A   1      39.423  21.630  26.115  1.00  0.00    -0.052 C 
ATOM      2  H   UNL A   1      39.233  21.504  25.069  1.00  0.00     0.027 H 
ATOM      3  H   UNL A   1      38.769  21.053  26.734  1.00  0.00     0.027 H 
ENDROOT
BRANCH   1   4
ATOM      4  C   UNL A   1      39.170  23.101  26.472  1.00  0.00    -0.036 C 
ATOM      5  H   UNL A   1      39.336  23.228  27.522  1.00  0.00     0.028 H 
ATOM      6  H   UNL A   1      39.842  23.691  25.885  1.00  0.00     0.028 H 
BRANCH   4   7
ATOM      7  C   UNL A   1      37.751  23.565  26.144  1.00  0.00     0.017 C 
ATOM      8  H   UNL A   1      37.051  22.902  26.605  1.00  0.00     0.049 H 
ATOM      9  H   UNL A   1      37.626  24.561  26.514  1.00  0.00     0.049 H 
BRANCH   7  10
ATOM     10  N   UNL A   1      37.523  23.574  24.714  1.00  0.00    -0.356 N 
ATOM     11  C   UNL A   1      36.586  22.897  23.989  1.00  0.00     0.224 C 
ATOM     12  O   UNL A   1      36.652  22.953  22.759  1.00  0.00    -0.275 OA
ATOM     13  H   UNL A   1      38.127  24.149  24.193  1.00  0.00     0.163 HD
BRANCH  11  14
ATOM     14  C   UNL A   1      35.447  22.167  24.682  1.00  0.00     0.054 C 
ATOM     15  H   UNL A   1      35.494  21.136  24.399  1.00  0.00     0.042 H 
ATOM     16  H   UNL A   1      35.586  22.328  25.731  1.00  0.00     0.042 H 
BRANCH  14  17
ATOM     17  C   UNL A   1      34.055  22.681  24.356  1.00  0.00    -0.015 A 
ATOM     18  C   UNL A   1      33.429  23.729  25.089  1.00  0.00     0.046 A 
ATOM     19  C   UNL A   1      32.094  24.088  24.765  1.00  0.00     0.046 A 
ATOM     20  C   UNL A   1      33.365  22.048  23.306  1.00  0.00    -0.056 A 
ATOM     21  C   UNL A   1      31.436  23.417  23.715  1.00  0.00    -0.049 A 
ATOM     22  C   UNL A   1      32.065  22.412  22.988  1.00  0.00    -0.061 A 
ATOM     23  H   UNL A   1      33.832  21.303  22.765  1.00  0.00     0.063 H 
ATOM     24  H   UNL A   1      30.466  23.678  23.480  1.00  0.00     0.063 H 
ATOM     25  H   UNL A   1      31.567  21.939  22.218  1.00  0.00     0.062 H 
BRANCH  18  26
ATOM     26  N   UNL A   1      34.141  24.325  26.124  1.00  0.00    -0.398 N 
ATOM     27  H   UNL A   1      35.084  24.086  26.274  1.00  0.00     0.156 HD
ATOM     28  H   UNL A   1      33.701  24.985  26.708  1.00  0.00     0.156 HD
ENDBRANCH  18  26
BRANCH  19  29
ATOM     29  C   UNL A   1      31.252  25.109  25.478  1.00  0.00     0.195 C 
ATOM     30  O   UNL A   1      31.041  25.002  26.687  1.00  0.00    -0.289 OA
BRANCH  29  31
ATOM     31  C   UNL A   1      30.708  26.316  24.830  1.00  0.00     0.023 A 
ATOM     32  C   UNL A   1      31.515  27.462  24.803  1.00  0.00    -0.050 A 
ATOM     33  C   UNL A   1      29.451  26.322  24.218  1.00  0.00    -0.050 A 
ATOM     34  C   UNL A   1      31.097  28.590  24.097  1.00  0.00    -0.047 A 
ATOM     35  H   UNL A   1      32.417  27.470  25.305  1.00  0.00     0.063 H 
ATOM     36  C   UNL A   1      29.041  27.450  23.501  1.00  0.00    -0.047 A 
ATOM     37  H   UNL A   1      28.830  25.502  24.296  1.00  0.00     0.063 H 
ATOM     38  C   UNL A   1      29.872  28.571  23.433  1.00  0.00     0.018 A 
ATOM     39  H   UNL A   1      31.692  29.433  24.067  1.00  0.00     0.063 H 
ATOM     40  H   UNL A   1      28.127  27.454  23.022  1.00  0.00     0.063 H 
ATOM     41  Br  UNL A   1      29.341  30.071  22.412  1.00  0.00    -0.051 Br
ENDBRANCH  29  31
ENDBRANCH  19  29
ENDBRANCH  14  17
ENDBRANCH  11  14
ENDBRANCH   7  10
ENDBRANCH   4   7
ENDBRANCH   1   4
BRANCH   1  42
ATOM     42  C   UNL A   1      40.844  21.134  26.405  1.00  0.00    -0.052 C 
ATOM     43  H   UNL A   1      41.055  21.315  27.439  1.00  0.00     0.027 H 
ATOM     44  H   UNL A   1      41.491  21.668  25.741  1.00  0.00     0.027 H 
BRANCH  42  45
ATOM     45  C   UNL A   1      41.077  19.646  26.126  1.00  0.00    -0.036 C 
ATOM     46  H   UNL A   1      41.013  19.490  25.070  1.00  0.00     0.028 H 
ATOM     47  H   UNL A   1      40.329  19.112  26.672  1.00  0.00     0.028 H 
BRANCH  45  48
ATOM     48  C   UNL A   1      42.427  19.122  26.605  1.00  0.00     0.018 C 
ATOM     49  H   UNL A   1      42.265  18.274  27.236  1.00  0.00     0.049 H 
ATOM     50  H   UNL A   1      42.919  19.910  27.136  1.00  0.00     0.049 H 
BRANCH  48  51
ATOM     51  N   UNL A   1      43.279  18.726  25.493  1.00  0.00    -0.352 N 
ATOM     52  C   UNL A   1      44.071  19.497  24.685  1.00  0.00     0.251 C 
ATOM     53  H   UNL A   1      43.287  17.762  25.292  1.00  0.00     0.163 HD
ATOM     54  O   UNL A   1      44.556  19.022  23.657  1.00  0.00    -0.269 OA
BRANCH  52  55
ATOM     55  C   UNL A   1      44.336  20.907  25.035  1.00  0.00     0.039 A 
ATOM     56  C   UNL A   1      43.778  21.917  24.246  1.00  0.00    -0.049 A 
ATOM     57  C   UNL A   1      45.146  21.232  26.126  1.00  0.00    -0.049 A 
ATOM     58  C   UNL A   1      43.989  23.254  24.585  1.00  0.00    -0.053 A 
ATOM     59  H   UNL A   1      43.213  21.674  23.418  1.00  0.00     0.063 H 
ATOM     60  C   UNL A   1      45.296  22.564  26.504  1.00  0.00    -0.053 A 
ATOM     61  H   UNL A   1      45.633  20.488  26.650  1.00  0.00     0.063 H 
ATOM     62  C   UNL A   1      44.723  23.587  25.734  1.00  0.00    -0.014 A 
ATOM     63  H   UNL A   1      43.602  24.002  23.988  1.00  0.00     0.063 H 
ATOM     64  H   UNL A   1      45.830  22.798  27.356  1.00  0.00     0.063 H 
BRANCH  62  65
ATOM     65  C   UNL A   1      44.912  25.001  26.144  1.00  0.00     0.031 A 
ATOM     66  C   UNL A   1      46.264  25.646  26.031  1.00  0.00     0.074 A 
ATOM     67  C   UNL A   1      43.879  25.684  26.675  1.00  0.00     0.049 A 
ATOM     68  N   UNL A   1      46.645  26.843  26.401  1.00  0.00    -0.248 NA
ATOM     69  C   UNL A   1      47.340  24.828  25.448  1.00  0.00    -0.034 C 
ATOM     70  C   UNL A   1      42.530  25.153  26.874  1.00  0.00    -0.036 A 
ATOM     71  N   UNL A   1      43.806  26.967  27.155  1.00  0.00    -0.354 N 
ATOM     72  C   UNL A   1      48.002  26.914  26.110  1.00  0.00     0.074 A 
ATOM     73  C   UNL A   1      48.389  25.624  25.584  1.00  0.00    -0.034 C 
ATOM     74  H   UNL A   1      47.288  23.881  25.040  1.00  0.00     0.065 H 
ATOM     75  C   UNL A   1      41.757  26.109  27.415  1.00  0.00    -0.036 A 
ATOM     76  H   UNL A   1      42.221  24.197  26.638  1.00  0.00     0.065 H 
ATOM     77  C   UNL A   1      42.565  27.304  27.637  1.00  0.00     0.049 A 
ATOM     78  H   UNL A   1      44.571  27.587  27.153  1.00  0.00     0.167 HD
ATOM     79  C   UNL A   1      48.841  27.968  26.247  1.00  0.00     0.037 A 
ATOM     80  H   UNL A   1      49.358  25.358  25.345  1.00  0.00     0.065 H 
ATOM     81  H   UNL A   1      40.754  26.013  27.638  1.00  0.00     0.065 H 
ATOM     82  C   UNL A   1      42.132  28.447  28.203  1.00  0.00     0.037 A 
ATOM     83  C   UNL A   1      48.445  29.257  26.752  1.00  0.00     0.049 A 
ATOM     84  C   UNL A   1      43.089  29.598  28.358  1.00  0.00     0.074 A 
ATOM     85  C   UNL A   1      49.205  30.407  26.876  1.00  0.00    -0.036 A 
ATOM     86  N   UNL A   1      47.175  29.565  27.220  1.00  0.00    -0.354 N 
ATOM     87  N   UNL A   1      44.351  29.677  28.016  1.00  0.00    -0.248 NA
ATOM     88  C   UNL A   1      42.556  30.823  28.971  1.00  0.00    -0.034 C 
ATOM     89  C   UNL A   1      48.410  31.396  27.466  1.00  0.00    -0.036 A 
ATOM     90  H   UNL A   1      50.190  30.516  26.585  1.00  0.00     0.065 H 
ATOM     91  C   UNL A   1      47.139  30.880  27.657  1.00  0.00     0.049 A 
ATOM     92  H   UNL A   1      46.414  28.942  27.239  1.00  0.00     0.167 HD
ATOM     93  C   UNL A   1      44.756  30.963  28.344  1.00  0.00     0.074 A 
ATOM     94  C   UNL A   1      43.600  31.636  28.899  1.00  0.00    -0.034 C 
ATOM     95  H   UNL A   1      41.616  31.002  29.358  1.00  0.00     0.065 H 
ATOM     96  H   UNL A   1      48.719  32.348  27.716  1.00  0.00     0.065 H 
ATOM     97  C   UNL A   1      45.977  31.537  28.200  1.00  0.00     0.037 A 
ATOM     98  H   UNL A   1      43.589  32.623  29.199  1.00  0.00     0.065 H 
BRANCH  79  99
ATOM     99  C   UNL A   1      50.273  27.772  25.843  1.00  0.00     0.064 A 
ATOM    100  C   UNL A   1      51.276  27.503  26.789  1.00  0.00     0.173 A 
ATOM    101  C   UNL A   1      50.646  27.818  24.490  1.00  0.00     0.173 A 
ATOM    102  F   UNL A   1      50.976  27.457  28.096  1.00  0.00    -0.203 F 
ATOM    103  C   UNL A   1      52.600  27.320  26.399  1.00  0.00     0.198 A 
ATOM    104  C   UNL A   1      51.966  27.602  24.101  1.00  0.00     0.198 A 
ATOM    105  F   UNL A   1      49.728  28.063  23.543  1.00  0.00    -0.203 F 
ATOM    106  F   UNL A   1      53.547  27.117  27.325  1.00  0.00    -0.200 F 
ATOM    107  C   UNL A   1      52.943  27.363  25.056  1.00  0.00     0.200 A 
ATOM    108  F   UNL A   1      52.293  27.629  22.802  1.00  0.00    -0.200 F 
ATOM    109  F   UNL A   1      54.216  27.180  24.682  1.00  0.00    -0.200 F 
ENDBRANCH  79  99
BRANCH  82 110
ATOM    110  C   UNL A   1      40.718  28.567  28.646  1.00  0.00     0.064 A 
ATOM    111  C   UNL A   1      39.721  29.001  27.761  1.00  0.00     0.173 A 
ATOM    112  C   UNL A   1      40.334  28.257  29.959  1.00  0.00     0.173 A 
ATOM    113  F   UNL A   1      40.043  29.328  26.500  1.00  0.00    -0.203 F 
ATOM    114  C   UNL A   1      38.400  29.143  28.177  1.00  0.00     0.198 A 
ATOM    115  C   UNL A   1      39.005  28.371  30.366  1.00  0.00     0.198 A 
ATOM    116  F   UNL A   1      41.246  27.830  30.844  1.00  0.00    -0.203 F 
ATOM    117  F   UNL A   1      37.477  29.606  27.323  1.00  0.00    -0.200 F 
ATOM    118  C   UNL A   1      38.041  28.822  29.477  1.00  0.00     0.200 A 
ATOM    119  F   UNL A   1      38.661  28.043  31.619  1.00  0.00    -0.200 F 
ATOM    120  F   UNL A   1      36.770  28.955  29.876  1.00  0.00    -0.200 F 
ENDBRANCH  82 110
BRANCH  97 121
ATOM    121  C   UNL A   1      46.115  32.974  28.612  1.00  0.00     0.064 A 
ATOM    122  C   UNL A   1      45.860  34.025  27.719  1.00  0.00     0.173 A 
ATOM    123  C   UNL A   1      46.467  33.302  29.930  1.00  0.00     0.173 A 
ATOM    124  F   UNL A   1      45.534  33.764  26.444  1.00  0.00    -0.203 F 
ATOM    125  C   UNL A   1      45.980  35.352  28.123  1.00  0.00     0.198 A 
ATOM    126  C   UNL A   1      46.555  34.630  30.339  1.00  0.00     0.198 A 
ATOM    127  F   UNL A   1      46.715  32.335  30.826  1.00  0.00    -0.203 F 
ATOM    128  F   UNL A   1      45.780  36.340  27.240  1.00  0.00    -0.200 F 
ATOM    129  C   UNL A   1      46.319  35.654  29.434  1.00  0.00     0.200 A 
ATOM    130  F   UNL A   1      46.869  34.919  31.610  1.00  0.00    -0.200 F 
ATOM    131  F   UNL A   1      46.426  36.932  29.823  1.00  0.00    -0.200 F 
ENDBRANCH  97 121
ENDBRANCH  62  65
ENDBRANCH  52  55
ENDBRANCH  48  51
ENDBRANCH  45  48
ENDBRANCH  42  45
ENDBRANCH   1  42
TORSDOF 17
ENDMDL
