MODEL 1
REMARK VINA RESULT:     -12.9      0.000      0.000
REMARK SMILES NS(=O)(=O)c1ccc(N2N=C(C(=O)NCCCCCCNC(=O)c3ccc(-c4c5nc(c(-c6c(F)c(F)c(F)c(F)c6F)c6ccc([nH]6)c(-c6c(F)c(F)c(F)c(F)c6F)c6nc(c(-c7c(F)c(F)c(F)c(F)c7F)c7ccc4[nH]7)C=C6)C=C5)cc3)C[C@H]2c2ccco2)cc1
REMARK SMILES IDX 17 1 16 4 15 7 14 10 12 11 13 12 11 14 9 15 10 16 88 17
REMARK SMILES IDX 87 18 8 22 5 23 6 24 95 25 7 26 94 28 2 32 3 33 4 34 1 35
REMARK SMILES IDX 89 38 90 39 93 40 91 41 92 43 18 46 19 49 20 52 21 55 22 56
REMARK SMILES IDX 23 58 24 59 25 60 86 61 26 62 85 64 27 66 28 69 29 70 79 71
REMARK SMILES IDX 30 72 84 73 78 74 80 75 31 76 83 77 77 79 76 81 32 83 64 86
REMARK SMILES IDX 44 87 63 88 45 89 48 90 62 91 81 92 46 93 47 95 61 97 82 98
REMARK SMILES IDX 49 101 33 103 34 104 42 105 35 106 36 107 40 108 43 109
REMARK SMILES IDX 37 110 38 111 41 112 39 113 65 114 66 115 74 116 67 117
REMARK SMILES IDX 68 118 72 119 75 120 69 121 70 122 73 123 71 124 50 125
REMARK SMILES IDX 51 126 59 127 52 128 53 129 57 130 60 131 54 132 55 133
REMARK SMILES IDX 58 134 56 135
REMARK H PARENT 17 2 17 3 16 5 16 6 15 8 15 9 14 13 88 19 87 20 87 21 6 27
REMARK H PARENT 95 29 7 30 94 31 1 36 1 37 90 42 91 44 92 45 18 47 18 48 19 50
REMARK H PARENT 19 51 20 53 20 54 21 57 25 63 86 65 26 67 85 68 84 78 78 80
REMARK H PARENT 80 82 83 84 77 85 45 94 48 96 81 99 46 100 82 102
REMARK Flexibility Score: inf
ROOT
ATOM      1  C   UNL A   1      37.405  22.012  24.592  1.00  0.00    -0.052 C 
ATOM      2  H   UNL A   1      37.298  22.547  25.513  1.00  0.00     0.027 H 
ATOM      3  H   UNL A   1      38.419  21.946  24.256  1.00  0.00     0.027 H 
ENDROOT
BRANCH   1   4
ATOM      4  C   UNL A   1      36.641  22.773  23.507  1.00  0.00    -0.036 C 
ATOM      5  H   UNL A   1      37.279  23.541  23.122  1.00  0.00     0.028 H 
ATOM      6  H   UNL A   1      36.362  22.058  22.762  1.00  0.00     0.028 H 
BRANCH   4   7
ATOM      7  C   UNL A   1      35.353  23.422  24.001  1.00  0.00     0.018 C 
ATOM      8  H   UNL A   1      35.357  23.439  25.072  1.00  0.00     0.049 H 
ATOM      9  H   UNL A   1      35.301  24.416  23.610  1.00  0.00     0.049 H 
BRANCH   7  10
ATOM     10  N   UNL A   1      34.191  22.687  23.546  1.00  0.00    -0.351 N 
ATOM     11  C   UNL A   1      32.838  22.896  23.620  1.00  0.00     0.267 C 
ATOM     12  O   UNL A   1      32.103  22.002  23.209  1.00  0.00    -0.268 OA
ATOM     13  H   UNL A   1      34.425  21.852  23.080  1.00  0.00     0.163 HD
BRANCH  11  14
ATOM     14  C   UNL A   1      32.207  24.183  24.131  1.00  0.00     0.128 C 
ATOM     15  N   UNL A   1      31.360  26.133  24.050  1.00  0.00    -0.254 N 
ATOM     16  N   UNL A   1      31.645  25.025  23.317  1.00  0.00    -0.171 NA
ATOM     17  C   UNL A   1      31.574  25.974  25.489  1.00  0.00     0.116 C 
ATOM     18  C   UNL A   1      32.213  24.590  25.566  1.00  0.00     0.027 C 
ATOM     19  H   UNL A   1      30.649  26.089  26.015  1.00  0.00     0.064 H 
ATOM     20  H   UNL A   1      33.209  24.639  25.954  1.00  0.00     0.036 H 
ATOM     21  H   UNL A   1      31.705  23.908  26.216  1.00  0.00     0.036 H 
BRANCH  15  22
ATOM     22  C   UNL A   1      30.598  27.160  23.514  1.00  0.00     0.060 A 
ATOM     23  C   UNL A   1      29.118  29.322  22.517  1.00  0.00     0.082 A 
ATOM     24  C   UNL A   1      28.460  28.264  23.151  1.00  0.00    -0.040 A 
ATOM     25  C   UNL A   1      30.499  29.288  22.329  1.00  0.00    -0.040 A 
ATOM     26  C   UNL A   1      29.204  27.185  23.640  1.00  0.00    -0.035 A 
ATOM     27  H   UNL A   1      27.433  28.279  23.256  1.00  0.00     0.064 H 
ATOM     28  C   UNL A   1      31.224  28.207  22.824  1.00  0.00    -0.035 A 
ATOM     29  H   UNL A   1      30.977  30.054  21.830  1.00  0.00     0.064 H 
ATOM     30  H   UNL A   1      28.719  26.399  24.101  1.00  0.00     0.065 H 
ATOM     31  H   UNL A   1      32.245  28.175  22.677  1.00  0.00     0.065 H 
BRANCH  23  32
ATOM     32  S   UNL A   1      28.193  30.695  21.905  1.00  0.00     0.238 S 
ATOM     33  O   UNL A   1      27.205  31.084  22.882  1.00  0.00    -0.207 OA
ATOM     34  O   UNL A   1      27.869  30.476  20.514  1.00  0.00    -0.207 OA
BRANCH  32  35
ATOM     35  N   UNL A   1      29.354  31.912  21.909  1.00  0.00    -0.225 NA
ATOM     36  H   UNL A   1      30.118  31.654  21.285  1.00  0.00     0.137 HD
ATOM     37  H   UNL A   1      29.714  32.035  22.855  1.00  0.00     0.137 HD
ENDBRANCH  32  35
ENDBRANCH  23  32
ENDBRANCH  15  22
BRANCH  17  38
ATOM     38  C   UNL A   1      32.378  27.025  26.199  1.00  0.00     0.128 A 
ATOM     39  C   UNL A   1      32.080  27.888  27.237  1.00  0.00    -0.018 A 
ATOM     40  O   UNL A   1      33.669  27.232  25.797  1.00  0.00    -0.467 OA
ATOM     41  C   UNL A   1      33.233  28.680  27.451  1.00  0.00    -0.023 A 
ATOM     42  H   UNL A   1      31.190  27.944  27.756  1.00  0.00     0.066 H 
ATOM     43  C   UNL A   1      34.177  28.229  26.562  1.00  0.00     0.091 A 
ATOM     44  H   UNL A   1      33.342  29.444  28.137  1.00  0.00     0.066 H 
ATOM     45  H   UNL A   1      35.139  28.597  26.487  1.00  0.00     0.104 H 
ENDBRANCH  17  38
ENDBRANCH  11  14
ENDBRANCH   7  10
ENDBRANCH   4   7
ENDBRANCH   1   4
BRANCH   1  46
ATOM     46  C   UNL A   1      36.933  20.571  24.821  1.00  0.00    -0.052 C 
ATOM     47  H   UNL A   1      36.357  20.271  23.971  1.00  0.00     0.027 H 
ATOM     48  H   UNL A   1      36.371  20.583  25.732  1.00  0.00     0.027 H 
BRANCH  46  49
ATOM     49  C   UNL A   1      38.052  19.546  25.023  1.00  0.00    -0.036 C 
ATOM     50  H   UNL A   1      38.372  19.206  24.060  1.00  0.00     0.028 H 
ATOM     51  H   UNL A   1      37.642  18.763  25.627  1.00  0.00     0.028 H 
BRANCH  49  52
ATOM     52  C   UNL A   1      39.267  20.081  25.770  1.00  0.00     0.018 C 
ATOM     53  H   UNL A   1      38.958  20.420  26.737  1.00  0.00     0.049 H 
ATOM     54  H   UNL A   1      39.682  20.883  25.195  1.00  0.00     0.049 H 
BRANCH  52  55
ATOM     55  N   UNL A   1      40.293  19.065  25.933  1.00  0.00    -0.352 N 
ATOM     56  C   UNL A   1      41.643  19.216  26.122  1.00  0.00     0.251 C 
ATOM     57  H   UNL A   1      39.973  18.134  25.906  1.00  0.00     0.163 HD
ATOM     58  O   UNL A   1      42.393  18.250  26.024  1.00  0.00    -0.269 OA
BRANCH  56  59
ATOM     59  C   UNL A   1      42.196  20.551  26.427  1.00  0.00     0.039 A 
ATOM     60  C   UNL A   1      42.628  21.359  25.374  1.00  0.00    -0.049 A 
ATOM     61  C   UNL A   1      42.298  21.000  27.747  1.00  0.00    -0.049 A 
ATOM     62  C   UNL A   1      43.113  22.640  25.642  1.00  0.00    -0.053 A 
ATOM     63  H   UNL A   1      42.589  21.012  24.403  1.00  0.00     0.063 H 
ATOM     64  C   UNL A   1      42.703  22.305  28.005  1.00  0.00    -0.053 A 
ATOM     65  H   UNL A   1      42.073  20.364  28.529  1.00  0.00     0.063 H 
ATOM     66  C   UNL A   1      43.124  23.135  26.956  1.00  0.00    -0.014 A 
ATOM     67  H   UNL A   1      43.467  23.226  24.869  1.00  0.00     0.063 H 
ATOM     68  H   UNL A   1      42.696  22.663  28.973  1.00  0.00     0.063 H 
BRANCH  66  69
ATOM     69  C   UNL A   1      43.575  24.520  27.251  1.00  0.00     0.031 A 
ATOM     70  C   UNL A   1      42.600  25.539  27.769  1.00  0.00     0.074 A 
ATOM     71  C   UNL A   1      44.851  24.871  27.000  1.00  0.00     0.049 A 
ATOM     72  N   UNL A   1      42.788  26.808  28.032  1.00  0.00    -0.248 NA
ATOM     73  C   UNL A   1      41.220  25.079  27.998  1.00  0.00    -0.034 C 
ATOM     74  C   UNL A   1      45.880  23.983  26.455  1.00  0.00    -0.036 A 
ATOM     75  N   UNL A   1      45.499  26.070  27.161  1.00  0.00    -0.354 N 
ATOM     76  C   UNL A   1      41.556  27.296  28.445  1.00  0.00     0.074 A 
ATOM     77  C   UNL A   1      40.612  26.205  28.339  1.00  0.00    -0.034 C 
ATOM     78  H   UNL A   1      40.830  24.128  27.914  1.00  0.00     0.065 H 
ATOM     79  C   UNL A   1      47.036  24.659  26.354  1.00  0.00    -0.036 A 
ATOM     80  H   UNL A   1      45.740  22.995  26.193  1.00  0.00     0.065 H 
ATOM     81  C   UNL A   1      46.819  26.038  26.781  1.00  0.00     0.049 A 
ATOM     82  H   UNL A   1      45.060  26.877  27.515  1.00  0.00     0.167 HD
ATOM     83  C   UNL A   1      41.245  28.535  28.895  1.00  0.00     0.037 A 
ATOM     84  H   UNL A   1      39.598  26.291  28.508  1.00  0.00     0.065 H 
ATOM     85  H   UNL A   1      47.932  24.267  26.027  1.00  0.00     0.065 H 
ATOM     86  C   UNL A   1      47.747  27.014  26.767  1.00  0.00     0.037 A 
ATOM     87  C   UNL A   1      42.193  29.613  29.012  1.00  0.00     0.049 A 
ATOM     88  C   UNL A   1      47.368  28.390  27.248  1.00  0.00     0.074 A 
ATOM     89  C   UNL A   1      41.991  30.889  29.506  1.00  0.00    -0.036 A 
ATOM     90  N   UNL A   1      43.522  29.541  28.621  1.00  0.00    -0.354 N 
ATOM     91  N   UNL A   1      46.217  28.822  27.703  1.00  0.00    -0.248 NA
ATOM     92  C   UNL A   1      48.422  29.413  27.220  1.00  0.00    -0.034 C 
ATOM     93  C   UNL A   1      43.180  31.609  29.356  1.00  0.00    -0.036 A 
ATOM     94  H   UNL A   1      41.114  31.248  29.916  1.00  0.00     0.065 H 
ATOM     95  C   UNL A   1      44.144  30.762  28.834  1.00  0.00     0.049 A 
ATOM     96  H   UNL A   1      43.960  28.743  28.247  1.00  0.00     0.167 HD
ATOM     97  C   UNL A   1      46.416  30.152  28.046  1.00  0.00     0.074 A 
ATOM     98  C   UNL A   1      47.804  30.452  27.761  1.00  0.00    -0.034 C 
ATOM     99  H   UNL A   1      49.390  29.342  26.871  1.00  0.00     0.065 H 
ATOM    100  H   UNL A   1      43.317  32.604  29.593  1.00  0.00     0.065 H 
ATOM    101  C   UNL A   1      45.529  31.045  28.553  1.00  0.00     0.037 A 
ATOM    102  H   UNL A   1      48.253  31.361  27.955  1.00  0.00     0.065 H 
BRANCH  83 103
ATOM    103  C   UNL A   1      39.819  28.795  29.293  1.00  0.00     0.064 A 
ATOM    104  C   UNL A   1      38.871  29.276  28.376  1.00  0.00     0.173 A 
ATOM    105  C   UNL A   1      39.385  28.523  30.599  1.00  0.00     0.173 A 
ATOM    106  F   UNL A   1      39.233  29.562  27.116  1.00  0.00    -0.203 F 
ATOM    107  C   UNL A   1      37.552  29.506  28.761  1.00  0.00     0.198 A 
ATOM    108  C   UNL A   1      38.057  28.719  30.971  1.00  0.00     0.198 A 
ATOM    109  F   UNL A   1      40.246  28.055  31.516  1.00  0.00    -0.203 F 
ATOM    110  F   UNL A   1      36.680  30.018  27.882  1.00  0.00    -0.200 F 
ATOM    111  C   UNL A   1      37.145  29.219  30.054  1.00  0.00     0.200 A 
ATOM    112  F   UNL A   1      37.661  28.426  32.218  1.00  0.00    -0.200 F 
ATOM    113  F   UNL A   1      35.873  29.433  30.421  1.00  0.00    -0.200 F 
ENDBRANCH  83 103
BRANCH  86 114
ATOM    114  C   UNL A   1      49.128  26.724  26.296  1.00  0.00     0.064 A 
ATOM    115  C   UNL A   1      49.496  26.942  24.961  1.00  0.00     0.173 A 
ATOM    116  C   UNL A   1      50.102  26.213  27.166  1.00  0.00     0.173 A 
ATOM    117  F   UNL A   1      48.595  27.411  24.085  1.00  0.00    -0.203 F 
ATOM    118  C   UNL A   1      50.777  26.634  24.508  1.00  0.00     0.198 A 
ATOM    119  C   UNL A   1      51.393  25.938  26.720  1.00  0.00     0.198 A 
ATOM    120  F   UNL A   1      49.805  25.992  28.455  1.00  0.00    -0.203 F 
ATOM    121  F   UNL A   1      51.086  26.799  23.215  1.00  0.00    -0.200 F 
ATOM    122  C   UNL A   1      51.726  26.138  25.389  1.00  0.00     0.200 A 
ATOM    123  F   UNL A   1      52.312  25.476  27.579  1.00  0.00    -0.200 F 
ATOM    124  F   UNL A   1      52.959  25.844  24.954  1.00  0.00    -0.200 F 
ENDBRANCH  86 114
BRANCH 101 125
ATOM    125  C   UNL A   1      46.041  32.421  28.874  1.00  0.00     0.064 A 
ATOM    126  C   UNL A   1      46.606  32.730  30.121  1.00  0.00     0.173 A 
ATOM    127  C   UNL A   1      46.002  33.434  27.903  1.00  0.00     0.173 A 
ATOM    128  F   UNL A   1      46.655  31.801  31.088  1.00  0.00    -0.203 F 
ATOM    129  C   UNL A   1      47.083  34.009  30.393  1.00  0.00     0.198 A 
ATOM    130  C   UNL A   1      46.514  34.701  28.168  1.00  0.00     0.198 A 
ATOM    131  F   UNL A   1      45.481  33.192  26.692  1.00  0.00    -0.203 F 
ATOM    132  F   UNL A   1      47.567  34.296  31.610  1.00  0.00    -0.200 F 
ATOM    133  C   UNL A   1      47.045  34.991  29.414  1.00  0.00     0.200 A 
ATOM    134  F   UNL A   1      46.494  35.643  27.213  1.00  0.00    -0.200 F 
ATOM    135  F   UNL A   1      47.515  36.218  29.676  1.00  0.00    -0.200 F 
ENDBRANCH 101 125
ENDBRANCH  66  69
ENDBRANCH  56  59
ENDBRANCH  52  55
ENDBRANCH  49  52
ENDBRANCH  46  49
ENDBRANCH   1  46
TORSDOF 17
ENDMDL
MODEL 2
REMARK VINA RESULT:     -12.5      3.062      8.201
REMARK SMILES NS(=O)(=O)c1ccc(N2N=C(C(=O)NCCCCCCNC(=O)c3ccc(-c4c5nc(c(-c6c(F)c(F)c(F)c(F)c6F)c6ccc([nH]6)c(-c6c(F)c(F)c(F)c(F)c6F)c6nc(c(-c7c(F)c(F)c(F)c(F)c7F)c7ccc4[nH]7)C=C6)C=C5)cc3)C[C@H]2c2ccco2)cc1
REMARK SMILES IDX 17 1 16 4 15 7 14 10 12 11 13 12 11 14 9 15 10 16 88 17
REMARK SMILES IDX 87 18 8 22 5 23 6 24 95 25 7 26 94 28 2 32 3 33 4 34 1 35
REMARK SMILES IDX 89 38 90 39 93 40 91 41 92 43 18 46 19 49 20 52 21 55 22 56
REMARK SMILES IDX 23 58 24 59 25 60 86 61 26 62 85 64 27 66 28 69 29 70 79 71
REMARK SMILES IDX 30 72 84 73 78 74 80 75 31 76 83 77 77 79 76 81 32 83 64 86
REMARK SMILES IDX 44 87 63 88 45 89 48 90 62 91 81 92 46 93 47 95 61 97 82 98
REMARK SMILES IDX 49 101 33 103 34 104 42 105 35 106 36 107 40 108 43 109
REMARK SMILES IDX 37 110 38 111 41 112 39 113 65 114 66 115 74 116 67 117
REMARK SMILES IDX 68 118 72 119 75 120 69 121 70 122 73 123 71 124 50 125
REMARK SMILES IDX 51 126 59 127 52 128 53 129 57 130 60 131 54 132 55 133
REMARK SMILES IDX 58 134 56 135
REMARK H PARENT 17 2 17 3 16 5 16 6 15 8 15 9 14 13 88 19 87 20 87 21 6 27
REMARK H PARENT 95 29 7 30 94 31 1 36 1 37 90 42 91 44 92 45 18 47 18 48 19 50
REMARK H PARENT 19 51 20 53 20 54 21 57 25 63 86 65 26 67 85 68 84 78 78 80
REMARK H PARENT 80 82 83 84 77 85 45 94 48 96 81 99 46 100 82 102
REMARK Flexibility Score: inf
ROOT
ATOM      1  C   UNL A   1      33.868  21.129  25.813  1.00  0.00    -0.052 C 
ATOM      2  H   UNL A   1      33.867  20.517  26.692  1.00  0.00     0.027 H 
ATOM      3  H   UNL A   1      33.409  22.084  25.964  1.00  0.00     0.027 H 
ENDROOT
BRANCH   1   4
ATOM      4  C   UNL A   1      33.045  20.420  24.738  1.00  0.00    -0.036 C 
ATOM      5  H   UNL A   1      33.719  19.957  24.047  1.00  0.00     0.028 H 
ATOM      6  H   UNL A   1      32.421  19.710  25.241  1.00  0.00     0.028 H 
BRANCH   4   7
ATOM      7  C   UNL A   1      32.120  21.347  23.958  1.00  0.00     0.018 C 
ATOM      8  H   UNL A   1      31.332  20.769  23.520  1.00  0.00     0.049 H 
ATOM      9  H   UNL A   1      31.720  22.075  24.632  1.00  0.00     0.049 H 
BRANCH   7  10
ATOM     10  N   UNL A   1      32.839  22.037  22.908  1.00  0.00    -0.351 N 
ATOM     11  C   UNL A   1      32.879  23.337  22.471  1.00  0.00     0.267 C 
ATOM     12  O   UNL A   1      33.537  23.576  21.463  1.00  0.00    -0.268 OA
ATOM     13  H   UNL A   1      33.430  21.442  22.393  1.00  0.00     0.163 HD
BRANCH  11  14
ATOM     14  C   UNL A   1      32.199  24.492  23.191  1.00  0.00     0.128 C 
ATOM     15  N   UNL A   1      31.295  26.402  23.443  1.00  0.00    -0.254 N 
ATOM     16  N   UNL A   1      31.629  25.454  22.529  1.00  0.00    -0.171 NA
ATOM     17  C   UNL A   1      31.483  25.989  24.834  1.00  0.00     0.116 C 
ATOM     18  C   UNL A   1      32.163  24.631  24.675  1.00  0.00     0.027 C 
ATOM     19  H   UNL A   1      30.545  25.982  25.348  1.00  0.00     0.064 H 
ATOM     20  H   UNL A   1      33.148  24.634  25.092  1.00  0.00     0.036 H 
ATOM     21  H   UNL A   1      31.661  23.829  25.177  1.00  0.00     0.036 H 
BRANCH  15  22
ATOM     22  C   UNL A   1      30.514  27.489  23.083  1.00  0.00     0.060 A 
ATOM     23  C   UNL A   1      29.010  29.765  22.438  1.00  0.00     0.082 A 
ATOM     24  C   UNL A   1      28.397  28.690  23.088  1.00  0.00    -0.040 A 
ATOM     25  C   UNL A   1      30.350  29.696  22.060  1.00  0.00    -0.040 A 
ATOM     26  C   UNL A   1      29.152  27.554  23.401  1.00  0.00    -0.035 A 
ATOM     27  H   UNL A   1      27.396  28.733  23.333  1.00  0.00     0.064 H 
ATOM     28  C   UNL A   1      31.087  28.558  22.381  1.00  0.00    -0.035 A 
ATOM     29  H   UNL A   1      30.790  30.477  21.549  1.00  0.00     0.064 H 
ATOM     30  H   UNL A   1      28.700  26.756  23.873  1.00  0.00     0.065 H 
ATOM     31  H   UNL A   1      32.077  28.501  22.093  1.00  0.00     0.065 H 
BRANCH  23  32
ATOM     32  S   UNL A   1      28.073  31.208  22.046  1.00  0.00     0.238 S 
ATOM     33  O   UNL A   1      27.148  31.487  23.119  1.00  0.00    -0.207 OA
ATOM     34  O   UNL A   1      27.666  31.157  20.661  1.00  0.00    -0.207 OA
BRANCH  32  35
ATOM     35  N   UNL A   1      29.250  32.406  22.124  1.00  0.00    -0.225 NA
ATOM     36  H   UNL A   1      29.148  33.035  21.327  1.00  0.00     0.137 HD
ATOM     37  H   UNL A   1      30.174  31.977  22.102  1.00  0.00     0.137 HD
ENDBRANCH  32  35
ENDBRANCH  23  32
ENDBRANCH  15  22
BRANCH  17  38
ATOM     38  C   UNL A   1      32.241  26.913  25.744  1.00  0.00     0.128 A 
ATOM     39  C   UNL A   1      33.576  27.264  25.819  1.00  0.00    -0.018 A 
ATOM     40  O   UNL A   1      31.545  27.575  26.718  1.00  0.00    -0.467 OA
ATOM     41  C   UNL A   1      33.702  28.153  26.913  1.00  0.00    -0.023 A 
ATOM     42  H   UNL A   1      34.334  26.941  25.198  1.00  0.00     0.066 H 
ATOM     43  C   UNL A   1      32.435  28.323  27.415  1.00  0.00     0.091 A 
ATOM     44  H   UNL A   1      34.571  28.584  27.264  1.00  0.00     0.066 H 
ATOM     45  H   UNL A   1      32.194  28.936  28.210  1.00  0.00     0.104 H 
ENDBRANCH  17  38
ENDBRANCH  11  14
ENDBRANCH   7  10
ENDBRANCH   4   7
ENDBRANCH   1   4
BRANCH   1  46
ATOM     46  C   UNL A   1      35.326  21.408  25.429  1.00  0.00    -0.052 C 
ATOM     47  H   UNL A   1      35.578  20.778  24.602  1.00  0.00     0.027 H 
ATOM     48  H   UNL A   1      35.908  21.211  26.306  1.00  0.00     0.027 H 
BRANCH  46  49
ATOM     49  C   UNL A   1      35.628  22.856  25.033  1.00  0.00    -0.036 C 
ATOM     50  H   UNL A   1      34.743  23.437  25.189  1.00  0.00     0.028 H 
ATOM     51  H   UNL A   1      35.937  22.833  24.009  1.00  0.00     0.028 H 
BRANCH  49  52
ATOM     52  C   UNL A   1      36.765  23.499  25.817  1.00  0.00     0.018 C 
ATOM     53  H   UNL A   1      36.401  23.784  26.783  1.00  0.00     0.049 H 
ATOM     54  H   UNL A   1      37.106  24.351  25.267  1.00  0.00     0.049 H 
BRANCH  52  55
ATOM     55  N   UNL A   1      37.887  22.592  25.986  1.00  0.00    -0.352 N 
ATOM     56  C   UNL A   1      39.173  22.864  26.376  1.00  0.00     0.251 C 
ATOM     57  H   UNL A   1      37.697  21.645  25.793  1.00  0.00     0.163 HD
ATOM     58  O   UNL A   1      40.049  22.014  26.256  1.00  0.00    -0.269 OA
BRANCH  56  59
ATOM     59  C   UNL A   1      39.506  24.194  26.927  1.00  0.00     0.039 A 
ATOM     60  C   UNL A   1      39.215  24.463  28.266  1.00  0.00    -0.049 A 
ATOM     61  C   UNL A   1      40.094  25.175  26.123  1.00  0.00    -0.049 A 
ATOM     62  C   UNL A   1      39.562  25.698  28.812  1.00  0.00    -0.053 A 
ATOM     63  H   UNL A   1      38.745  23.751  28.847  1.00  0.00     0.063 H 
ATOM     64  C   UNL A   1      40.514  26.374  26.690  1.00  0.00    -0.053 A 
ATOM     65  H   UNL A   1      40.217  25.011  25.112  1.00  0.00     0.063 H 
ATOM     66  C   UNL A   1      40.244  26.652  28.038  1.00  0.00    -0.014 A 
ATOM     67  H   UNL A   1      39.316  25.913  29.791  1.00  0.00     0.063 H 
ATOM     68  H   UNL A   1      41.026  27.062  26.116  1.00  0.00     0.063 H 
BRANCH  66  69
ATOM     69  C   UNL A   1      40.680  27.946  28.623  1.00  0.00     0.031 A 
ATOM     70  C   UNL A   1      42.118  28.157  29.006  1.00  0.00     0.074 A 
ATOM     71  C   UNL A   1      39.769  28.910  28.858  1.00  0.00     0.049 A 
ATOM     72  N   UNL A   1      42.680  29.191  29.579  1.00  0.00    -0.248 NA
ATOM     73  C   UNL A   1      43.046  27.046  28.734  1.00  0.00    -0.034 C 
ATOM     74  C   UNL A   1      38.337  28.807  28.570  1.00  0.00    -0.036 A 
ATOM     75  N   UNL A   1      39.910  30.162  29.400  1.00  0.00    -0.354 N 
ATOM     76  C   UNL A   1      44.017  28.853  29.743  1.00  0.00     0.074 A 
ATOM     77  C   UNL A   1      44.171  27.496  29.268  1.00  0.00    -0.034 C 
ATOM     78  H   UNL A   1      42.865  26.152  28.252  1.00  0.00     0.065 H 
ATOM     79  C   UNL A   1      37.737  29.958  28.912  1.00  0.00    -0.036 A 
ATOM     80  H   UNL A   1      37.866  27.983  28.167  1.00  0.00     0.065 H 
ATOM     81  C   UNL A   1      38.730  30.861  29.487  1.00  0.00     0.049 A 
ATOM     82  H   UNL A   1      40.774  30.526  29.700  1.00  0.00     0.167 HD
ATOM     83  C   UNL A   1      45.029  29.615  30.224  1.00  0.00     0.037 A 
ATOM     84  H   UNL A   1      45.044  26.949  29.335  1.00  0.00     0.065 H 
ATOM     85  H   UNL A   1      36.735  30.169  28.791  1.00  0.00     0.065 H 
ATOM     86  C   UNL A   1      38.475  32.086  29.983  1.00  0.00     0.037 A 
ATOM     87  C   UNL A   1      44.871  30.971  30.682  1.00  0.00     0.049 A 
ATOM     88  C   UNL A   1      39.614  32.903  30.536  1.00  0.00     0.074 A 
ATOM     89  C   UNL A   1      45.841  31.845  31.137  1.00  0.00    -0.036 A 
ATOM     90  N   UNL A   1      43.661  31.645  30.750  1.00  0.00    -0.354 N 
ATOM     91  N   UNL A   1      40.887  32.599  30.621  1.00  0.00    -0.248 NA
ATOM     92  C   UNL A   1      39.280  34.235  31.056  1.00  0.00    -0.034 C 
ATOM     93  C   UNL A   1      45.210  33.027  31.541  1.00  0.00    -0.036 A 
ATOM     94  H   UNL A   1      46.856  31.659  31.173  1.00  0.00     0.065 H 
ATOM     95  C   UNL A   1      43.856  32.916  31.270  1.00  0.00     0.049 A 
ATOM     96  H   UNL A   1      42.791  31.278  30.472  1.00  0.00     0.167 HD
ATOM     97  C   UNL A   1      41.509  33.712  31.170  1.00  0.00     0.074 A 
ATOM     98  C   UNL A   1      40.476  34.704  31.383  1.00  0.00    -0.034 C 
ATOM     99  H   UNL A   1      38.358  34.689  31.142  1.00  0.00     0.065 H 
ATOM    100  H   UNL A   1      45.675  33.843  31.968  1.00  0.00     0.065 H 
ATOM    101  C   UNL A   1      42.819  33.897  31.470  1.00  0.00     0.037 A 
ATOM    102  H   UNL A   1      40.649  35.654  31.746  1.00  0.00     0.065 H 
BRANCH  83 103
ATOM    103  C   UNL A   1      46.398  28.998  30.283  1.00  0.00     0.064 A 
ATOM    104  C   UNL A   1      46.856  28.320  31.424  1.00  0.00     0.173 A 
ATOM    105  C   UNL A   1      47.250  29.053  29.169  1.00  0.00     0.173 A 
ATOM    106  F   UNL A   1      46.086  28.246  32.520  1.00  0.00    -0.203 F 
ATOM    107  C   UNL A   1      48.126  27.750  31.459  1.00  0.00     0.198 A 
ATOM    108  C   UNL A   1      48.506  28.449  29.195  1.00  0.00     0.198 A 
ATOM    109  F   UNL A   1      46.863  29.682  28.049  1.00  0.00    -0.203 F 
ATOM    110  F   UNL A   1      48.561  27.157  32.579  1.00  0.00    -0.200 F 
ATOM    111  C   UNL A   1      48.946  27.807  30.343  1.00  0.00     0.200 A 
ATOM    112  F   UNL A   1      49.291  28.492  28.109  1.00  0.00    -0.200 F 
ATOM    113  F   UNL A   1      50.165  27.251  30.375  1.00  0.00    -0.200 F 
ENDBRANCH  83 103
BRANCH  86 114
ATOM    114  C   UNL A   1      37.089  32.625  29.967  1.00  0.00     0.064 A 
ATOM    115  C   UNL A   1      36.632  33.409  28.898  1.00  0.00     0.173 A 
ATOM    116  C   UNL A   1      36.198  32.377  31.021  1.00  0.00     0.173 A 
ATOM    117  F   UNL A   1      37.452  33.690  27.874  1.00  0.00    -0.203 F 
ATOM    118  C   UNL A   1      35.347  33.948  28.898  1.00  0.00     0.198 A 
ATOM    119  C   UNL A   1      34.902  32.888  31.004  1.00  0.00     0.198 A 
ATOM    120  F   UNL A   1      36.582  31.627  32.064  1.00  0.00    -0.203 F 
ATOM    121  F   UNL A   1      34.955  34.740  27.891  1.00  0.00    -0.200 F 
ATOM    122  C   UNL A   1      34.481  33.682  29.948  1.00  0.00     0.200 A 
ATOM    123  F   UNL A   1      34.063  32.613  32.012  1.00  0.00    -0.200 F 
ATOM    124  F   UNL A   1      33.244  34.198  29.946  1.00  0.00    -0.200 F 
ENDBRANCH  86 114
BRANCH 101 125
ATOM    125  C   UNL A   1      43.219  35.236  32.021  1.00  0.00     0.064 A 
ATOM    126  C   UNL A   1      43.695  36.266  31.195  1.00  0.00     0.173 A 
ATOM    127  C   UNL A   1      43.086  35.505  33.392  1.00  0.00     0.173 A 
ATOM    128  F   UNL A   1      43.855  36.056  29.879  1.00  0.00    -0.203 F 
ATOM    129  C   UNL A   1      44.052  37.503  31.726  1.00  0.00     0.198 A 
ATOM    130  C   UNL A   1      43.408  36.755  33.913  1.00  0.00     0.198 A 
ATOM    131  F   UNL A   1      42.628  34.561  34.226  1.00  0.00    -0.203 F 
ATOM    132  F   UNL A   1      44.557  38.451  30.925  1.00  0.00    -0.200 F 
ATOM    133  C   UNL A   1      43.899  37.749  33.082  1.00  0.00     0.200 A 
ATOM    134  F   UNL A   1      43.242  36.998  35.221  1.00  0.00    -0.200 F 
ATOM    135  F   UNL A   1      44.233  38.944  33.588  1.00  0.00    -0.200 F 
ENDBRANCH 101 125
ENDBRANCH  66  69
ENDBRANCH  56  59
ENDBRANCH  52  55
ENDBRANCH  49  52
ENDBRANCH  46  49
ENDBRANCH   1  46
TORSDOF 17
ENDMDL
MODEL 3
REMARK VINA RESULT:     -12.3      4.813      8.717
REMARK SMILES NS(=O)(=O)c1ccc(N2N=C(C(=O)NCCCCCCNC(=O)c3ccc(-c4c5nc(c(-c6c(F)c(F)c(F)c(F)c6F)c6ccc([nH]6)c(-c6c(F)c(F)c(F)c(F)c6F)c6nc(c(-c7c(F)c(F)c(F)c(F)c7F)c7ccc4[nH]7)C=C6)C=C5)cc3)C[C@H]2c2ccco2)cc1
REMARK SMILES IDX 17 1 16 4 15 7 14 10 12 11 13 12 11 14 9 15 10 16 88 17
REMARK SMILES IDX 87 18 8 22 5 23 6 24 95 25 7 26 94 28 2 32 3 33 4 34 1 35
REMARK SMILES IDX 89 38 90 39 93 40 91 41 92 43 18 46 19 49 20 52 21 55 22 56
REMARK SMILES IDX 23 58 24 59 25 60 86 61 26 62 85 64 27 66 28 69 29 70 79 71
REMARK SMILES IDX 30 72 84 73 78 74 80 75 31 76 83 77 77 79 76 81 32 83 64 86
REMARK SMILES IDX 44 87 63 88 45 89 48 90 62 91 81 92 46 93 47 95 61 97 82 98
REMARK SMILES IDX 49 101 33 103 34 104 42 105 35 106 36 107 40 108 43 109
REMARK SMILES IDX 37 110 38 111 41 112 39 113 65 114 66 115 74 116 67 117
REMARK SMILES IDX 68 118 72 119 75 120 69 121 70 122 73 123 71 124 50 125
REMARK SMILES IDX 51 126 59 127 52 128 53 129 57 130 60 131 54 132 55 133
REMARK SMILES IDX 58 134 56 135
REMARK H PARENT 17 2 17 3 16 5 16 6 15 8 15 9 14 13 88 19 87 20 87 21 6 27
REMARK H PARENT 95 29 7 30 94 31 1 36 1 37 90 42 91 44 92 45 18 47 18 48 19 50
REMARK H PARENT 19 51 20 53 20 54 21 57 25 63 86 65 26 67 85 68 84 78 78 80
REMARK H PARENT 80 82 83 84 77 85 45 94 48 96 81 99 46 100 82 102
REMARK Flexibility Score: inf
ROOT
ATOM      1  C   UNL A   1      31.353  29.227  23.812  1.00  0.00    -0.052 C 
ATOM      2  H   UNL A   1      30.810  30.111  24.076  1.00  0.00     0.027 H 
ATOM      3  H   UNL A   1      32.400  29.399  23.675  1.00  0.00     0.027 H 
ENDROOT
BRANCH   1   4
ATOM      4  C   UNL A   1      30.820  28.724  22.470  1.00  0.00    -0.036 C 
ATOM      5  H   UNL A   1      29.850  29.148  22.312  1.00  0.00     0.028 H 
ATOM      6  H   UNL A   1      31.526  29.023  21.723  1.00  0.00     0.028 H 
BRANCH   4   7
ATOM      7  C   UNL A   1      30.701  27.207  22.383  1.00  0.00     0.018 C 
ATOM      8  H   UNL A   1      30.883  26.786  23.350  1.00  0.00     0.049 H 
ATOM      9  H   UNL A   1      29.715  26.962  22.047  1.00  0.00     0.049 H 
BRANCH   7  10
ATOM     10  N   UNL A   1      31.657  26.662  21.442  1.00  0.00    -0.351 N 
ATOM     11  C   UNL A   1      32.558  25.629  21.485  1.00  0.00     0.267 C 
ATOM     12  O   UNL A   1      33.310  25.492  20.524  1.00  0.00    -0.268 OA
ATOM     13  H   UNL A   1      31.662  27.138  20.581  1.00  0.00     0.163 HD
BRANCH  11  14
ATOM     14  C   UNL A   1      32.639  24.624  22.625  1.00  0.00     0.128 C 
ATOM     15  N   UNL A   1      32.643  22.726  23.585  1.00  0.00    -0.254 N 
ATOM     16  N   UNL A   1      32.802  23.356  22.393  1.00  0.00    -0.171 NA
ATOM     17  C   UNL A   1      32.546  23.627  24.734  1.00  0.00     0.116 C 
ATOM     18  C   UNL A   1      32.509  24.998  24.063  1.00  0.00     0.027 C 
ATOM     19  H   UNL A   1      33.362  23.460  25.406  1.00  0.00     0.064 H 
ATOM     20  H   UNL A   1      31.584  25.502  24.253  1.00  0.00     0.036 H 
ATOM     21  H   UNL A   1      33.261  25.676  24.409  1.00  0.00     0.036 H 
BRANCH  15  22
ATOM     22  C   UNL A   1      32.923  21.374  23.715  1.00  0.00     0.060 A 
ATOM     23  C   UNL A   1      33.367  18.625  24.035  1.00  0.00     0.082 A 
ATOM     24  C   UNL A   1      34.185  19.542  24.701  1.00  0.00    -0.040 A 
ATOM     25  C   UNL A   1      32.365  19.064  23.171  1.00  0.00    -0.040 A 
ATOM     26  C   UNL A   1      33.962  20.913  24.531  1.00  0.00    -0.035 A 
ATOM     27  H   UNL A   1      34.948  19.210  25.312  1.00  0.00     0.064 H 
ATOM     28  C   UNL A   1      32.156  20.432  23.015  1.00  0.00    -0.035 A 
ATOM     29  H   UNL A   1      31.786  18.385  22.654  1.00  0.00     0.064 H 
ATOM     30  H   UNL A   1      34.571  21.591  25.015  1.00  0.00     0.065 H 
ATOM     31  H   UNL A   1      31.421  20.760  22.369  1.00  0.00     0.065 H 
BRANCH  23  32
ATOM     32  S   UNL A   1      33.629  16.893  24.248  1.00  0.00     0.238 S 
ATOM     33  O   UNL A   1      34.041  16.310  22.994  1.00  0.00    -0.207 OA
ATOM     34  O   UNL A   1      32.564  16.339  25.052  1.00  0.00    -0.207 OA
BRANCH  32  35
ATOM     35  N   UNL A   1      34.990  16.877  25.236  1.00  0.00    -0.225 NA
ATOM     36  H   UNL A   1      35.158  17.816  25.599  1.00  0.00     0.137 HD
ATOM     37  H   UNL A   1      35.799  16.572  24.695  1.00  0.00     0.137 HD
ENDBRANCH  32  35
ENDBRANCH  23  32
ENDBRANCH  15  22
BRANCH  17  38
ATOM     38  C   UNL A   1      31.408  23.420  25.693  1.00  0.00     0.128 A 
ATOM     39  C   UNL A   1      30.978  22.318  26.410  1.00  0.00    -0.018 A 
ATOM     40  O   UNL A   1      30.590  24.481  25.964  1.00  0.00    -0.467 OA
ATOM     41  C   UNL A   1      29.822  22.721  27.119  1.00  0.00    -0.023 A 
ATOM     42  H   UNL A   1      31.415  21.383  26.424  1.00  0.00     0.066 H 
ATOM     43  C   UNL A   1      29.639  24.051  26.828  1.00  0.00     0.091 A 
ATOM     44  H   UNL A   1      29.235  22.133  27.732  1.00  0.00     0.066 H 
ATOM     45  H   UNL A   1      28.883  24.639  27.214  1.00  0.00     0.104 H 
ENDBRANCH  17  38
ENDBRANCH  11  14
ENDBRANCH   7  10
ENDBRANCH   4   7
ENDBRANCH   1   4
BRANCH   1  46
ATOM     46  C   UNL A   1      31.228  28.229  24.969  1.00  0.00    -0.052 C 
ATOM     47  H   UNL A   1      31.378  27.245  24.577  1.00  0.00     0.027 H 
ATOM     48  H   UNL A   1      30.254  28.376  25.386  1.00  0.00     0.027 H 
BRANCH  46  49
ATOM     49  C   UNL A   1      32.220  28.438  26.117  1.00  0.00    -0.036 C 
ATOM     50  H   UNL A   1      32.655  27.491  26.361  1.00  0.00     0.028 H 
ATOM     51  H   UNL A   1      31.665  28.864  26.926  1.00  0.00     0.028 H 
BRANCH  49  52
ATOM     52  C   UNL A   1      33.348  29.413  25.802  1.00  0.00     0.018 C 
ATOM     53  H   UNL A   1      33.518  29.417  24.745  1.00  0.00     0.049 H 
ATOM     54  H   UNL A   1      34.221  29.092  26.332  1.00  0.00     0.049 H 
BRANCH  52  55
ATOM     55  N   UNL A   1      33.032  30.765  26.232  1.00  0.00    -0.352 N 
ATOM     56  C   UNL A   1      33.597  31.513  27.231  1.00  0.00     0.251 C 
ATOM     57  H   UNL A   1      32.307  31.207  25.733  1.00  0.00     0.163 HD
ATOM     58  O   UNL A   1      33.063  32.554  27.602  1.00  0.00    -0.269 OA
BRANCH  56  59
ATOM     59  C   UNL A   1      34.845  31.054  27.876  1.00  0.00     0.039 A 
ATOM     60  C   UNL A   1      35.925  31.935  27.959  1.00  0.00    -0.049 A 
ATOM     61  C   UNL A   1      34.952  29.757  28.385  1.00  0.00    -0.049 A 
ATOM     62  C   UNL A   1      37.095  31.532  28.603  1.00  0.00    -0.053 A 
ATOM     63  H   UNL A   1      35.858  32.879  27.548  1.00  0.00     0.063 H 
ATOM     64  C   UNL A   1      36.087  29.385  29.098  1.00  0.00    -0.053 A 
ATOM     65  H   UNL A   1      34.191  29.076  28.234  1.00  0.00     0.063 H 
ATOM     66  C   UNL A   1      37.174  30.265  29.206  1.00  0.00    -0.014 A 
ATOM     67  H   UNL A   1      37.908  32.167  28.635  1.00  0.00     0.063 H 
ATOM     68  H   UNL A   1      36.131  28.458  29.548  1.00  0.00     0.063 H 
BRANCH  66  69
ATOM     69  C   UNL A   1      38.388  29.846  29.952  1.00  0.00     0.031 A 
ATOM     70  C   UNL A   1      38.658  30.391  31.326  1.00  0.00     0.074 A 
ATOM     71  C   UNL A   1      39.273  29.014  29.368  1.00  0.00     0.049 A 
ATOM     72  N   UNL A   1      39.687  30.189  32.111  1.00  0.00    -0.248 NA
ATOM     73  C   UNL A   1      37.652  31.309  31.884  1.00  0.00    -0.034 C 
ATOM     74  C   UNL A   1      39.143  28.453  28.022  1.00  0.00    -0.036 A 
ATOM     75  N   UNL A   1      40.461  28.503  29.828  1.00  0.00    -0.354 N 
ATOM     76  C   UNL A   1      39.456  30.958  33.244  1.00  0.00     0.074 A 
ATOM     77  C   UNL A   1      38.222  31.679  33.020  1.00  0.00    -0.034 C 
ATOM     78  H   UNL A   1      36.740  31.589  31.492  1.00  0.00     0.065 H 
ATOM     79  C   UNL A   1      40.194  27.654  27.776  1.00  0.00    -0.036 A 
ATOM     80  H   UNL A   1      38.368  28.640  27.368  1.00  0.00     0.065 H 
ATOM     81  C   UNL A   1      41.094  27.684  28.926  1.00  0.00     0.049 A 
ATOM     82  H   UNL A   1      40.826  28.706  30.720  1.00  0.00     0.167 HD
ATOM     83  C   UNL A   1      40.193  31.036  34.377  1.00  0.00     0.037 A 
ATOM     84  H   UNL A   1      37.836  32.389  33.662  1.00  0.00     0.065 H 
ATOM     85  H   UNL A   1      40.342  27.108  26.914  1.00  0.00     0.065 H 
ATOM     86  C   UNL A   1      42.272  27.038  29.011  1.00  0.00     0.037 A 
ATOM     87  C   UNL A   1      41.413  30.304  34.599  1.00  0.00     0.049 A 
ATOM     88  C   UNL A   1      43.086  27.162  30.272  1.00  0.00     0.074 A 
ATOM     89  C   UNL A   1      42.206  30.272  35.731  1.00  0.00    -0.036 A 
ATOM     90  N   UNL A   1      42.021  29.480  33.663  1.00  0.00    -0.354 N 
ATOM     91  N   UNL A   1      42.822  27.837  31.365  1.00  0.00    -0.248 NA
ATOM     92  C   UNL A   1      44.358  26.429  30.313  1.00  0.00    -0.034 C 
ATOM     93  C   UNL A   1      43.326  29.480  35.460  1.00  0.00    -0.036 A 
ATOM     94  H   UNL A   1      42.005  30.750  36.625  1.00  0.00     0.065 H 
ATOM     95  C   UNL A   1      43.196  28.960  34.182  1.00  0.00     0.049 A 
ATOM     96  H   UNL A   1      41.671  29.292  32.762  1.00  0.00     0.167 HD
ATOM     97  C   UNL A   1      43.874  27.583  32.234  1.00  0.00     0.074 A 
ATOM     98  C   UNL A   1      44.773  26.679  31.546  1.00  0.00    -0.034 C 
ATOM     99  H   UNL A   1      44.809  25.866  29.576  1.00  0.00     0.065 H 
ATOM    100  H   UNL A   1      44.116  29.312  36.102  1.00  0.00     0.065 H 
ATOM    101  C   UNL A   1      44.078  28.055  33.490  1.00  0.00     0.037 A 
ATOM    102  H   UNL A   1      45.629  26.282  31.964  1.00  0.00     0.065 H 
BRANCH  83 103
ATOM    103  C   UNL A   1      39.703  31.949  35.466  1.00  0.00     0.064 A 
ATOM    104  C   UNL A   1      40.155  33.273  35.582  1.00  0.00     0.173 A 
ATOM    105  C   UNL A   1      38.737  31.505  36.383  1.00  0.00     0.173 A 
ATOM    106  F   UNL A   1      41.085  33.746  34.738  1.00  0.00    -0.203 F 
ATOM    107  C   UNL A   1      39.686  34.106  36.595  1.00  0.00     0.198 A 
ATOM    108  C   UNL A   1      38.243  32.353  37.372  1.00  0.00     0.198 A 
ATOM    109  F   UNL A   1      38.263  30.252  36.316  1.00  0.00    -0.203 F 
ATOM    110  F   UNL A   1      40.175  35.348  36.719  1.00  0.00    -0.200 F 
ATOM    111  C   UNL A   1      38.725  33.649  37.482  1.00  0.00     0.200 A 
ATOM    112  F   UNL A   1      37.302  31.914  38.220  1.00  0.00    -0.200 F 
ATOM    113  F   UNL A   1      38.267  34.455  38.451  1.00  0.00    -0.200 F 
ENDBRANCH  83 103
BRANCH  86 114
ATOM    114  C   UNL A   1      42.749  26.202  27.876  1.00  0.00     0.064 A 
ATOM    115  C   UNL A   1      43.601  26.733  26.897  1.00  0.00     0.173 A 
ATOM    116  C   UNL A   1      42.353  24.864  27.739  1.00  0.00     0.173 A 
ATOM    117  F   UNL A   1      43.993  28.013  26.972  1.00  0.00    -0.203 F 
ATOM    118  C   UNL A   1      44.017  25.964  25.812  1.00  0.00     0.198 A 
ATOM    119  C   UNL A   1      42.797  24.086  26.672  1.00  0.00     0.198 A 
ATOM    120  F   UNL A   1      41.544  24.305  28.651  1.00  0.00    -0.203 F 
ATOM    121  F   UNL A   1      44.787  26.513  24.862  1.00  0.00    -0.200 F 
ATOM    122  C   UNL A   1      43.620  24.640  25.703  1.00  0.00     0.200 A 
ATOM    123  F   UNL A   1      42.426  22.802  26.581  1.00  0.00    -0.200 F 
ATOM    124  F   UNL A   1      44.023  23.901  24.660  1.00  0.00    -0.200 F 
ENDBRANCH  86 114
BRANCH 101 125
ATOM    125  C   UNL A   1      45.298  27.570  34.220  1.00  0.00     0.064 A 
ATOM    126  C   UNL A   1      46.516  28.266  34.177  1.00  0.00     0.173 A 
ATOM    127  C   UNL A   1      45.235  26.410  35.010  1.00  0.00     0.173 A 
ATOM    128  F   UNL A   1      46.633  29.372  33.427  1.00  0.00    -0.203 F 
ATOM    129  C   UNL A   1      47.630  27.802  34.870  1.00  0.00     0.198 A 
ATOM    130  C   UNL A   1      46.341  25.971  35.731  1.00  0.00     0.198 A 
ATOM    131  F   UNL A   1      44.094  25.710  35.094  1.00  0.00    -0.203 F 
ATOM    132  F   UNL A   1      48.798  28.454  34.768  1.00  0.00    -0.200 F 
ATOM    133  C   UNL A   1      47.540  26.661  35.653  1.00  0.00     0.200 A 
ATOM    134  F   UNL A   1      46.246  24.879  36.502  1.00  0.00    -0.200 F 
ATOM    135  F   UNL A   1      48.612  26.224  36.328  1.00  0.00    -0.200 F 
ENDBRANCH 101 125
ENDBRANCH  66  69
ENDBRANCH  56  59
ENDBRANCH  52  55
ENDBRANCH  49  52
ENDBRANCH  46  49
ENDBRANCH   1  46
TORSDOF 17
ENDMDL
MODEL 4
REMARK VINA RESULT:     -12.3      1.038      7.295
REMARK SMILES NS(=O)(=O)c1ccc(N2N=C(C(=O)NCCCCCCNC(=O)c3ccc(-c4c5nc(c(-c6c(F)c(F)c(F)c(F)c6F)c6ccc([nH]6)c(-c6c(F)c(F)c(F)c(F)c6F)c6nc(c(-c7c(F)c(F)c(F)c(F)c7F)c7ccc4[nH]7)C=C6)C=C5)cc3)C[C@H]2c2ccco2)cc1
REMARK SMILES IDX 17 1 16 4 15 7 14 10 12 11 13 12 11 14 9 15 10 16 88 17
REMARK SMILES IDX 87 18 8 22 5 23 6 24 95 25 7 26 94 28 2 32 3 33 4 34 1 35
REMARK SMILES IDX 89 38 90 39 93 40 91 41 92 43 18 46 19 49 20 52 21 55 22 56
REMARK SMILES IDX 23 58 24 59 25 60 86 61 26 62 85 64 27 66 28 69 29 70 79 71
REMARK SMILES IDX 30 72 84 73 78 74 80 75 31 76 83 77 77 79 76 81 32 83 64 86
REMARK SMILES IDX 44 87 63 88 45 89 48 90 62 91 81 92 46 93 47 95 61 97 82 98
REMARK SMILES IDX 49 101 33 103 34 104 42 105 35 106 36 107 40 108 43 109
REMARK SMILES IDX 37 110 38 111 41 112 39 113 65 114 66 115 74 116 67 117
REMARK SMILES IDX 68 118 72 119 75 120 69 121 70 122 73 123 71 124 50 125
REMARK SMILES IDX 51 126 59 127 52 128 53 129 57 130 60 131 54 132 55 133
REMARK SMILES IDX 58 134 56 135
REMARK H PARENT 17 2 17 3 16 5 16 6 15 8 15 9 14 13 88 19 87 20 87 21 6 27
REMARK H PARENT 95 29 7 30 94 31 1 36 1 37 90 42 91 44 92 45 18 47 18 48 19 50
REMARK H PARENT 19 51 20 53 20 54 21 57 25 63 86 65 26 67 85 68 84 78 78 80
REMARK H PARENT 80 82 83 84 77 85 45 94 48 96 81 99 46 100 82 102
REMARK Flexibility Score: inf
ROOT
ATOM      1  C   UNL A   1      35.735  21.198  25.538  1.00  0.00    -0.052 C 
ATOM      2  H   UNL A   1      36.041  20.858  26.506  1.00  0.00     0.027 H 
ATOM      3  H   UNL A   1      35.600  22.258  25.486  1.00  0.00     0.027 H 
ENDROOT
BRANCH   1   4
ATOM      4  C   UNL A   1      34.376  20.573  25.222  1.00  0.00    -0.036 C 
ATOM      5  H   UNL A   1      34.508  19.854  24.440  1.00  0.00     0.028 H 
ATOM      6  H   UNL A   1      34.017  20.132  26.129  1.00  0.00     0.028 H 
BRANCH   4   7
ATOM      7  C   UNL A   1      33.324  21.581  24.774  1.00  0.00     0.018 C 
ATOM      8  H   UNL A   1      32.376  21.089  24.702  1.00  0.00     0.049 H 
ATOM      9  H   UNL A   1      33.281  22.371  25.494  1.00  0.00     0.049 H 
BRANCH   7  10
ATOM     10  N   UNL A   1      33.660  22.148  23.486  1.00  0.00    -0.351 N 
ATOM     11  C   UNL A   1      33.347  23.321  22.845  1.00  0.00     0.267 C 
ATOM     12  O   UNL A   1      33.726  23.451  21.685  1.00  0.00    -0.268 OA
ATOM     13  H   UNL A   1      34.244  21.564  22.950  1.00  0.00     0.163 HD
BRANCH  11  14
ATOM     14  C   UNL A   1      32.608  24.474  23.506  1.00  0.00     0.128 C 
ATOM     15  N   UNL A   1      31.608  26.345  23.663  1.00  0.00    -0.254 N 
ATOM     16  N   UNL A   1      31.992  25.372  22.798  1.00  0.00    -0.171 NA
ATOM     17  C   UNL A   1      31.810  26.011  25.074  1.00  0.00     0.116 C 
ATOM     18  C   UNL A   1      32.557  24.682  24.982  1.00  0.00     0.027 C 
ATOM     19  H   UNL A   1      30.870  25.981  25.586  1.00  0.00     0.064 H 
ATOM     20  H   UNL A   1      33.539  24.756  25.400  1.00  0.00     0.036 H 
ATOM     21  H   UNL A   1      32.095  23.881  25.522  1.00  0.00     0.036 H 
BRANCH  15  22
ATOM     22  C   UNL A   1      30.775  27.373  23.250  1.00  0.00     0.060 A 
ATOM     23  C   UNL A   1      29.147  29.531  22.506  1.00  0.00     0.082 A 
ATOM     24  C   UNL A   1      28.567  28.376  23.038  1.00  0.00    -0.040 A 
ATOM     25  C   UNL A   1      30.523  29.601  22.292  1.00  0.00    -0.040 A 
ATOM     26  C   UNL A   1      29.385  27.300  23.400  1.00  0.00    -0.035 A 
ATOM     27  H   UNL A   1      27.544  28.317  23.160  1.00  0.00     0.064 H 
ATOM     28  C   UNL A   1      31.322  28.521  22.660  1.00  0.00    -0.035 A 
ATOM     29  H   UNL A   1      30.944  30.442  21.867  1.00  0.00     0.064 H 
ATOM     30  H   UNL A   1      28.957  26.443  23.785  1.00  0.00     0.065 H 
ATOM     31  H   UNL A   1      32.339  28.568  22.495  1.00  0.00     0.065 H 
BRANCH  23  32
ATOM     32  S   UNL A   1      28.130  30.900  22.054  1.00  0.00     0.238 S 
ATOM     33  O   UNL A   1      27.234  31.214  23.141  1.00  0.00    -0.207 OA
ATOM     34  O   UNL A   1      27.674  30.734  20.692  1.00  0.00    -0.207 OA
BRANCH  32  35
ATOM     35  N   UNL A   1      29.251  32.152  22.001  1.00  0.00    -0.225 NA
ATOM     36  H   UNL A   1      30.190  31.763  21.908  1.00  0.00     0.137 HD
ATOM     37  H   UNL A   1      29.193  32.697  22.861  1.00  0.00     0.137 HD
ENDBRANCH  32  35
ENDBRANCH  23  32
ENDBRANCH  15  22
BRANCH  17  38
ATOM     38  C   UNL A   1      32.516  27.015  25.939  1.00  0.00     0.128 A 
ATOM     39  C   UNL A   1      33.814  27.493  25.947  1.00  0.00    -0.018 A 
ATOM     40  O   UNL A   1      31.806  27.619  26.939  1.00  0.00    -0.467 OA
ATOM     41  C   UNL A   1      33.903  28.404  27.027  1.00  0.00    -0.023 A 
ATOM     42  H   UNL A   1      34.569  27.237  25.294  1.00  0.00     0.066 H 
ATOM     43  C   UNL A   1      32.650  28.458  27.587  1.00  0.00     0.091 A 
ATOM     44  H   UNL A   1      34.742  28.922  27.332  1.00  0.00     0.066 H 
ATOM     45  H   UNL A   1      32.389  29.056  28.387  1.00  0.00     0.104 H 
ENDBRANCH  17  38
ENDBRANCH  11  14
ENDBRANCH   7  10
ENDBRANCH   4   7
ENDBRANCH   1   4
BRANCH   1  46
ATOM     46  C   UNL A   1      36.849  20.857  24.540  1.00  0.00    -0.052 C 
ATOM     47  H   UNL A   1      37.397  21.753  24.335  1.00  0.00     0.027 H 
ATOM     48  H   UNL A   1      36.363  20.450  23.678  1.00  0.00     0.027 H 
BRANCH  46  49
ATOM     49  C   UNL A   1      37.842  19.792  25.014  1.00  0.00    -0.036 C 
ATOM     50  H   UNL A   1      38.208  19.270  24.155  1.00  0.00     0.028 H 
ATOM     51  H   UNL A   1      37.308  19.158  25.691  1.00  0.00     0.028 H 
BRANCH  49  52
ATOM     52  C   UNL A   1      39.036  20.343  25.783  1.00  0.00     0.018 C 
ATOM     53  H   UNL A   1      38.714  20.628  26.764  1.00  0.00     0.049 H 
ATOM     54  H   UNL A   1      39.418  21.184  25.243  1.00  0.00     0.049 H 
BRANCH  52  55
ATOM     55  N   UNL A   1      40.102  19.364  25.904  1.00  0.00    -0.352 N 
ATOM     56  C   UNL A   1      41.443  19.560  26.108  1.00  0.00     0.251 C 
ATOM     57  H   UNL A   1      39.820  18.423  25.830  1.00  0.00     0.163 HD
ATOM     58  O   UNL A   1      42.232  18.631  25.968  1.00  0.00    -0.269 OA
BRANCH  56  59
ATOM     59  C   UNL A   1      41.940  20.900  26.480  1.00  0.00     0.039 A 
ATOM     60  C   UNL A   1      42.228  21.818  25.468  1.00  0.00    -0.049 A 
ATOM     61  C   UNL A   1      42.131  21.246  27.821  1.00  0.00    -0.049 A 
ATOM     62  C   UNL A   1      42.657  23.102  25.804  1.00  0.00    -0.053 A 
ATOM     63  H   UNL A   1      42.123  21.548  24.478  1.00  0.00     0.063 H 
ATOM     64  C   UNL A   1      42.479  22.550  28.156  1.00  0.00    -0.053 A 
ATOM     65  H   UNL A   1      42.015  20.536  28.561  1.00  0.00     0.063 H 
ATOM     66  C   UNL A   1      42.755  23.490  27.151  1.00  0.00    -0.014 A 
ATOM     67  H   UNL A   1      42.905  23.772  25.058  1.00  0.00     0.063 H 
ATOM     68  H   UNL A   1      42.536  22.829  29.148  1.00  0.00     0.063 H 
BRANCH  66  69
ATOM     69  C   UNL A   1      43.146  24.873  27.525  1.00  0.00     0.031 A 
ATOM     70  C   UNL A   1      44.597  25.264  27.566  1.00  0.00     0.074 A 
ATOM     71  C   UNL A   1      42.196  25.760  27.879  1.00  0.00     0.049 A 
ATOM     72  N   UNL A   1      45.139  26.401  27.921  1.00  0.00    -0.248 NA
ATOM     73  C   UNL A   1      45.572  24.230  27.183  1.00  0.00    -0.034 C 
ATOM     74  C   UNL A   1      40.759  25.487  27.921  1.00  0.00    -0.036 A 
ATOM     75  N   UNL A   1      42.297  27.069  28.280  1.00  0.00    -0.354 N 
ATOM     76  C   UNL A   1      46.512  26.216  27.813  1.00  0.00     0.074 A 
ATOM     77  C   UNL A   1      46.722  24.840  27.421  1.00  0.00    -0.034 C 
ATOM     78  H   UNL A   1      45.402  23.278  26.823  1.00  0.00     0.065 H 
ATOM     79  C   UNL A   1      40.110  26.600  28.298  1.00  0.00    -0.036 A 
ATOM     80  H   UNL A   1      40.315  24.583  27.697  1.00  0.00     0.065 H 
ATOM     81  C   UNL A   1      41.087  27.651  28.570  1.00  0.00     0.049 A 
ATOM     82  H   UNL A   1      43.156  27.545  28.355  1.00  0.00     0.167 HD
ATOM     83  C   UNL A   1      47.503  27.119  28.001  1.00  0.00     0.037 A 
ATOM     84  H   UNL A   1      47.649  24.392  27.337  1.00  0.00     0.065 H 
ATOM     85  H   UNL A   1      39.087  26.698  28.383  1.00  0.00     0.065 H 
ATOM     86  C   UNL A   1      40.798  28.889  29.014  1.00  0.00     0.037 A 
ATOM     87  C   UNL A   1      47.285  28.492  28.376  1.00  0.00     0.049 A 
ATOM     88  C   UNL A   1      41.922  29.866  29.240  1.00  0.00     0.074 A 
ATOM     89  C   UNL A   1      48.217  29.500  28.540  1.00  0.00    -0.036 A 
ATOM     90  N   UNL A   1      46.044  29.046  28.657  1.00  0.00    -0.354 N 
ATOM     91  N   UNL A   1      43.212  29.701  29.067  1.00  0.00    -0.248 NA
ATOM     92  C   UNL A   1      41.548  31.204  29.716  1.00  0.00    -0.034 C 
ATOM     93  C   UNL A   1      47.549  30.647  28.980  1.00  0.00    -0.036 A 
ATOM     94  H   UNL A   1      49.232  29.420  28.366  1.00  0.00     0.065 H 
ATOM     95  C   UNL A   1      46.191  30.376  29.022  1.00  0.00     0.049 A 
ATOM     96  H   UNL A   1      45.186  28.568  28.605  1.00  0.00     0.167 HD
ATOM     97  C   UNL A   1      43.798  30.920  29.379  1.00  0.00     0.074 A 
ATOM     98  C   UNL A   1      42.722  31.820  29.737  1.00  0.00    -0.034 C 
ATOM     99  H   UNL A   1      40.617  31.570  29.968  1.00  0.00     0.065 H 
ATOM    100  H   UNL A   1      47.993  31.545  29.230  1.00  0.00     0.065 H 
ATOM    101  C   UNL A   1      45.110  31.263  29.369  1.00  0.00     0.037 A 
ATOM    102  H   UNL A   1      42.853  32.815  29.978  1.00  0.00     0.065 H 
BRANCH  83 103
ATOM    103  C   UNL A   1      48.918  26.651  27.805  1.00  0.00     0.064 A 
ATOM    104  C   UNL A   1      49.746  26.324  28.890  1.00  0.00     0.173 A 
ATOM    105  C   UNL A   1      49.441  26.491  26.512  1.00  0.00     0.173 A 
ATOM    106  F   UNL A   1      49.301  26.467  30.147  1.00  0.00    -0.203 F 
ATOM    107  C   UNL A   1      51.053  25.887  28.690  1.00  0.00     0.198 A 
ATOM    108  C   UNL A   1      50.736  26.018  26.315  1.00  0.00     0.198 A 
ATOM    109  F   UNL A   1      48.693  26.782  25.437  1.00  0.00    -0.203 F 
ATOM    110  F   UNL A   1      51.842  25.634  29.744  1.00  0.00    -0.200 F 
ATOM    111  C   UNL A   1      51.544  25.726  27.404  1.00  0.00     0.200 A 
ATOM    112  F   UNL A   1      51.204  25.849  25.070  1.00  0.00    -0.200 F 
ATOM    113  F   UNL A   1      52.799  25.297  27.212  1.00  0.00    -0.200 F 
ENDBRANCH  83 103
BRANCH  86 114
ATOM    114  C   UNL A   1      39.385  29.282  29.261  1.00  0.00     0.064 A 
ATOM    115  C   UNL A   1      38.841  29.246  30.553  1.00  0.00     0.173 A 
ATOM    116  C   UNL A   1      38.548  29.689  28.213  1.00  0.00     0.173 A 
ATOM    117  F   UNL A   1      39.596  28.845  31.587  1.00  0.00    -0.203 F 
ATOM    118  C   UNL A   1      37.507  29.575  30.782  1.00  0.00     0.198 A 
ATOM    119  C   UNL A   1      37.223  30.051  28.448  1.00  0.00     0.198 A 
ATOM    120  F   UNL A   1      39.019  29.748  26.958  1.00  0.00    -0.203 F 
ATOM    121  F   UNL A   1      36.998  29.479  32.018  1.00  0.00    -0.200 F 
ATOM    122  C   UNL A   1      36.701  29.983  29.730  1.00  0.00     0.200 A 
ATOM    123  F   UNL A   1      36.453  30.462  27.431  1.00  0.00    -0.200 F 
ATOM    124  F   UNL A   1      35.418  30.303  29.951  1.00  0.00    -0.200 F 
ENDBRANCH  86 114
BRANCH 101 125
ATOM    125  C   UNL A   1      45.455  32.684  29.714  1.00  0.00     0.064 A 
ATOM    126  C   UNL A   1      45.488  33.697  28.743  1.00  0.00     0.173 A 
ATOM    127  C   UNL A   1      45.717  33.045  31.045  1.00  0.00     0.173 A 
ATOM    128  F   UNL A   1      45.259  33.403  27.454  1.00  0.00    -0.203 F 
ATOM    129  C   UNL A   1      45.800  35.009  29.087  1.00  0.00     0.198 A 
ATOM    130  C   UNL A   1      45.992  34.365  31.390  1.00  0.00     0.198 A 
ATOM    131  F   UNL A   1      45.690  32.120  32.016  1.00  0.00    -0.203 F 
ATOM    132  F   UNL A   1      45.881  35.948  28.134  1.00  0.00    -0.200 F 
ATOM    133  C   UNL A   1      46.043  35.344  30.411  1.00  0.00     0.200 A 
ATOM    134  F   UNL A   1      46.207  34.690  32.673  1.00  0.00    -0.200 F 
ATOM    135  F   UNL A   1      46.333  36.610  30.740  1.00  0.00    -0.200 F 
ENDBRANCH 101 125
ENDBRANCH  66  69
ENDBRANCH  56  59
ENDBRANCH  52  55
ENDBRANCH  49  52
ENDBRANCH  46  49
ENDBRANCH   1  46
TORSDOF 17
ENDMDL
MODEL 5
REMARK VINA RESULT:     -12.3      6.257     11.106
REMARK SMILES NS(=O)(=O)c1ccc(N2N=C(C(=O)NCCCCCCNC(=O)c3ccc(-c4c5nc(c(-c6c(F)c(F)c(F)c(F)c6F)c6ccc([nH]6)c(-c6c(F)c(F)c(F)c(F)c6F)c6nc(c(-c7c(F)c(F)c(F)c(F)c7F)c7ccc4[nH]7)C=C6)C=C5)cc3)C[C@H]2c2ccco2)cc1
REMARK SMILES IDX 17 1 16 4 15 7 14 10 12 11 13 12 11 14 9 15 10 16 88 17
REMARK SMILES IDX 87 18 8 22 5 23 6 24 95 25 7 26 94 28 2 32 3 33 4 34 1 35
REMARK SMILES IDX 89 38 90 39 93 40 91 41 92 43 18 46 19 49 20 52 21 55 22 56
REMARK SMILES IDX 23 58 24 59 25 60 86 61 26 62 85 64 27 66 28 69 29 70 79 71
REMARK SMILES IDX 30 72 84 73 78 74 80 75 31 76 83 77 77 79 76 81 32 83 64 86
REMARK SMILES IDX 44 87 63 88 45 89 48 90 62 91 81 92 46 93 47 95 61 97 82 98
REMARK SMILES IDX 49 101 33 103 34 104 42 105 35 106 36 107 40 108 43 109
REMARK SMILES IDX 37 110 38 111 41 112 39 113 65 114 66 115 74 116 67 117
REMARK SMILES IDX 68 118 72 119 75 120 69 121 70 122 73 123 71 124 50 125
REMARK SMILES IDX 51 126 59 127 52 128 53 129 57 130 60 131 54 132 55 133
REMARK SMILES IDX 58 134 56 135
REMARK H PARENT 17 2 17 3 16 5 16 6 15 8 15 9 14 13 88 19 87 20 87 21 6 27
REMARK H PARENT 95 29 7 30 94 31 1 36 1 37 90 42 91 44 92 45 18 47 18 48 19 50
REMARK H PARENT 19 51 20 53 20 54 21 57 25 63 86 65 26 67 85 68 84 78 78 80
REMARK H PARENT 80 82 83 84 77 85 45 94 48 96 81 99 46 100 82 102
REMARK Flexibility Score: inf
ROOT
ATOM      1  C   UNL A   1      35.187  34.075  29.109  1.00  0.00    -0.052 C 
ATOM      2  H   UNL A   1      36.054  33.694  28.611  1.00  0.00     0.027 H 
ATOM      3  H   UNL A   1      35.399  34.478  30.078  1.00  0.00     0.027 H 
ENDROOT
BRANCH   1   4
ATOM      4  C   UNL A   1      34.216  32.914  29.329  1.00  0.00    -0.036 C 
ATOM      5  H   UNL A   1      34.616  32.278  30.091  1.00  0.00     0.028 H 
ATOM      6  H   UNL A   1      33.275  33.343  29.603  1.00  0.00     0.028 H 
BRANCH   4   7
ATOM      7  C   UNL A   1      33.971  32.071  28.082  1.00  0.00     0.018 C 
ATOM      8  H   UNL A   1      33.163  31.394  28.271  1.00  0.00     0.049 H 
ATOM      9  H   UNL A   1      33.729  32.726  27.271  1.00  0.00     0.049 H 
BRANCH   7  10
ATOM     10  N   UNL A   1      35.151  31.312  27.726  1.00  0.00    -0.351 N 
ATOM     11  C   UNL A   1      35.369  30.024  27.308  1.00  0.00     0.267 C 
ATOM     12  O   UNL A   1      36.535  29.659  27.183  1.00  0.00    -0.268 OA
ATOM     13  H   UNL A   1      35.981  31.837  27.799  1.00  0.00     0.163 HD
BRANCH  11  14
ATOM     14  C   UNL A   1      34.256  29.052  26.945  1.00  0.00     0.128 C 
ATOM     15  N   UNL A   1      33.353  27.275  26.203  1.00  0.00    -0.254 N 
ATOM     16  N   UNL A   1      34.514  27.812  26.659  1.00  0.00    -0.171 NA
ATOM     17  C   UNL A   1      32.186  28.146  26.355  1.00  0.00     0.116 C 
ATOM     18  C   UNL A   1      32.819  29.441  26.858  1.00  0.00     0.027 C 
ATOM     19  H   UNL A   1      31.470  27.694  27.010  1.00  0.00     0.064 H 
ATOM     20  H   UNL A   1      32.673  30.243  26.165  1.00  0.00     0.036 H 
ATOM     21  H   UNL A   1      32.407  29.802  27.778  1.00  0.00     0.036 H 
BRANCH  15  22
ATOM     22  C   UNL A   1      33.245  25.912  25.971  1.00  0.00     0.060 A 
ATOM     23  C   UNL A   1      33.051  23.136  25.632  1.00  0.00     0.082 A 
ATOM     24  C   UNL A   1      34.068  23.844  24.987  1.00  0.00    -0.040 A 
ATOM     25  C   UNL A   1      32.099  23.804  26.402  1.00  0.00    -0.040 A 
ATOM     26  C   UNL A   1      34.155  25.231  25.154  1.00  0.00    -0.035 A 
ATOM     27  H   UNL A   1      34.748  23.348  24.390  1.00  0.00     0.064 H 
ATOM     28  C   UNL A   1      32.202  25.184  26.559  1.00  0.00    -0.035 A 
ATOM     29  H   UNL A   1      31.329  23.282  26.849  1.00  0.00     0.064 H 
ATOM     30  H   UNL A   1      34.900  25.756  24.671  1.00  0.00     0.065 H 
ATOM     31  H   UNL A   1      31.493  25.681  27.121  1.00  0.00     0.065 H 
BRANCH  23  32
ATOM     32  S   UNL A   1      32.935  21.386  25.438  1.00  0.00     0.238 S 
ATOM     33  O   UNL A   1      33.904  20.945  24.464  1.00  0.00    -0.207 OA
ATOM     34  O   UNL A   1      31.544  20.997  25.385  1.00  0.00    -0.207 OA
BRANCH  32  35
ATOM     35  N   UNL A   1      33.495  20.844  26.928  1.00  0.00    -0.225 NA
ATOM     36  H   UNL A   1      34.245  20.167  26.784  1.00  0.00     0.137 HD
ATOM     37  H   UNL A   1      32.731  20.401  27.438  1.00  0.00     0.137 HD
ENDBRANCH  32  35
ENDBRANCH  23  32
ENDBRANCH  15  22
BRANCH  17  38
ATOM     38  C   UNL A   1      31.307  28.356  25.156  1.00  0.00     0.128 A 
ATOM     39  C   UNL A   1      30.669  27.478  24.299  1.00  0.00    -0.018 A 
ATOM     40  O   UNL A   1      31.038  29.640  24.769  1.00  0.00    -0.467 OA
ATOM     41  C   UNL A   1      30.011  28.267  23.326  1.00  0.00    -0.023 A 
ATOM     42  H   UNL A   1      30.671  26.448  24.359  1.00  0.00     0.066 H 
ATOM     43  C   UNL A   1      30.252  29.576  23.667  1.00  0.00     0.091 A 
ATOM     44  H   UNL A   1      29.462  27.927  22.521  1.00  0.00     0.066 H 
ATOM     45  H   UNL A   1      29.885  30.395  23.156  1.00  0.00     0.104 H 
ENDBRANCH  17  38
ENDBRANCH  11  14
ENDBRANCH   7  10
ENDBRANCH   4   7
ENDBRANCH   1   4
BRANCH   1  46
ATOM     46  C   UNL A   1      34.628  35.233  28.274  1.00  0.00    -0.052 C 
ATOM     47  H   UNL A   1      34.435  34.867  27.287  1.00  0.00     0.027 H 
ATOM     48  H   UNL A   1      35.368  36.006  28.304  1.00  0.00     0.027 H 
BRANCH  46  49
ATOM     49  C   UNL A   1      33.337  35.857  28.811  1.00  0.00    -0.036 C 
ATOM     50  H   UNL A   1      32.650  35.067  29.032  1.00  0.00     0.028 H 
ATOM     51  H   UNL A   1      32.980  36.520  28.051  1.00  0.00     0.028 H 
BRANCH  49  52
ATOM     52  C   UNL A   1      33.521  36.696  30.069  1.00  0.00     0.018 C 
ATOM     53  H   UNL A   1      33.518  37.732  29.798  1.00  0.00     0.049 H 
ATOM     54  H   UNL A   1      34.451  36.418  30.520  1.00  0.00     0.049 H 
BRANCH  52  55
ATOM     55  N   UNL A   1      32.463  36.462  31.037  1.00  0.00    -0.352 N 
ATOM     56  C   UNL A   1      32.431  35.593  32.097  1.00  0.00     0.251 C 
ATOM     57  H   UNL A   1      31.651  37.005  30.914  1.00  0.00     0.163 HD
ATOM     58  O   UNL A   1      31.376  35.367  32.681  1.00  0.00    -0.269 OA
BRANCH  56  59
ATOM     59  C   UNL A   1      33.672  34.914  32.525  1.00  0.00     0.039 A 
ATOM     60  C   UNL A   1      33.602  33.584  32.945  1.00  0.00    -0.049 A 
ATOM     61  C   UNL A   1      34.895  35.589  32.523  1.00  0.00    -0.049 A 
ATOM     62  C   UNL A   1      34.770  32.915  33.312  1.00  0.00    -0.053 A 
ATOM     63  H   UNL A   1      32.692  33.099  32.984  1.00  0.00     0.063 H 
ATOM     64  C   UNL A   1      36.068  34.898  32.809  1.00  0.00    -0.053 A 
ATOM     65  H   UNL A   1      34.930  36.598  32.309  1.00  0.00     0.063 H 
ATOM     66  C   UNL A   1      36.016  33.556  33.216  1.00  0.00    -0.014 A 
ATOM     67  H   UNL A   1      34.718  31.944  33.658  1.00  0.00     0.063 H 
ATOM     68  H   UNL A   1      36.979  35.374  32.723  1.00  0.00     0.063 H 
BRANCH  66  69
ATOM     69  C   UNL A   1      37.276  32.838  33.539  1.00  0.00     0.031 A 
ATOM     70  C   UNL A   1      38.020  33.149  34.807  1.00  0.00     0.074 A 
ATOM     71  C   UNL A   1      37.775  31.944  32.664  1.00  0.00     0.049 A 
ATOM     72  N   UNL A   1      39.160  32.672  35.237  1.00  0.00    -0.248 NA
ATOM     73  C   UNL A   1      37.417  34.152  35.700  1.00  0.00    -0.034 C 
ATOM     74  C   UNL A   1      37.167  31.589  31.380  1.00  0.00    -0.036 A 
ATOM     75  N   UNL A   1      38.912  31.177  32.716  1.00  0.00    -0.354 N 
ATOM     76  C   UNL A   1      39.413  33.320  36.440  1.00  0.00     0.074 A 
ATOM     77  C   UNL A   1      38.341  34.270  36.640  1.00  0.00    -0.034 C 
ATOM     78  H   UNL A   1      36.510  34.636  35.614  1.00  0.00     0.065 H 
ATOM     79  C   UNL A   1      37.922  30.654  30.780  1.00  0.00    -0.036 A 
ATOM     80  H   UNL A   1      36.297  31.991  30.999  1.00  0.00     0.065 H 
ATOM     81  C   UNL A   1      39.090  30.380  31.612  1.00  0.00     0.049 A 
ATOM     82  H   UNL A   1      39.542  31.198  33.473  1.00  0.00     0.167 HD
ATOM     83  C   UNL A   1      40.434  33.123  37.307  1.00  0.00     0.037 A 
ATOM     84  H   UNL A   1      38.301  34.950  37.416  1.00  0.00     0.065 H 
ATOM     85  H   UNL A   1      37.711  30.204  29.876  1.00  0.00     0.065 H 
ATOM     86  C   UNL A   1      40.087  29.530  31.300  1.00  0.00     0.037 A 
ATOM     87  C   UNL A   1      41.490  32.165  37.108  1.00  0.00     0.049 A 
ATOM     88  C   UNL A   1      41.224  29.349  32.272  1.00  0.00     0.074 A 
ATOM     89  C   UNL A   1      42.540  31.851  37.951  1.00  0.00    -0.036 A 
ATOM     90  N   UNL A   1      41.634  31.371  35.979  1.00  0.00    -0.354 N 
ATOM     91  N   UNL A   1      41.416  29.916  33.438  1.00  0.00    -0.248 NA
ATOM     92  C   UNL A   1      42.280  28.403  31.884  1.00  0.00    -0.034 C 
ATOM     93  C   UNL A   1      43.355  30.914  37.307  1.00  0.00    -0.036 A 
ATOM     94  H   UNL A   1      42.696  32.240  38.895  1.00  0.00     0.065 H 
ATOM     95  C   UNL A   1      42.774  30.590  36.091  1.00  0.00     0.049 A 
ATOM     96  H   UNL A   1      41.018  31.363  35.211  1.00  0.00     0.167 HD
ATOM     97  C   UNL A   1      42.591  29.373  33.938  1.00  0.00     0.074 A 
ATOM     98  C   UNL A   1      43.060  28.419  32.955  1.00  0.00    -0.034 C 
ATOM     99  H   UNL A   1      42.385  27.867  31.010  1.00  0.00     0.065 H 
ATOM    100  H   UNL A   1      44.239  30.529  37.674  1.00  0.00     0.065 H 
ATOM    101  C   UNL A   1      43.226  29.639  35.107  1.00  0.00     0.037 A 
ATOM    102  H   UNL A   1      43.898  27.827  33.073  1.00  0.00     0.065 H 
BRANCH  83 103
ATOM    103  C   UNL A   1      40.461  33.963  38.554  1.00  0.00     0.064 A 
ATOM    104  C   UNL A   1      39.805  33.564  39.729  1.00  0.00     0.173 A 
ATOM    105  C   UNL A   1      41.184  35.165  38.585  1.00  0.00     0.173 A 
ATOM    106  F   UNL A   1      39.090  32.429  39.752  1.00  0.00    -0.203 F 
ATOM    107  C   UNL A   1      39.844  34.352  40.876  1.00  0.00     0.198 A 
ATOM    108  C   UNL A   1      41.252  35.932  39.746  1.00  0.00     0.198 A 
ATOM    109  F   UNL A   1      41.837  35.592  37.493  1.00  0.00    -0.203 F 
ATOM    110  F   UNL A   1      39.163  33.977  41.968  1.00  0.00    -0.200 F 
ATOM    111  C   UNL A   1      40.574  35.530  40.887  1.00  0.00     0.200 A 
ATOM    112  F   UNL A   1      41.972  37.063  39.758  1.00  0.00    -0.200 F 
ATOM    113  F   UNL A   1      40.619  36.284  41.994  1.00  0.00    -0.200 F 
ENDBRANCH  83 103
BRANCH  86 114
ATOM    114  C   UNL A   1      40.050  28.774  30.020  1.00  0.00     0.064 A 
ATOM    115  C   UNL A   1      39.443  27.512  29.945  1.00  0.00     0.173 A 
ATOM    116  C   UNL A   1      40.629  29.289  28.852  1.00  0.00     0.173 A 
ATOM    117  F   UNL A   1      38.892  26.967  31.039  1.00  0.00    -0.203 F 
ATOM    118  C   UNL A   1      39.442  26.784  28.757  1.00  0.00     0.198 A 
ATOM    119  C   UNL A   1      40.597  28.575  27.656  1.00  0.00     0.198 A 
ATOM    120  F   UNL A   1      41.217  30.495  28.867  1.00  0.00    -0.203 F 
ATOM    121  F   UNL A   1      38.904  25.557  28.727  1.00  0.00    -0.200 F 
ATOM    122  C   UNL A   1      40.013  27.318  27.612  1.00  0.00     0.200 A 
ATOM    123  F   UNL A   1      41.135  29.103  26.548  1.00  0.00    -0.200 F 
ATOM    124  F   UNL A   1      40.009  26.619  26.469  1.00  0.00    -0.200 F 
ENDBRANCH  86 114
BRANCH 101 125
ATOM    125  C   UNL A   1      44.473  28.858  35.410  1.00  0.00     0.064 A 
ATOM    126  C   UNL A   1      45.746  29.320  35.044  1.00  0.00     0.173 A 
ATOM    127  C   UNL A   1      44.394  27.646  36.115  1.00  0.00     0.173 A 
ATOM    128  F   UNL A   1      45.876  30.466  34.358  1.00  0.00    -0.203 F 
ATOM    129  C   UNL A   1      46.889  28.584  35.344  1.00  0.00     0.198 A 
ATOM    130  C   UNL A   1      45.542  26.931  36.445  1.00  0.00     0.198 A 
ATOM    131  F   UNL A   1      43.204  27.161  36.497  1.00  0.00    -0.203 F 
ATOM    132  F   UNL A   1      48.089  29.018  34.934  1.00  0.00    -0.200 F 
ATOM    133  C   UNL A   1      46.787  27.395  36.051  1.00  0.00     0.200 A 
ATOM    134  F   UNL A   1      45.443  25.793  37.146  1.00  0.00    -0.200 F 
ATOM    135  F   UNL A   1      47.890  26.695  36.348  1.00  0.00    -0.200 F 
ENDBRANCH 101 125
ENDBRANCH  66  69
ENDBRANCH  56  59
ENDBRANCH  52  55
ENDBRANCH  49  52
ENDBRANCH  46  49
ENDBRANCH   1  46
TORSDOF 17
ENDMDL
MODEL 6
REMARK VINA RESULT:     -12.3      6.133     10.679
REMARK SMILES NS(=O)(=O)c1ccc(N2N=C(C(=O)NCCCCCCNC(=O)c3ccc(-c4c5nc(c(-c6c(F)c(F)c(F)c(F)c6F)c6ccc([nH]6)c(-c6c(F)c(F)c(F)c(F)c6F)c6nc(c(-c7c(F)c(F)c(F)c(F)c7F)c7ccc4[nH]7)C=C6)C=C5)cc3)C[C@H]2c2ccco2)cc1
REMARK SMILES IDX 17 1 16 4 15 7 14 10 12 11 13 12 11 14 9 15 10 16 88 17
REMARK SMILES IDX 87 18 8 22 5 23 6 24 95 25 7 26 94 28 2 32 3 33 4 34 1 35
REMARK SMILES IDX 89 38 90 39 93 40 91 41 92 43 18 46 19 49 20 52 21 55 22 56
REMARK SMILES IDX 23 58 24 59 25 60 86 61 26 62 85 64 27 66 28 69 29 70 79 71
REMARK SMILES IDX 30 72 84 73 78 74 80 75 31 76 83 77 77 79 76 81 32 83 64 86
REMARK SMILES IDX 44 87 63 88 45 89 48 90 62 91 81 92 46 93 47 95 61 97 82 98
REMARK SMILES IDX 49 101 33 103 34 104 42 105 35 106 36 107 40 108 43 109
REMARK SMILES IDX 37 110 38 111 41 112 39 113 65 114 66 115 74 116 67 117
REMARK SMILES IDX 68 118 72 119 75 120 69 121 70 122 73 123 71 124 50 125
REMARK SMILES IDX 51 126 59 127 52 128 53 129 57 130 60 131 54 132 55 133
REMARK SMILES IDX 58 134 56 135
REMARK H PARENT 17 2 17 3 16 5 16 6 15 8 15 9 14 13 88 19 87 20 87 21 6 27
REMARK H PARENT 95 29 7 30 94 31 1 36 1 37 90 42 91 44 92 45 18 47 18 48 19 50
REMARK H PARENT 19 51 20 53 20 54 21 57 25 63 86 65 26 67 85 68 84 78 78 80
REMARK H PARENT 80 82 83 84 77 85 45 94 48 96 81 99 46 100 82 102
REMARK Flexibility Score: inf
ROOT
ATOM      1  C   UNL A   1      35.296  33.943  28.993  1.00  0.00    -0.052 C 
ATOM      2  H   UNL A   1      36.116  33.547  28.430  1.00  0.00     0.027 H 
ATOM      3  H   UNL A   1      35.601  34.450  29.885  1.00  0.00     0.027 H 
ENDROOT
BRANCH   1   4
ATOM      4  C   UNL A   1      34.417  32.774  29.441  1.00  0.00    -0.036 C 
ATOM      5  H   UNL A   1      34.894  32.292  30.269  1.00  0.00     0.028 H 
ATOM      6  H   UNL A   1      33.462  33.184  29.699  1.00  0.00     0.028 H 
BRANCH   4   7
ATOM      7  C   UNL A   1      34.174  31.734  28.354  1.00  0.00     0.018 C 
ATOM      8  H   UNL A   1      33.316  31.149  28.615  1.00  0.00     0.049 H 
ATOM      9  H   UNL A   1      34.013  32.242  27.427  1.00  0.00     0.049 H 
BRANCH   7  10
ATOM     10  N   UNL A   1      35.316  30.856  28.207  1.00  0.00    -0.351 N 
ATOM     11  C   UNL A   1      35.531  29.668  27.558  1.00  0.00     0.267 C 
ATOM     12  O   UNL A   1      36.619  29.122  27.721  1.00  0.00    -0.268 OA
ATOM     13  H   UNL A   1      36.115  31.185  28.678  1.00  0.00     0.163 HD
BRANCH  11  14
ATOM     14  C   UNL A   1      34.525  29.024  26.616  1.00  0.00     0.128 C 
ATOM     15  N   UNL A   1      32.732  28.811  25.491  1.00  0.00    -0.254 N 
ATOM     16  N   UNL A   1      33.534  29.705  26.123  1.00  0.00    -0.171 NA
ATOM     17  C   UNL A   1      33.295  27.464  25.387  1.00  0.00     0.116 C 
ATOM     18  C   UNL A   1      34.571  27.588  26.217  1.00  0.00     0.027 C 
ATOM     19  H   UNL A   1      33.433  27.199  24.359  1.00  0.00     0.064 H 
ATOM     20  H   UNL A   1      34.546  26.944  27.072  1.00  0.00     0.036 H 
ATOM     21  H   UNL A   1      35.462  27.307  25.695  1.00  0.00     0.036 H 
BRANCH  15  22
ATOM     22  C   UNL A   1      31.669  29.240  24.711  1.00  0.00     0.060 A 
ATOM     23  C   UNL A   1      29.438  30.088  23.241  1.00  0.00     0.082 A 
ATOM     24  C   UNL A   1      30.136  28.944  22.844  1.00  0.00    -0.040 A 
ATOM     25  C   UNL A   1      29.870  30.841  24.330  1.00  0.00    -0.040 A 
ATOM     26  C   UNL A   1      31.253  28.531  23.578  1.00  0.00    -0.035 A 
ATOM     27  H   UNL A   1      29.832  28.410  22.015  1.00  0.00     0.064 H 
ATOM     28  C   UNL A   1      30.983  30.414  25.051  1.00  0.00    -0.035 A 
ATOM     29  H   UNL A   1      29.372  31.704  24.599  1.00  0.00     0.064 H 
ATOM     30  H   UNL A   1      31.776  27.692  23.282  1.00  0.00     0.065 H 
ATOM     31  H   UNL A   1      31.310  30.976  25.853  1.00  0.00     0.065 H 
BRANCH  23  32
ATOM     32  S   UNL A   1      28.021  30.614  22.330  1.00  0.00     0.238 S 
ATOM     33  O   UNL A   1      28.241  30.385  20.922  1.00  0.00    -0.207 OA
ATOM     34  O   UNL A   1      27.557  31.880  22.850  1.00  0.00    -0.207 OA
BRANCH  32  35
ATOM     35  N   UNL A   1      26.872  29.484  22.810  1.00  0.00    -0.225 NA
ATOM     36  H   UNL A   1      26.765  28.778  22.082  1.00  0.00     0.137 HD
ATOM     37  H   UNL A   1      25.979  29.952  22.963  1.00  0.00     0.137 HD
ENDBRANCH  32  35
ENDBRANCH  23  32
ENDBRANCH  15  22
BRANCH  17  38
ATOM     38  C   UNL A   1      32.436  26.309  25.812  1.00  0.00     0.128 A 
ATOM     39  C   UNL A   1      31.090  26.206  26.113  1.00  0.00    -0.018 A 
ATOM     40  O   UNL A   1      33.025  25.083  25.956  1.00  0.00    -0.467 OA
ATOM     41  C   UNL A   1      30.860  24.862  26.491  1.00  0.00    -0.023 A 
ATOM     42  H   UNL A   1      30.389  26.962  26.069  1.00  0.00     0.066 H 
ATOM     43  C   UNL A   1      32.065  24.216  26.361  1.00  0.00     0.091 A 
ATOM     44  H   UNL A   1      29.966  24.450  26.803  1.00  0.00     0.066 H 
ATOM     45  H   UNL A   1      32.218  23.212  26.545  1.00  0.00     0.104 H 
ENDBRANCH  17  38
ENDBRANCH  11  14
ENDBRANCH   7  10
ENDBRANCH   4   7
ENDBRANCH   1   4
BRANCH   1  46
ATOM     46  C   UNL A   1      34.584  34.988  28.125  1.00  0.00    -0.052 C 
ATOM     47  H   UNL A   1      34.331  34.529  27.193  1.00  0.00     0.027 H 
ATOM     48  H   UNL A   1      35.266  35.807  28.025  1.00  0.00     0.027 H 
BRANCH  46  49
ATOM     49  C   UNL A   1      33.304  35.572  28.731  1.00  0.00    -0.036 C 
ATOM     50  H   UNL A   1      32.697  34.761  29.076  1.00  0.00     0.028 H 
ATOM     51  H   UNL A   1      32.836  36.145  27.958  1.00  0.00     0.028 H 
BRANCH  49  52
ATOM     52  C   UNL A   1      33.538  36.523  29.897  1.00  0.00     0.018 C 
ATOM     53  H   UNL A   1      33.536  37.529  29.529  1.00  0.00     0.049 H 
ATOM     54  H   UNL A   1      34.479  36.277  30.342  1.00  0.00     0.049 H 
BRANCH  52  55
ATOM     55  N   UNL A   1      32.510  36.394  30.916  1.00  0.00    -0.352 N 
ATOM     56  C   UNL A   1      32.495  35.610  32.041  1.00  0.00     0.251 C 
ATOM     57  H   UNL A   1      31.709  36.951  30.780  1.00  0.00     0.163 HD
ATOM     58  O   UNL A   1      31.457  35.461  32.677  1.00  0.00    -0.269 OA
BRANCH  56  59
ATOM     59  C   UNL A   1      33.732  34.930  32.477  1.00  0.00     0.039 A 
ATOM     60  C   UNL A   1      33.644  33.634  32.990  1.00  0.00    -0.049 A 
ATOM     61  C   UNL A   1      34.971  35.571  32.391  1.00  0.00    -0.049 A 
ATOM     62  C   UNL A   1      34.807  32.961  33.365  1.00  0.00    -0.053 A 
ATOM     63  H   UNL A   1      32.724  33.177  33.089  1.00  0.00     0.063 H 
ATOM     64  C   UNL A   1      36.135  34.871  32.688  1.00  0.00    -0.053 A 
ATOM     65  H   UNL A   1      35.022  36.562  32.107  1.00  0.00     0.063 H 
ATOM     66  C   UNL A   1      36.065  33.561  33.187  1.00  0.00    -0.014 A 
ATOM     67  H   UNL A   1      34.742  32.017  33.778  1.00  0.00     0.063 H 
ATOM     68  H   UNL A   1      37.054  35.316  32.542  1.00  0.00     0.063 H 
BRANCH  66  69
ATOM     69  C   UNL A   1      37.316  32.834  33.521  1.00  0.00     0.031 A 
ATOM     70  C   UNL A   1      38.058  33.148  34.790  1.00  0.00     0.074 A 
ATOM     71  C   UNL A   1      37.810  31.929  32.655  1.00  0.00     0.049 A 
ATOM     72  N   UNL A   1      39.193  32.664  35.228  1.00  0.00    -0.248 NA
ATOM     73  C   UNL A   1      37.461  34.164  35.672  1.00  0.00    -0.034 C 
ATOM     74  C   UNL A   1      37.204  31.569  31.371  1.00  0.00    -0.036 A 
ATOM     75  N   UNL A   1      38.940  31.153  32.717  1.00  0.00    -0.354 N 
ATOM     76  C   UNL A   1      39.447  33.319  36.426  1.00  0.00     0.074 A 
ATOM     77  C   UNL A   1      38.383  34.280  36.615  1.00  0.00    -0.034 C 
ATOM     78  H   UNL A   1      36.559  34.656  35.580  1.00  0.00     0.065 H 
ATOM     79  C   UNL A   1      37.952  30.624  30.781  1.00  0.00    -0.036 A 
ATOM     80  H   UNL A   1      36.339  31.976  30.983  1.00  0.00     0.065 H 
ATOM     81  C   UNL A   1      39.115  30.345  31.620  1.00  0.00     0.049 A 
ATOM     82  H   UNL A   1      39.567  31.173  33.475  1.00  0.00     0.167 HD
ATOM     83  C   UNL A   1      40.463  33.119  37.299  1.00  0.00     0.037 A 
ATOM     84  H   UNL A   1      38.347  34.967  37.385  1.00  0.00     0.065 H 
ATOM     85  H   UNL A   1      37.741  30.169  29.880  1.00  0.00     0.065 H 
ATOM     86  C   UNL A   1      40.105  29.484  31.318  1.00  0.00     0.037 A 
ATOM     87  C   UNL A   1      41.511  32.150  37.110  1.00  0.00     0.049 A 
ATOM     88  C   UNL A   1      41.237  29.300  32.295  1.00  0.00     0.074 A 
ATOM     89  C   UNL A   1      42.555  31.833  37.960  1.00  0.00    -0.036 A 
ATOM     90  N   UNL A   1      41.652  31.347  35.988  1.00  0.00    -0.354 N 
ATOM     91  N   UNL A   1      41.430  29.874  33.458  1.00  0.00    -0.248 NA
ATOM     92  C   UNL A   1      42.285  28.342  31.919  1.00  0.00    -0.034 C 
ATOM     93  C   UNL A   1      43.363  30.884  37.326  1.00  0.00    -0.036 A 
ATOM     94  H   UNL A   1      42.711  32.228  38.902  1.00  0.00     0.065 H 
ATOM     95  C   UNL A   1      42.784  30.556  36.110  1.00  0.00     0.049 A 
ATOM     96  H   UNL A   1      41.039  31.339  35.218  1.00  0.00     0.167 HD
ATOM     97  C   UNL A   1      42.598  29.324  33.966  1.00  0.00     0.074 A 
ATOM     98  C   UNL A   1      43.062  28.358  32.992  1.00  0.00    -0.034 C 
ATOM     99  H   UNL A   1      42.388  27.798  31.049  1.00  0.00     0.065 H 
ATOM    100  H   UNL A   1      44.243  30.494  37.700  1.00  0.00     0.065 H 
ATOM    101  C   UNL A   1      43.231  29.593  35.136  1.00  0.00     0.037 A 
ATOM    102  H   UNL A   1      43.894  27.760  33.118  1.00  0.00     0.065 H 
BRANCH  83 103
ATOM    103  C   UNL A   1      40.493  33.968  38.538  1.00  0.00     0.064 A 
ATOM    104  C   UNL A   1      41.201  35.180  38.590  1.00  0.00     0.173 A 
ATOM    105  C   UNL A   1      39.772  33.585  39.680  1.00  0.00     0.173 A 
ATOM    106  F   UNL A   1      41.915  35.590  37.530  1.00  0.00    -0.203 F 
ATOM    107  C   UNL A   1      41.213  35.956  39.745  1.00  0.00     0.198 A 
ATOM    108  C   UNL A   1      39.757  34.383  40.822  1.00  0.00     0.198 A 
ATOM    109  F   UNL A   1      39.072  32.440  39.687  1.00  0.00    -0.203 F 
ATOM    110  F   UNL A   1      41.942  37.080  39.787  1.00  0.00    -0.200 F 
ATOM    111  C   UNL A   1      40.485  35.562  40.856  1.00  0.00     0.200 A 
ATOM    112  F   UNL A   1      39.039  34.007  41.890  1.00  0.00    -0.200 F 
ATOM    113  F   UNL A   1      40.490  36.315  41.966  1.00  0.00    -0.200 F 
ENDBRANCH  83 103
BRANCH  86 114
ATOM    114  C   UNL A   1      40.066  28.718  30.044  1.00  0.00     0.064 A 
ATOM    115  C   UNL A   1      39.457  27.456  29.978  1.00  0.00     0.173 A 
ATOM    116  C   UNL A   1      40.644  29.224  28.871  1.00  0.00     0.173 A 
ATOM    117  F   UNL A   1      38.907  26.920  31.077  1.00  0.00    -0.203 F 
ATOM    118  C   UNL A   1      39.454  26.719  28.796  1.00  0.00     0.198 A 
ATOM    119  C   UNL A   1      40.610  28.501  27.680  1.00  0.00     0.198 A 
ATOM    120  F   UNL A   1      41.233  30.429  28.876  1.00  0.00    -0.203 F 
ATOM    121  F   UNL A   1      38.915  25.493  28.775  1.00  0.00    -0.200 F 
ATOM    122  C   UNL A   1      40.025  27.244  27.646  1.00  0.00     0.200 A 
ATOM    123  F   UNL A   1      41.147  29.021  26.568  1.00  0.00    -0.200 F 
ATOM    124  F   UNL A   1      40.019  26.536  26.508  1.00  0.00    -0.200 F 
ENDBRANCH  86 114
BRANCH 101 125
ATOM    125  C   UNL A   1      44.469  28.803  35.449  1.00  0.00     0.064 A 
ATOM    126  C   UNL A   1      45.748  29.252  35.086  1.00  0.00     0.173 A 
ATOM    127  C   UNL A   1      44.377  27.596  36.161  1.00  0.00     0.173 A 
ATOM    128  F   UNL A   1      45.891  30.392  34.393  1.00  0.00    -0.203 F 
ATOM    129  C   UNL A   1      46.883  28.507  35.396  1.00  0.00     0.198 A 
ATOM    130  C   UNL A   1      45.517  26.874  36.501  1.00  0.00     0.198 A 
ATOM    131  F   UNL A   1      43.181  27.125  36.541  1.00  0.00    -0.203 F 
ATOM    132  F   UNL A   1      48.089  28.929  34.989  1.00  0.00    -0.200 F 
ATOM    133  C   UNL A   1      46.768  27.325  36.110  1.00  0.00     0.200 A 
ATOM    134  F   UNL A   1      45.404  25.741  37.208  1.00  0.00    -0.200 F 
ATOM    135  F   UNL A   1      47.863  26.616  36.416  1.00  0.00    -0.200 F 
ENDBRANCH 101 125
ENDBRANCH  66  69
ENDBRANCH  56  59
ENDBRANCH  52  55
ENDBRANCH  49  52
ENDBRANCH  46  49
ENDBRANCH   1  46
TORSDOF 17
ENDMDL
MODEL 7
REMARK VINA RESULT:     -12.2      4.482     10.334
REMARK SMILES NS(=O)(=O)c1ccc(N2N=C(C(=O)NCCCCCCNC(=O)c3ccc(-c4c5nc(c(-c6c(F)c(F)c(F)c(F)c6F)c6ccc([nH]6)c(-c6c(F)c(F)c(F)c(F)c6F)c6nc(c(-c7c(F)c(F)c(F)c(F)c7F)c7ccc4[nH]7)C=C6)C=C5)cc3)C[C@H]2c2ccco2)cc1
REMARK SMILES IDX 17 1 16 4 15 7 14 10 12 11 13 12 11 14 9 15 10 16 88 17
REMARK SMILES IDX 87 18 8 22 5 23 6 24 95 25 7 26 94 28 2 32 3 33 4 34 1 35
REMARK SMILES IDX 89 38 90 39 93 40 91 41 92 43 18 46 19 49 20 52 21 55 22 56
REMARK SMILES IDX 23 58 24 59 25 60 86 61 26 62 85 64 27 66 28 69 29 70 79 71
REMARK SMILES IDX 30 72 84 73 78 74 80 75 31 76 83 77 77 79 76 81 32 83 64 86
REMARK SMILES IDX 44 87 63 88 45 89 48 90 62 91 81 92 46 93 47 95 61 97 82 98
REMARK SMILES IDX 49 101 33 103 34 104 42 105 35 106 36 107 40 108 43 109
REMARK SMILES IDX 37 110 38 111 41 112 39 113 65 114 66 115 74 116 67 117
REMARK SMILES IDX 68 118 72 119 75 120 69 121 70 122 73 123 71 124 50 125
REMARK SMILES IDX 51 126 59 127 52 128 53 129 57 130 60 131 54 132 55 133
REMARK SMILES IDX 58 134 56 135
REMARK H PARENT 17 2 17 3 16 5 16 6 15 8 15 9 14 13 88 19 87 20 87 21 6 27
REMARK H PARENT 95 29 7 30 94 31 1 36 1 37 90 42 91 44 92 45 18 47 18 48 19 50
REMARK H PARENT 19 51 20 53 20 54 21 57 25 63 86 65 26 67 85 68 84 78 78 80
REMARK H PARENT 80 82 83 84 77 85 45 94 48 96 81 99 46 100 82 102
REMARK Flexibility Score: inf
ROOT
ATOM      1  C   UNL A   1      30.831  26.633  25.691  1.00  0.00    -0.052 C 
ATOM      2  H   UNL A   1      31.377  25.713  25.651  1.00  0.00     0.027 H 
ATOM      3  H   UNL A   1      29.988  26.595  26.348  1.00  0.00     0.027 H 
ENDROOT
BRANCH   1   4
ATOM      4  C   UNL A   1      30.276  26.918  24.294  1.00  0.00    -0.036 C 
ATOM      5  H   UNL A   1      29.231  27.131  24.383  1.00  0.00     0.028 H 
ATOM      6  H   UNL A   1      30.833  27.743  23.901  1.00  0.00     0.028 H 
BRANCH   4   7
ATOM      7  C   UNL A   1      30.448  25.762  23.315  1.00  0.00     0.018 C 
ATOM      8  H   UNL A   1      30.590  24.855  23.865  1.00  0.00     0.049 H 
ATOM      9  H   UNL A   1      29.571  25.699  22.706  1.00  0.00     0.049 H 
BRANCH   7  10
ATOM     10  N   UNL A   1      31.592  25.975  22.454  1.00  0.00    -0.351 N 
ATOM     11  C   UNL A   1      32.898  25.556  22.477  1.00  0.00     0.267 C 
ATOM     12  O   UNL A   1      33.655  26.012  21.624  1.00  0.00    -0.268 OA
ATOM     13  H   UNL A   1      31.388  26.546  21.679  1.00  0.00     0.163 HD
BRANCH  11  14
ATOM     14  C   UNL A   1      33.440  24.531  23.462  1.00  0.00     0.128 C 
ATOM     15  N   UNL A   1      34.851  23.227  24.377  1.00  0.00    -0.254 N 
ATOM     16  N   UNL A   1      34.716  24.311  23.569  1.00  0.00    -0.171 NA
ATOM     17  C   UNL A   1      33.605  22.787  25.007  1.00  0.00     0.116 C 
ATOM     18  C   UNL A   1      32.572  23.691  24.338  1.00  0.00     0.027 C 
ATOM     19  H   UNL A   1      33.678  22.873  26.071  1.00  0.00     0.064 H 
ATOM     20  H   UNL A   1      31.869  23.125  23.764  1.00  0.00     0.036 H 
ATOM     21  H   UNL A   1      31.971  24.251  25.024  1.00  0.00     0.036 H 
BRANCH  15  22
ATOM     22  C   UNL A   1      36.100  22.833  24.831  1.00  0.00     0.060 A 
ATOM     23  C   UNL A   1      38.565  21.940  25.823  1.00  0.00     0.082 A 
ATOM     24  C   UNL A   1      38.128  23.235  26.114  1.00  0.00    -0.040 A 
ATOM     25  C   UNL A   1      37.811  21.104  25.000  1.00  0.00    -0.040 A 
ATOM     26  C   UNL A   1      36.900  23.677  25.610  1.00  0.00    -0.035 A 
ATOM     27  H   UNL A   1      38.708  23.861  26.695  1.00  0.00     0.064 H 
ATOM     28  C   UNL A   1      36.590  21.560  24.508  1.00  0.00    -0.035 A 
ATOM     29  H   UNL A   1      38.153  20.161  24.759  1.00  0.00     0.064 H 
ATOM     30  H   UNL A   1      36.580  24.636  25.816  1.00  0.00     0.065 H 
ATOM     31  H   UNL A   1      36.035  20.946  23.892  1.00  0.00     0.065 H 
BRANCH  23  32
ATOM     32  S   UNL A   1      40.107  21.366  26.461  1.00  0.00     0.238 S 
ATOM     33  O   UNL A   1      40.271  19.968  26.140  1.00  0.00    -0.207 OA
ATOM     34  O   UNL A   1      40.301  21.886  27.795  1.00  0.00    -0.207 OA
BRANCH  32  35
ATOM     35  N   UNL A   1      41.203  22.195  25.493  1.00  0.00    -0.225 NA
ATOM     36  H   UNL A   1      41.451  21.618  24.689  1.00  0.00     0.137 HD
ATOM     37  H   UNL A   1      42.042  22.405  26.032  1.00  0.00     0.137 HD
ENDBRANCH  32  35
ENDBRANCH  23  32
ENDBRANCH  15  22
BRANCH  17  38
ATOM     38  C   UNL A   1      33.248  21.331  24.914  1.00  0.00     0.128 A 
ATOM     39  C   UNL A   1      33.313  20.293  25.825  1.00  0.00    -0.018 A 
ATOM     40  O   UNL A   1      32.758  20.860  23.728  1.00  0.00    -0.467 OA
ATOM     41  C   UNL A   1      32.874  19.130  25.148  1.00  0.00    -0.023 A 
ATOM     42  H   UNL A   1      33.620  20.354  26.808  1.00  0.00     0.066 H 
ATOM     43  C   UNL A   1      32.531  19.533  23.880  1.00  0.00     0.091 A 
ATOM     44  H   UNL A   1      32.824  18.173  25.529  1.00  0.00     0.066 H 
ATOM     45  H   UNL A   1      32.153  18.912  23.147  1.00  0.00     0.104 H 
ENDBRANCH  17  38
ENDBRANCH  11  14
ENDBRANCH   7  10
ENDBRANCH   4   7
ENDBRANCH   1   4
BRANCH   1  46
ATOM     46  C   UNL A   1      31.763  27.716  26.248  1.00  0.00    -0.052 C 
ATOM     47  H   UNL A   1      31.688  27.701  27.315  1.00  0.00     0.027 H 
ATOM     48  H   UNL A   1      31.441  28.639  25.812  1.00  0.00     0.027 H 
BRANCH  46  49
ATOM     49  C   UNL A   1      33.239  27.558  25.873  1.00  0.00    -0.036 C 
ATOM     50  H   UNL A   1      33.315  26.793  25.128  1.00  0.00     0.028 H 
ATOM     51  H   UNL A   1      33.758  27.314  26.776  1.00  0.00     0.028 H 
BRANCH  49  52
ATOM     52  C   UNL A   1      33.887  28.823  25.326  1.00  0.00     0.018 C 
ATOM     53  H   UNL A   1      33.838  28.803  24.257  1.00  0.00     0.049 H 
ATOM     54  H   UNL A   1      34.903  28.847  25.664  1.00  0.00     0.049 H 
BRANCH  52  55
ATOM     55  N   UNL A   1      33.224  30.024  25.805  1.00  0.00    -0.352 N 
ATOM     56  C   UNL A   1      33.536  30.820  26.876  1.00  0.00     0.251 C 
ATOM     57  H   UNL A   1      32.437  30.306  25.285  1.00  0.00     0.163 HD
ATOM     58  O   UNL A   1      32.742  31.671  27.266  1.00  0.00    -0.269 OA
BRANCH  56  59
ATOM     59  C   UNL A   1      34.826  30.640  27.573  1.00  0.00     0.039 A 
ATOM     60  C   UNL A   1      35.690  31.732  27.684  1.00  0.00    -0.049 A 
ATOM     61  C   UNL A   1      35.187  29.399  28.103  1.00  0.00    -0.049 A 
ATOM     62  C   UNL A   1      36.893  31.590  28.377  1.00  0.00    -0.053 A 
ATOM     63  H   UNL A   1      35.440  32.637  27.258  1.00  0.00     0.063 H 
ATOM     64  C   UNL A   1      36.345  29.281  28.863  1.00  0.00    -0.053 A 
ATOM     65  H   UNL A   1      34.594  28.571  27.933  1.00  0.00     0.063 H 
ATOM     66  C   UNL A   1      37.216  30.373  29.000  1.00  0.00    -0.014 A 
ATOM     67  H   UNL A   1      37.550  32.384  28.431  1.00  0.00     0.063 H 
ATOM     68  H   UNL A   1      36.567  28.386  29.327  1.00  0.00     0.063 H 
BRANCH  66  69
ATOM     69  C   UNL A   1      38.461  30.225  29.796  1.00  0.00     0.031 A 
ATOM     70  C   UNL A   1      39.626  29.453  29.242  1.00  0.00     0.074 A 
ATOM     71  C   UNL A   1      38.521  30.741  31.039  1.00  0.00     0.049 A 
ATOM     72  N   UNL A   1      40.773  29.166  29.805  1.00  0.00    -0.248 NA
ATOM     73  C   UNL A   1      39.472  28.905  27.885  1.00  0.00    -0.034 C 
ATOM     74  C   UNL A   1      37.440  31.473  31.702  1.00  0.00    -0.036 A 
ATOM     75  N   UNL A   1      39.529  30.722  31.969  1.00  0.00    -0.354 N 
ATOM     76  C   UNL A   1      41.468  28.401  28.878  1.00  0.00     0.074 A 
ATOM     77  C   UNL A   1      40.592  28.214  27.743  1.00  0.00    -0.034 C 
ATOM     78  H   UNL A   1      38.693  29.027  27.219  1.00  0.00     0.065 H 
ATOM     79  C   UNL A   1      37.853  31.857  32.921  1.00  0.00    -0.036 A 
ATOM     80  H   UNL A   1      36.511  31.664  31.298  1.00  0.00     0.065 H 
ATOM     81  C   UNL A   1      39.207  31.359  33.143  1.00  0.00     0.049 A 
ATOM     82  H   UNL A   1      40.401  30.292  31.811  1.00  0.00     0.167 HD
ATOM     83  C   UNL A   1      42.732  27.919  28.957  1.00  0.00     0.037 A 
ATOM     84  H   UNL A   1      40.812  27.620  26.927  1.00  0.00     0.065 H 
ATOM     85  H   UNL A   1      37.302  32.413  33.592  1.00  0.00     0.065 H 
ATOM     86  C   UNL A   1      39.920  31.514  34.276  1.00  0.00     0.037 A 
ATOM     87  C   UNL A   1      43.604  28.123  30.085  1.00  0.00     0.049 A 
ATOM     88  C   UNL A   1      41.313  30.946  34.347  1.00  0.00     0.074 A 
ATOM     89  C   UNL A   1      44.918  27.722  30.242  1.00  0.00    -0.036 A 
ATOM     90  N   UNL A   1      43.243  28.777  31.254  1.00  0.00    -0.354 N 
ATOM     91  N   UNL A   1      41.986  30.285  33.437  1.00  0.00    -0.248 NA
ATOM     92  C   UNL A   1      42.047  31.153  35.603  1.00  0.00    -0.034 C 
ATOM     93  C   UNL A   1      45.334  28.078  31.529  1.00  0.00    -0.036 A 
ATOM     94  H   UNL A   1      45.495  27.244  29.530  1.00  0.00     0.065 H 
ATOM     95  C   UNL A   1      44.302  28.763  32.149  1.00  0.00     0.049 A 
ATOM     96  H   UNL A   1      42.366  29.189  31.425  1.00  0.00     0.167 HD
ATOM     97  C   UNL A   1      43.231  30.027  33.995  1.00  0.00     0.074 A 
ATOM     98  C   UNL A   1      43.225  30.618  35.317  1.00  0.00    -0.034 C 
ATOM     99  H   UNL A   1      41.729  31.599  36.477  1.00  0.00     0.065 H 
ATOM    100  H   UNL A   1      46.254  27.865  31.946  1.00  0.00     0.065 H 
ATOM    101  C   UNL A   1      44.285  29.362  33.460  1.00  0.00     0.037 A 
ATOM    102  H   UNL A   1      44.035  30.620  35.956  1.00  0.00     0.065 H 
BRANCH  83 103
ATOM    103  C   UNL A   1      43.248  27.122  27.793  1.00  0.00     0.064 A 
ATOM    104  C   UNL A   1      43.931  27.727  26.726  1.00  0.00     0.173 A 
ATOM    105  C   UNL A   1      43.090  25.728  27.761  1.00  0.00     0.173 A 
ATOM    106  F   UNL A   1      44.101  29.058  26.701  1.00  0.00    -0.203 F 
ATOM    107  C   UNL A   1      44.407  26.972  25.657  1.00  0.00     0.198 A 
ATOM    108  C   UNL A   1      43.601  24.971  26.708  1.00  0.00     0.198 A 
ATOM    109  F   UNL A   1      42.451  25.094  28.756  1.00  0.00    -0.203 F 
ATOM    110  F   UNL A   1      45.007  27.580  24.624  1.00  0.00    -0.200 F 
ATOM    111  C   UNL A   1      44.249  25.595  25.653  1.00  0.00     0.200 A 
ATOM    112  F   UNL A   1      43.461  23.638  26.714  1.00  0.00    -0.200 F 
ATOM    113  F   UNL A   1      44.716  24.868  24.628  1.00  0.00    -0.200 F 
ENDBRANCH  83 103
BRANCH  86 114
ATOM    114  C   UNL A   1      39.337  32.251  35.428  1.00  0.00     0.064 A 
ATOM    115  C   UNL A   1      39.565  33.625  35.597  1.00  0.00     0.173 A 
ATOM    116  C   UNL A   1      38.551  31.599  36.389  1.00  0.00     0.173 A 
ATOM    117  F   UNL A   1      40.326  34.291  34.715  1.00  0.00    -0.203 F 
ATOM    118  C   UNL A   1      39.054  34.310  36.696  1.00  0.00     0.198 A 
ATOM    119  C   UNL A   1      38.011  32.293  37.471  1.00  0.00     0.198 A 
ATOM    120  F   UNL A   1      38.296  30.288  36.273  1.00  0.00    -0.203 F 
ATOM    121  F   UNL A   1      39.334  35.610  36.863  1.00  0.00    -0.200 F 
ATOM    122  C   UNL A   1      38.272  33.645  37.629  1.00  0.00     0.200 A 
ATOM    123  F   UNL A   1      37.242  31.650  38.359  1.00  0.00    -0.200 F 
ATOM    124  F   UNL A   1      37.778  34.306  38.686  1.00  0.00    -0.200 F 
ENDBRANCH  86 114
BRANCH 101 125
ATOM    125  C   UNL A   1      45.537  29.274  34.286  1.00  0.00     0.064 A 
ATOM    126  C   UNL A   1      45.757  28.224  35.191  1.00  0.00     0.173 A 
ATOM    127  C   UNL A   1      46.551  30.234  34.138  1.00  0.00     0.173 A 
ATOM    128  F   UNL A   1      44.815  27.288  35.380  1.00  0.00    -0.203 F 
ATOM    129  C   UNL A   1      46.930  28.158  35.939  1.00  0.00     0.198 A 
ATOM    130  C   UNL A   1      47.737  30.144  34.861  1.00  0.00     0.198 A 
ATOM    131  F   UNL A   1      46.397  31.254  33.281  1.00  0.00    -0.203 F 
ATOM    132  F   UNL A   1      47.093  27.177  36.838  1.00  0.00    -0.200 F 
ATOM    133  C   UNL A   1      47.922  29.112  35.767  1.00  0.00     0.200 A 
ATOM    134  F   UNL A   1      48.702  31.056  34.678  1.00  0.00    -0.200 F 
ATOM    135  F   UNL A   1      49.053  29.039  36.480  1.00  0.00    -0.200 F 
ENDBRANCH 101 125
ENDBRANCH  66  69
ENDBRANCH  56  59
ENDBRANCH  52  55
ENDBRANCH  49  52
ENDBRANCH  46  49
ENDBRANCH   1  46
TORSDOF 17
ENDMDL
MODEL 8
REMARK VINA RESULT:     -12.2      1.929      7.537
REMARK SMILES NS(=O)(=O)c1ccc(N2N=C(C(=O)NCCCCCCNC(=O)c3ccc(-c4c5nc(c(-c6c(F)c(F)c(F)c(F)c6F)c6ccc([nH]6)c(-c6c(F)c(F)c(F)c(F)c6F)c6nc(c(-c7c(F)c(F)c(F)c(F)c7F)c7ccc4[nH]7)C=C6)C=C5)cc3)C[C@H]2c2ccco2)cc1
REMARK SMILES IDX 17 1 16 4 15 7 14 10 12 11 13 12 11 14 9 15 10 16 88 17
REMARK SMILES IDX 87 18 8 22 5 23 6 24 95 25 7 26 94 28 2 32 3 33 4 34 1 35
REMARK SMILES IDX 89 38 90 39 93 40 91 41 92 43 18 46 19 49 20 52 21 55 22 56
REMARK SMILES IDX 23 58 24 59 25 60 86 61 26 62 85 64 27 66 28 69 29 70 79 71
REMARK SMILES IDX 30 72 84 73 78 74 80 75 31 76 83 77 77 79 76 81 32 83 64 86
REMARK SMILES IDX 44 87 63 88 45 89 48 90 62 91 81 92 46 93 47 95 61 97 82 98
REMARK SMILES IDX 49 101 33 103 34 104 42 105 35 106 36 107 40 108 43 109
REMARK SMILES IDX 37 110 38 111 41 112 39 113 65 114 66 115 74 116 67 117
REMARK SMILES IDX 68 118 72 119 75 120 69 121 70 122 73 123 71 124 50 125
REMARK SMILES IDX 51 126 59 127 52 128 53 129 57 130 60 131 54 132 55 133
REMARK SMILES IDX 58 134 56 135
REMARK H PARENT 17 2 17 3 16 5 16 6 15 8 15 9 14 13 88 19 87 20 87 21 6 27
REMARK H PARENT 95 29 7 30 94 31 1 36 1 37 90 42 91 44 92 45 18 47 18 48 19 50
REMARK H PARENT 19 51 20 53 20 54 21 57 25 63 86 65 26 67 85 68 84 78 78 80
REMARK H PARENT 80 82 83 84 77 85 45 94 48 96 81 99 46 100 82 102
REMARK Flexibility Score: inf
ROOT
ATOM      1  C   UNL A   1      35.602  20.593  24.962  1.00  0.00    -0.052 C 
ATOM      2  H   UNL A   1      35.089  20.604  24.022  1.00  0.00     0.027 H 
ATOM      3  H   UNL A   1      35.648  19.621  25.406  1.00  0.00     0.027 H 
ENDROOT
BRANCH   1   4
ATOM      4  C   UNL A   1      34.826  21.477  25.939  1.00  0.00    -0.036 C 
ATOM      5  H   UNL A   1      34.268  20.843  26.597  1.00  0.00     0.028 H 
ATOM      6  H   UNL A   1      35.546  22.075  26.457  1.00  0.00     0.028 H 
BRANCH   4   7
ATOM      7  C   UNL A   1      33.856  22.439  25.263  1.00  0.00     0.018 C 
ATOM      8  H   UNL A   1      34.339  23.386  25.129  1.00  0.00     0.049 H 
ATOM      9  H   UNL A   1      33.571  22.027  24.318  1.00  0.00     0.049 H 
BRANCH   7  10
ATOM     10  N   UNL A   1      32.664  22.626  26.063  1.00  0.00    -0.351 N 
ATOM     11  C   UNL A   1      31.929  23.721  26.442  1.00  0.00     0.267 C 
ATOM     12  O   UNL A   1      31.004  23.537  27.229  1.00  0.00    -0.268 OA
ATOM     13  H   UNL A   1      32.301  21.781  26.413  1.00  0.00     0.163 HD
BRANCH  11  14
ATOM     14  C   UNL A   1      32.164  25.125  25.906  1.00  0.00     0.128 C 
ATOM     15  N   UNL A   1      32.391  27.240  25.946  1.00  0.00    -0.254 N 
ATOM     16  N   UNL A   1      32.425  26.115  26.706  1.00  0.00    -0.171 NA
ATOM     17  C   UNL A   1      32.279  26.992  24.508  1.00  0.00     0.116 C 
ATOM     18  C   UNL A   1      32.083  25.478  24.460  1.00  0.00     0.027 C 
ATOM     19  H   UNL A   1      33.144  27.365  24.000  1.00  0.00     0.064 H 
ATOM     20  H   UNL A   1      31.130  25.220  24.047  1.00  0.00     0.036 H 
ATOM     21  H   UNL A   1      32.792  24.964  23.843  1.00  0.00     0.036 H 
BRANCH  15  22
ATOM     22  C   UNL A   1      32.795  28.459  26.467  1.00  0.00     0.060 A 
ATOM     23  C   UNL A   1      33.576  30.983  27.404  1.00  0.00     0.082 A 
ATOM     24  C   UNL A   1      34.533  29.978  27.238  1.00  0.00    -0.040 A 
ATOM     25  C   UNL A   1      32.229  30.727  27.158  1.00  0.00    -0.040 A 
ATOM     26  C   UNL A   1      34.136  28.718  26.777  1.00  0.00    -0.035 A 
ATOM     27  H   UNL A   1      35.525  30.164  27.456  1.00  0.00     0.064 H 
ATOM     28  C   UNL A   1      31.851  29.468  26.698  1.00  0.00    -0.035 A 
ATOM     29  H   UNL A   1      31.520  31.461  27.315  1.00  0.00     0.064 H 
ATOM     30  H   UNL A   1      34.840  27.973  26.663  1.00  0.00     0.065 H 
ATOM     31  H   UNL A   1      30.852  29.274  26.524  1.00  0.00     0.065 H 
BRANCH  23  32
ATOM     32  S   UNL A   1      34.065  32.580  27.975  1.00  0.00     0.238 S 
ATOM     33  O   UNL A   1      32.974  33.508  27.804  1.00  0.00    -0.207 OA
ATOM     34  O   UNL A   1      35.408  32.864  27.522  1.00  0.00    -0.207 OA
BRANCH  32  35
ATOM     35  N   UNL A   1      34.197  32.320  29.631  1.00  0.00    -0.225 NA
ATOM     36  H   UNL A   1      34.505  31.362  29.802  1.00  0.00     0.137 HD
ATOM     37  H   UNL A   1      33.290  32.468  30.072  1.00  0.00     0.137 HD
ENDBRANCH  32  35
ENDBRANCH  23  32
ENDBRANCH  15  22
BRANCH  17  38
ATOM     38  C   UNL A   1      31.222  27.739  23.747  1.00  0.00     0.128 A 
ATOM     39  C   UNL A   1      29.874  27.504  23.545  1.00  0.00    -0.018 A 
ATOM     40  O   UNL A   1      31.582  28.887  23.097  1.00  0.00    -0.467 OA
ATOM     41  C   UNL A   1      29.403  28.539  22.703  1.00  0.00    -0.023 A 
ATOM     42  H   UNL A   1      29.319  26.725  23.932  1.00  0.00     0.066 H 
ATOM     43  C   UNL A   1      30.477  29.364  22.474  1.00  0.00     0.091 A 
ATOM     44  H   UNL A   1      28.446  28.650  22.333  1.00  0.00     0.066 H 
ATOM     45  H   UNL A   1      30.447  30.227  21.908  1.00  0.00     0.104 H 
ENDBRANCH  17  38
ENDBRANCH  11  14
ENDBRANCH   7  10
ENDBRANCH   4   7
ENDBRANCH   1   4
BRANCH   1  46
ATOM     46  C   UNL A   1      37.053  21.023  24.716  1.00  0.00    -0.052 C 
ATOM     47  H   UNL A   1      37.281  21.821  25.392  1.00  0.00     0.027 H 
ATOM     48  H   UNL A   1      37.109  21.309  23.687  1.00  0.00     0.027 H 
BRANCH  46  49
ATOM     49  C   UNL A   1      38.099  19.922  24.911  1.00  0.00    -0.036 C 
ATOM     50  H   UNL A   1      38.615  19.783  23.984  1.00  0.00     0.028 H 
ATOM     51  H   UNL A   1      37.566  19.049  25.228  1.00  0.00     0.028 H 
BRANCH  49  52
ATOM     52  C   UNL A   1      39.130  20.218  25.992  1.00  0.00     0.018 C 
ATOM     53  H   UNL A   1      38.651  20.175  26.949  1.00  0.00     0.049 H 
ATOM     54  H   UNL A   1      39.534  21.192  25.807  1.00  0.00     0.049 H 
BRANCH  52  55
ATOM     55  N   UNL A   1      40.227  19.265  25.972  1.00  0.00    -0.352 N 
ATOM     56  C   UNL A   1      41.577  19.493  26.022  1.00  0.00     0.251 C 
ATOM     57  H   UNL A   1      39.961  18.318  25.915  1.00  0.00     0.163 HD
ATOM     58  O   UNL A   1      42.367  18.587  25.776  1.00  0.00    -0.269 OA
BRANCH  56  59
ATOM     59  C   UNL A   1      42.082  20.840  26.357  1.00  0.00     0.039 A 
ATOM     60  C   UNL A   1      42.312  21.750  25.323  1.00  0.00    -0.049 A 
ATOM     61  C   UNL A   1      42.338  21.201  27.683  1.00  0.00    -0.049 A 
ATOM     62  C   UNL A   1      42.747  23.041  25.625  1.00  0.00    -0.053 A 
ATOM     63  H   UNL A   1      42.160  21.470  24.341  1.00  0.00     0.063 H 
ATOM     64  C   UNL A   1      42.692  22.510  27.988  1.00  0.00    -0.053 A 
ATOM     65  H   UNL A   1      42.264  20.497  28.434  1.00  0.00     0.063 H 
ATOM     66  C   UNL A   1      42.909  23.442  26.962  1.00  0.00    -0.014 A 
ATOM     67  H   UNL A   1      42.953  23.705  24.862  1.00  0.00     0.063 H 
ATOM     68  H   UNL A   1      42.796  22.798  28.973  1.00  0.00     0.063 H 
BRANCH  66  69
ATOM     69  C   UNL A   1      43.309  24.831  27.304  1.00  0.00     0.031 A 
ATOM     70  C   UNL A   1      44.715  25.298  27.052  1.00  0.00     0.074 A 
ATOM     71  C   UNL A   1      42.417  25.654  27.889  1.00  0.00     0.049 A 
ATOM     72  N   UNL A   1      45.269  26.450  27.333  1.00  0.00    -0.248 NA
ATOM     73  C   UNL A   1      45.632  24.330  26.427  1.00  0.00    -0.034 C 
ATOM     74  C   UNL A   1      41.036  25.303  28.223  1.00  0.00    -0.036 A 
ATOM     75  N   UNL A   1      42.542  26.953  28.315  1.00  0.00    -0.354 N 
ATOM     76  C   UNL A   1      46.593  26.343  26.929  1.00  0.00     0.074 A 
ATOM     77  C   UNL A   1      46.778  24.993  26.443  1.00  0.00    -0.034 C 
ATOM     78  H   UNL A   1      45.433  23.383  26.071  1.00  0.00     0.065 H 
ATOM     79  C   UNL A   1      40.433  26.368  28.775  1.00  0.00    -0.036 A 
ATOM     80  H   UNL A   1      40.596  24.385  28.059  1.00  0.00     0.065 H 
ATOM     81  C   UNL A   1      41.397  27.460  28.879  1.00  0.00     0.049 A 
ATOM     82  H   UNL A   1      43.374  27.472  28.226  1.00  0.00     0.167 HD
ATOM     83  C   UNL A   1      47.560  27.291  26.941  1.00  0.00     0.037 A 
ATOM     84  H   UNL A   1      47.684  24.599  26.145  1.00  0.00     0.065 H 
ATOM     85  H   UNL A   1      39.448  26.408  29.080  1.00  0.00     0.065 H 
ATOM     86  C   UNL A   1      41.153  28.666  29.427  1.00  0.00     0.037 A 
ATOM     87  C   UNL A   1      47.365  28.638  27.412  1.00  0.00     0.049 A 
ATOM     88  C   UNL A   1      42.254  29.694  29.451  1.00  0.00     0.074 A 
ATOM     89  C   UNL A   1      48.264  29.688  27.417  1.00  0.00    -0.036 A 
ATOM     90  N   UNL A   1      46.189  29.115  27.973  1.00  0.00    -0.354 N 
ATOM     91  N   UNL A   1      43.483  29.604  29.001  1.00  0.00    -0.248 NA
ATOM     92  C   UNL A   1      41.930  30.994  30.052  1.00  0.00    -0.034 C 
ATOM     93  C   UNL A   1      47.654  30.784  28.037  1.00  0.00    -0.036 A 
ATOM     94  H   UNL A   1      49.220  29.669  27.029  1.00  0.00     0.065 H 
ATOM     95  C   UNL A   1      46.350  30.438  28.355  1.00  0.00     0.049 A 
ATOM     96  H   UNL A   1      45.362  28.593  28.083  1.00  0.00     0.167 HD
ATOM     97  C   UNL A   1      44.066  30.842  29.234  1.00  0.00     0.074 A 
ATOM     98  C   UNL A   1      43.051  31.671  29.850  1.00  0.00    -0.034 C 
ATOM     99  H   UNL A   1      41.059  31.301  30.511  1.00  0.00     0.065 H 
ATOM    100  H   UNL A   1      48.100  31.695  28.227  1.00  0.00     0.065 H 
ATOM    101  C   UNL A   1      45.329  31.255  28.961  1.00  0.00     0.037 A 
ATOM    102  H   UNL A   1      43.186  32.663  30.101  1.00  0.00     0.065 H 
BRANCH  83 103
ATOM    103  C   UNL A   1      48.920  26.906  26.429  1.00  0.00     0.064 A 
ATOM    104  C   UNL A   1      49.278  27.071  25.082  1.00  0.00     0.173 A 
ATOM    105  C   UNL A   1      49.892  26.401  27.307  1.00  0.00     0.173 A 
ATOM    106  F   UNL A   1      48.385  27.540  24.198  1.00  0.00    -0.203 F 
ATOM    107  C   UNL A   1      50.545  26.713  24.627  1.00  0.00     0.198 A 
ATOM    108  C   UNL A   1      51.170  26.079  26.855  1.00  0.00     0.198 A 
ATOM    109  F   UNL A   1      49.608  26.229  28.607  1.00  0.00    -0.203 F 
ATOM    110  F   UNL A   1      50.844  26.827  23.325  1.00  0.00    -0.200 F 
ATOM    111  C   UNL A   1      51.491  26.227  25.514  1.00  0.00     0.200 A 
ATOM    112  F   UNL A   1      52.089  25.623  27.718  1.00  0.00    -0.200 F 
ATOM    113  F   UNL A   1      52.713  25.891  25.077  1.00  0.00    -0.200 F 
ENDBRANCH  83 103
BRANCH  86 114
ATOM    114  C   UNL A   1      39.809  28.974  29.984  1.00  0.00     0.064 A 
ATOM    115  C   UNL A   1      38.837  29.621  29.208  1.00  0.00     0.173 A 
ATOM    116  C   UNL A   1      39.473  28.642  31.305  1.00  0.00     0.173 A 
ATOM    117  F   UNL A   1      39.116  29.977  27.945  1.00  0.00    -0.203 F 
ATOM    118  C   UNL A   1      37.591  29.947  29.739  1.00  0.00     0.198 A 
ATOM    119  C   UNL A   1      38.215  28.938  31.824  1.00  0.00     0.198 A 
ATOM    120  F   UNL A   1      40.364  28.017  32.089  1.00  0.00    -0.203 F 
ATOM    121  F   UNL A   1      36.701  30.615  28.992  1.00  0.00    -0.200 F 
ATOM    122  C   UNL A   1      37.279  29.600  31.045  1.00  0.00     0.200 A 
ATOM    123  F   UNL A   1      37.912  28.584  33.080  1.00  0.00    -0.200 F 
ATOM    124  F   UNL A   1      36.079  29.911  31.555  1.00  0.00    -0.200 F 
ENDBRANCH  86 114
BRANCH 101 125
ATOM    125  C   UNL A   1      45.674  32.681  29.286  1.00  0.00     0.064 A 
ATOM    126  C   UNL A   1      46.251  33.044  30.512  1.00  0.00     0.173 A 
ATOM    127  C   UNL A   1      45.462  33.693  28.337  1.00  0.00     0.173 A 
ATOM    128  F   UNL A   1      46.462  32.118  31.459  1.00  0.00    -0.203 F 
ATOM    129  C   UNL A   1      46.571  34.371  30.787  1.00  0.00     0.198 A 
ATOM    130  C   UNL A   1      45.818  35.013  28.602  1.00  0.00     0.198 A 
ATOM    131  F   UNL A   1      44.922  33.401  27.144  1.00  0.00    -0.203 F 
ATOM    132  F   UNL A   1      47.068  34.702  31.987  1.00  0.00    -0.200 F 
ATOM    133  C   UNL A   1      46.363  35.352  29.829  1.00  0.00     0.200 A 
ATOM    134  F   UNL A   1      45.634  35.955  27.667  1.00  0.00    -0.200 F 
ATOM    135  F   UNL A   1      46.683  36.626  30.093  1.00  0.00    -0.200 F 
ENDBRANCH 101 125
ENDBRANCH  66  69
ENDBRANCH  56  59
ENDBRANCH  52  55
ENDBRANCH  49  52
ENDBRANCH  46  49
ENDBRANCH   1  46
TORSDOF 17
ENDMDL
MODEL 9
REMARK VINA RESULT:     -12.1      1.165      7.126
REMARK SMILES NS(=O)(=O)c1ccc(N2N=C(C(=O)NCCCCCCNC(=O)c3ccc(-c4c5nc(c(-c6c(F)c(F)c(F)c(F)c6F)c6ccc([nH]6)c(-c6c(F)c(F)c(F)c(F)c6F)c6nc(c(-c7c(F)c(F)c(F)c(F)c7F)c7ccc4[nH]7)C=C6)C=C5)cc3)C[C@H]2c2ccco2)cc1
REMARK SMILES IDX 17 1 16 4 15 7 14 10 12 11 13 12 11 14 9 15 10 16 88 17
REMARK SMILES IDX 87 18 8 22 5 23 6 24 95 25 7 26 94 28 2 32 3 33 4 34 1 35
REMARK SMILES IDX 89 38 90 39 93 40 91 41 92 43 18 46 19 49 20 52 21 55 22 56
REMARK SMILES IDX 23 58 24 59 25 60 86 61 26 62 85 64 27 66 28 69 29 70 79 71
REMARK SMILES IDX 30 72 84 73 78 74 80 75 31 76 83 77 77 79 76 81 32 83 64 86
REMARK SMILES IDX 44 87 63 88 45 89 48 90 62 91 81 92 46 93 47 95 61 97 82 98
REMARK SMILES IDX 49 101 33 103 34 104 42 105 35 106 36 107 40 108 43 109
REMARK SMILES IDX 37 110 38 111 41 112 39 113 65 114 66 115 74 116 67 117
REMARK SMILES IDX 68 118 72 119 75 120 69 121 70 122 73 123 71 124 50 125
REMARK SMILES IDX 51 126 59 127 52 128 53 129 57 130 60 131 54 132 55 133
REMARK SMILES IDX 58 134 56 135
REMARK H PARENT 17 2 17 3 16 5 16 6 15 8 15 9 14 13 88 19 87 20 87 21 6 27
REMARK H PARENT 95 29 7 30 94 31 1 36 1 37 90 42 91 44 92 45 18 47 18 48 19 50
REMARK H PARENT 19 51 20 53 20 54 21 57 25 63 86 65 26 67 85 68 84 78 78 80
REMARK H PARENT 80 82 83 84 77 85 45 94 48 96 81 99 46 100 82 102
REMARK Flexibility Score: inf
ROOT
ATOM      1  C   UNL A   1      37.018  22.231  24.072  1.00  0.00    -0.052 C 
ATOM      2  H   UNL A   1      37.304  23.211  23.748  1.00  0.00     0.027 H 
ATOM      3  H   UNL A   1      37.159  21.480  23.323  1.00  0.00     0.027 H 
ENDROOT
BRANCH   1   4
ATOM      4  C   UNL A   1      35.521  22.252  24.386  1.00  0.00    -0.036 C 
ATOM      5  H   UNL A   1      35.130  21.268  24.229  1.00  0.00     0.028 H 
ATOM      6  H   UNL A   1      35.420  22.579  25.400  1.00  0.00     0.028 H 
BRANCH   4   7
ATOM      7  C   UNL A   1      34.725  23.228  23.526  1.00  0.00     0.018 C 
ATOM      8  H   UNL A   1      34.460  24.079  24.117  1.00  0.00     0.049 H 
ATOM      9  H   UNL A   1      35.331  23.522  22.695  1.00  0.00     0.049 H 
BRANCH   7  10
ATOM     10  N   UNL A   1      33.518  22.610  23.019  1.00  0.00    -0.351 N 
ATOM     11  C   UNL A   1      32.181  22.904  23.113  1.00  0.00     0.267 C 
ATOM     12  O   UNL A   1      31.388  22.096  22.637  1.00  0.00    -0.268 OA
ATOM     13  H   UNL A   1      33.695  21.799  22.490  1.00  0.00     0.163 HD
BRANCH  11  14
ATOM     14  C   UNL A   1      31.639  24.188  23.722  1.00  0.00     0.128 C 
ATOM     15  N   UNL A   1      30.925  26.191  23.792  1.00  0.00    -0.254 N 
ATOM     16  N   UNL A   1      31.135  25.126  22.976  1.00  0.00    -0.171 NA
ATOM     17  C   UNL A   1      31.125  25.910  25.214  1.00  0.00     0.116 C 
ATOM     18  C   UNL A   1      31.670  24.484  25.183  1.00  0.00     0.027 C 
ATOM     19  H   UNL A   1      30.210  26.047  25.751  1.00  0.00     0.064 H 
ATOM     20  H   UNL A   1      32.666  24.437  25.570  1.00  0.00     0.036 H 
ATOM     21  H   UNL A   1      31.116  23.791  25.782  1.00  0.00     0.036 H 
BRANCH  15  22
ATOM     22  C   UNL A   1      30.235  27.305  23.338  1.00  0.00     0.060 A 
ATOM     23  C   UNL A   1      28.904  29.630  22.514  1.00  0.00     0.082 A 
ATOM     24  C   UNL A   1      28.174  28.569  23.056  1.00  0.00    -0.040 A 
ATOM     25  C   UNL A   1      30.281  29.525  22.331  1.00  0.00    -0.040 A 
ATOM     26  C   UNL A   1      28.843  27.408  23.459  1.00  0.00    -0.035 A 
ATOM     27  H   UNL A   1      27.149  28.640  23.156  1.00  0.00     0.064 H 
ATOM     28  C   UNL A   1      30.932  28.363  22.739  1.00  0.00    -0.035 A 
ATOM     29  H   UNL A   1      30.812  30.297  21.899  1.00  0.00     0.064 H 
ATOM     30  H   UNL A   1      28.305  26.620  23.851  1.00  0.00     0.065 H 
ATOM     31  H   UNL A   1      31.951  28.279  22.595  1.00  0.00     0.065 H 
BRANCH  23  32
ATOM     32  S   UNL A   1      28.074  31.104  22.012  1.00  0.00     0.238 S 
ATOM     33  O   UNL A   1      27.189  31.541  23.065  1.00  0.00    -0.207 OA
ATOM     34  O   UNL A   1      27.644  30.972  20.639  1.00  0.00    -0.207 OA
BRANCH  32  35
ATOM     35  N   UNL A   1      29.339  32.211  21.981  1.00  0.00    -0.225 NA
ATOM     36  H   UNL A   1      29.930  32.075  22.802  1.00  0.00     0.137 HD
ATOM     37  H   UNL A   1      28.963  33.158  21.986  1.00  0.00     0.137 HD
ENDBRANCH  32  35
ENDBRANCH  23  32
ENDBRANCH  15  22
BRANCH  17  38
ATOM     38  C   UNL A   1      31.998  26.848  25.998  1.00  0.00     0.128 A 
ATOM     39  C   UNL A   1      33.293  27.297  25.810  1.00  0.00    -0.018 A 
ATOM     40  O   UNL A   1      31.487  27.409  27.135  1.00  0.00    -0.467 OA
ATOM     41  C   UNL A   1      33.592  28.142  26.905  1.00  0.00    -0.023 A 
ATOM     42  H   UNL A   1      33.919  27.063  25.024  1.00  0.00     0.066 H 
ATOM     43  C   UNL A   1      32.454  28.191  27.673  1.00  0.00     0.091 A 
ATOM     44  H   UNL A   1      34.486  28.623  27.090  1.00  0.00     0.066 H 
ATOM     45  H   UNL A   1      32.350  28.746  28.537  1.00  0.00     0.104 H 
ENDBRANCH  17  38
ENDBRANCH  11  14
ENDBRANCH   7  10
ENDBRANCH   4   7
ENDBRANCH   1   4
BRANCH   1  46
ATOM     46  C   UNL A   1      37.918  21.839  25.250  1.00  0.00    -0.052 C 
ATOM     47  H   UNL A   1      37.304  21.752  26.122  1.00  0.00     0.027 H 
ATOM     48  H   UNL A   1      38.660  22.606  25.328  1.00  0.00     0.027 H 
BRANCH  46  49
ATOM     49  C   UNL A   1      38.681  20.523  25.074  1.00  0.00    -0.036 C 
ATOM     50  H   UNL A   1      39.428  20.667  24.321  1.00  0.00     0.028 H 
ATOM     51  H   UNL A   1      37.955  19.784  24.806  1.00  0.00     0.028 H 
BRANCH  49  52
ATOM     52  C   UNL A   1      39.368  20.020  26.337  1.00  0.00     0.018 C 
ATOM     53  H   UNL A   1      38.669  19.439  26.904  1.00  0.00     0.049 H 
ATOM     54  H   UNL A   1      39.701  20.871  26.894  1.00  0.00     0.049 H 
BRANCH  52  55
ATOM     55  N   UNL A   1      40.526  19.197  26.035  1.00  0.00    -0.352 N 
ATOM     56  C   UNL A   1      41.842  19.560  25.916  1.00  0.00     0.251 C 
ATOM     57  H   UNL A   1      40.339  18.241  25.895  1.00  0.00     0.163 HD
ATOM     58  O   UNL A   1      42.659  18.778  25.442  1.00  0.00    -0.269 OA
BRANCH  56  59
ATOM     59  C   UNL A   1      42.274  20.907  26.345  1.00  0.00     0.039 A 
ATOM     60  C   UNL A   1      42.553  21.868  25.371  1.00  0.00    -0.049 A 
ATOM     61  C   UNL A   1      42.412  21.217  27.700  1.00  0.00    -0.049 A 
ATOM     62  C   UNL A   1      42.920  23.156  25.760  1.00  0.00    -0.053 A 
ATOM     63  H   UNL A   1      42.489  21.626  24.370  1.00  0.00     0.063 H 
ATOM     64  C   UNL A   1      42.696  22.522  28.087  1.00  0.00    -0.053 A 
ATOM     65  H   UNL A   1      42.303  20.479  28.414  1.00  0.00     0.063 H 
ATOM     66  C   UNL A   1      42.963  23.503  27.120  1.00  0.00    -0.014 A 
ATOM     67  H   UNL A   1      43.163  23.859  25.043  1.00  0.00     0.063 H 
ATOM     68  H   UNL A   1      42.713  22.770  29.088  1.00  0.00     0.063 H 
BRANCH  66  69
ATOM     69  C   UNL A   1      43.287  24.888  27.549  1.00  0.00     0.031 A 
ATOM     70  C   UNL A   1      44.719  25.320  27.691  1.00  0.00     0.074 A 
ATOM     71  C   UNL A   1      42.290  25.738  27.862  1.00  0.00     0.049 A 
ATOM     72  N   UNL A   1      45.203  26.464  28.106  1.00  0.00    -0.248 NA
ATOM     73  C   UNL A   1      45.749  24.325  27.349  1.00  0.00    -0.034 C 
ATOM     74  C   UNL A   1      40.861  25.422  27.805  1.00  0.00    -0.036 A 
ATOM     75  N   UNL A   1      42.324  27.039  28.297  1.00  0.00    -0.354 N 
ATOM     76  C   UNL A   1      46.584  26.323  28.082  1.00  0.00     0.074 A 
ATOM     77  C   UNL A   1      46.862  24.963  27.674  1.00  0.00    -0.034 C 
ATOM     78  H   UNL A   1      45.631  23.377  26.958  1.00  0.00     0.065 H 
ATOM     79  C   UNL A   1      40.156  26.506  28.164  1.00  0.00    -0.036 A 
ATOM     80  H   UNL A   1      40.461  24.511  27.533  1.00  0.00     0.065 H 
ATOM     81  C   UNL A   1      41.081  27.578  28.521  1.00  0.00     0.049 A 
ATOM     82  H   UNL A   1      43.161  27.539  28.437  1.00  0.00     0.167 HD
ATOM     83  C   UNL A   1      47.533  27.250  28.353  1.00  0.00     0.037 A 
ATOM     84  H   UNL A   1      47.805  24.545  27.640  1.00  0.00     0.065 H 
ATOM     85  H   UNL A   1      39.127  26.571  28.186  1.00  0.00     0.065 H 
ATOM     86  C   UNL A   1      40.726  28.796  28.974  1.00  0.00     0.037 A 
ATOM     87  C   UNL A   1      47.249  28.606  28.744  1.00  0.00     0.049 A 
ATOM     88  C   UNL A   1      41.803  29.800  29.292  1.00  0.00     0.074 A 
ATOM     89  C   UNL A   1      48.138  29.637  28.989  1.00  0.00    -0.036 A 
ATOM     90  N   UNL A   1      45.977  29.116  28.957  1.00  0.00    -0.354 N 
ATOM     91  N   UNL A   1      43.105  29.677  29.198  1.00  0.00    -0.248 NA
ATOM     92  C   UNL A   1      41.359  31.115  29.773  1.00  0.00    -0.034 C 
ATOM     93  C   UNL A   1      47.409  30.753  29.411  1.00  0.00    -0.036 A 
ATOM     94  H   UNL A   1      49.164  29.591  28.879  1.00  0.00     0.065 H 
ATOM     95  C   UNL A   1      46.059  30.440  29.360  1.00  0.00     0.049 A 
ATOM     96  H   UNL A   1      45.139  28.614  28.839  1.00  0.00     0.167 HD
ATOM     97  C   UNL A   1      43.633  30.905  29.574  1.00  0.00     0.074 A 
ATOM     98  C   UNL A   1      42.508  31.764  29.883  1.00  0.00    -0.034 C 
ATOM     99  H   UNL A   1      40.403  31.447  29.972  1.00  0.00     0.065 H 
ATOM    100  H   UNL A   1      47.807  31.657  29.709  1.00  0.00     0.065 H 
ATOM    101  C   UNL A   1      44.932  31.287  29.657  1.00  0.00     0.037 A 
ATOM    102  H   UNL A   1      42.593  32.756  30.154  1.00  0.00     0.065 H 
BRANCH  83 103
ATOM    103  C   UNL A   1      48.972  26.828  28.238  1.00  0.00     0.064 A 
ATOM    104  C   UNL A   1      49.656  26.859  27.013  1.00  0.00     0.173 A 
ATOM    105  C   UNL A   1      49.687  26.424  29.376  1.00  0.00     0.173 A 
ATOM    106  F   UNL A   1      49.018  27.228  25.891  1.00  0.00    -0.203 F 
ATOM    107  C   UNL A   1      50.990  26.470  26.925  1.00  0.00     0.198 A 
ATOM    108  C   UNL A   1      51.032  26.071  29.291  1.00  0.00     0.198 A 
ATOM    109  F   UNL A   1      49.086  26.381  30.575  1.00  0.00    -0.203 F 
ATOM    110  F   UNL A   1      51.606  26.455  25.734  1.00  0.00    -0.200 F 
ATOM    111  C   UNL A   1      51.679  26.085  28.065  1.00  0.00     0.200 A 
ATOM    112  F   UNL A   1      51.700  25.713  30.397  1.00  0.00    -0.200 F 
ATOM    113  F   UNL A   1      52.966  25.719  27.981  1.00  0.00    -0.200 F 
ENDBRANCH  83 103
BRANCH  86 114
ATOM    114  C   UNL A   1      39.289  29.141  29.138  1.00  0.00     0.064 A 
ATOM    115  C   UNL A   1      38.512  29.537  28.040  1.00  0.00     0.173 A 
ATOM    116  C   UNL A   1      38.667  29.095  30.394  1.00  0.00     0.173 A 
ATOM    117  F   UNL A   1      39.065  29.616  26.821  1.00  0.00    -0.203 F 
ATOM    118  C   UNL A   1      37.176  29.899  28.197  1.00  0.00     0.198 A 
ATOM    119  C   UNL A   1      37.321  29.425  30.544  1.00  0.00     0.198 A 
ATOM    120  F   UNL A   1      39.363  28.717  31.476  1.00  0.00    -0.203 F 
ATOM    121  F   UNL A   1      36.471  30.327  27.140  1.00  0.00    -0.200 F 
ATOM    122  C   UNL A   1      36.580  29.837  29.448  1.00  0.00     0.200 A 
ATOM    123  F   UNL A   1      36.746  29.345  31.751  1.00  0.00    -0.200 F 
ATOM    124  F   UNL A   1      35.294  30.183  29.598  1.00  0.00    -0.200 F 
ENDBRANCH  86 114
BRANCH 101 125
ATOM    125  C   UNL A   1      45.210  32.709  30.054  1.00  0.00     0.064 A 
ATOM    126  C   UNL A   1      45.269  33.746  29.110  1.00  0.00     0.173 A 
ATOM    127  C   UNL A   1      45.379  33.045  31.407  1.00  0.00     0.173 A 
ATOM    128  F   UNL A   1      45.128  33.477  27.803  1.00  0.00    -0.203 F 
ATOM    129  C   UNL A   1      45.519  35.058  29.503  1.00  0.00     0.198 A 
ATOM    130  C   UNL A   1      45.591  34.364  31.798  1.00  0.00     0.198 A 
ATOM    131  F   UNL A   1      45.323  32.095  32.352  1.00  0.00    -0.203 F 
ATOM    132  F   UNL A   1      45.627  36.022  28.578  1.00  0.00    -0.200 F 
ATOM    133  C   UNL A   1      45.670  35.367  30.846  1.00  0.00     0.200 A 
ATOM    134  F   UNL A   1      45.718  34.663  33.099  1.00  0.00    -0.200 F 
ATOM    135  F   UNL A   1      45.899  36.633  31.221  1.00  0.00    -0.200 F 
ENDBRANCH 101 125
ENDBRANCH  66  69
ENDBRANCH  56  59
ENDBRANCH  52  55
ENDBRANCH  49  52
ENDBRANCH  46  49
ENDBRANCH   1  46
TORSDOF 17
ENDMDL
MODEL 10
REMARK VINA RESULT:     -12.1      2.575      7.870
REMARK SMILES NS(=O)(=O)c1ccc(N2N=C(C(=O)NCCCCCCNC(=O)c3ccc(-c4c5nc(c(-c6c(F)c(F)c(F)c(F)c6F)c6ccc([nH]6)c(-c6c(F)c(F)c(F)c(F)c6F)c6nc(c(-c7c(F)c(F)c(F)c(F)c7F)c7ccc4[nH]7)C=C6)C=C5)cc3)C[C@H]2c2ccco2)cc1
REMARK SMILES IDX 17 1 16 4 15 7 14 10 12 11 13 12 11 14 9 15 10 16 88 17
REMARK SMILES IDX 87 18 8 22 5 23 6 24 95 25 7 26 94 28 2 32 3 33 4 34 1 35
REMARK SMILES IDX 89 38 90 39 93 40 91 41 92 43 18 46 19 49 20 52 21 55 22 56
REMARK SMILES IDX 23 58 24 59 25 60 86 61 26 62 85 64 27 66 28 69 29 70 79 71
REMARK SMILES IDX 30 72 84 73 78 74 80 75 31 76 83 77 77 79 76 81 32 83 64 86
REMARK SMILES IDX 44 87 63 88 45 89 48 90 62 91 81 92 46 93 47 95 61 97 82 98
REMARK SMILES IDX 49 101 33 103 34 104 42 105 35 106 36 107 40 108 43 109
REMARK SMILES IDX 37 110 38 111 41 112 39 113 65 114 66 115 74 116 67 117
REMARK SMILES IDX 68 118 72 119 75 120 69 121 70 122 73 123 71 124 50 125
REMARK SMILES IDX 51 126 59 127 52 128 53 129 57 130 60 131 54 132 55 133
REMARK SMILES IDX 58 134 56 135
REMARK H PARENT 17 2 17 3 16 5 16 6 15 8 15 9 14 13 88 19 87 20 87 21 6 27
REMARK H PARENT 95 29 7 30 94 31 1 36 1 37 90 42 91 44 92 45 18 47 18 48 19 50
REMARK H PARENT 19 51 20 53 20 54 21 57 25 63 86 65 26 67 85 68 84 78 78 80
REMARK H PARENT 80 82 83 84 77 85 45 94 48 96 81 99 46 100 82 102
REMARK Flexibility Score: inf
ROOT
ATOM      1  C   UNL A   1      34.568  23.419  24.713  1.00  0.00    -0.052 C 
ATOM      2  H   UNL A   1      35.214  23.743  25.502  1.00  0.00     0.027 H 
ATOM      3  H   UNL A   1      33.908  24.186  24.365  1.00  0.00     0.027 H 
ENDROOT
BRANCH   1   4
ATOM      4  C   UNL A   1      33.678  22.300  25.257  1.00  0.00    -0.036 C 
ATOM      5  H   UNL A   1      32.764  22.295  24.700  1.00  0.00     0.028 H 
ATOM      6  H   UNL A   1      34.227  21.387  25.154  1.00  0.00     0.028 H 
BRANCH   4   7
ATOM      7  C   UNL A   1      33.338  22.447  26.735  1.00  0.00     0.018 C 
ATOM      8  H   UNL A   1      33.641  21.561  27.254  1.00  0.00     0.049 H 
ATOM      9  H   UNL A   1      33.853  23.301  27.120  1.00  0.00     0.049 H 
BRANCH   7  10
ATOM     10  N   UNL A   1      31.916  22.641  26.926  1.00  0.00    -0.351 N 
ATOM     11  C   UNL A   1      31.066  23.707  26.765  1.00  0.00     0.267 C 
ATOM     12  O   UNL A   1      29.900  23.560  27.121  1.00  0.00    -0.268 OA
ATOM     13  H   UNL A   1      31.456  21.830  27.241  1.00  0.00     0.163 HD
BRANCH  11  14
ATOM     14  C   UNL A   1      31.476  25.027  26.131  1.00  0.00     0.128 C 
ATOM     15  N   UNL A   1      31.985  27.090  26.022  1.00  0.00    -0.254 N 
ATOM     16  N   UNL A   1      31.884  26.024  26.857  1.00  0.00    -0.171 NA
ATOM     17  C   UNL A   1      31.812  26.763  24.605  1.00  0.00     0.116 C 
ATOM     18  C   UNL A   1      31.413  25.290  24.664  1.00  0.00     0.027 C 
ATOM     19  H   UNL A   1      32.708  26.981  24.063  1.00  0.00     0.064 H 
ATOM     20  H   UNL A   1      30.426  25.136  24.281  1.00  0.00     0.036 H 
ATOM     21  H   UNL A   1      32.034  24.645  24.077  1.00  0.00     0.036 H 
BRANCH  15  22
ATOM     22  C   UNL A   1      32.560  28.275  26.452  1.00  0.00     0.060 A 
ATOM     23  C   UNL A   1      33.741  30.616  27.444  1.00  0.00     0.082 A 
ATOM     24  C   UNL A   1      32.409  30.636  27.022  1.00  0.00    -0.040 A 
ATOM     25  C   UNL A   1      34.505  29.456  27.327  1.00  0.00    -0.040 A 
ATOM     26  C   UNL A   1      31.828  29.466  26.522  1.00  0.00    -0.035 A 
ATOM     27  H   UNL A   1      31.859  31.508  27.078  1.00  0.00     0.064 H 
ATOM     28  C   UNL A   1      33.910  28.300  26.828  1.00  0.00    -0.035 A 
ATOM     29  H   UNL A   1      35.498  29.455  27.607  1.00  0.00     0.064 H 
ATOM     30  H   UNL A   1      30.847  29.481  26.201  1.00  0.00     0.065 H 
ATOM     31  H   UNL A   1      34.477  27.443  26.733  1.00  0.00     0.065 H 
BRANCH  23  32
ATOM     32  S   UNL A   1      34.484  32.082  28.087  1.00  0.00     0.238 S 
ATOM     33  O   UNL A   1      33.572  33.190  27.936  1.00  0.00    -0.207 OA
ATOM     34  O   UNL A   1      35.865  32.148  27.667  1.00  0.00    -0.207 OA
BRANCH  32  35
ATOM     35  N   UNL A   1      34.533  31.742  29.733  1.00  0.00    -0.225 NA
ATOM     36  H   UNL A   1      34.183  30.797  29.895  1.00  0.00     0.137 HD
ATOM     37  H   UNL A   1      33.950  32.410  30.236  1.00  0.00     0.137 HD
ENDBRANCH  32  35
ENDBRANCH  23  32
ENDBRANCH  15  22
BRANCH  17  38
ATOM     38  C   UNL A   1      30.848  27.594  23.807  1.00  0.00     0.128 A 
ATOM     39  C   UNL A   1      29.480  27.518  23.622  1.00  0.00    -0.018 A 
ATOM     40  O   UNL A   1      31.343  28.650  23.093  1.00  0.00    -0.467 OA
ATOM     41  C   UNL A   1      29.134  28.556  22.724  1.00  0.00    -0.023 A 
ATOM     42  H   UNL A   1      28.836  26.838  24.054  1.00  0.00     0.066 H 
ATOM     43  C   UNL A   1      30.300  29.227  22.447  1.00  0.00     0.091 A 
ATOM     44  H   UNL A   1      28.194  28.766  22.352  1.00  0.00     0.066 H 
ATOM     45  H   UNL A   1      30.372  30.054  21.834  1.00  0.00     0.104 H 
ENDBRANCH  17  38
ENDBRANCH  11  14
ENDBRANCH   7  10
ENDBRANCH   4   7
ENDBRANCH   1   4
BRANCH   1  46
ATOM     46  C   UNL A   1      35.440  23.024  23.515  1.00  0.00    -0.052 C 
ATOM     47  H   UNL A   1      35.541  23.880  22.882  1.00  0.00     0.027 H 
ATOM     48  H   UNL A   1      34.943  22.202  23.042  1.00  0.00     0.027 H 
BRANCH  46  49
ATOM     49  C   UNL A   1      36.844  22.527  23.870  1.00  0.00    -0.036 C 
ATOM     50  H   UNL A   1      37.539  22.974  23.190  1.00  0.00     0.028 H 
ATOM     51  H   UNL A   1      36.816  21.459  23.798  1.00  0.00     0.028 H 
BRANCH  49  52
ATOM     52  C   UNL A   1      37.287  22.856  25.290  1.00  0.00     0.018 C 
ATOM     53  H   UNL A   1      36.418  23.031  25.892  1.00  0.00     0.049 H 
ATOM     54  H   UNL A   1      37.909  23.726  25.250  1.00  0.00     0.049 H 
BRANCH  52  55
ATOM     55  N   UNL A   1      38.058  21.776  25.882  1.00  0.00    -0.352 N 
ATOM     56  C   UNL A   1      39.279  21.820  26.503  1.00  0.00     0.251 C 
ATOM     57  H   UNL A   1      37.644  20.884  25.829  1.00  0.00     0.163 HD
ATOM     58  O   UNL A   1      39.884  20.782  26.751  1.00  0.00    -0.269 OA
BRANCH  56  59
ATOM     59  C   UNL A   1      39.874  23.124  26.859  1.00  0.00     0.039 A 
ATOM     60  C   UNL A   1      40.891  23.163  27.816  1.00  0.00    -0.049 A 
ATOM     61  C   UNL A   1      39.425  24.304  26.261  1.00  0.00    -0.049 A 
ATOM     62  C   UNL A   1      41.494  24.381  28.132  1.00  0.00    -0.053 A 
ATOM     63  H   UNL A   1      41.195  22.296  28.286  1.00  0.00     0.063 H 
ATOM     64  C   UNL A   1      40.081  25.503  26.515  1.00  0.00    -0.053 A 
ATOM     65  H   UNL A   1      38.608  24.286  25.630  1.00  0.00     0.063 H 
ATOM     66  C   UNL A   1      41.117  25.556  27.461  1.00  0.00    -0.014 A 
ATOM     67  H   UNL A   1      42.220  24.418  28.864  1.00  0.00     0.063 H 
ATOM     68  H   UNL A   1      39.806  26.358  26.008  1.00  0.00     0.063 H 
BRANCH  66  69
ATOM     69  C   UNL A   1      41.794  26.849  27.738  1.00  0.00     0.031 A 
ATOM     70  C   UNL A   1      43.201  27.083  27.264  1.00  0.00     0.074 A 
ATOM     71  C   UNL A   1      41.158  27.790  28.462  1.00  0.00     0.049 A 
ATOM     72  N   UNL A   1      43.978  28.118  27.456  1.00  0.00    -0.248 NA
ATOM     73  C   UNL A   1      43.831  25.996  26.496  1.00  0.00    -0.034 C 
ATOM     74  C   UNL A   1      39.808  27.663  29.014  1.00  0.00    -0.036 A 
ATOM     75  N   UNL A   1      41.566  29.037  28.867  1.00  0.00    -0.354 N 
ATOM     76  C   UNL A   1      45.185  27.805  26.842  1.00  0.00     0.074 A 
ATOM     77  C   UNL A   1      45.059  26.459  26.329  1.00  0.00    -0.034 C 
ATOM     78  H   UNL A   1      43.420  25.106  26.174  1.00  0.00     0.065 H 
ATOM     79  C   UNL A   1      39.489  28.796  29.660  1.00  0.00    -0.036 A 
ATOM     80  H   UNL A   1      39.199  26.836  28.920  1.00  0.00     0.065 H 
ATOM     81  C   UNL A   1      40.627  29.709  29.610  1.00  0.00     0.049 A 
ATOM     82  H   UNL A   1      42.449  29.413  28.646  1.00  0.00     0.167 HD
ATOM     83  C   UNL A   1      46.287  28.579  26.701  1.00  0.00     0.037 A 
ATOM     84  H   UNL A   1      45.827  25.928  25.887  1.00  0.00     0.065 H 
ATOM     85  H   UNL A   1      38.586  28.989  30.119  1.00  0.00     0.065 H 
ATOM     86  C   UNL A   1      40.681  30.921  30.194  1.00  0.00     0.037 A 
ATOM     87  C   UNL A   1      46.399  29.924  27.203  1.00  0.00     0.049 A 
ATOM     88  C   UNL A   1      41.929  31.751  30.043  1.00  0.00     0.074 A 
ATOM     89  C   UNL A   1      47.452  30.810  27.066  1.00  0.00    -0.036 A 
ATOM     90  N   UNL A   1      45.425  30.573  27.947  1.00  0.00    -0.354 N 
ATOM     91  N   UNL A   1      43.038  31.472  29.401  1.00  0.00    -0.248 NA
ATOM     92  C   UNL A   1      41.929  33.069  30.693  1.00  0.00    -0.034 C 
ATOM     93  C   UNL A   1      47.142  31.972  27.780  1.00  0.00    -0.036 A 
ATOM     94  H   UNL A   1      48.318  30.644  26.528  1.00  0.00     0.065 H 
ATOM     95  C   UNL A   1      45.865  31.838  28.303  1.00  0.00     0.049 A 
ATOM     96  H   UNL A   1      44.549  30.192  28.188  1.00  0.00     0.167 HD
ATOM     97  C   UNL A   1      43.851  32.588  29.540  1.00  0.00     0.074 A 
ATOM     98  C   UNL A   1      43.102  33.555  30.315  1.00  0.00    -0.034 C 
ATOM     99  H   UNL A   1      41.205  33.501  31.288  1.00  0.00     0.065 H 
ATOM    100  H   UNL A   1      47.759  32.791  27.898  1.00  0.00     0.065 H 
ATOM    101  C   UNL A   1      45.106  32.795  29.069  1.00  0.00     0.037 A 
ATOM    102  H   UNL A   1      43.440  34.503  30.544  1.00  0.00     0.065 H 
BRANCH  83 103
ATOM    103  C   UNL A   1      47.464  27.989  25.976  1.00  0.00     0.064 A 
ATOM    104  C   UNL A   1      47.512  27.922  24.575  1.00  0.00     0.173 A 
ATOM    105  C   UNL A   1      48.576  27.519  26.691  1.00  0.00     0.173 A 
ATOM    106  F   UNL A   1      46.472  28.348  23.842  1.00  0.00    -0.203 F 
ATOM    107  C   UNL A   1      48.613  27.377  23.919  1.00  0.00     0.198 A 
ATOM    108  C   UNL A   1      49.691  27.008  26.030  1.00  0.00     0.198 A 
ATOM    109  F   UNL A   1      48.589  27.564  28.032  1.00  0.00    -0.203 F 
ATOM    110  F   UNL A   1      48.611  27.273  22.582  1.00  0.00    -0.200 F 
ATOM    111  C   UNL A   1      49.704  26.929  24.646  1.00  0.00     0.200 A 
ATOM    112  F   UNL A   1      50.752  26.590  26.735  1.00  0.00    -0.200 F 
ATOM    113  F   UNL A   1      50.768  26.412  24.014  1.00  0.00    -0.200 F 
ENDBRANCH  83 103
BRANCH  86 114
ATOM    114  C   UNL A   1      39.514  31.432  30.962  1.00  0.00     0.064 A 
ATOM    115  C   UNL A   1      39.251  30.977  32.262  1.00  0.00     0.173 A 
ATOM    116  C   UNL A   1      38.632  32.372  30.410  1.00  0.00     0.173 A 
ATOM    117  F   UNL A   1      40.053  30.064  32.828  1.00  0.00    -0.203 F 
ATOM    118  C   UNL A   1      38.137  31.424  32.969  1.00  0.00     0.198 A 
ATOM    119  C   UNL A   1      37.537  32.844  31.131  1.00  0.00     0.198 A 
ATOM    120  F   UNL A   1      38.841  32.845  29.172  1.00  0.00    -0.203 F 
ATOM    121  F   UNL A   1      37.878  30.932  34.189  1.00  0.00    -0.200 F 
ATOM    122  C   UNL A   1      37.284  32.361  32.406  1.00  0.00     0.200 A 
ATOM    123  F   UNL A   1      36.727  33.763  30.589  1.00  0.00    -0.200 F 
ATOM    124  F   UNL A   1      36.214  32.792  33.087  1.00  0.00    -0.200 F 
ENDBRANCH  86 114
BRANCH 101 125
ATOM    125  C   UNL A   1      45.734  34.132  29.338  1.00  0.00     0.064 A 
ATOM    126  C   UNL A   1      46.529  34.365  30.470  1.00  0.00     0.173 A 
ATOM    127  C   UNL A   1      45.569  35.187  28.426  1.00  0.00     0.173 A 
ATOM    128  F   UNL A   1      46.708  33.395  31.380  1.00  0.00    -0.203 F 
ATOM    129  C   UNL A   1      47.109  35.611  30.694  1.00  0.00     0.198 A 
ATOM    130  C   UNL A   1      46.182  36.420  28.635  1.00  0.00     0.198 A 
ATOM    131  F   UNL A   1      44.827  35.018  27.322  1.00  0.00    -0.203 F 
ATOM    132  F   UNL A   1      47.818  35.825  31.811  1.00  0.00    -0.200 F 
ATOM    133  C   UNL A   1      46.942  36.634  29.772  1.00  0.00     0.200 A 
ATOM    134  F   UNL A   1      46.035  37.400  27.733  1.00  0.00    -0.200 F 
ATOM    135  F   UNL A   1      47.511  37.828  29.986  1.00  0.00    -0.200 F 
ENDBRANCH 101 125
ENDBRANCH  66  69
ENDBRANCH  56  59
ENDBRANCH  52  55
ENDBRANCH  49  52
ENDBRANCH  46  49
ENDBRANCH   1  46
TORSDOF 17
ENDMDL
