MODEL 1
REMARK VINA RESULT:     -12.3      0.000      0.000
REMARK SMILES O=C(Cc1cccn1-c1ccccc1F)NCCCCCCNC(=O)c1ccc(-c2c3nc(c(-c4c(F)c(F)c(F)c(F)c4F)c4ccc([nH]4)c(-c4c(F)c(F)c(F)c(F)c4F)c4nc(c(-c5c(F)c(F)c(F)c(F)c5F)c5ccc2[nH]5)C=C4)C=C3)cc1
REMARK SMILES IDX 19 1 18 4 17 7 16 10 1 11 2 12 3 14 4 17 5 18 8 19 6 20 7 22
REMARK SMILES IDX 9 25 10 26 14 27 11 28 13 30 15 31 12 32 20 36 21 39 22 42
REMARK SMILES IDX 23 45 24 46 25 48 26 49 27 50 88 51 28 52 87 54 29 56 30 59
REMARK SMILES IDX 31 60 81 61 32 62 86 63 80 64 82 65 33 66 85 67 79 69 78 71
REMARK SMILES IDX 34 73 66 76 46 77 65 78 47 79 50 80 64 81 83 82 48 83 49 85
REMARK SMILES IDX 63 87 84 88 51 91 35 93 36 94 44 95 37 96 38 97 42 98 45 99
REMARK SMILES IDX 39 100 40 101 43 102 41 103 67 104 68 105 76 106 69 107
REMARK SMILES IDX 70 108 74 109 77 110 71 111 72 112 75 113 73 114 52 115
REMARK SMILES IDX 53 116 61 117 54 118 55 119 59 120 62 121 56 122 57 123
REMARK SMILES IDX 60 124 58 125
REMARK H PARENT 19 2 19 3 18 5 18 6 17 8 17 9 16 13 3 15 3 16 5 21 6 23 7 24
REMARK H PARENT 10 29 11 33 13 34 12 35 20 37 20 38 21 40 21 41 22 43 22 44
REMARK H PARENT 23 47 27 53 88 55 28 57 87 58 86 68 80 70 82 72 85 74 79 75
REMARK H PARENT 47 84 50 86 83 89 48 90 84 92
REMARK Flexibility Score: inf
ROOT
ATOM      1  C   UNL A   1      31.363  27.597  27.242  1.00  0.00    -0.052 C 
ATOM      2  H   UNL A   1      31.798  26.858  27.881  1.00  0.00     0.027 H 
ATOM      3  H   UNL A   1      30.424  27.992  27.571  1.00  0.00     0.027 H 
ENDROOT
BRANCH   1   4
ATOM      4  C   UNL A   1      31.051  26.919  25.901  1.00  0.00    -0.036 C 
ATOM      5  H   UNL A   1      30.712  27.679  25.228  1.00  0.00     0.028 H 
ATOM      6  H   UNL A   1      31.963  26.437  25.618  1.00  0.00     0.028 H 
BRANCH   4   7
ATOM      7  C   UNL A   1      30.000  25.804  25.906  1.00  0.00     0.017 C 
ATOM      8  H   UNL A   1      29.672  25.655  26.913  1.00  0.00     0.049 H 
ATOM      9  H   UNL A   1      29.211  26.122  25.257  1.00  0.00     0.049 H 
BRANCH   7  10
ATOM     10  N   UNL A   1      30.481  24.536  25.391  1.00  0.00    -0.356 N 
ATOM     11  O   UNL A   1      31.201  23.752  27.431  1.00  0.00    -0.275 OA
ATOM     12  C   UNL A   1      31.027  23.573  26.228  1.00  0.00     0.225 C 
ATOM     13  H   UNL A   1      30.419  24.353  24.426  1.00  0.00     0.163 HD
BRANCH  12  14
ATOM     14  C   UNL A   1      31.397  22.272  25.527  1.00  0.00     0.067 C 
ATOM     15  H   UNL A   1      30.945  22.281  24.558  1.00  0.00     0.043 H 
ATOM     16  H   UNL A   1      31.044  21.488  26.164  1.00  0.00     0.043 H 
BRANCH  14  17
ATOM     17  C   UNL A   1      32.872  22.022  25.348  1.00  0.00     0.032 A 
ATOM     18  C   UNL A   1      33.646  21.102  26.047  1.00  0.00    -0.040 A 
ATOM     19  N   UNL A   1      33.726  22.682  24.479  1.00  0.00    -0.318 N 
ATOM     20  C   UNL A   1      34.978  21.198  25.592  1.00  0.00    -0.044 A 
ATOM     21  H   UNL A   1      33.303  20.457  26.776  1.00  0.00     0.064 H 
ATOM     22  C   UNL A   1      34.992  22.146  24.600  1.00  0.00     0.009 A 
ATOM     23  H   UNL A   1      35.787  20.659  25.939  1.00  0.00     0.064 H 
ATOM     24  H   UNL A   1      35.814  22.414  24.037  1.00  0.00     0.082 H 
BRANCH  19  25
ATOM     25  C   UNL A   1      33.504  23.868  23.766  1.00  0.00     0.081 A 
ATOM     26  C   UNL A   1      33.070  23.817  22.439  1.00  0.00    -0.035 A 
ATOM     27  C   UNL A   1      33.873  25.071  24.355  1.00  0.00     0.147 A 
ATOM     28  C   UNL A   1      32.959  25.008  21.720  1.00  0.00    -0.060 A 
ATOM     29  H   UNL A   1      32.834  22.915  21.998  1.00  0.00     0.065 H 
ATOM     30  C   UNL A   1      33.844  26.238  23.610  1.00  0.00    -0.024 A 
ATOM     31  F   UNL A   1      34.275  25.125  25.634  1.00  0.00    -0.205 F 
ATOM     32  C   UNL A   1      33.355  26.215  22.300  1.00  0.00    -0.059 A 
ATOM     33  H   UNL A   1      32.584  24.997  20.758  1.00  0.00     0.062 H 
ATOM     34  H   UNL A   1      34.181  27.122  24.020  1.00  0.00     0.065 H 
ATOM     35  H   UNL A   1      33.289  27.093  21.761  1.00  0.00     0.062 H 
ENDBRANCH  19  25
ENDBRANCH  14  17
ENDBRANCH  12  14
ENDBRANCH   7  10
ENDBRANCH   4   7
ENDBRANCH   1   4
BRANCH   1  36
ATOM     36  C   UNL A   1      32.306  28.801  27.226  1.00  0.00    -0.052 C 
ATOM     37  H   UNL A   1      32.730  28.880  28.206  1.00  0.00     0.027 H 
ATOM     38  H   UNL A   1      31.683  29.610  26.908  1.00  0.00     0.027 H 
BRANCH  36  39
ATOM     39  C   UNL A   1      33.470  28.822  26.230  1.00  0.00    -0.036 C 
ATOM     40  H   UNL A   1      33.377  29.697  25.621  1.00  0.00     0.028 H 
ATOM     41  H   UNL A   1      33.409  27.918  25.662  1.00  0.00     0.028 H 
BRANCH  39  42
ATOM     42  C   UNL A   1      34.844  28.839  26.889  1.00  0.00     0.018 C 
ATOM     43  H   UNL A   1      35.568  28.474  26.191  1.00  0.00     0.049 H 
ATOM     44  H   UNL A   1      34.807  28.219  27.759  1.00  0.00     0.049 H 
BRANCH  42  45
ATOM     45  N   UNL A   1      35.222  30.187  27.303  1.00  0.00    -0.352 N 
ATOM     46  C   UNL A   1      36.347  30.618  27.968  1.00  0.00     0.251 C 
ATOM     47  H   UNL A   1      34.576  30.893  27.073  1.00  0.00     0.163 HD
ATOM     48  O   UNL A   1      36.390  31.723  28.475  1.00  0.00    -0.269 OA
BRANCH  46  49
ATOM     49  C   UNL A   1      37.491  29.700  28.102  1.00  0.00     0.039 A 
ATOM     50  C   UNL A   1      38.474  29.714  27.109  1.00  0.00    -0.049 A 
ATOM     51  C   UNL A   1      37.593  28.858  29.213  1.00  0.00    -0.049 A 
ATOM     52  C   UNL A   1      39.621  28.954  27.285  1.00  0.00    -0.053 A 
ATOM     53  H   UNL A   1      38.348  30.280  26.255  1.00  0.00     0.063 H 
ATOM     54  C   UNL A   1      38.760  28.143  29.421  1.00  0.00    -0.053 A 
ATOM     55  H   UNL A   1      36.805  28.770  29.874  1.00  0.00     0.063 H 
ATOM     56  C   UNL A   1      39.778  28.211  28.464  1.00  0.00    -0.014 A 
ATOM     57  H   UNL A   1      40.351  28.937  26.557  1.00  0.00     0.063 H 
ATOM     58  H   UNL A   1      38.876  27.566  30.269  1.00  0.00     0.063 H 
BRANCH  56  59
ATOM     59  C   UNL A   1      41.091  27.597  28.738  1.00  0.00     0.031 A 
ATOM     60  C   UNL A   1      41.189  26.168  28.180  1.00  0.00     0.074 A 
ATOM     61  C   UNL A   1      41.968  28.369  29.446  1.00  0.00     0.049 A 
ATOM     62  N   UNL A   1      41.887  25.155  28.591  1.00  0.00    -0.248 NA
ATOM     63  C   UNL A   1      40.327  25.785  27.026  1.00  0.00    -0.034 C 
ATOM     64  C   UNL A   1      41.696  29.762  29.856  1.00  0.00    -0.036 A 
ATOM     65  N   UNL A   1      43.230  28.172  29.966  1.00  0.00    -0.354 N 
ATOM     66  C   UNL A   1      41.690  24.093  27.680  1.00  0.00     0.074 A 
ATOM     67  C   UNL A   1      40.635  24.504  26.805  1.00  0.00    -0.034 C 
ATOM     68  H   UNL A   1      39.648  26.372  26.518  1.00  0.00     0.065 H 
ATOM     69  C   UNL A   1      42.699  30.245  30.613  1.00  0.00    -0.036 A 
ATOM     70  H   UNL A   1      40.850  30.293  29.598  1.00  0.00     0.065 H 
ATOM     71  C   UNL A   1      43.717  29.230  30.779  1.00  0.00     0.049 A 
ATOM     72  H   UNL A   1      43.754  27.357  29.789  1.00  0.00     0.167 HD
ATOM     73  C   UNL A   1      42.502  22.991  27.634  1.00  0.00     0.037 A 
ATOM     74  H   UNL A   1      40.179  23.899  26.105  1.00  0.00     0.065 H 
ATOM     75  H   UNL A   1      42.736  31.195  31.015  1.00  0.00     0.065 H 
ATOM     76  C   UNL A   1      44.826  29.265  31.581  1.00  0.00     0.037 A 
ATOM     77  C   UNL A   1      43.501  23.087  28.643  1.00  0.00     0.049 A 
ATOM     78  C   UNL A   1      45.535  28.002  31.318  1.00  0.00     0.074 A 
ATOM     79  C   UNL A   1      43.448  22.947  30.005  1.00  0.00    -0.036 A 
ATOM     80  N   UNL A   1      44.668  23.725  28.302  1.00  0.00    -0.354 N 
ATOM     81  N   UNL A   1      46.175  27.722  30.220  1.00  0.00    -0.248 NA
ATOM     82  C   UNL A   1      45.418  26.916  32.299  1.00  0.00    -0.034 C 
ATOM     83  C   UNL A   1      44.350  23.925  30.469  1.00  0.00    -0.036 A 
ATOM     84  H   UNL A   1      42.883  22.283  30.558  1.00  0.00     0.065 H 
ATOM     85  C   UNL A   1      45.062  24.461  29.390  1.00  0.00     0.049 A 
ATOM     86  H   UNL A   1      45.134  23.665  27.437  1.00  0.00     0.167 HD
ATOM     87  C   UNL A   1      46.235  26.348  30.260  1.00  0.00     0.074 A 
ATOM     88  C   UNL A   1      46.063  25.959  31.640  1.00  0.00    -0.034 C 
ATOM     89  H   UNL A   1      44.969  26.900  33.228  1.00  0.00     0.065 H 
ATOM     90  H   UNL A   1      44.468  24.203  31.456  1.00  0.00     0.065 H 
ATOM     91  C   UNL A   1      45.877  25.632  29.165  1.00  0.00     0.037 A 
ATOM     92  H   UNL A   1      46.391  25.071  32.051  1.00  0.00     0.065 H 
BRANCH  73  93
ATOM     93  C   UNL A   1      42.667  21.882  26.629  1.00  0.00     0.064 A 
ATOM     94  C   UNL A   1      43.599  21.915  25.585  1.00  0.00     0.173 A 
ATOM     95  C   UNL A   1      42.123  20.608  26.938  1.00  0.00     0.173 A 
ATOM     96  F   UNL A   1      44.190  23.059  25.222  1.00  0.00    -0.203 F 
ATOM     97  C   UNL A   1      44.025  20.740  24.953  1.00  0.00     0.198 A 
ATOM     98  C   UNL A   1      42.584  19.437  26.340  1.00  0.00     0.198 A 
ATOM     99  F   UNL A   1      41.185  20.473  27.890  1.00  0.00    -0.203 F 
ATOM    100  F   UNL A   1      44.958  20.807  23.993  1.00  0.00    -0.200 F 
ATOM    101  C   UNL A   1      43.551  19.502  25.357  1.00  0.00     0.200 A 
ATOM    102  F   UNL A   1      42.138  18.246  26.766  1.00  0.00    -0.200 F 
ATOM    103  F   UNL A   1      44.050  18.378  24.826  1.00  0.00    -0.200 F 
ENDBRANCH  73  93
BRANCH  76 104
ATOM    104  C   UNL A   1      45.354  30.146  32.696  1.00  0.00     0.064 A 
ATOM    105  C   UNL A   1      46.579  30.852  32.519  1.00  0.00     0.173 A 
ATOM    106  C   UNL A   1      44.806  30.281  33.978  1.00  0.00     0.173 A 
ATOM    107  F   UNL A   1      47.145  30.987  31.313  1.00  0.00    -0.203 F 
ATOM    108  C   UNL A   1      47.286  31.445  33.566  1.00  0.00     0.198 A 
ATOM    109  C   UNL A   1      45.495  30.919  35.026  1.00  0.00     0.198 A 
ATOM    110  F   UNL A   1      43.581  29.832  34.264  1.00  0.00    -0.203 F 
ATOM    111  F   UNL A   1      48.494  31.978  33.333  1.00  0.00    -0.200 F 
ATOM    112  C   UNL A   1      46.754  31.456  34.831  1.00  0.00     0.200 A 
ATOM    113  F   UNL A   1      44.932  30.994  36.240  1.00  0.00    -0.200 F 
ATOM    114  F   UNL A   1      47.438  31.997  35.848  1.00  0.00    -0.200 F 
ENDBRANCH  76 104
BRANCH  91 115
ATOM    115  C   UNL A   1      46.040  26.375  27.856  1.00  0.00     0.064 A 
ATOM    116  C   UNL A   1      44.970  26.848  27.078  1.00  0.00     0.173 A 
ATOM    117  C   UNL A   1      47.324  26.723  27.410  1.00  0.00     0.173 A 
ATOM    118  F   UNL A   1      43.713  26.571  27.414  1.00  0.00    -0.203 F 
ATOM    119  C   UNL A   1      45.161  27.619  25.929  1.00  0.00     0.198 A 
ATOM    120  C   UNL A   1      47.520  27.501  26.265  1.00  0.00     0.198 A 
ATOM    121  F   UNL A   1      48.403  26.300  28.087  1.00  0.00    -0.203 F 
ATOM    122  F   UNL A   1      44.102  28.032  25.214  1.00  0.00    -0.200 F 
ATOM    123  C   UNL A   1      46.438  27.949  25.525  1.00  0.00     0.200 A 
ATOM    124  F   UNL A   1      48.764  27.809  25.873  1.00  0.00    -0.200 F 
ATOM    125  F   UNL A   1      46.628  28.681  24.417  1.00  0.00    -0.200 F 
ENDBRANCH  91 115
ENDBRANCH  56  59
ENDBRANCH  46  49
ENDBRANCH  42  45
ENDBRANCH  39  42
ENDBRANCH  36  39
ENDBRANCH   1  36
TORSDOF 15
ENDMDL
MODEL 2
REMARK VINA RESULT:     -12.3      1.171      1.991
REMARK SMILES O=C(Cc1cccn1-c1ccccc1F)NCCCCCCNC(=O)c1ccc(-c2c3nc(c(-c4c(F)c(F)c(F)c(F)c4F)c4ccc([nH]4)c(-c4c(F)c(F)c(F)c(F)c4F)c4nc(c(-c5c(F)c(F)c(F)c(F)c5F)c5ccc2[nH]5)C=C4)C=C3)cc1
REMARK SMILES IDX 19 1 18 4 17 7 16 10 1 11 2 12 3 14 4 17 5 18 8 19 6 20 7 22
REMARK SMILES IDX 9 25 10 26 14 27 11 28 13 30 15 31 12 32 20 36 21 39 22 42
REMARK SMILES IDX 23 45 24 46 25 48 26 49 27 50 88 51 28 52 87 54 29 56 30 59
REMARK SMILES IDX 31 60 81 61 32 62 86 63 80 64 82 65 33 66 85 67 79 69 78 71
REMARK SMILES IDX 34 73 66 76 46 77 65 78 47 79 50 80 64 81 83 82 48 83 49 85
REMARK SMILES IDX 63 87 84 88 51 91 35 93 36 94 44 95 37 96 38 97 42 98 45 99
REMARK SMILES IDX 39 100 40 101 43 102 41 103 67 104 68 105 76 106 69 107
REMARK SMILES IDX 70 108 74 109 77 110 71 111 72 112 75 113 73 114 52 115
REMARK SMILES IDX 53 116 61 117 54 118 55 119 59 120 62 121 56 122 57 123
REMARK SMILES IDX 60 124 58 125
REMARK H PARENT 19 2 19 3 18 5 18 6 17 8 17 9 16 13 3 15 3 16 5 21 6 23 7 24
REMARK H PARENT 10 29 11 33 13 34 12 35 20 37 20 38 21 40 21 41 22 43 22 44
REMARK H PARENT 23 47 27 53 88 55 28 57 87 58 86 68 80 70 82 72 85 74 79 75
REMARK H PARENT 47 84 50 86 83 89 48 90 84 92
REMARK Flexibility Score: inf
ROOT
ATOM      1  C   UNL A   1      33.746  26.779  25.182  1.00  0.00    -0.052 C 
ATOM      2  H   UNL A   1      34.755  26.995  25.465  1.00  0.00     0.027 H 
ATOM      3  H   UNL A   1      33.466  25.747  25.231  1.00  0.00     0.027 H 
ENDROOT
BRANCH   1   4
ATOM      4  C   UNL A   1      33.594  27.153  23.701  1.00  0.00    -0.036 C 
ATOM      5  H   UNL A   1      32.678  27.698  23.599  1.00  0.00     0.028 H 
ATOM      6  H   UNL A   1      34.479  27.706  23.464  1.00  0.00     0.028 H 
BRANCH   4   7
ATOM      7  C   UNL A   1      33.563  26.005  22.687  1.00  0.00     0.017 C 
ATOM      8  H   UNL A   1      32.861  26.254  21.919  1.00  0.00     0.049 H 
ATOM      9  H   UNL A   1      34.560  25.894  22.316  1.00  0.00     0.049 H 
BRANCH   7  10
ATOM     10  N   UNL A   1      33.183  24.725  23.254  1.00  0.00    -0.356 N 
ATOM     11  O   UNL A   1      33.503  23.540  21.308  1.00  0.00    -0.275 OA
ATOM     12  C   UNL A   1      33.219  23.559  22.503  1.00  0.00     0.225 C 
ATOM     13  H   UNL A   1      32.892  24.682  24.193  1.00  0.00     0.163 HD
BRANCH  12  14
ATOM     14  C   UNL A   1      32.871  22.299  23.286  1.00  0.00     0.067 C 
ATOM     15  H   UNL A   1      33.687  21.615  23.185  1.00  0.00     0.043 H 
ATOM     16  H   UNL A   1      31.951  21.943  22.870  1.00  0.00     0.043 H 
BRANCH  14  17
ATOM     17  C   UNL A   1      32.609  22.494  24.756  1.00  0.00     0.032 A 
ATOM     18  C   UNL A   1      31.383  22.787  25.346  1.00  0.00    -0.040 A 
ATOM     19  N   UNL A   1      33.542  22.447  25.779  1.00  0.00    -0.318 N 
ATOM     20  C   UNL A   1      31.574  22.909  26.739  1.00  0.00    -0.044 A 
ATOM     21  H   UNL A   1      30.487  22.896  24.848  1.00  0.00     0.064 H 
ATOM     22  C   UNL A   1      32.900  22.654  26.983  1.00  0.00     0.009 A 
ATOM     23  H   UNL A   1      30.853  23.146  27.440  1.00  0.00     0.064 H 
ATOM     24  H   UNL A   1      33.344  22.622  27.914  1.00  0.00     0.082 H 
BRANCH  19  25
ATOM     25  C   UNL A   1      34.941  22.463  25.690  1.00  0.00     0.081 A 
ATOM     26  C   UNL A   1      35.636  23.671  25.801  1.00  0.00    -0.035 A 
ATOM     27  C   UNL A   1      35.593  21.289  25.336  1.00  0.00     0.147 A 
ATOM     28  C   UNL A   1      37.017  23.674  25.601  1.00  0.00    -0.060 A 
ATOM     29  H   UNL A   1      35.136  24.545  26.027  1.00  0.00     0.065 H 
ATOM     30  C   UNL A   1      36.950  21.315  25.055  1.00  0.00    -0.024 A 
ATOM     31  F   UNL A   1      34.932  20.126  25.245  1.00  0.00    -0.205 F 
ATOM     32  C   UNL A   1      37.671  22.501  25.219  1.00  0.00    -0.059 A 
ATOM     33  H   UNL A   1      37.556  24.544  25.737  1.00  0.00     0.062 H 
ATOM     34  H   UNL A   1      37.426  20.461  24.726  1.00  0.00     0.065 H 
ATOM     35  H   UNL A   1      38.691  22.509  25.055  1.00  0.00     0.062 H 
ENDBRANCH  19  25
ENDBRANCH  14  17
ENDBRANCH  12  14
ENDBRANCH   7  10
ENDBRANCH   4   7
ENDBRANCH   1   4
BRANCH   1  36
ATOM     36  C   UNL A   1      32.829  27.478  26.188  1.00  0.00    -0.052 C 
ATOM     37  H   UNL A   1      32.442  26.721  26.836  1.00  0.00     0.027 H 
ATOM     38  H   UNL A   1      32.120  27.992  25.573  1.00  0.00     0.027 H 
BRANCH  36  39
ATOM     39  C   UNL A   1      33.407  28.581  27.080  1.00  0.00    -0.036 C 
ATOM     40  H   UNL A   1      33.292  28.283  28.101  1.00  0.00     0.028 H 
ATOM     41  H   UNL A   1      32.872  29.479  26.852  1.00  0.00     0.028 H 
BRANCH  39  42
ATOM     42  C   UNL A   1      34.882  28.868  26.828  1.00  0.00     0.018 C 
ATOM     43  H   UNL A   1      35.076  28.796  25.778  1.00  0.00     0.049 H 
ATOM     44  H   UNL A   1      35.461  28.152  27.372  1.00  0.00     0.049 H 
BRANCH  42  45
ATOM     45  N   UNL A   1      35.254  30.203  27.289  1.00  0.00    -0.352 N 
ATOM     46  C   UNL A   1      36.365  30.610  27.991  1.00  0.00     0.251 C 
ATOM     47  H   UNL A   1      34.615  30.916  27.064  1.00  0.00     0.163 HD
ATOM     48  O   UNL A   1      36.399  31.701  28.530  1.00  0.00    -0.269 OA
BRANCH  46  49
ATOM     49  C   UNL A   1      37.503  29.685  28.125  1.00  0.00     0.039 A 
ATOM     50  C   UNL A   1      38.488  29.697  27.134  1.00  0.00    -0.049 A 
ATOM     51  C   UNL A   1      37.597  28.839  29.234  1.00  0.00    -0.049 A 
ATOM     52  C   UNL A   1      39.630  28.931  27.311  1.00  0.00    -0.053 A 
ATOM     53  H   UNL A   1      38.367  30.267  26.282  1.00  0.00     0.063 H 
ATOM     54  C   UNL A   1      38.760  28.117  29.441  1.00  0.00    -0.053 A 
ATOM     55  H   UNL A   1      36.807  28.754  29.892  1.00  0.00     0.063 H 
ATOM     56  C   UNL A   1      39.781  28.182  28.487  1.00  0.00    -0.014 A 
ATOM     57  H   UNL A   1      40.362  28.911  26.584  1.00  0.00     0.063 H 
ATOM     58  H   UNL A   1      38.871  27.536  30.288  1.00  0.00     0.063 H 
BRANCH  56  59
ATOM     59  C   UNL A   1      41.090  27.560  28.762  1.00  0.00     0.031 A 
ATOM     60  C   UNL A   1      41.187  26.138  28.184  1.00  0.00     0.074 A 
ATOM     61  C   UNL A   1      41.964  28.318  29.488  1.00  0.00     0.049 A 
ATOM     62  N   UNL A   1      41.878  25.118  28.587  1.00  0.00    -0.248 NA
ATOM     63  C   UNL A   1      40.332  25.775  27.019  1.00  0.00    -0.034 C 
ATOM     64  C   UNL A   1      41.693  29.706  29.916  1.00  0.00    -0.036 A 
ATOM     65  N   UNL A   1      43.221  28.109  30.015  1.00  0.00    -0.354 N 
ATOM     66  C   UNL A   1      41.685  24.069  27.658  1.00  0.00     0.074 A 
ATOM     67  C   UNL A   1      40.638  24.496  26.782  1.00  0.00    -0.034 C 
ATOM     68  H   UNL A   1      39.659  26.372  26.514  1.00  0.00     0.065 H 
ATOM     69  C   UNL A   1      42.692  30.175  30.687  1.00  0.00    -0.036 A 
ATOM     70  H   UNL A   1      40.851  30.243  29.659  1.00  0.00     0.065 H 
ATOM     71  C   UNL A   1      43.706  29.154  30.846  1.00  0.00     0.049 A 
ATOM     72  H   UNL A   1      43.743  27.296  29.830  1.00  0.00     0.167 HD
ATOM     73  C   UNL A   1      42.493  22.966  27.603  1.00  0.00     0.037 A 
ATOM     74  H   UNL A   1      40.185  23.903  26.069  1.00  0.00     0.065 H 
ATOM     75  H   UNL A   1      42.729  31.119  31.103  1.00  0.00     0.065 H 
ATOM     76  C   UNL A   1      44.808  29.174  31.657  1.00  0.00     0.037 A 
ATOM     77  C   UNL A   1      43.484  23.043  28.621  1.00  0.00     0.049 A 
ATOM     78  C   UNL A   1      45.515  27.912  31.381  1.00  0.00     0.074 A 
ATOM     79  C   UNL A   1      43.421  22.883  29.980  1.00  0.00    -0.036 A 
ATOM     80  N   UNL A   1      44.656  23.682  28.298  1.00  0.00    -0.354 N 
ATOM     81  N   UNL A   1      46.162  27.646  30.284  1.00  0.00    -0.248 NA
ATOM     82  C   UNL A   1      45.387  26.812  32.346  1.00  0.00    -0.034 C 
ATOM     83  C   UNL A   1      44.323  23.852  30.465  1.00  0.00    -0.036 A 
ATOM     84  H   UNL A   1      42.850  22.214  30.519  1.00  0.00     0.065 H 
ATOM     85  C   UNL A   1      45.045  24.401  29.400  1.00  0.00     0.049 A 
ATOM     86  H   UNL A   1      45.129  23.633  27.436  1.00  0.00     0.167 HD
ATOM     87  C   UNL A   1      46.217  26.271  30.305  1.00  0.00     0.074 A 
ATOM     88  C   UNL A   1      46.033  25.863  31.678  1.00  0.00    -0.034 C 
ATOM     89  H   UNL A   1      44.930  26.785  33.271  1.00  0.00     0.065 H 
ATOM     90  H   UNL A   1      44.434  24.115  31.457  1.00  0.00     0.065 H 
ATOM     91  C   UNL A   1      45.865  25.572  29.197  1.00  0.00     0.037 A 
ATOM     92  H   UNL A   1      46.355  24.968  32.079  1.00  0.00     0.065 H 
BRANCH  73  93
ATOM     93  C   UNL A   1      42.662  21.870  26.584  1.00  0.00     0.064 A 
ATOM     94  C   UNL A   1      43.583  21.927  25.531  1.00  0.00     0.173 A 
ATOM     95  C   UNL A   1      42.137  20.586  26.883  1.00  0.00     0.173 A 
ATOM     96  F   UNL A   1      44.156  23.083  25.175  1.00  0.00    -0.203 F 
ATOM     97  C   UNL A   1      44.017  20.764  24.881  1.00  0.00     0.198 A 
ATOM     98  C   UNL A   1      42.607  19.427  26.267  1.00  0.00     0.198 A 
ATOM     99  F   UNL A   1      41.210  20.428  27.842  1.00  0.00    -0.203 F 
ATOM    100  F   UNL A   1      44.940  20.854  23.913  1.00  0.00    -0.200 F 
ATOM    101  C   UNL A   1      43.562  19.517  25.276  1.00  0.00     0.200 A 
ATOM    102  F   UNL A   1      42.179  18.226  26.683  1.00  0.00    -0.200 F 
ATOM    103  F   UNL A   1      44.070  18.405  24.726  1.00  0.00    -0.200 F 
ENDBRANCH  73  93
BRANCH  76 104
ATOM    104  C   UNL A   1      45.330  30.037  32.788  1.00  0.00     0.064 A 
ATOM    105  C   UNL A   1      46.676  30.503  32.759  1.00  0.00     0.173 A 
ATOM    106  C   UNL A   1      44.646  30.367  33.965  1.00  0.00     0.173 A 
ATOM    107  F   UNL A   1      47.417  30.441  31.645  1.00  0.00    -0.203 F 
ATOM    108  C   UNL A   1      47.330  31.047  33.865  1.00  0.00     0.198 A 
ATOM    109  C   UNL A   1      45.291  30.958  35.069  1.00  0.00     0.198 A 
ATOM    110  F   UNL A   1      43.333  30.161  34.090  1.00  0.00    -0.203 F 
ATOM    111  F   UNL A   1      48.635  31.342  33.786  1.00  0.00    -0.200 F 
ATOM    112  C   UNL A   1      46.641  31.252  35.034  1.00  0.00     0.200 A 
ATOM    113  F   UNL A   1      44.589  31.227  36.179  1.00  0.00    -0.200 F 
ATOM    114  F   UNL A   1      47.267  31.746  36.111  1.00  0.00    -0.200 F 
ENDBRANCH  76 104
BRANCH  91 115
ATOM    115  C   UNL A   1      46.041  26.333  27.900  1.00  0.00     0.064 A 
ATOM    116  C   UNL A   1      44.979  26.818  27.119  1.00  0.00     0.173 A 
ATOM    117  C   UNL A   1      47.329  26.686  27.471  1.00  0.00     0.173 A 
ATOM    118  F   UNL A   1      43.718  26.537  27.440  1.00  0.00    -0.203 F 
ATOM    119  C   UNL A   1      45.180  27.604  25.983  1.00  0.00     0.198 A 
ATOM    120  C   UNL A   1      47.536  27.480  26.339  1.00  0.00     0.198 A 
ATOM    121  F   UNL A   1      48.401  26.253  28.152  1.00  0.00    -0.203 F 
ATOM    122  F   UNL A   1      44.128  28.028  25.264  1.00  0.00    -0.200 F 
ATOM    123  C   UNL A   1      46.461  27.939  25.595  1.00  0.00     0.200 A 
ATOM    124  F   UNL A   1      48.783  27.792  25.963  1.00  0.00    -0.200 F 
ATOM    125  F   UNL A   1      46.661  28.687  24.500  1.00  0.00    -0.200 F 
ENDBRANCH  91 115
ENDBRANCH  56  59
ENDBRANCH  46  49
ENDBRANCH  42  45
ENDBRANCH  39  42
ENDBRANCH  36  39
ENDBRANCH   1  36
TORSDOF 15
ENDMDL
MODEL 3
REMARK VINA RESULT:     -12.1      4.380      9.524
REMARK SMILES O=C(Cc1cccn1-c1ccccc1F)NCCCCCCNC(=O)c1ccc(-c2c3nc(c(-c4c(F)c(F)c(F)c(F)c4F)c4ccc([nH]4)c(-c4c(F)c(F)c(F)c(F)c4F)c4nc(c(-c5c(F)c(F)c(F)c(F)c5F)c5ccc2[nH]5)C=C4)C=C3)cc1
REMARK SMILES IDX 19 1 18 4 17 7 16 10 1 11 2 12 3 14 4 17 5 18 8 19 6 20 7 22
REMARK SMILES IDX 9 25 10 26 14 27 11 28 13 30 15 31 12 32 20 36 21 39 22 42
REMARK SMILES IDX 23 45 24 46 25 48 26 49 27 50 88 51 28 52 87 54 29 56 30 59
REMARK SMILES IDX 31 60 81 61 32 62 86 63 80 64 82 65 33 66 85 67 79 69 78 71
REMARK SMILES IDX 34 73 66 76 46 77 65 78 47 79 50 80 64 81 83 82 48 83 49 85
REMARK SMILES IDX 63 87 84 88 51 91 35 93 36 94 44 95 37 96 38 97 42 98 45 99
REMARK SMILES IDX 39 100 40 101 43 102 41 103 67 104 68 105 76 106 69 107
REMARK SMILES IDX 70 108 74 109 77 110 71 111 72 112 75 113 73 114 52 115
REMARK SMILES IDX 53 116 61 117 54 118 55 119 59 120 62 121 56 122 57 123
REMARK SMILES IDX 60 124 58 125
REMARK H PARENT 19 2 19 3 18 5 18 6 17 8 17 9 16 13 3 15 3 16 5 21 6 23 7 24
REMARK H PARENT 10 29 11 33 13 34 12 35 20 37 20 38 21 40 21 41 22 43 22 44
REMARK H PARENT 23 47 27 53 88 55 28 57 87 58 86 68 80 70 82 72 85 74 79 75
REMARK H PARENT 47 84 50 86 83 89 48 90 84 92
REMARK Flexibility Score: inf
ROOT
ATOM      1  C   UNL A   1      35.337  22.651  23.382  1.00  0.00    -0.052 C 
ATOM      2  H   UNL A   1      35.745  22.843  22.412  1.00  0.00     0.027 H 
ATOM      3  H   UNL A   1      35.570  21.692  23.797  1.00  0.00     0.027 H 
ENDROOT
BRANCH   1   4
ATOM      4  C   UNL A   1      33.808  22.654  23.247  1.00  0.00    -0.036 C 
ATOM      5  H   UNL A   1      33.479  21.637  23.285  1.00  0.00     0.028 H 
ATOM      6  H   UNL A   1      33.462  23.273  24.048  1.00  0.00     0.028 H 
BRANCH   4   7
ATOM      7  C   UNL A   1      33.217  23.282  21.980  1.00  0.00     0.017 C 
ATOM      8  H   UNL A   1      34.019  23.688  21.400  1.00  0.00     0.049 H 
ATOM      9  H   UNL A   1      32.689  22.506  21.469  1.00  0.00     0.049 H 
BRANCH   7  10
ATOM     10  N   UNL A   1      32.259  24.342  22.237  1.00  0.00    -0.356 N 
ATOM     11  O   UNL A   1      33.716  26.053  21.742  1.00  0.00    -0.275 OA
ATOM     12  C   UNL A   1      32.590  25.678  22.058  1.00  0.00     0.225 C 
ATOM     13  H   UNL A   1      31.354  24.108  22.545  1.00  0.00     0.163 HD
BRANCH  12  14
ATOM     14  C   UNL A   1      31.435  26.644  22.290  1.00  0.00     0.067 C 
ATOM     15  H   UNL A   1      30.544  26.066  22.416  1.00  0.00     0.043 H 
ATOM     16  H   UNL A   1      31.418  27.288  21.436  1.00  0.00     0.043 H 
BRANCH  14  17
ATOM     17  C   UNL A   1      31.572  27.551  23.485  1.00  0.00     0.032 A 
ATOM     18  C   UNL A   1      31.790  28.925  23.460  1.00  0.00    -0.040 A 
ATOM     19  N   UNL A   1      31.535  27.178  24.819  1.00  0.00    -0.318 N 
ATOM     20  C   UNL A   1      31.877  29.390  24.791  1.00  0.00    -0.044 A 
ATOM     21  H   UNL A   1      31.874  29.506  22.612  1.00  0.00     0.064 H 
ATOM     22  C   UNL A   1      31.675  28.304  25.605  1.00  0.00     0.009 A 
ATOM     23  H   UNL A   1      32.058  30.360  25.092  1.00  0.00     0.064 H 
ATOM     24  H   UNL A   1      31.634  28.326  26.636  1.00  0.00     0.082 H 
BRANCH  19  25
ATOM     25  C   UNL A   1      31.618  25.892  25.371  1.00  0.00     0.081 A 
ATOM     26  C   UNL A   1      30.453  25.201  25.718  1.00  0.00    -0.035 A 
ATOM     27  C   UNL A   1      32.872  25.397  25.703  1.00  0.00     0.147 A 
ATOM     28  C   UNL A   1      30.567  23.969  26.362  1.00  0.00    -0.060 A 
ATOM     29  H   UNL A   1      29.525  25.596  25.500  1.00  0.00     0.065 H 
ATOM     30  C   UNL A   1      32.976  24.214  26.420  1.00  0.00    -0.024 A 
ATOM     31  F   UNL A   1      33.992  26.048  25.357  1.00  0.00    -0.205 F 
ATOM     32  C   UNL A   1      31.825  23.481  26.722  1.00  0.00    -0.059 A 
ATOM     33  H   UNL A   1      29.721  23.417  26.573  1.00  0.00     0.062 H 
ATOM     34  H   UNL A   1      33.901  23.877  26.728  1.00  0.00     0.065 H 
ATOM     35  H   UNL A   1      31.906  22.577  27.214  1.00  0.00     0.062 H 
ENDBRANCH  19  25
ENDBRANCH  14  17
ENDBRANCH  12  14
ENDBRANCH   7  10
ENDBRANCH   4   7
ENDBRANCH   1   4
BRANCH   1  36
ATOM     36  C   UNL A   1      35.966  23.655  24.351  1.00  0.00    -0.052 C 
ATOM     37  H   UNL A   1      35.194  24.338  24.638  1.00  0.00     0.027 H 
ATOM     38  H   UNL A   1      36.786  24.063  23.799  1.00  0.00     0.027 H 
BRANCH  36  39
ATOM     39  C   UNL A   1      36.612  23.140  25.641  1.00  0.00    -0.036 C 
ATOM     40  H   UNL A   1      37.217  22.291  25.399  1.00  0.00     0.028 H 
ATOM     41  H   UNL A   1      35.815  22.898  26.313  1.00  0.00     0.028 H 
BRANCH  39  42
ATOM     42  C   UNL A   1      37.488  24.169  26.345  1.00  0.00     0.018 C 
ATOM     43  H   UNL A   1      36.951  24.569  27.180  1.00  0.00     0.049 H 
ATOM     44  H   UNL A   1      37.730  24.939  25.643  1.00  0.00     0.049 H 
BRANCH  42  45
ATOM     45  N   UNL A   1      38.733  23.574  26.822  1.00  0.00    -0.352 N 
ATOM     46  C   UNL A   1      39.811  24.171  27.435  1.00  0.00     0.251 C 
ATOM     47  H   UNL A   1      38.813  22.604  26.685  1.00  0.00     0.163 HD
ATOM     48  O   UNL A   1      40.877  23.591  27.529  1.00  0.00    -0.269 OA
BRANCH  46  49
ATOM     49  C   UNL A   1      39.673  25.548  27.938  1.00  0.00     0.039 A 
ATOM     50  C   UNL A   1      39.174  25.736  29.230  1.00  0.00    -0.049 A 
ATOM     51  C   UNL A   1      40.060  26.631  27.144  1.00  0.00    -0.049 A 
ATOM     52  C   UNL A   1      39.162  27.014  29.768  1.00  0.00    -0.053 A 
ATOM     53  H   UNL A   1      38.817  24.936  29.775  1.00  0.00     0.063 H 
ATOM     54  C   UNL A   1      40.103  27.899  27.697  1.00  0.00    -0.053 A 
ATOM     55  H   UNL A   1      40.311  26.487  26.154  1.00  0.00     0.063 H 
ATOM     56  C   UNL A   1      39.672  28.082  29.016  1.00  0.00    -0.014 A 
ATOM     57  H   UNL A   1      38.782  27.178  30.713  1.00  0.00     0.063 H 
ATOM     58  H   UNL A   1      40.447  28.700  27.143  1.00  0.00     0.063 H 
BRANCH  56  59
ATOM     59  C   UNL A   1      39.864  29.384  29.682  1.00  0.00     0.031 A 
ATOM     60  C   UNL A   1      38.624  30.284  29.558  1.00  0.00     0.074 A 
ATOM     61  C   UNL A   1      41.087  29.578  30.258  1.00  0.00     0.049 A 
ATOM     62  N   UNL A   1      38.528  31.578  29.537  1.00  0.00    -0.248 NA
ATOM     63  C   UNL A   1      37.290  29.650  29.361  1.00  0.00    -0.034 C 
ATOM     64  C   UNL A   1      42.147  28.551  30.310  1.00  0.00    -0.036 A 
ATOM     65  N   UNL A   1      41.698  30.636  30.898  1.00  0.00    -0.354 N 
ATOM     66  C   UNL A   1      37.154  31.911  29.496  1.00  0.00     0.074 A 
ATOM     67  C   UNL A   1      36.450  30.685  29.276  1.00  0.00    -0.034 C 
ATOM     68  H   UNL A   1      37.067  28.644  29.303  1.00  0.00     0.065 H 
ATOM     69  C   UNL A   1      43.271  29.047  30.860  1.00  0.00    -0.036 A 
ATOM     70  H   UNL A   1      42.040  27.583  29.971  1.00  0.00     0.065 H 
ATOM     71  C   UNL A   1      43.069  30.435  31.216  1.00  0.00     0.049 A 
ATOM     72  H   UNL A   1      41.221  31.468  31.119  1.00  0.00     0.167 HD
ATOM     73  C   UNL A   1      36.685  33.166  29.772  1.00  0.00     0.037 A 
ATOM     74  H   UNL A   1      35.439  30.611  29.081  1.00  0.00     0.065 H 
ATOM     75  H   UNL A   1      44.146  28.518  31.005  1.00  0.00     0.065 H 
ATOM     76  C   UNL A   1      43.993  31.337  31.668  1.00  0.00     0.037 A 
ATOM     77  C   UNL A   1      37.776  34.037  30.052  1.00  0.00     0.049 A 
ATOM     78  C   UNL A   1      43.235  32.574  31.924  1.00  0.00     0.074 A 
ATOM     79  C   UNL A   1      38.725  34.609  29.248  1.00  0.00    -0.036 A 
ATOM     80  N   UNL A   1      38.189  34.112  31.360  1.00  0.00    -0.354 N 
ATOM     81  N   UNL A   1      42.394  32.743  32.902  1.00  0.00    -0.248 NA
ATOM     82  C   UNL A   1      43.322  33.664  30.943  1.00  0.00    -0.034 C 
ATOM     83  C   UNL A   1      39.889  34.577  30.043  1.00  0.00    -0.036 A 
ATOM     84  H   UNL A   1      38.615  34.975  28.289  1.00  0.00     0.065 H 
ATOM     85  C   UNL A   1      39.559  34.196  31.348  1.00  0.00     0.049 A 
ATOM     86  H   UNL A   1      37.611  34.106  32.156  1.00  0.00     0.167 HD
ATOM     87  C   UNL A   1      41.636  33.800  32.454  1.00  0.00     0.074 A 
ATOM     88  C   UNL A   1      42.423  34.493  31.461  1.00  0.00    -0.034 C 
ATOM     89  H   UNL A   1      43.910  33.758  30.100  1.00  0.00     0.065 H 
ATOM     90  H   UNL A   1      40.840  34.802  29.712  1.00  0.00     0.065 H 
ATOM     91  C   UNL A   1      40.282  33.720  32.504  1.00  0.00     0.037 A 
ATOM     92  H   UNL A   1      42.304  35.483  31.194  1.00  0.00     0.065 H 
BRANCH  73  93
ATOM     93  C   UNL A   1      35.306  33.707  30.046  1.00  0.00     0.064 A 
ATOM     94  C   UNL A   1      34.748  33.790  31.327  1.00  0.00     0.173 A 
ATOM     95  C   UNL A   1      34.678  34.487  29.041  1.00  0.00     0.173 A 
ATOM     96  F   UNL A   1      35.272  33.112  32.356  1.00  0.00    -0.203 F 
ATOM     97  C   UNL A   1      33.687  34.662  31.603  1.00  0.00     0.198 A 
ATOM     98  C   UNL A   1      33.655  35.388  29.329  1.00  0.00     0.198 A 
ATOM     99  F   UNL A   1      35.104  34.442  27.768  1.00  0.00    -0.203 F 
ATOM    100  F   UNL A   1      33.213  34.753  32.854  1.00  0.00    -0.200 F 
ATOM    101  C   UNL A   1      33.171  35.488  30.617  1.00  0.00     0.200 A 
ATOM    102  F   UNL A   1      33.189  36.203  28.370  1.00  0.00    -0.200 F 
ATOM    103  F   UNL A   1      32.236  36.401  30.918  1.00  0.00    -0.200 F 
ENDBRANCH  73  93
BRANCH  76 104
ATOM    104  C   UNL A   1      45.501  31.401  31.797  1.00  0.00     0.064 A 
ATOM    105  C   UNL A   1      46.095  31.574  33.081  1.00  0.00     0.173 A 
ATOM    106  C   UNL A   1      46.425  31.409  30.744  1.00  0.00     0.173 A 
ATOM    107  F   UNL A   1      45.392  31.409  34.209  1.00  0.00    -0.203 F 
ATOM    108  C   UNL A   1      47.430  31.931  33.272  1.00  0.00     0.198 A 
ATOM    109  C   UNL A   1      47.784  31.723  30.939  1.00  0.00     0.198 A 
ATOM    110  F   UNL A   1      46.066  31.089  29.499  1.00  0.00    -0.203 F 
ATOM    111  F   UNL A   1      47.875  32.198  34.509  1.00  0.00    -0.200 F 
ATOM    112  C   UNL A   1      48.274  32.031  32.194  1.00  0.00     0.200 A 
ATOM    113  F   UNL A   1      48.616  31.740  29.888  1.00  0.00    -0.200 F 
ATOM    114  F   UNL A   1      49.549  32.401  32.364  1.00  0.00    -0.200 F 
ENDBRANCH  76 104
BRANCH  91 115
ATOM    115  C   UNL A   1      39.754  32.789  33.575  1.00  0.00     0.064 A 
ATOM    116  C   UNL A   1      39.774  33.075  34.949  1.00  0.00     0.173 A 
ATOM    117  C   UNL A   1      39.103  31.602  33.204  1.00  0.00     0.173 A 
ATOM    118  F   UNL A   1      40.368  34.176  35.405  1.00  0.00    -0.203 F 
ATOM    119  C   UNL A   1      39.186  32.238  35.899  1.00  0.00     0.198 A 
ATOM    120  C   UNL A   1      38.505  30.764  34.150  1.00  0.00     0.198 A 
ATOM    121  F   UNL A   1      39.051  31.246  31.911  1.00  0.00    -0.203 F 
ATOM    122  F   UNL A   1      39.248  32.553  37.203  1.00  0.00    -0.200 F 
ATOM    123  C   UNL A   1      38.547  31.083  35.498  1.00  0.00     0.200 A 
ATOM    124  F   UNL A   1      37.896  29.639  33.753  1.00  0.00    -0.200 F 
ATOM    125  F   UNL A   1      37.988  30.270  36.406  1.00  0.00    -0.200 F 
ENDBRANCH  91 115
ENDBRANCH  56  59
ENDBRANCH  46  49
ENDBRANCH  42  45
ENDBRANCH  39  42
ENDBRANCH  36  39
ENDBRANCH   1  36
TORSDOF 15
ENDMDL
MODEL 4
REMARK VINA RESULT:     -12.1      4.318      9.396
REMARK SMILES O=C(Cc1cccn1-c1ccccc1F)NCCCCCCNC(=O)c1ccc(-c2c3nc(c(-c4c(F)c(F)c(F)c(F)c4F)c4ccc([nH]4)c(-c4c(F)c(F)c(F)c(F)c4F)c4nc(c(-c5c(F)c(F)c(F)c(F)c5F)c5ccc2[nH]5)C=C4)C=C3)cc1
REMARK SMILES IDX 19 1 18 4 17 7 16 10 1 11 2 12 3 14 4 17 5 18 8 19 6 20 7 22
REMARK SMILES IDX 9 25 10 26 14 27 11 28 13 30 15 31 12 32 20 36 21 39 22 42
REMARK SMILES IDX 23 45 24 46 25 48 26 49 27 50 88 51 28 52 87 54 29 56 30 59
REMARK SMILES IDX 31 60 81 61 32 62 86 63 80 64 82 65 33 66 85 67 79 69 78 71
REMARK SMILES IDX 34 73 66 76 46 77 65 78 47 79 50 80 64 81 83 82 48 83 49 85
REMARK SMILES IDX 63 87 84 88 51 91 35 93 36 94 44 95 37 96 38 97 42 98 45 99
REMARK SMILES IDX 39 100 40 101 43 102 41 103 67 104 68 105 76 106 69 107
REMARK SMILES IDX 70 108 74 109 77 110 71 111 72 112 75 113 73 114 52 115
REMARK SMILES IDX 53 116 61 117 54 118 55 119 59 120 62 121 56 122 57 123
REMARK SMILES IDX 60 124 58 125
REMARK H PARENT 19 2 19 3 18 5 18 6 17 8 17 9 16 13 3 15 3 16 5 21 6 23 7 24
REMARK H PARENT 10 29 11 33 13 34 12 35 20 37 20 38 21 40 21 41 22 43 22 44
REMARK H PARENT 23 47 27 53 88 55 28 57 87 58 86 68 80 70 82 72 85 74 79 75
REMARK H PARENT 47 84 50 86 83 89 48 90 84 92
REMARK Flexibility Score: inf
ROOT
ATOM      1  C   UNL A   1      34.313  23.762  25.910  1.00  0.00    -0.052 C 
ATOM      2  H   UNL A   1      34.838  23.958  26.821  1.00  0.00     0.027 H 
ATOM      3  H   UNL A   1      33.614  24.516  25.611  1.00  0.00     0.027 H 
ENDROOT
BRANCH   1   4
ATOM      4  C   UNL A   1      33.459  22.506  26.133  1.00  0.00    -0.036 C 
ATOM      5  H   UNL A   1      33.658  21.834  25.324  1.00  0.00     0.028 H 
ATOM      6  H   UNL A   1      33.743  22.148  27.100  1.00  0.00     0.028 H 
BRANCH   4   7
ATOM      7  C   UNL A   1      31.940  22.695  26.212  1.00  0.00     0.017 C 
ATOM      8  H   UNL A   1      31.473  21.755  26.006  1.00  0.00     0.049 H 
ATOM      9  H   UNL A   1      31.725  23.057  27.195  1.00  0.00     0.049 H 
BRANCH   7  10
ATOM     10  N   UNL A   1      31.417  23.678  25.281  1.00  0.00    -0.356 N 
ATOM     11  O   UNL A   1      31.057  25.295  26.878  1.00  0.00    -0.275 OA
ATOM     12  C   UNL A   1      31.040  24.946  25.700  1.00  0.00     0.225 C 
ATOM     13  H   UNL A   1      31.328  23.440  24.330  1.00  0.00     0.163 HD
BRANCH  12  14
ATOM     14  C   UNL A   1      30.598  25.871  24.573  1.00  0.00     0.067 C 
ATOM     15  H   UNL A   1      30.064  26.689  25.011  1.00  0.00     0.043 H 
ATOM     16  H   UNL A   1      30.007  25.268  23.917  1.00  0.00     0.043 H 
BRANCH  14  17
ATOM     17  C   UNL A   1      31.703  26.442  23.723  1.00  0.00     0.032 A 
ATOM     18  C   UNL A   1      32.253  25.863  22.585  1.00  0.00    -0.040 A 
ATOM     19  N   UNL A   1      32.387  27.628  23.938  1.00  0.00    -0.318 N 
ATOM     20  C   UNL A   1      33.275  26.708  22.100  1.00  0.00    -0.044 A 
ATOM     21  H   UNL A   1      31.964  24.965  22.166  1.00  0.00     0.064 H 
ATOM     22  C   UNL A   1      33.307  27.805  22.925  1.00  0.00     0.009 A 
ATOM     23  H   UNL A   1      33.880  26.534  21.282  1.00  0.00     0.064 H 
ATOM     24  H   UNL A   1      33.920  28.627  22.806  1.00  0.00     0.082 H 
BRANCH  19  25
ATOM     25  C   UNL A   1      32.407  28.432  25.086  1.00  0.00     0.081 A 
ATOM     26  C   UNL A   1      31.663  29.614  25.126  1.00  0.00    -0.035 A 
ATOM     27  C   UNL A   1      33.294  28.107  26.104  1.00  0.00     0.147 A 
ATOM     28  C   UNL A   1      31.783  30.449  26.237  1.00  0.00    -0.060 A 
ATOM     29  H   UNL A   1      31.035  29.865  24.347  1.00  0.00     0.065 H 
ATOM     30  C   UNL A   1      33.474  28.982  27.163  1.00  0.00    -0.024 A 
ATOM     31  F   UNL A   1      33.997  26.965  26.076  1.00  0.00    -0.205 F 
ATOM     32  C   UNL A   1      32.695  30.139  27.250  1.00  0.00    -0.059 A 
ATOM     33  H   UNL A   1      31.198  31.296  26.312  1.00  0.00     0.062 H 
ATOM     34  H   UNL A   1      34.181  28.779  27.887  1.00  0.00     0.065 H 
ATOM     35  H   UNL A   1      32.795  30.767  28.063  1.00  0.00     0.062 H 
ENDBRANCH  19  25
ENDBRANCH  14  17
ENDBRANCH  12  14
ENDBRANCH   7  10
ENDBRANCH   4   7
ENDBRANCH   1   4
BRANCH   1  36
ATOM     36  C   UNL A   1      35.348  23.725  24.784  1.00  0.00    -0.052 C 
ATOM     37  H   UNL A   1      35.376  24.704  24.353  1.00  0.00     0.027 H 
ATOM     38  H   UNL A   1      35.009  22.932  24.150  1.00  0.00     0.027 H 
BRANCH  36  39
ATOM     39  C   UNL A   1      36.793  23.338  25.113  1.00  0.00    -0.036 C 
ATOM     40  H   UNL A   1      37.392  23.497  24.242  1.00  0.00     0.028 H 
ATOM     41  H   UNL A   1      36.778  22.313  25.419  1.00  0.00     0.028 H 
BRANCH  39  42
ATOM     42  C   UNL A   1      37.398  24.134  26.263  1.00  0.00     0.018 C 
ATOM     43  H   UNL A   1      36.706  24.145  27.080  1.00  0.00     0.049 H 
ATOM     44  H   UNL A   1      37.594  25.127  25.917  1.00  0.00     0.049 H 
BRANCH  42  45
ATOM     45  N   UNL A   1      38.656  23.549  26.715  1.00  0.00    -0.352 N 
ATOM     46  C   UNL A   1      39.738  24.152  27.317  1.00  0.00     0.251 C 
ATOM     47  H   UNL A   1      38.746  22.581  26.568  1.00  0.00     0.163 HD
ATOM     48  O   UNL A   1      40.811  23.584  27.388  1.00  0.00    -0.269 OA
BRANCH  46  49
ATOM     49  C   UNL A   1      39.593  25.523  27.835  1.00  0.00     0.039 A 
ATOM     50  C   UNL A   1      39.076  25.695  29.122  1.00  0.00    -0.049 A 
ATOM     51  C   UNL A   1      39.990  26.616  27.060  1.00  0.00    -0.049 A 
ATOM     52  C   UNL A   1      39.056  26.966  29.676  1.00  0.00    -0.053 A 
ATOM     53  H   UNL A   1      38.712  24.888  29.653  1.00  0.00     0.063 H 
ATOM     54  C   UNL A   1      40.025  27.877  27.629  1.00  0.00    -0.053 A 
ATOM     55  H   UNL A   1      40.254  26.484  26.071  1.00  0.00     0.063 H 
ATOM     56  C   UNL A   1      39.577  28.043  28.944  1.00  0.00    -0.014 A 
ATOM     57  H   UNL A   1      38.663  27.118  30.617  1.00  0.00     0.063 H 
ATOM     58  H   UNL A   1      40.376  28.685  27.089  1.00  0.00     0.063 H 
BRANCH  56  59
ATOM     59  C   UNL A   1      39.759  29.337  29.628  1.00  0.00     0.031 A 
ATOM     60  C   UNL A   1      38.536  30.255  29.464  1.00  0.00     0.074 A 
ATOM     61  C   UNL A   1      40.960  29.510  30.254  1.00  0.00     0.049 A 
ATOM     62  N   UNL A   1      38.458  31.549  29.451  1.00  0.00    -0.248 NA
ATOM     63  C   UNL A   1      37.203  29.640  29.209  1.00  0.00    -0.034 C 
ATOM     64  C   UNL A   1      42.004  28.468  30.338  1.00  0.00    -0.036 A 
ATOM     65  N   UNL A   1      41.560  30.554  30.927  1.00  0.00    -0.354 N 
ATOM     66  C   UNL A   1      37.092  31.901  29.359  1.00  0.00     0.074 A 
ATOM     67  C   UNL A   1      36.381  30.687  29.101  1.00  0.00    -0.034 C 
ATOM     68  H   UNL A   1      36.970  28.637  29.133  1.00  0.00     0.065 H 
ATOM     69  C   UNL A   1      43.112  28.945  30.936  1.00  0.00    -0.036 A 
ATOM     70  H   UNL A   1      41.898  27.504  29.987  1.00  0.00     0.065 H 
ATOM     71  C   UNL A   1      42.914  30.332  31.296  1.00  0.00     0.049 A 
ATOM     72  H   UNL A   1      41.085  31.391  31.136  1.00  0.00     0.167 HD
ATOM     73  C   UNL A   1      36.628  33.160  29.628  1.00  0.00     0.037 A 
ATOM     74  H   UNL A   1      35.378  30.628  28.866  1.00  0.00     0.065 H 
ATOM     75  H   UNL A   1      43.974  28.403  31.111  1.00  0.00     0.065 H 
ATOM     76  C   UNL A   1      43.831  31.218  31.793  1.00  0.00     0.037 A 
ATOM     77  C   UNL A   1      37.718  34.014  29.958  1.00  0.00     0.049 A 
ATOM     78  C   UNL A   1      43.080  32.463  32.029  1.00  0.00     0.074 A 
ATOM     79  C   UNL A   1      38.706  34.580  29.197  1.00  0.00    -0.036 A 
ATOM     80  N   UNL A   1      38.081  34.073  31.281  1.00  0.00    -0.354 N 
ATOM     81  N   UNL A   1      42.203  32.635  32.975  1.00  0.00    -0.248 NA
ATOM     82  C   UNL A   1      43.220  33.559  31.062  1.00  0.00    -0.034 C 
ATOM     83  C   UNL A   1      39.837  34.526  30.037  1.00  0.00    -0.036 A 
ATOM     84  H   UNL A   1      38.639  34.956  28.238  1.00  0.00     0.065 H 
ATOM     85  C   UNL A   1      39.451  34.138  31.324  1.00  0.00     0.049 A 
ATOM     86  H   UNL A   1      37.472  34.068  32.054  1.00  0.00     0.167 HD
ATOM     87  C   UNL A   1      41.477  33.706  32.507  1.00  0.00     0.074 A 
ATOM     88  C   UNL A   1      42.312  34.396  31.552  1.00  0.00    -0.034 C 
ATOM     89  H   UNL A   1      43.842  33.653  30.244  1.00  0.00     0.065 H 
ATOM     90  H   UNL A   1      40.803  34.741  29.745  1.00  0.00     0.065 H 
ATOM     91  C   UNL A   1      40.122  33.643  32.503  1.00  0.00     0.037 A 
ATOM     92  H   UNL A   1      42.216  35.390  31.290  1.00  0.00     0.065 H 
BRANCH  73  93
ATOM     93  C   UNL A   1      35.247  33.717  29.852  1.00  0.00     0.064 A 
ATOM     94  C   UNL A   1      34.634  33.785  31.109  1.00  0.00     0.173 A 
ATOM     95  C   UNL A   1      34.674  34.525  28.836  1.00  0.00     0.173 A 
ATOM     96  F   UNL A   1      35.103  33.080  32.146  1.00  0.00    -0.203 F 
ATOM     97  C   UNL A   1      33.575  34.668  31.355  1.00  0.00     0.198 A 
ATOM     98  C   UNL A   1      33.653  35.437  29.097  1.00  0.00     0.198 A 
ATOM     99  F   UNL A   1      35.155  34.498  27.583  1.00  0.00    -0.203 F 
ATOM    100  F   UNL A   1      33.049  34.743  32.587  1.00  0.00    -0.200 F 
ATOM    101  C   UNL A   1      33.115  35.521  30.365  1.00  0.00     0.200 A 
ATOM    102  F   UNL A   1      33.241  36.276  28.135  1.00  0.00    -0.200 F 
ATOM    103  F   UNL A   1      32.182  36.442  30.642  1.00  0.00    -0.200 F 
ENDBRANCH  73  93
BRANCH  76 104
ATOM    104  C   UNL A   1      45.334  31.261  31.981  1.00  0.00     0.064 A 
ATOM    105  C   UNL A   1      45.882  31.282  33.296  1.00  0.00     0.173 A 
ATOM    106  C   UNL A   1      46.295  31.387  30.970  1.00  0.00     0.173 A 
ATOM    107  F   UNL A   1      45.139  30.990  34.372  1.00  0.00    -0.203 F 
ATOM    108  C   UNL A   1      47.210  31.609  33.574  1.00  0.00     0.198 A 
ATOM    109  C   UNL A   1      47.646  31.670  31.247  1.00  0.00     0.198 A 
ATOM    110  F   UNL A   1      45.980  31.214  29.683  1.00  0.00    -0.203 F 
ATOM    111  F   UNL A   1      47.610  31.730  34.848  1.00  0.00    -0.200 F 
ATOM    112  C   UNL A   1      48.091  31.830  32.546  1.00  0.00     0.200 A 
ATOM    113  F   UNL A   1      48.515  31.806  30.235  1.00  0.00    -0.200 F 
ATOM    114  F   UNL A   1      49.360  32.172  32.802  1.00  0.00    -0.200 F 
ENDBRANCH  76 104
BRANCH  91 115
ATOM    115  C   UNL A   1      39.540  32.710  33.544  1.00  0.00     0.064 A 
ATOM    116  C   UNL A   1      38.938  31.476  33.249  1.00  0.00     0.173 A 
ATOM    117  C   UNL A   1      39.684  33.013  34.906  1.00  0.00     0.173 A 
ATOM    118  F   UNL A   1      38.754  31.095  31.987  1.00  0.00    -0.203 F 
ATOM    119  C   UNL A   1      38.505  30.595  34.243  1.00  0.00     0.198 A 
ATOM    120  C   UNL A   1      39.259  32.132  35.905  1.00  0.00     0.198 A 
ATOM    121  F   UNL A   1      40.236  34.179  35.276  1.00  0.00    -0.203 F 
ATOM    122  F   UNL A   1      37.922  29.434  33.904  1.00  0.00    -0.200 F 
ATOM    123  C   UNL A   1      38.670  30.923  35.573  1.00  0.00     0.200 A 
ATOM    124  F   UNL A   1      39.414  32.462  37.194  1.00  0.00    -0.200 F 
ATOM    125  F   UNL A   1      38.248  30.085  36.532  1.00  0.00    -0.200 F 
ENDBRANCH  91 115
ENDBRANCH  56  59
ENDBRANCH  46  49
ENDBRANCH  42  45
ENDBRANCH  39  42
ENDBRANCH  36  39
ENDBRANCH   1  36
TORSDOF 15
ENDMDL
MODEL 5
REMARK VINA RESULT:     -12.0      4.095      6.442
REMARK SMILES O=C(Cc1cccn1-c1ccccc1F)NCCCCCCNC(=O)c1ccc(-c2c3nc(c(-c4c(F)c(F)c(F)c(F)c4F)c4ccc([nH]4)c(-c4c(F)c(F)c(F)c(F)c4F)c4nc(c(-c5c(F)c(F)c(F)c(F)c5F)c5ccc2[nH]5)C=C4)C=C3)cc1
REMARK SMILES IDX 19 1 18 4 17 7 16 10 1 11 2 12 3 14 4 17 5 18 8 19 6 20 7 22
REMARK SMILES IDX 9 25 10 26 14 27 11 28 13 30 15 31 12 32 20 36 21 39 22 42
REMARK SMILES IDX 23 45 24 46 25 48 26 49 27 50 88 51 28 52 87 54 29 56 30 59
REMARK SMILES IDX 31 60 81 61 32 62 86 63 80 64 82 65 33 66 85 67 79 69 78 71
REMARK SMILES IDX 34 73 66 76 46 77 65 78 47 79 50 80 64 81 83 82 48 83 49 85
REMARK SMILES IDX 63 87 84 88 51 91 35 93 36 94 44 95 37 96 38 97 42 98 45 99
REMARK SMILES IDX 39 100 40 101 43 102 41 103 67 104 68 105 76 106 69 107
REMARK SMILES IDX 70 108 74 109 77 110 71 111 72 112 75 113 73 114 52 115
REMARK SMILES IDX 53 116 61 117 54 118 55 119 59 120 62 121 56 122 57 123
REMARK SMILES IDX 60 124 58 125
REMARK H PARENT 19 2 19 3 18 5 18 6 17 8 17 9 16 13 3 15 3 16 5 21 6 23 7 24
REMARK H PARENT 10 29 11 33 13 34 12 35 20 37 20 38 21 40 21 41 22 43 22 44
REMARK H PARENT 23 47 27 53 88 55 28 57 87 58 86 68 80 70 82 72 85 74 79 75
REMARK H PARENT 47 84 50 86 83 89 48 90 84 92
REMARK Flexibility Score: inf
ROOT
ATOM      1  C   UNL A   1      32.111  29.597  27.143  1.00  0.00    -0.052 C 
ATOM      2  H   UNL A   1      32.511  30.087  28.006  1.00  0.00     0.027 H 
ATOM      3  H   UNL A   1      31.234  29.008  27.315  1.00  0.00     0.027 H 
ENDROOT
BRANCH   1   4
ATOM      4  C   UNL A   1      33.164  28.593  26.655  1.00  0.00    -0.036 C 
ATOM      5  H   UNL A   1      33.984  28.627  27.342  1.00  0.00     0.028 H 
ATOM      6  H   UNL A   1      32.651  27.655  26.609  1.00  0.00     0.028 H 
BRANCH   4   7
ATOM      7  C   UNL A   1      33.733  28.801  25.247  1.00  0.00     0.017 C 
ATOM      8  H   UNL A   1      33.169  29.573  24.768  1.00  0.00     0.049 H 
ATOM      9  H   UNL A   1      34.765  29.056  25.366  1.00  0.00     0.049 H 
BRANCH   7  10
ATOM     10  N   UNL A   1      33.688  27.616  24.411  1.00  0.00    -0.356 N 
ATOM     11  O   UNL A   1      32.481  28.610  22.722  1.00  0.00    -0.275 OA
ATOM     12  C   UNL A   1      33.076  27.631  23.165  1.00  0.00     0.225 C 
ATOM     13  H   UNL A   1      34.101  26.783  24.733  1.00  0.00     0.163 HD
BRANCH  12  14
ATOM     14  C   UNL A   1      33.202  26.324  22.391  1.00  0.00     0.067 C 
ATOM     15  H   UNL A   1      34.243  26.095  22.302  1.00  0.00     0.043 H 
ATOM     16  H   UNL A   1      32.712  26.493  21.455  1.00  0.00     0.043 H 
BRANCH  14  17
ATOM     17  C   UNL A   1      32.515  25.132  23.005  1.00  0.00     0.032 A 
ATOM     18  C   UNL A   1      31.143  24.939  23.125  1.00  0.00    -0.040 A 
ATOM     19  N   UNL A   1      33.125  24.030  23.584  1.00  0.00    -0.318 N 
ATOM     20  C   UNL A   1      30.918  23.706  23.775  1.00  0.00    -0.044 A 
ATOM     21  H   UNL A   1      30.413  25.588  22.795  1.00  0.00     0.064 H 
ATOM     22  C   UNL A   1      32.151  23.149  24.008  1.00  0.00     0.009 A 
ATOM     23  H   UNL A   1      30.002  23.302  24.026  1.00  0.00     0.064 H 
ATOM     24  H   UNL A   1      32.321  22.223  24.430  1.00  0.00     0.082 H 
BRANCH  19  25
ATOM     25  C   UNL A   1      34.464  23.870  23.963  1.00  0.00     0.081 A 
ATOM     26  C   UNL A   1      35.353  23.188  23.127  1.00  0.00    -0.035 A 
ATOM     27  C   UNL A   1      34.839  24.262  25.242  1.00  0.00     0.147 A 
ATOM     28  C   UNL A   1      36.653  22.950  23.576  1.00  0.00    -0.060 A 
ATOM     29  H   UNL A   1      35.053  22.867  22.193  1.00  0.00     0.065 H 
ATOM     30  C   UNL A   1      36.104  23.947  25.714  1.00  0.00    -0.024 A 
ATOM     31  F   UNL A   1      33.995  24.931  26.041  1.00  0.00    -0.205 F 
ATOM     32  C   UNL A   1      37.024  23.319  24.870  1.00  0.00    -0.059 A 
ATOM     33  H   UNL A   1      37.340  22.501  22.950  1.00  0.00     0.062 H 
ATOM     34  H   UNL A   1      36.364  24.174  26.686  1.00  0.00     0.065 H 
ATOM     35  H   UNL A   1      37.982  23.126  25.207  1.00  0.00     0.062 H 
ENDBRANCH  19  25
ENDBRANCH  14  17
ENDBRANCH  12  14
ENDBRANCH   7  10
ENDBRANCH   4   7
ENDBRANCH   1   4
BRANCH   1  36
ATOM     36  C   UNL A   1      31.662  30.685  26.166  1.00  0.00    -0.052 C 
ATOM     37  H   UNL A   1      30.748  30.349  25.723  1.00  0.00     0.027 H 
ATOM     38  H   UNL A   1      32.499  30.801  25.510  1.00  0.00     0.027 H 
BRANCH  36  39
ATOM     39  C   UNL A   1      31.411  32.101  26.694  1.00  0.00    -0.036 C 
ATOM     40  H   UNL A   1      30.656  32.051  27.450  1.00  0.00     0.028 H 
ATOM     41  H   UNL A   1      31.113  32.697  25.856  1.00  0.00     0.028 H 
BRANCH  39  42
ATOM     42  C   UNL A   1      32.646  32.764  27.292  1.00  0.00     0.018 C 
ATOM     43  H   UNL A   1      33.445  32.716  26.581  1.00  0.00     0.049 H 
ATOM     44  H   UNL A   1      32.903  32.244  28.191  1.00  0.00     0.049 H 
BRANCH  42  45
ATOM     45  N   UNL A   1      32.393  34.162  27.627  1.00  0.00    -0.352 N 
ATOM     46  C   UNL A   1      32.962  34.946  28.605  1.00  0.00     0.251 C 
ATOM     47  H   UNL A   1      31.715  34.610  27.073  1.00  0.00     0.163 HD
ATOM     48  O   UNL A   1      32.457  36.005  28.931  1.00  0.00    -0.269 OA
BRANCH  46  49
ATOM     49  C   UNL A   1      34.172  34.464  29.291  1.00  0.00     0.039 A 
ATOM     50  C   UNL A   1      34.020  33.758  30.487  1.00  0.00    -0.049 A 
ATOM     51  C   UNL A   1      35.435  34.692  28.738  1.00  0.00    -0.049 A 
ATOM     52  C   UNL A   1      35.136  33.183  31.077  1.00  0.00    -0.053 A 
ATOM     53  H   UNL A   1      33.091  33.666  30.927  1.00  0.00     0.063 H 
ATOM     54  C   UNL A   1      36.542  34.073  29.291  1.00  0.00    -0.053 A 
ATOM     55  H   UNL A   1      35.541  35.316  27.923  1.00  0.00     0.063 H 
ATOM     56  C   UNL A   1      36.384  33.303  30.448  1.00  0.00    -0.014 A 
ATOM     57  H   UNL A   1      35.049  32.671  31.968  1.00  0.00     0.063 H 
ATOM     58  H   UNL A   1      37.473  34.180  28.856  1.00  0.00     0.063 H 
BRANCH  56  59
ATOM     59  C   UNL A   1      37.510  32.500  30.961  1.00  0.00     0.031 A 
ATOM     60  C   UNL A   1      37.785  31.265  30.086  1.00  0.00     0.074 A 
ATOM     61  C   UNL A   1      38.088  32.959  32.110  1.00  0.00     0.049 A 
ATOM     62  N   UNL A   1      38.284  30.111  30.403  1.00  0.00    -0.248 NA
ATOM     63  C   UNL A   1      37.381  31.294  28.652  1.00  0.00    -0.034 C 
ATOM     64  C   UNL A   1      37.701  34.216  32.782  1.00  0.00    -0.036 A 
ATOM     65  N   UNL A   1      39.083  32.496  32.945  1.00  0.00    -0.354 N 
ATOM     66  C   UNL A   1      38.411  29.353  29.217  1.00  0.00     0.074 A 
ATOM     67  C   UNL A   1      37.736  30.091  28.194  1.00  0.00    -0.034 C 
ATOM     68  H   UNL A   1      36.931  32.065  28.134  1.00  0.00     0.065 H 
ATOM     69  C   UNL A   1      38.378  34.372  33.936  1.00  0.00    -0.036 A 
ATOM     70  H   UNL A   1      37.006  34.885  32.417  1.00  0.00     0.065 H 
ATOM     71  C   UNL A   1      39.263  33.245  34.139  1.00  0.00     0.049 A 
ATOM     72  H   UNL A   1      39.629  31.705  32.731  1.00  0.00     0.167 HD
ATOM     73  C   UNL A   1      39.176  28.221  29.135  1.00  0.00     0.037 A 
ATOM     74  H   UNL A   1      37.551  29.744  27.240  1.00  0.00     0.065 H 
ATOM     75  H   UNL A   1      38.279  35.174  34.579  1.00  0.00     0.065 H 
ATOM     76  C   UNL A   1      40.017  32.948  35.242  1.00  0.00     0.037 A 
ATOM     77  C   UNL A   1      39.755  27.939  30.405  1.00  0.00     0.049 A 
ATOM     78  C   UNL A   1      40.762  31.729  34.885  1.00  0.00     0.074 A 
ATOM     79  C   UNL A   1      39.225  27.453  31.570  1.00  0.00    -0.036 A 
ATOM     80  N   UNL A   1      40.974  28.514  30.671  1.00  0.00    -0.354 N 
ATOM     81  N   UNL A   1      41.745  31.679  34.034  1.00  0.00    -0.248 NA
ATOM     82  C   UNL A   1      40.296  30.442  35.419  1.00  0.00    -0.034 C 
ATOM     83  C   UNL A   1      39.914  28.171  32.568  1.00  0.00    -0.036 A 
ATOM     84  H   UNL A   1      38.495  26.733  31.689  1.00  0.00     0.065 H 
ATOM     85  C   UNL A   1      40.966  28.891  31.990  1.00  0.00     0.049 A 
ATOM     86  H   UNL A   1      41.715  28.633  30.034  1.00  0.00     0.167 HD
ATOM     87  C   UNL A   1      41.774  30.345  33.700  1.00  0.00     0.074 A 
ATOM     88  C   UNL A   1      41.122  29.628  34.772  1.00  0.00    -0.034 C 
ATOM     89  H   UNL A   1      39.547  30.232  36.097  1.00  0.00     0.065 H 
ATOM     90  H   UNL A   1      39.679  28.166  33.572  1.00  0.00     0.065 H 
ATOM     91  C   UNL A   1      41.819  29.984  32.393  1.00  0.00     0.037 A 
ATOM     92  H   UNL A   1      41.276  28.633  34.999  1.00  0.00     0.065 H 
BRANCH  73  93
ATOM     93  C   UNL A   1      39.675  27.403  27.973  1.00  0.00     0.064 A 
ATOM     94  C   UNL A   1      40.460  27.925  26.939  1.00  0.00     0.173 A 
ATOM     95  C   UNL A   1      39.660  25.989  28.091  1.00  0.00     0.173 A 
ATOM     96  F   UNL A   1      40.563  29.246  26.748  1.00  0.00    -0.203 F 
ATOM     97  C   UNL A   1      41.248  27.093  26.133  1.00  0.00     0.198 A 
ATOM     98  C   UNL A   1      40.482  25.169  27.320  1.00  0.00     0.198 A 
ATOM     99  F   UNL A   1      38.901  25.383  29.019  1.00  0.00    -0.203 F 
ATOM    100  F   UNL A   1      42.028  27.636  25.187  1.00  0.00    -0.200 F 
ATOM    101  C   UNL A   1      41.291  25.725  26.350  1.00  0.00     0.200 A 
ATOM    102  F   UNL A   1      40.535  23.851  27.565  1.00  0.00    -0.200 F 
ATOM    103  F   UNL A   1      42.135  24.954  25.652  1.00  0.00    -0.200 F 
ENDBRANCH  73  93
BRANCH  76 104
ATOM    104  C   UNL A   1      40.126  33.443  36.670  1.00  0.00     0.064 A 
ATOM    105  C   UNL A   1      39.020  33.294  37.556  1.00  0.00     0.173 A 
ATOM    106  C   UNL A   1      41.200  34.150  37.224  1.00  0.00     0.173 A 
ATOM    107  F   UNL A   1      37.988  32.493  37.264  1.00  0.00    -0.203 F 
ATOM    108  C   UNL A   1      38.914  33.962  38.777  1.00  0.00     0.198 A 
ATOM    109  C   UNL A   1      41.114  34.787  38.477  1.00  0.00     0.198 A 
ATOM    110  F   UNL A   1      42.377  34.233  36.600  1.00  0.00    -0.203 F 
ATOM    111  F   UNL A   1      37.782  33.865  39.490  1.00  0.00    -0.200 F 
ATOM    112  C   UNL A   1      39.955  34.733  39.228  1.00  0.00     0.200 A 
ATOM    113  F   UNL A   1      42.167  35.474  38.944  1.00  0.00    -0.200 F 
ATOM    114  F   UNL A   1      39.852  35.402  40.384  1.00  0.00    -0.200 F 
ENDBRANCH  76 104
BRANCH  91 115
ATOM    115  C   UNL A   1      42.440  31.023  31.483  1.00  0.00     0.064 A 
ATOM    116  C   UNL A   1      41.706  31.960  30.738  1.00  0.00     0.173 A 
ATOM    117  C   UNL A   1      43.836  31.157  31.434  1.00  0.00     0.173 A 
ATOM    118  F   UNL A   1      40.376  31.917  30.716  1.00  0.00    -0.203 F 
ATOM    119  C   UNL A   1      42.316  32.968  29.989  1.00  0.00     0.198 A 
ATOM    120  C   UNL A   1      44.452  32.170  30.693  1.00  0.00     0.198 A 
ATOM    121  F   UNL A   1      44.613  30.294  32.106  1.00  0.00    -0.203 F 
ATOM    122  F   UNL A   1      41.566  33.828  29.282  1.00  0.00    -0.200 F 
ATOM    123  C   UNL A   1      43.692  33.076  29.971  1.00  0.00     0.200 A 
ATOM    124  F   UNL A   1      45.789  32.261  30.672  1.00  0.00    -0.200 F 
ATOM    125  F   UNL A   1      44.285  34.037  29.247  1.00  0.00    -0.200 F 
ENDBRANCH  91 115
ENDBRANCH  56  59
ENDBRANCH  46  49
ENDBRANCH  42  45
ENDBRANCH  39  42
ENDBRANCH  36  39
ENDBRANCH   1  36
TORSDOF 15
ENDMDL
MODEL 6
REMARK VINA RESULT:     -12.0      2.977      7.924
REMARK SMILES O=C(Cc1cccn1-c1ccccc1F)NCCCCCCNC(=O)c1ccc(-c2c3nc(c(-c4c(F)c(F)c(F)c(F)c4F)c4ccc([nH]4)c(-c4c(F)c(F)c(F)c(F)c4F)c4nc(c(-c5c(F)c(F)c(F)c(F)c5F)c5ccc2[nH]5)C=C4)C=C3)cc1
REMARK SMILES IDX 19 1 18 4 17 7 16 10 1 11 2 12 3 14 4 17 5 18 8 19 6 20 7 22
REMARK SMILES IDX 9 25 10 26 14 27 11 28 13 30 15 31 12 32 20 36 21 39 22 42
REMARK SMILES IDX 23 45 24 46 25 48 26 49 27 50 88 51 28 52 87 54 29 56 30 59
REMARK SMILES IDX 31 60 81 61 32 62 86 63 80 64 82 65 33 66 85 67 79 69 78 71
REMARK SMILES IDX 34 73 66 76 46 77 65 78 47 79 50 80 64 81 83 82 48 83 49 85
REMARK SMILES IDX 63 87 84 88 51 91 35 93 36 94 44 95 37 96 38 97 42 98 45 99
REMARK SMILES IDX 39 100 40 101 43 102 41 103 67 104 68 105 76 106 69 107
REMARK SMILES IDX 70 108 74 109 77 110 71 111 72 112 75 113 73 114 52 115
REMARK SMILES IDX 53 116 61 117 54 118 55 119 59 120 62 121 56 122 57 123
REMARK SMILES IDX 60 124 58 125
REMARK H PARENT 19 2 19 3 18 5 18 6 17 8 17 9 16 13 3 15 3 16 5 21 6 23 7 24
REMARK H PARENT 10 29 11 33 13 34 12 35 20 37 20 38 21 40 21 41 22 43 22 44
REMARK H PARENT 23 47 27 53 88 55 28 57 87 58 86 68 80 70 82 72 85 74 79 75
REMARK H PARENT 47 84 50 86 83 89 48 90 84 92
REMARK Flexibility Score: inf
ROOT
ATOM      1  C   UNL A   1      37.329  22.159  24.592  1.00  0.00    -0.052 C 
ATOM      2  H   UNL A   1      38.296  22.299  25.028  1.00  0.00     0.027 H 
ATOM      3  H   UNL A   1      37.286  22.265  23.527  1.00  0.00     0.027 H 
ENDROOT
BRANCH   1   4
ATOM      4  C   UNL A   1      36.417  23.268  25.131  1.00  0.00    -0.036 C 
ATOM      5  H   UNL A   1      37.037  24.105  25.376  1.00  0.00     0.028 H 
ATOM      6  H   UNL A   1      35.706  23.444  24.350  1.00  0.00     0.028 H 
BRANCH   4   7
ATOM      7  C   UNL A   1      35.572  22.944  26.368  1.00  0.00     0.017 C 
ATOM      8  H   UNL A   1      35.530  21.880  26.476  1.00  0.00     0.049 H 
ATOM      9  H   UNL A   1      36.043  23.426  27.198  1.00  0.00     0.049 H 
BRANCH   7  10
ATOM     10  N   UNL A   1      34.213  23.449  26.305  1.00  0.00    -0.356 N 
ATOM     11  O   UNL A   1      33.362  21.922  27.801  1.00  0.00    -0.275 OA
ATOM     12  C   UNL A   1      33.198  22.901  27.077  1.00  0.00     0.225 C 
ATOM     13  H   UNL A   1      34.005  24.198  25.701  1.00  0.00     0.163 HD
BRANCH  12  14
ATOM     14  C   UNL A   1      31.858  23.613  26.946  1.00  0.00     0.067 C 
ATOM     15  H   UNL A   1      31.834  24.400  27.671  1.00  0.00     0.043 H 
ATOM     16  H   UNL A   1      31.113  22.861  27.096  1.00  0.00     0.043 H 
BRANCH  14  17
ATOM     17  C   UNL A   1      31.567  24.218  25.597  1.00  0.00     0.032 A 
ATOM     18  C   UNL A   1      31.223  23.528  24.440  1.00  0.00    -0.040 A 
ATOM     19  N   UNL A   1      31.618  25.561  25.261  1.00  0.00    -0.318 N 
ATOM     20  C   UNL A   1      31.055  24.462  23.394  1.00  0.00    -0.044 A 
ATOM     21  H   UNL A   1      31.110  22.506  24.359  1.00  0.00     0.064 H 
ATOM     22  C   UNL A   1      31.262  25.706  23.936  1.00  0.00     0.009 A 
ATOM     23  H   UNL A   1      30.822  24.249  22.412  1.00  0.00     0.064 H 
ATOM     24  H   UNL A   1      31.167  26.602  23.434  1.00  0.00     0.082 H 
BRANCH  19  25
ATOM     25  C   UNL A   1      32.178  26.624  25.983  1.00  0.00     0.081 A 
ATOM     26  C   UNL A   1      31.376  27.394  26.831  1.00  0.00    -0.035 A 
ATOM     27  C   UNL A   1      33.493  26.981  25.718  1.00  0.00     0.147 A 
ATOM     28  C   UNL A   1      31.935  28.510  27.455  1.00  0.00    -0.060 A 
ATOM     29  H   UNL A   1      30.389  27.142  26.992  1.00  0.00     0.065 H 
ATOM     30  C   UNL A   1      34.016  28.139  26.273  1.00  0.00    -0.024 A 
ATOM     31  F   UNL A   1      34.270  26.235  24.919  1.00  0.00    -0.205 F 
ATOM     32  C   UNL A   1      33.248  28.888  27.169  1.00  0.00    -0.059 A 
ATOM     33  H   UNL A   1      31.376  29.057  28.130  1.00  0.00     0.062 H 
ATOM     34  H   UNL A   1      34.969  28.446  26.025  1.00  0.00     0.065 H 
ATOM     35  H   UNL A   1      33.654  29.725  27.619  1.00  0.00     0.062 H 
ENDBRANCH  19  25
ENDBRANCH  14  17
ENDBRANCH  12  14
ENDBRANCH   7  10
ENDBRANCH   4   7
ENDBRANCH   1   4
BRANCH   1  36
ATOM     36  C   UNL A   1      36.915  20.709  24.854  1.00  0.00    -0.052 C 
ATOM     37  H   UNL A   1      36.293  20.410  24.037  1.00  0.00     0.027 H 
ATOM     38  H   UNL A   1      36.455  20.745  25.819  1.00  0.00     0.027 H 
BRANCH  36  39
ATOM     39  C   UNL A   1      38.002  19.640  25.006  1.00  0.00    -0.036 C 
ATOM     40  H   UNL A   1      38.319  19.341  24.030  1.00  0.00     0.028 H 
ATOM     41  H   UNL A   1      37.570  18.835  25.562  1.00  0.00     0.028 H 
BRANCH  39  42
ATOM     42  C   UNL A   1      39.224  20.111  25.785  1.00  0.00     0.018 C 
ATOM     43  H   UNL A   1      38.917  20.414  26.764  1.00  0.00     0.049 H 
ATOM     44  H   UNL A   1      39.666  20.927  25.254  1.00  0.00     0.049 H 
BRANCH  42  45
ATOM     45  N   UNL A   1      40.221  19.051  25.907  1.00  0.00    -0.352 N 
ATOM     46  C   UNL A   1      41.583  19.144  26.084  1.00  0.00     0.251 C 
ATOM     47  H   UNL A   1      39.867  18.135  25.856  1.00  0.00     0.163 HD
ATOM     48  O   UNL A   1      42.304  18.181  25.900  1.00  0.00    -0.269 OA
BRANCH  46  49
ATOM     49  C   UNL A   1      42.167  20.443  26.455  1.00  0.00     0.039 A 
ATOM     50  C   UNL A   1      42.645  21.272  25.436  1.00  0.00    -0.049 A 
ATOM     51  C   UNL A   1      42.213  20.839  27.795  1.00  0.00    -0.049 A 
ATOM     52  C   UNL A   1      43.076  22.551  25.754  1.00  0.00    -0.053 A 
ATOM     53  H   UNL A   1      42.679  20.936  24.461  1.00  0.00     0.063 H 
ATOM     54  C   UNL A   1      42.588  22.134  28.110  1.00  0.00    -0.053 A 
ATOM     55  H   UNL A   1      41.970  20.172  28.543  1.00  0.00     0.063 H 
ATOM     56  C   UNL A   1      42.998  22.992  27.084  1.00  0.00    -0.014 A 
ATOM     57  H   UNL A   1      43.448  23.173  25.021  1.00  0.00     0.063 H 
ATOM     58  H   UNL A   1      42.566  22.461  29.089  1.00  0.00     0.063 H 
BRANCH  56  59
ATOM     59  C   UNL A   1      43.241  24.419  27.367  1.00  0.00     0.031 A 
ATOM     60  C   UNL A   1      41.934  25.191  27.607  1.00  0.00     0.074 A 
ATOM     61  C   UNL A   1      44.549  24.811  27.343  1.00  0.00     0.049 A 
ATOM     62  N   UNL A   1      41.649  26.439  27.396  1.00  0.00    -0.248 NA
ATOM     63  C   UNL A   1      40.737  24.448  28.094  1.00  0.00    -0.034 C 
ATOM     64  C   UNL A   1      45.684  23.888  27.137  1.00  0.00    -0.036 A 
ATOM     65  N   UNL A   1      45.200  26.020  27.474  1.00  0.00    -0.354 N 
ATOM     66  C   UNL A   1      40.336  26.670  27.866  1.00  0.00     0.074 A 
ATOM     67  C   UNL A   1      39.789  25.385  28.179  1.00  0.00    -0.034 C 
ATOM     68  H   UNL A   1      40.660  23.443  28.313  1.00  0.00     0.065 H 
ATOM     69  C   UNL A   1      46.847  24.563  27.076  1.00  0.00    -0.036 A 
ATOM     70  H   UNL A   1      45.596  22.864  27.051  1.00  0.00     0.065 H 
ATOM     71  C   UNL A   1      46.599  25.980  27.229  1.00  0.00     0.049 A 
ATOM     72  H   UNL A   1      44.730  26.850  27.719  1.00  0.00     0.167 HD
ATOM     73  C   UNL A   1      39.832  27.924  28.082  1.00  0.00     0.037 A 
ATOM     74  H   UNL A   1      38.805  25.208  28.434  1.00  0.00     0.065 H 
ATOM     75  H   UNL A   1      47.777  24.133  26.939  1.00  0.00     0.065 H 
ATOM     76  C   UNL A   1      47.483  27.015  27.091  1.00  0.00     0.037 A 
ATOM     77  C   UNL A   1      40.805  28.901  27.726  1.00  0.00     0.049 A 
ATOM     78  C   UNL A   1      46.713  28.229  27.410  1.00  0.00     0.074 A 
ATOM     79  C   UNL A   1      41.271  29.336  26.514  1.00  0.00    -0.036 A 
ATOM     80  N   UNL A   1      41.680  29.291  28.711  1.00  0.00    -0.354 N 
ATOM     81  N   UNL A   1      46.305  28.560  28.600  1.00  0.00    -0.248 NA
ATOM     82  C   UNL A   1      46.250  29.076  26.303  1.00  0.00    -0.034 C 
ATOM     83  C   UNL A   1      42.644  29.553  26.751  1.00  0.00    -0.036 A 
ATOM     84  H   UNL A   1      40.744  29.472  25.638  1.00  0.00     0.065 H 
ATOM     85  C   UNL A   1      42.909  29.453  28.121  1.00  0.00     0.049 A 
ATOM     86  H   UNL A   1      41.466  29.427  29.662  1.00  0.00     0.167 HD
ATOM     87  C   UNL A   1      45.286  29.443  28.324  1.00  0.00     0.074 A 
ATOM     88  C   UNL A   1      45.513  29.943  26.988  1.00  0.00    -0.034 C 
ATOM     89  H   UNL A   1      46.441  29.015  25.291  1.00  0.00     0.065 H 
ATOM     90  H   UNL A   1      43.346  29.757  26.023  1.00  0.00     0.065 H 
ATOM     91  C   UNL A   1      44.086  29.293  28.940  1.00  0.00     0.037 A 
ATOM     92  H   UNL A   1      45.155  30.839  26.622  1.00  0.00     0.065 H 
BRANCH  73  93
ATOM     93  C   UNL A   1      38.607  28.427  28.798  1.00  0.00     0.064 A 
ATOM     94  C   UNL A   1      38.365  28.217  30.160  1.00  0.00     0.173 A 
ATOM     95  C   UNL A   1      37.837  29.446  28.179  1.00  0.00     0.173 A 
ATOM     96  F   UNL A   1      39.048  27.295  30.849  1.00  0.00    -0.203 F 
ATOM     97  C   UNL A   1      37.477  29.031  30.876  1.00  0.00     0.198 A 
ATOM     98  C   UNL A   1      36.991  30.284  28.903  1.00  0.00     0.198 A 
ATOM     99  F   UNL A   1      37.956  29.696  26.865  1.00  0.00    -0.203 F 
ATOM    100  F   UNL A   1      37.312  28.831  32.191  1.00  0.00    -0.200 F 
ATOM    101  C   UNL A   1      36.825  30.086  30.259  1.00  0.00     0.200 A 
ATOM    102  F   UNL A   1      36.393  31.320  28.297  1.00  0.00    -0.200 F 
ATOM    103  F   UNL A   1      36.070  30.929  30.976  1.00  0.00    -0.200 F 
ENDBRANCH  73  93
BRANCH  76 104
ATOM    104  C   UNL A   1      48.896  27.199  26.573  1.00  0.00     0.064 A 
ATOM    105  C   UNL A   1      49.155  27.099  25.176  1.00  0.00     0.173 A 
ATOM    106  C   UNL A   1      50.050  27.365  27.349  1.00  0.00     0.173 A 
ATOM    107  F   UNL A   1      48.165  27.122  24.274  1.00  0.00    -0.203 F 
ATOM    108  C   UNL A   1      50.434  26.964  24.636  1.00  0.00     0.198 A 
ATOM    109  C   UNL A   1      51.343  27.277  26.801  1.00  0.00     0.198 A 
ATOM    110  F   UNL A   1      49.979  27.648  28.652  1.00  0.00    -0.203 F 
ATOM    111  F   UNL A   1      50.580  26.747  23.320  1.00  0.00    -0.200 F 
ATOM    112  C   UNL A   1      51.534  27.027  25.454  1.00  0.00     0.200 A 
ATOM    113  F   UNL A   1      52.412  27.419  27.598  1.00  0.00    -0.200 F 
ATOM    114  F   UNL A   1      52.764  26.869  24.950  1.00  0.00    -0.200 F 
ENDBRANCH  76 104
BRANCH  91 115
ATOM    115  C   UNL A   1      44.161  28.593  30.281  1.00  0.00     0.064 A 
ATOM    116  C   UNL A   1      43.850  27.238  30.483  1.00  0.00     0.173 A 
ATOM    117  C   UNL A   1      44.665  29.279  31.396  1.00  0.00     0.173 A 
ATOM    118  F   UNL A   1      43.362  26.499  29.489  1.00  0.00    -0.203 F 
ATOM    119  C   UNL A   1      44.028  26.602  31.713  1.00  0.00     0.198 A 
ATOM    120  C   UNL A   1      44.854  28.645  32.628  1.00  0.00     0.198 A 
ATOM    121  F   UNL A   1      44.974  30.581  31.294  1.00  0.00    -0.203 F 
ATOM    122  F   UNL A   1      43.700  25.308  31.854  1.00  0.00    -0.200 F 
ATOM    123  C   UNL A   1      44.535  27.306  32.786  1.00  0.00     0.200 A 
ATOM    124  F   UNL A   1      45.336  29.339  33.667  1.00  0.00    -0.200 F 
ATOM    125  F   UNL A   1      44.700  26.703  33.972  1.00  0.00    -0.200 F 
ENDBRANCH  91 115
ENDBRANCH  56  59
ENDBRANCH  46  49
ENDBRANCH  42  45
ENDBRANCH  39  42
ENDBRANCH  36  39
ENDBRANCH   1  36
TORSDOF 15
ENDMDL
MODEL 7
REMARK VINA RESULT:     -11.9      4.138      6.617
REMARK SMILES O=C(Cc1cccn1-c1ccccc1F)NCCCCCCNC(=O)c1ccc(-c2c3nc(c(-c4c(F)c(F)c(F)c(F)c4F)c4ccc([nH]4)c(-c4c(F)c(F)c(F)c(F)c4F)c4nc(c(-c5c(F)c(F)c(F)c(F)c5F)c5ccc2[nH]5)C=C4)C=C3)cc1
REMARK SMILES IDX 19 1 18 4 17 7 16 10 1 11 2 12 3 14 4 17 5 18 8 19 6 20 7 22
REMARK SMILES IDX 9 25 10 26 14 27 11 28 13 30 15 31 12 32 20 36 21 39 22 42
REMARK SMILES IDX 23 45 24 46 25 48 26 49 27 50 88 51 28 52 87 54 29 56 30 59
REMARK SMILES IDX 31 60 81 61 32 62 86 63 80 64 82 65 33 66 85 67 79 69 78 71
REMARK SMILES IDX 34 73 66 76 46 77 65 78 47 79 50 80 64 81 83 82 48 83 49 85
REMARK SMILES IDX 63 87 84 88 51 91 35 93 36 94 44 95 37 96 38 97 42 98 45 99
REMARK SMILES IDX 39 100 40 101 43 102 41 103 67 104 68 105 76 106 69 107
REMARK SMILES IDX 70 108 74 109 77 110 71 111 72 112 75 113 73 114 52 115
REMARK SMILES IDX 53 116 61 117 54 118 55 119 59 120 62 121 56 122 57 123
REMARK SMILES IDX 60 124 58 125
REMARK H PARENT 19 2 19 3 18 5 18 6 17 8 17 9 16 13 3 15 3 16 5 21 6 23 7 24
REMARK H PARENT 10 29 11 33 13 34 12 35 20 37 20 38 21 40 21 41 22 43 22 44
REMARK H PARENT 23 47 27 53 88 55 28 57 87 58 86 68 80 70 82 72 85 74 79 75
REMARK H PARENT 47 84 50 86 83 89 48 90 84 92
REMARK Flexibility Score: inf
ROOT
ATOM      1  C   UNL A   1      31.875  29.546  26.928  1.00  0.00    -0.052 C 
ATOM      2  H   UNL A   1      31.490  29.811  27.890  1.00  0.00     0.027 H 
ATOM      3  H   UNL A   1      31.373  28.735  26.441  1.00  0.00     0.027 H 
ENDROOT
BRANCH   1   4
ATOM      4  C   UNL A   1      33.313  29.049  27.129  1.00  0.00    -0.036 C 
ATOM      5  H   UNL A   1      33.877  29.858  27.544  1.00  0.00     0.028 H 
ATOM      6  H   UNL A   1      33.222  28.190  27.760  1.00  0.00     0.028 H 
BRANCH   4   7
ATOM      7  C   UNL A   1      34.063  28.552  25.890  1.00  0.00     0.017 C 
ATOM      8  H   UNL A   1      34.509  29.395  25.406  1.00  0.00     0.049 H 
ATOM      9  H   UNL A   1      34.786  27.840  26.231  1.00  0.00     0.049 H 
BRANCH   7  10
ATOM     10  N   UNL A   1      33.223  27.865  24.926  1.00  0.00    -0.356 N 
ATOM     11  O   UNL A   1      33.695  29.301  23.190  1.00  0.00    -0.275 OA
ATOM     12  C   UNL A   1      33.134  28.290  23.608  1.00  0.00     0.225 C 
ATOM     13  H   UNL A   1      32.705  27.079  25.213  1.00  0.00     0.163 HD
BRANCH  12  14
ATOM     14  C   UNL A   1      32.275  27.399  22.719  1.00  0.00     0.067 C 
ATOM     15  H   UNL A   1      32.640  26.398  22.809  1.00  0.00     0.043 H 
ATOM     16  H   UNL A   1      32.358  27.806  21.733  1.00  0.00     0.043 H 
BRANCH  14  17
ATOM     17  C   UNL A   1      30.802  27.386  23.036  1.00  0.00     0.032 A 
ATOM     18  C   UNL A   1      29.893  28.407  22.782  1.00  0.00    -0.040 A 
ATOM     19  N   UNL A   1      30.096  26.369  23.659  1.00  0.00    -0.318 N 
ATOM     20  C   UNL A   1      28.623  28.003  23.248  1.00  0.00    -0.044 A 
ATOM     21  H   UNL A   1      30.110  29.309  22.331  1.00  0.00     0.064 H 
ATOM     22  C   UNL A   1      28.768  26.731  23.744  1.00  0.00     0.009 A 
ATOM     23  H   UNL A   1      27.753  28.559  23.222  1.00  0.00     0.064 H 
ATOM     24  H   UNL A   1      28.007  26.143  24.118  1.00  0.00     0.082 H 
BRANCH  19  25
ATOM     25  C   UNL A   1      30.592  25.259  24.355  1.00  0.00     0.081 A 
ATOM     26  C   UNL A   1      30.789  24.045  23.691  1.00  0.00    -0.035 A 
ATOM     27  C   UNL A   1      30.732  25.353  25.734  1.00  0.00     0.147 A 
ATOM     28  C   UNL A   1      31.181  22.928  24.429  1.00  0.00    -0.060 A 
ATOM     29  H   UNL A   1      30.646  23.976  22.671  1.00  0.00     0.065 H 
ATOM     30  C   UNL A   1      31.038  24.221  26.473  1.00  0.00    -0.024 A 
ATOM     31  F   UNL A   1      30.561  26.520  26.373  1.00  0.00    -0.205 F 
ATOM     32  C   UNL A   1      31.296  23.013  25.819  1.00  0.00    -0.059 A 
ATOM     33  H   UNL A   1      31.388  22.038  23.949  1.00  0.00     0.062 H 
ATOM     34  H   UNL A   1      31.075  24.270  27.502  1.00  0.00     0.065 H 
ATOM     35  H   UNL A   1      31.570  22.181  26.366  1.00  0.00     0.062 H 
ENDBRANCH  19  25
ENDBRANCH  14  17
ENDBRANCH  12  14
ENDBRANCH   7  10
ENDBRANCH   4   7
ENDBRANCH   1   4
BRANCH   1  36
ATOM     36  C   UNL A   1      31.661  30.746  26.003  1.00  0.00    -0.052 C 
ATOM     37  H   UNL A   1      30.837  30.506  25.365  1.00  0.00     0.027 H 
ATOM     38  H   UNL A   1      32.612  30.876  25.530  1.00  0.00     0.027 H 
BRANCH  36  39
ATOM     39  C   UNL A   1      31.368  32.118  26.620  1.00  0.00    -0.036 C 
ATOM     40  H   UNL A   1      30.595  32.001  27.349  1.00  0.00     0.028 H 
ATOM     41  H   UNL A   1      31.081  32.764  25.817  1.00  0.00     0.028 H 
BRANCH  39  42
ATOM     42  C   UNL A   1      32.573  32.760  27.296  1.00  0.00     0.018 C 
ATOM     43  H   UNL A   1      33.419  32.682  26.646  1.00  0.00     0.049 H 
ATOM     44  H   UNL A   1      32.752  32.248  28.218  1.00  0.00     0.049 H 
BRANCH  42  45
ATOM     45  N   UNL A   1      32.331  34.168  27.594  1.00  0.00    -0.352 N 
ATOM     46  C   UNL A   1      32.910  34.975  28.547  1.00  0.00     0.251 C 
ATOM     47  H   UNL A   1      31.655  34.606  27.030  1.00  0.00     0.163 HD
ATOM     48  O   UNL A   1      32.414  36.045  28.846  1.00  0.00    -0.269 OA
BRANCH  46  49
ATOM     49  C   UNL A   1      34.120  34.503  29.242  1.00  0.00     0.039 A 
ATOM     50  C   UNL A   1      33.972  33.891  30.489  1.00  0.00    -0.049 A 
ATOM     51  C   UNL A   1      35.376  34.647  28.647  1.00  0.00    -0.049 A 
ATOM     52  C   UNL A   1      35.083  33.323  31.096  1.00  0.00    -0.053 A 
ATOM     53  H   UNL A   1      33.051  33.863  30.954  1.00  0.00     0.063 H 
ATOM     54  C   UNL A   1      36.476  34.033  29.221  1.00  0.00    -0.053 A 
ATOM     55  H   UNL A   1      35.483  35.207  27.787  1.00  0.00     0.063 H 
ATOM     56  C   UNL A   1      36.319  33.355  30.435  1.00  0.00    -0.014 A 
ATOM     57  H   UNL A   1      35.000  32.881  32.024  1.00  0.00     0.063 H 
ATOM     58  H   UNL A   1      37.399  34.076  28.760  1.00  0.00     0.063 H 
BRANCH  56  59
ATOM     59  C   UNL A   1      37.430  32.553  30.981  1.00  0.00     0.031 A 
ATOM     60  C   UNL A   1      37.700  31.293  30.144  1.00  0.00     0.074 A 
ATOM     61  C   UNL A   1      38.001  33.037  32.124  1.00  0.00     0.049 A 
ATOM     62  N   UNL A   1      38.182  30.141  30.497  1.00  0.00    -0.248 NA
ATOM     63  C   UNL A   1      37.312  31.287  28.705  1.00  0.00    -0.034 C 
ATOM     64  C   UNL A   1      37.622  34.317  32.758  1.00  0.00    -0.036 A 
ATOM     65  N   UNL A   1      38.982  32.586  32.982  1.00  0.00    -0.354 N 
ATOM     66  C   UNL A   1      38.314  29.350  29.333  1.00  0.00     0.074 A 
ATOM     67  C   UNL A   1      37.658  30.067  28.284  1.00  0.00    -0.034 C 
ATOM     68  H   UNL A   1      36.877  32.048  28.162  1.00  0.00     0.065 H 
ATOM     69  C   UNL A   1      38.288  34.496  33.914  1.00  0.00    -0.036 A 
ATOM     70  H   UNL A   1      36.939  34.983  32.367  1.00  0.00     0.065 H 
ATOM     71  C   UNL A   1      39.157  33.366  34.157  1.00  0.00     0.049 A 
ATOM     72  H   UNL A   1      39.520  31.784  32.795  1.00  0.00     0.167 HD
ATOM     73  C   UNL A   1      39.066  28.208  29.291  1.00  0.00     0.037 A 
ATOM     74  H   UNL A   1      37.479  29.697  27.337  1.00  0.00     0.065 H 
ATOM     75  H   UNL A   1      38.192  35.317  34.534  1.00  0.00     0.065 H 
ATOM     76  C   UNL A   1      39.896  33.090  35.276  1.00  0.00     0.037 A 
ATOM     77  C   UNL A   1      39.629  27.954  30.574  1.00  0.00     0.049 A 
ATOM     78  C   UNL A   1      40.631  31.853  34.961  1.00  0.00     0.074 A 
ATOM     79  C   UNL A   1      39.080  27.506  31.746  1.00  0.00    -0.036 A 
ATOM     80  N   UNL A   1      40.851  28.522  30.838  1.00  0.00    -0.354 N 
ATOM     81  N   UNL A   1      41.622  31.769  34.123  1.00  0.00    -0.248 NA
ATOM     82  C   UNL A   1      40.144  30.587  35.524  1.00  0.00    -0.034 C 
ATOM     83  C   UNL A   1      39.767  28.244  32.732  1.00  0.00    -0.036 A 
ATOM     84  H   UNL A   1      38.341  26.798  31.877  1.00  0.00     0.065 H 
ATOM     85  C   UNL A   1      40.833  28.936  32.146  1.00  0.00     0.049 A 
ATOM     86  H   UNL A   1      41.600  28.615  30.206  1.00  0.00     0.167 HD
ATOM     87  C   UNL A   1      41.640  30.426  33.825  1.00  0.00     0.074 A 
ATOM     88  C   UNL A   1      40.968  29.746  34.908  1.00  0.00    -0.034 C 
ATOM     89  H   UNL A   1      39.386  30.404  36.200  1.00  0.00     0.065 H 
ATOM     90  H   UNL A   1      39.521  28.268  33.734  1.00  0.00     0.065 H 
ATOM     91  C   UNL A   1      41.694  30.030  32.529  1.00  0.00     0.037 A 
ATOM     92  H   UNL A   1      41.108  28.756  35.164  1.00  0.00     0.065 H 
BRANCH  73  93
ATOM     93  C   UNL A   1      39.568  27.352  28.158  1.00  0.00     0.064 A 
ATOM     94  C   UNL A   1      40.331  27.847  27.093  1.00  0.00     0.173 A 
ATOM     95  C   UNL A   1      39.583  25.944  28.333  1.00  0.00     0.173 A 
ATOM     96  F   UNL A   1      40.405  29.161  26.847  1.00  0.00    -0.203 F 
ATOM     97  C   UNL A   1      41.126  26.998  26.312  1.00  0.00     0.198 A 
ATOM     98  C   UNL A   1      40.412  25.110  27.586  1.00  0.00     0.198 A 
ATOM     99  F   UNL A   1      38.847  25.363  29.294  1.00  0.00    -0.203 F 
ATOM    100  F   UNL A   1      41.884  27.517  25.335  1.00  0.00    -0.200 F 
ATOM    101  C   UNL A   1      41.199  25.642  26.584  1.00  0.00     0.200 A 
ATOM    102  F   UNL A   1      40.494  23.805  27.883  1.00  0.00    -0.200 F 
ATOM    103  F   UNL A   1      42.050  24.859  25.908  1.00  0.00    -0.200 F 
ENDBRANCH  73  93
BRANCH  76 104
ATOM    104  C   UNL A   1      39.996  33.622  36.691  1.00  0.00     0.064 A 
ATOM    105  C   UNL A   1      41.252  34.073  37.191  1.00  0.00     0.173 A 
ATOM    106  C   UNL A   1      38.972  33.635  37.648  1.00  0.00     0.173 A 
ATOM    107  F   UNL A   1      42.290  34.302  36.377  1.00  0.00    -0.203 F 
ATOM    108  C   UNL A   1      41.507  34.303  38.543  1.00  0.00     0.198 A 
ATOM    109  C   UNL A   1      39.216  33.912  39.006  1.00  0.00     0.198 A 
ATOM    110  F   UNL A   1      37.700  33.411  37.311  1.00  0.00    -0.203 F 
ATOM    111  F   UNL A   1      42.752  34.602  38.942  1.00  0.00    -0.200 F 
ATOM    112  C   UNL A   1      40.491  34.197  39.460  1.00  0.00     0.200 A 
ATOM    113  F   UNL A   1      38.201  33.883  39.881  1.00  0.00    -0.200 F 
ATOM    114  F   UNL A   1      40.732  34.387  40.763  1.00  0.00    -0.200 F 
ENDBRANCH  76 104
BRANCH  91 115
ATOM    115  C   UNL A   1      42.337  31.036  31.598  1.00  0.00     0.064 A 
ATOM    116  C   UNL A   1      41.621  31.905  30.758  1.00  0.00     0.173 A 
ATOM    117  C   UNL A   1      43.729  31.214  31.622  1.00  0.00     0.173 A 
ATOM    118  F   UNL A   1      40.296  31.817  30.663  1.00  0.00    -0.203 F 
ATOM    119  C   UNL A   1      42.244  32.890  29.990  1.00  0.00     0.198 A 
ATOM    120  C   UNL A   1      44.358  32.203  30.860  1.00  0.00     0.198 A 
ATOM    121  F   UNL A   1      44.490  30.416  32.386  1.00  0.00    -0.203 F 
ATOM    122  F   UNL A   1      41.512  33.683  29.192  1.00  0.00    -0.200 F 
ATOM    123  C   UNL A   1      43.615  33.041  30.044  1.00  0.00     0.200 A 
ATOM    124  F   UNL A   1      45.689  32.337  30.911  1.00  0.00    -0.200 F 
ATOM    125  F   UNL A   1      44.220  33.980  29.301  1.00  0.00    -0.200 F 
ENDBRANCH  91 115
ENDBRANCH  56  59
ENDBRANCH  46  49
ENDBRANCH  42  45
ENDBRANCH  39  42
ENDBRANCH  36  39
ENDBRANCH   1  36
TORSDOF 15
ENDMDL
MODEL 8
REMARK VINA RESULT:     -11.8      1.307      2.783
REMARK SMILES O=C(Cc1cccn1-c1ccccc1F)NCCCCCCNC(=O)c1ccc(-c2c3nc(c(-c4c(F)c(F)c(F)c(F)c4F)c4ccc([nH]4)c(-c4c(F)c(F)c(F)c(F)c4F)c4nc(c(-c5c(F)c(F)c(F)c(F)c5F)c5ccc2[nH]5)C=C4)C=C3)cc1
REMARK SMILES IDX 19 1 18 4 17 7 16 10 1 11 2 12 3 14 4 17 5 18 8 19 6 20 7 22
REMARK SMILES IDX 9 25 10 26 14 27 11 28 13 30 15 31 12 32 20 36 21 39 22 42
REMARK SMILES IDX 23 45 24 46 25 48 26 49 27 50 88 51 28 52 87 54 29 56 30 59
REMARK SMILES IDX 31 60 81 61 32 62 86 63 80 64 82 65 33 66 85 67 79 69 78 71
REMARK SMILES IDX 34 73 66 76 46 77 65 78 47 79 50 80 64 81 83 82 48 83 49 85
REMARK SMILES IDX 63 87 84 88 51 91 35 93 36 94 44 95 37 96 38 97 42 98 45 99
REMARK SMILES IDX 39 100 40 101 43 102 41 103 67 104 68 105 76 106 69 107
REMARK SMILES IDX 70 108 74 109 77 110 71 111 72 112 75 113 73 114 52 115
REMARK SMILES IDX 53 116 61 117 54 118 55 119 59 120 62 121 56 122 57 123
REMARK SMILES IDX 60 124 58 125
REMARK H PARENT 19 2 19 3 18 5 18 6 17 8 17 9 16 13 3 15 3 16 5 21 6 23 7 24
REMARK H PARENT 10 29 11 33 13 34 12 35 20 37 20 38 21 40 21 41 22 43 22 44
REMARK H PARENT 23 47 27 53 88 55 28 57 87 58 86 68 80 70 82 72 85 74 79 75
REMARK H PARENT 47 84 50 86 83 89 48 90 84 92
REMARK Flexibility Score: inf
ROOT
ATOM      1  C   UNL A   1      33.635  27.548  24.442  1.00  0.00    -0.052 C 
ATOM      2  H   UNL A   1      34.168  28.465  24.299  1.00  0.00     0.027 H 
ATOM      3  H   UNL A   1      34.239  26.665  24.473  1.00  0.00     0.027 H 
ENDROOT
BRANCH   1   4
ATOM      4  C   UNL A   1      32.721  27.353  23.225  1.00  0.00    -0.036 C 
ATOM      5  H   UNL A   1      31.764  27.040  23.589  1.00  0.00     0.028 H 
ATOM      6  H   UNL A   1      32.728  28.296  22.721  1.00  0.00     0.028 H 
BRANCH   4   7
ATOM      7  C   UNL A   1      33.167  26.336  22.169  1.00  0.00     0.017 C 
ATOM      8  H   UNL A   1      32.296  25.966  21.670  1.00  0.00     0.049 H 
ATOM      9  H   UNL A   1      33.835  26.850  21.509  1.00  0.00     0.049 H 
BRANCH   7  10
ATOM     10  N   UNL A   1      33.899  25.205  22.708  1.00  0.00    -0.356 N 
ATOM     11  O   UNL A   1      32.057  23.834  22.868  1.00  0.00    -0.275 OA
ATOM     12  C   UNL A   1      33.269  24.001  22.989  1.00  0.00     0.225 C 
ATOM     13  H   UNL A   1      34.864  25.293  22.879  1.00  0.00     0.163 HD
BRANCH  12  14
ATOM     14  C   UNL A   1      34.208  22.900  23.466  1.00  0.00     0.067 C 
ATOM     15  H   UNL A   1      35.208  23.196  23.227  1.00  0.00     0.043 H 
ATOM     16  H   UNL A   1      33.887  22.009  22.968  1.00  0.00     0.043 H 
BRANCH  14  17
ATOM     17  C   UNL A   1      34.156  22.589  24.939  1.00  0.00     0.032 A 
ATOM     18  C   UNL A   1      34.448  23.464  25.979  1.00  0.00    -0.040 A 
ATOM     19  N   UNL A   1      33.838  21.371  25.520  1.00  0.00    -0.318 N 
ATOM     20  C   UNL A   1      34.297  22.775  27.202  1.00  0.00    -0.044 A 
ATOM     21  H   UNL A   1      34.728  24.452  25.875  1.00  0.00     0.064 H 
ATOM     22  C   UNL A   1      33.882  21.504  26.893  1.00  0.00     0.009 A 
ATOM     23  H   UNL A   1      34.467  23.155  28.147  1.00  0.00     0.064 H 
ATOM     24  H   UNL A   1      33.641  20.769  27.575  1.00  0.00     0.082 H 
BRANCH  19  25
ATOM     25  C   UNL A   1      33.742  20.111  24.914  1.00  0.00     0.081 A 
ATOM     26  C   UNL A   1      32.489  19.573  24.610  1.00  0.00    -0.035 A 
ATOM     27  C   UNL A   1      34.900  19.358  24.772  1.00  0.00     0.147 A 
ATOM     28  C   UNL A   1      32.417  18.274  24.106  1.00  0.00    -0.060 A 
ATOM     29  H   UNL A   1      31.631  20.128  24.755  1.00  0.00     0.065 H 
ATOM     30  C   UNL A   1      34.815  18.039  24.353  1.00  0.00    -0.024 A 
ATOM     31  F   UNL A   1      36.106  19.876  25.047  1.00  0.00    -0.205 F 
ATOM     32  C   UNL A   1      33.577  17.505  23.988  1.00  0.00    -0.059 A 
ATOM     33  H   UNL A   1      31.506  17.881  23.820  1.00  0.00     0.062 H 
ATOM     34  H   UNL A   1      35.664  17.455  24.312  1.00  0.00     0.065 H 
ATOM     35  H   UNL A   1      33.519  16.537  23.631  1.00  0.00     0.062 H 
ENDBRANCH  19  25
ENDBRANCH  14  17
ENDBRANCH  12  14
ENDBRANCH   7  10
ENDBRANCH   4   7
ENDBRANCH   1   4
BRANCH   1  36
ATOM     36  C   UNL A   1      32.975  27.614  25.822  1.00  0.00    -0.052 C 
ATOM     37  H   UNL A   1      33.130  26.664  26.288  1.00  0.00     0.027 H 
ATOM     38  H   UNL A   1      31.962  27.884  25.608  1.00  0.00     0.027 H 
BRANCH  36  39
ATOM     39  C   UNL A   1      33.437  28.683  26.817  1.00  0.00    -0.036 C 
ATOM     40  H   UNL A   1      33.091  28.408  27.791  1.00  0.00     0.028 H 
ATOM     41  H   UNL A   1      33.030  29.615  26.485  1.00  0.00     0.028 H 
BRANCH  39  42
ATOM     42  C   UNL A   1      34.950  28.857  26.877  1.00  0.00     0.018 C 
ATOM     43  H   UNL A   1      35.356  28.705  25.899  1.00  0.00     0.049 H 
ATOM     44  H   UNL A   1      35.342  28.140  27.569  1.00  0.00     0.049 H 
BRANCH  42  45
ATOM     45  N   UNL A   1      35.317  30.191  27.342  1.00  0.00    -0.352 N 
ATOM     46  C   UNL A   1      36.438  30.604  28.025  1.00  0.00     0.251 C 
ATOM     47  H   UNL A   1      34.667  30.900  27.137  1.00  0.00     0.163 HD
ATOM     48  O   UNL A   1      36.473  31.691  28.572  1.00  0.00    -0.269 OA
BRANCH  46  49
ATOM     49  C   UNL A   1      37.588  29.690  28.127  1.00  0.00     0.039 A 
ATOM     50  C   UNL A   1      38.545  29.711  27.108  1.00  0.00    -0.049 A 
ATOM     51  C   UNL A   1      37.723  28.846  29.232  1.00  0.00    -0.049 A 
ATOM     52  C   UNL A   1      39.699  28.955  27.253  1.00  0.00    -0.053 A 
ATOM     53  H   UNL A   1      38.395  30.279  26.260  1.00  0.00     0.063 H 
ATOM     54  C   UNL A   1      38.897  28.135  29.407  1.00  0.00    -0.053 A 
ATOM     55  H   UNL A   1      36.952  28.753  29.913  1.00  0.00     0.063 H 
ATOM     56  C   UNL A   1      39.890  28.209  28.425  1.00  0.00    -0.014 A 
ATOM     57  H   UNL A   1      40.411  28.942  26.506  1.00  0.00     0.063 H 
ATOM     58  H   UNL A   1      39.037  27.556  30.251  1.00  0.00     0.063 H 
BRANCH  56  59
ATOM     59  C   UNL A   1      41.212  27.599  28.663  1.00  0.00     0.031 A 
ATOM     60  C   UNL A   1      41.293  26.163  28.119  1.00  0.00     0.074 A 
ATOM     61  C   UNL A   1      42.111  28.380  29.332  1.00  0.00     0.049 A 
ATOM     62  N   UNL A   1      42.005  25.156  28.520  1.00  0.00    -0.248 NA
ATOM     63  C   UNL A   1      40.393  25.766  26.999  1.00  0.00    -0.034 C 
ATOM     64  C   UNL A   1      41.850  29.777  29.735  1.00  0.00    -0.036 A 
ATOM     65  N   UNL A   1      43.389  28.190  29.814  1.00  0.00    -0.354 N 
ATOM     66  C   UNL A   1      41.780  24.083  27.627  1.00  0.00     0.074 A 
ATOM     67  C   UNL A   1      40.696  24.483  26.783  1.00  0.00    -0.034 C 
ATOM     68  H   UNL A   1      39.698  26.347  26.506  1.00  0.00     0.065 H 
ATOM     69  C   UNL A   1      42.877  30.270  30.453  1.00  0.00    -0.036 A 
ATOM     70  H   UNL A   1      40.996  30.305  29.498  1.00  0.00     0.065 H 
ATOM     71  C   UNL A   1      43.902  29.258  30.597  1.00  0.00     0.049 A 
ATOM     72  H   UNL A   1      43.908  27.374  29.629  1.00  0.00     0.167 HD
ATOM     73  C   UNL A   1      42.590  22.982  27.568  1.00  0.00     0.037 A 
ATOM     74  H   UNL A   1      40.218  23.869  26.105  1.00  0.00     0.065 H 
ATOM     75  H   UNL A   1      42.926  31.226  30.842  1.00  0.00     0.065 H 
ATOM     76  C   UNL A   1      45.036  29.304  31.362  1.00  0.00     0.037 A 
ATOM     77  C   UNL A   1      43.621  23.090  28.543  1.00  0.00     0.049 A 
ATOM     78  C   UNL A   1      45.738  28.038  31.091  1.00  0.00     0.074 A 
ATOM     79  C   UNL A   1      43.614  22.966  29.907  1.00  0.00    -0.036 A 
ATOM     80  N   UNL A   1      44.777  23.724  28.156  1.00  0.00    -0.354 N 
ATOM     81  N   UNL A   1      46.341  27.745  29.976  1.00  0.00    -0.248 NA
ATOM     82  C   UNL A   1      45.654  26.963  32.089  1.00  0.00    -0.034 C 
ATOM     83  C   UNL A   1      44.530  23.950  30.330  1.00  0.00    -0.036 A 
ATOM     84  H   UNL A   1      43.068  22.309  30.487  1.00  0.00     0.065 H 
ATOM     85  C   UNL A   1      45.205  24.474  29.223  1.00  0.00     0.049 A 
ATOM     86  H   UNL A   1      45.214  23.655  27.277  1.00  0.00     0.167 HD
ATOM     87  C   UNL A   1      46.404  26.372  30.030  1.00  0.00     0.074 A 
ATOM     88  C   UNL A   1      46.277  25.999  31.420  1.00  0.00    -0.034 C 
ATOM     89  H   UNL A   1      45.235  26.958  33.032  1.00  0.00     0.065 H 
ATOM     90  H   UNL A   1      44.679  24.240  31.309  1.00  0.00     0.065 H 
ATOM     91  C   UNL A   1      46.011  25.642  28.956  1.00  0.00     0.037 A 
ATOM     92  H   UNL A   1      46.619  25.116  31.831  1.00  0.00     0.065 H 
BRANCH  73  93
ATOM     93  C   UNL A   1      42.724  21.860  26.572  1.00  0.00     0.064 A 
ATOM     94  C   UNL A   1      43.635  21.872  25.510  1.00  0.00     0.173 A 
ATOM     95  C   UNL A   1      42.172  20.596  26.905  1.00  0.00     0.173 A 
ATOM     96  F   UNL A   1      44.231  23.007  25.123  1.00  0.00    -0.203 F 
ATOM     97  C   UNL A   1      44.035  20.686  24.881  1.00  0.00     0.198 A 
ATOM     98  C   UNL A   1      42.609  19.413  26.310  1.00  0.00     0.198 A 
ATOM     99  F   UNL A   1      41.252  20.480  27.876  1.00  0.00    -0.203 F 
ATOM    100  F   UNL A   1      44.951  20.733  23.902  1.00  0.00    -0.200 F 
ATOM    101  C   UNL A   1      43.556  19.458  25.308  1.00  0.00     0.200 A 
ATOM    102  F   UNL A   1      42.158  18.232  26.757  1.00  0.00    -0.200 F 
ATOM    103  F   UNL A   1      44.033  18.323  24.779  1.00  0.00    -0.200 F 
ENDBRANCH  73  93
BRANCH  76 104
ATOM    104  C   UNL A   1      45.599  30.198  32.448  1.00  0.00     0.064 A 
ATOM    105  C   UNL A   1      44.886  30.360  33.672  1.00  0.00     0.173 A 
ATOM    106  C   UNL A   1      46.742  31.001  32.353  1.00  0.00     0.173 A 
ATOM    107  F   UNL A   1      43.880  29.544  34.012  1.00  0.00    -0.203 F 
ATOM    108  C   UNL A   1      45.163  31.365  34.599  1.00  0.00     0.198 A 
ATOM    109  C   UNL A   1      47.052  31.985  33.311  1.00  0.00     0.198 A 
ATOM    110  F   UNL A   1      47.618  30.852  31.356  1.00  0.00    -0.203 F 
ATOM    111  F   UNL A   1      44.362  31.525  35.663  1.00  0.00    -0.200 F 
ATOM    112  C   UNL A   1      46.236  32.199  34.406  1.00  0.00     0.200 A 
ATOM    113  F   UNL A   1      48.147  32.743  33.152  1.00  0.00    -0.200 F 
ATOM    114  F   UNL A   1      46.492  33.185  35.275  1.00  0.00    -0.200 F 
ENDBRANCH  76 104
BRANCH  91 115
ATOM    115  C   UNL A   1      46.130  26.370  27.634  1.00  0.00     0.064 A 
ATOM    116  C   UNL A   1      47.349  26.644  26.991  1.00  0.00     0.173 A 
ATOM    117  C   UNL A   1      44.971  26.718  26.925  1.00  0.00     0.173 A 
ATOM    118  F   UNL A   1      48.507  26.354  27.580  1.00  0.00    -0.203 F 
ATOM    119  C   UNL A   1      47.415  27.226  25.724  1.00  0.00     0.198 A 
ATOM    120  C   UNL A   1      45.031  27.293  25.652  1.00  0.00     0.198 A 
ATOM    121  F   UNL A   1      43.764  26.504  27.473  1.00  0.00    -0.203 F 
ATOM    122  F   UNL A   1      48.608  27.480  25.162  1.00  0.00    -0.200 F 
ATOM    123  C   UNL A   1      46.254  27.547  25.052  1.00  0.00     0.200 A 
ATOM    124  F   UNL A   1      43.899  27.612  25.011  1.00  0.00    -0.200 F 
ATOM    125  F   UNL A   1      46.311  28.114  23.838  1.00  0.00    -0.200 F 
ENDBRANCH  91 115
ENDBRANCH  56  59
ENDBRANCH  46  49
ENDBRANCH  42  45
ENDBRANCH  39  42
ENDBRANCH  36  39
ENDBRANCH   1  36
TORSDOF 15
ENDMDL
MODEL 9
REMARK VINA RESULT:     -11.8      4.665      7.104
REMARK SMILES O=C(Cc1cccn1-c1ccccc1F)NCCCCCCNC(=O)c1ccc(-c2c3nc(c(-c4c(F)c(F)c(F)c(F)c4F)c4ccc([nH]4)c(-c4c(F)c(F)c(F)c(F)c4F)c4nc(c(-c5c(F)c(F)c(F)c(F)c5F)c5ccc2[nH]5)C=C4)C=C3)cc1
REMARK SMILES IDX 19 1 18 4 17 7 16 10 1 11 2 12 3 14 4 17 5 18 8 19 6 20 7 22
REMARK SMILES IDX 9 25 10 26 14 27 11 28 13 30 15 31 12 32 20 36 21 39 22 42
REMARK SMILES IDX 23 45 24 46 25 48 26 49 27 50 88 51 28 52 87 54 29 56 30 59
REMARK SMILES IDX 31 60 81 61 32 62 86 63 80 64 82 65 33 66 85 67 79 69 78 71
REMARK SMILES IDX 34 73 66 76 46 77 65 78 47 79 50 80 64 81 83 82 48 83 49 85
REMARK SMILES IDX 63 87 84 88 51 91 35 93 36 94 44 95 37 96 38 97 42 98 45 99
REMARK SMILES IDX 39 100 40 101 43 102 41 103 67 104 68 105 76 106 69 107
REMARK SMILES IDX 70 108 74 109 77 110 71 111 72 112 75 113 73 114 52 115
REMARK SMILES IDX 53 116 61 117 54 118 55 119 59 120 62 121 56 122 57 123
REMARK SMILES IDX 60 124 58 125
REMARK H PARENT 19 2 19 3 18 5 18 6 17 8 17 9 16 13 3 15 3 16 5 21 6 23 7 24
REMARK H PARENT 10 29 11 33 13 34 12 35 20 37 20 38 21 40 21 41 22 43 22 44
REMARK H PARENT 23 47 27 53 88 55 28 57 87 58 86 68 80 70 82 72 85 74 79 75
REMARK H PARENT 47 84 50 86 83 89 48 90 84 92
REMARK Flexibility Score: inf
ROOT
ATOM      1  C   UNL A   1      33.177  30.124  27.194  1.00  0.00    -0.052 C 
ATOM      2  H   UNL A   1      33.905  30.772  26.753  1.00  0.00     0.027 H 
ATOM      3  H   UNL A   1      33.191  30.079  28.263  1.00  0.00     0.027 H 
ENDROOT
BRANCH   1   4
ATOM      4  C   UNL A   1      33.499  28.694  26.740  1.00  0.00    -0.036 C 
ATOM      5  H   UNL A   1      34.374  28.378  27.268  1.00  0.00     0.028 H 
ATOM      6  H   UNL A   1      32.614  28.131  26.952  1.00  0.00     0.028 H 
BRANCH   4   7
ATOM      7  C   UNL A   1      33.757  28.473  25.246  1.00  0.00     0.017 C 
ATOM      8  H   UNL A   1      34.654  28.992  24.980  1.00  0.00     0.049 H 
ATOM      9  H   UNL A   1      33.831  27.416  25.098  1.00  0.00     0.049 H 
BRANCH   7  10
ATOM     10  N   UNL A   1      32.687  28.942  24.385  1.00  0.00    -0.356 N 
ATOM     11  O   UNL A   1      33.230  27.565  22.623  1.00  0.00    -0.275 OA
ATOM     12  C   UNL A   1      32.487  28.408  23.120  1.00  0.00     0.225 C 
ATOM     13  H   UNL A   1      32.090  29.655  24.705  1.00  0.00     0.163 HD
BRANCH  12  14
ATOM     14  C   UNL A   1      31.266  28.959  22.394  1.00  0.00     0.067 C 
ATOM     15  H   UNL A   1      31.365  28.719  21.356  1.00  0.00     0.043 H 
ATOM     16  H   UNL A   1      31.255  30.009  22.599  1.00  0.00     0.043 H 
BRANCH  14  17
ATOM     17  C   UNL A   1      29.934  28.435  22.865  1.00  0.00     0.032 A 
ATOM     18  C   UNL A   1      29.656  27.138  23.284  1.00  0.00    -0.040 A 
ATOM     19  N   UNL A   1      28.743  29.141  22.940  1.00  0.00    -0.318 N 
ATOM     20  C   UNL A   1      28.288  27.059  23.622  1.00  0.00    -0.044 A 
ATOM     21  H   UNL A   1      30.336  26.364  23.337  1.00  0.00     0.064 H 
ATOM     22  C   UNL A   1      27.761  28.313  23.442  1.00  0.00     0.009 A 
ATOM     23  H   UNL A   1      27.782  26.219  23.944  1.00  0.00     0.064 H 
ATOM     24  H   UNL A   1      26.789  28.591  23.649  1.00  0.00     0.082 H 
BRANCH  19  25
ATOM     25  C   UNL A   1      28.428  30.386  22.378  1.00  0.00     0.081 A 
ATOM     26  C   UNL A   1      28.039  30.472  21.038  1.00  0.00    -0.035 A 
ATOM     27  C   UNL A   1      28.659  31.528  23.133  1.00  0.00     0.147 A 
ATOM     28  C   UNL A   1      27.834  31.732  20.475  1.00  0.00    -0.060 A 
ATOM     29  H   UNL A   1      27.907  29.618  20.474  1.00  0.00     0.065 H 
ATOM     30  C   UNL A   1      28.537  32.777  22.544  1.00  0.00    -0.024 A 
ATOM     31  F   UNL A   1      29.016  31.450  24.423  1.00  0.00    -0.205 F 
ATOM     32  C   UNL A   1      28.093  32.883  21.223  1.00  0.00    -0.059 A 
ATOM     33  H   UNL A   1      27.490  31.814  19.505  1.00  0.00     0.062 H 
ATOM     34  H   UNL A   1      28.775  33.626  23.079  1.00  0.00     0.065 H 
ATOM     35  H   UNL A   1      27.956  33.815  20.799  1.00  0.00     0.062 H 
ENDBRANCH  19  25
ENDBRANCH  14  17
ENDBRANCH  12  14
ENDBRANCH   7  10
ENDBRANCH   4   7
ENDBRANCH   1   4
BRANCH   1  36
ATOM     36  C   UNL A   1      31.796  30.684  26.847  1.00  0.00    -0.052 C 
ATOM     37  H   UNL A   1      31.097  30.229  27.517  1.00  0.00     0.027 H 
ATOM     38  H   UNL A   1      31.681  30.458  25.808  1.00  0.00     0.027 H 
BRANCH  36  39
ATOM     39  C   UNL A   1      31.567  32.197  26.920  1.00  0.00    -0.036 C 
ATOM     40  H   UNL A   1      30.835  32.392  27.676  1.00  0.00     0.028 H 
ATOM     41  H   UNL A   1      31.247  32.511  25.949  1.00  0.00     0.028 H 
BRANCH  39  42
ATOM     42  C   UNL A   1      32.822  32.995  27.252  1.00  0.00     0.018 C 
ATOM     43  H   UNL A   1      33.435  33.058  26.377  1.00  0.00     0.049 H 
ATOM     44  H   UNL A   1      33.338  32.494  28.044  1.00  0.00     0.049 H 
BRANCH  42  45
ATOM     45  N   UNL A   1      32.495  34.345  27.700  1.00  0.00    -0.352 N 
ATOM     46  C   UNL A   1      32.998  35.064  28.761  1.00  0.00     0.251 C 
ATOM     47  H   UNL A   1      31.813  34.811  27.165  1.00  0.00     0.163 HD
ATOM     48  O   UNL A   1      32.435  36.065  29.162  1.00  0.00    -0.269 OA
BRANCH  46  49
ATOM     49  C   UNL A   1      34.209  34.576  29.441  1.00  0.00     0.039 A 
ATOM     50  C   UNL A   1      34.061  33.885  30.648  1.00  0.00    -0.049 A 
ATOM     51  C   UNL A   1      35.469  34.783  28.873  1.00  0.00    -0.049 A 
ATOM     52  C   UNL A   1      35.176  33.305  31.233  1.00  0.00    -0.053 A 
ATOM     53  H   UNL A   1      33.135  33.809  31.097  1.00  0.00     0.063 H 
ATOM     54  C   UNL A   1      36.575  34.158  29.423  1.00  0.00    -0.053 A 
ATOM     55  H   UNL A   1      35.575  35.396  28.050  1.00  0.00     0.063 H 
ATOM     56  C   UNL A   1      36.419  33.404  30.591  1.00  0.00    -0.014 A 
ATOM     57  H   UNL A   1      35.092  32.805  32.131  1.00  0.00     0.063 H 
ATOM     58  H   UNL A   1      37.503  34.249  28.979  1.00  0.00     0.063 H 
BRANCH  56  59
ATOM     59  C   UNL A   1      37.541  32.594  31.103  1.00  0.00     0.031 A 
ATOM     60  C   UNL A   1      37.783  31.337  30.251  1.00  0.00     0.074 A 
ATOM     61  C   UNL A   1      38.145  33.068  32.232  1.00  0.00     0.049 A 
ATOM     62  N   UNL A   1      38.269  30.182  30.584  1.00  0.00    -0.248 NA
ATOM     63  C   UNL A   1      37.356  31.342  28.823  1.00  0.00    -0.034 C 
ATOM     64  C   UNL A   1      37.789  34.346  32.884  1.00  0.00    -0.036 A 
ATOM     65  N   UNL A   1      39.147  32.608  33.061  1.00  0.00    -0.354 N 
ATOM     66  C   UNL A   1      38.365  29.397  29.412  1.00  0.00     0.074 A 
ATOM     67  C   UNL A   1      37.684  30.124  28.385  1.00  0.00    -0.034 C 
ATOM     68  H   UNL A   1      36.909  32.108  28.296  1.00  0.00     0.065 H 
ATOM     69  C   UNL A   1      38.487  34.515  34.022  1.00  0.00    -0.036 A 
ATOM     70  H   UNL A   1      37.098  35.017  32.515  1.00  0.00     0.065 H 
ATOM     71  C   UNL A   1      39.358  33.379  34.235  1.00  0.00     0.049 A 
ATOM     72  H   UNL A   1      39.676  31.804  32.855  1.00  0.00     0.167 HD
ATOM     73  C   UNL A   1      39.111  28.251  29.343  1.00  0.00     0.037 A 
ATOM     74  H   UNL A   1      37.478  29.759  27.441  1.00  0.00     0.065 H 
ATOM     75  H   UNL A   1      38.411  35.332  34.650  1.00  0.00     0.065 H 
ATOM     76  C   UNL A   1      40.125  33.094  35.331  1.00  0.00     0.037 A 
ATOM     77  C   UNL A   1      39.707  27.988  30.608  1.00  0.00     0.049 A 
ATOM     78  C   UNL A   1      40.846  31.855  34.989  1.00  0.00     0.074 A 
ATOM     79  C   UNL A   1      39.188  27.535  31.792  1.00  0.00    -0.036 A 
ATOM     80  N   UNL A   1      40.939  28.549  30.842  1.00  0.00    -0.354 N 
ATOM     81  N   UNL A   1      41.814  31.773  34.124  1.00  0.00    -0.248 NA
ATOM     82  C   UNL A   1      40.369  30.588  35.558  1.00  0.00    -0.034 C 
ATOM     83  C   UNL A   1      39.905  28.263  32.763  1.00  0.00    -0.036 A 
ATOM     84  H   UNL A   1      38.450  26.829  31.938  1.00  0.00     0.065 H 
ATOM     85  C   UNL A   1      40.958  28.954  32.153  1.00  0.00     0.049 A 
ATOM     86  H   UNL A   1      41.670  28.642  30.191  1.00  0.00     0.167 HD
ATOM     87  C   UNL A   1      41.817  30.431  33.818  1.00  0.00     0.074 A 
ATOM     88  C   UNL A   1      41.172  29.748  34.915  1.00  0.00    -0.034 C 
ATOM     89  H   UNL A   1      39.629  30.405  36.253  1.00  0.00     0.065 H 
ATOM     90  H   UNL A   1      39.687  28.283  33.771  1.00  0.00     0.065 H 
ATOM     91  C   UNL A   1      41.834  30.042  32.518  1.00  0.00     0.037 A 
ATOM     92  H   UNL A   1      41.314  28.755  35.161  1.00  0.00     0.065 H 
BRANCH  73  93
ATOM     93  C   UNL A   1      39.578  27.401  28.191  1.00  0.00     0.064 A 
ATOM     94  C   UNL A   1      40.325  27.896  27.116  1.00  0.00     0.173 A 
ATOM     95  C   UNL A   1      39.578  25.991  28.352  1.00  0.00     0.173 A 
ATOM     96  F   UNL A   1      40.412  29.211  26.881  1.00  0.00    -0.203 F 
ATOM     97  C   UNL A   1      41.093  27.045  26.310  1.00  0.00     0.198 A 
ATOM     98  C   UNL A   1      40.380  25.153  27.580  1.00  0.00     0.198 A 
ATOM     99  F   UNL A   1      38.854  25.410  29.322  1.00  0.00    -0.203 F 
ATOM    100  F   UNL A   1      41.837  27.563  25.323  1.00  0.00    -0.200 F 
ATOM    101  C   UNL A   1      41.153  25.685  26.568  1.00  0.00     0.200 A 
ATOM    102  F   UNL A   1      40.450  23.844  27.863  1.00  0.00    -0.200 F 
ATOM    103  F   UNL A   1      41.979  24.897  25.866  1.00  0.00    -0.200 F 
ENDBRANCH  73  93
BRANCH  76 104
ATOM    104  C   UNL A   1      40.266  33.617  36.747  1.00  0.00     0.064 A 
ATOM    105  C   UNL A   1      39.188  33.465  37.667  1.00  0.00     0.173 A 
ATOM    106  C   UNL A   1      41.342  34.354  37.257  1.00  0.00     0.173 A 
ATOM    107  F   UNL A   1      38.163  32.640  37.419  1.00  0.00    -0.203 F 
ATOM    108  C   UNL A   1      39.105  34.154  38.878  1.00  0.00     0.198 A 
ATOM    109  C   UNL A   1      41.280  35.013  38.500  1.00  0.00     0.198 A 
ATOM    110  F   UNL A   1      42.500  34.445  36.598  1.00  0.00    -0.203 F 
ATOM    111  F   UNL A   1      37.996  34.051  39.625  1.00  0.00    -0.200 F 
ATOM    112  C   UNL A   1      40.144  34.952  39.285  1.00  0.00     0.200 A 
ATOM    113  F   UNL A   1      42.333  35.726  38.924  1.00  0.00    -0.200 F 
ATOM    114  F   UNL A   1      40.061  35.640  40.431  1.00  0.00    -0.200 F 
ENDBRANCH  76 104
BRANCH  91 115
ATOM    115  C   UNL A   1      42.456  31.051  31.576  1.00  0.00     0.064 A 
ATOM    116  C   UNL A   1      41.721  31.932  30.765  1.00  0.00     0.173 A 
ATOM    117  C   UNL A   1      43.849  31.219  31.560  1.00  0.00     0.173 A 
ATOM    118  F   UNL A   1      40.394  31.854  30.709  1.00  0.00    -0.203 F 
ATOM    119  C   UNL A   1      42.328  32.918  29.986  1.00  0.00     0.198 A 
ATOM    120  C   UNL A   1      44.462  32.210  30.787  1.00  0.00     0.198 A 
ATOM    121  F   UNL A   1      44.627  30.410  32.295  1.00  0.00    -0.203 F 
ATOM    122  F   UNL A   1      41.578  33.723  29.217  1.00  0.00    -0.200 F 
ATOM    123  C   UNL A   1      43.701  33.060  30.001  1.00  0.00     0.200 A 
ATOM    124  F   UNL A   1      45.795  32.335  30.799  1.00  0.00    -0.200 F 
ATOM    125  F   UNL A   1      44.291  34.000  29.247  1.00  0.00    -0.200 F 
ENDBRANCH  91 115
ENDBRANCH  56  59
ENDBRANCH  46  49
ENDBRANCH  42  45
ENDBRANCH  39  42
ENDBRANCH  36  39
ENDBRANCH   1  36
TORSDOF 15
ENDMDL
MODEL 10
REMARK VINA RESULT:     -11.8      3.068      7.807
REMARK SMILES O=C(Cc1cccn1-c1ccccc1F)NCCCCCCNC(=O)c1ccc(-c2c3nc(c(-c4c(F)c(F)c(F)c(F)c4F)c4ccc([nH]4)c(-c4c(F)c(F)c(F)c(F)c4F)c4nc(c(-c5c(F)c(F)c(F)c(F)c5F)c5ccc2[nH]5)C=C4)C=C3)cc1
REMARK SMILES IDX 19 1 18 4 17 7 16 10 1 11 2 12 3 14 4 17 5 18 8 19 6 20 7 22
REMARK SMILES IDX 9 25 10 26 14 27 11 28 13 30 15 31 12 32 20 36 21 39 22 42
REMARK SMILES IDX 23 45 24 46 25 48 26 49 27 50 88 51 28 52 87 54 29 56 30 59
REMARK SMILES IDX 31 60 81 61 32 62 86 63 80 64 82 65 33 66 85 67 79 69 78 71
REMARK SMILES IDX 34 73 66 76 46 77 65 78 47 79 50 80 64 81 83 82 48 83 49 85
REMARK SMILES IDX 63 87 84 88 51 91 35 93 36 94 44 95 37 96 38 97 42 98 45 99
REMARK SMILES IDX 39 100 40 101 43 102 41 103 67 104 68 105 76 106 69 107
REMARK SMILES IDX 70 108 74 109 77 110 71 111 72 112 75 113 73 114 52 115
REMARK SMILES IDX 53 116 61 117 54 118 55 119 59 120 62 121 56 122 57 123
REMARK SMILES IDX 60 124 58 125
REMARK H PARENT 19 2 19 3 18 5 18 6 17 8 17 9 16 13 3 15 3 16 5 21 6 23 7 24
REMARK H PARENT 10 29 11 33 13 34 12 35 20 37 20 38 21 40 21 41 22 43 22 44
REMARK H PARENT 23 47 27 53 88 55 28 57 87 58 86 68 80 70 82 72 85 74 79 75
REMARK H PARENT 47 84 50 86 83 89 48 90 84 92
REMARK Flexibility Score: inf
ROOT
ATOM      1  C   UNL A   1      37.284  21.962  24.487  1.00  0.00    -0.052 C 
ATOM      2  H   UNL A   1      38.169  21.940  23.886  1.00  0.00     0.027 H 
ATOM      3  H   UNL A   1      36.387  22.239  23.973  1.00  0.00     0.027 H 
ENDROOT
BRANCH   1   4
ATOM      4  C   UNL A   1      37.477  23.054  25.548  1.00  0.00    -0.036 C 
ATOM      5  H   UNL A   1      37.983  22.609  26.380  1.00  0.00     0.028 H 
ATOM      6  H   UNL A   1      38.020  23.830  25.050  1.00  0.00     0.028 H 
BRANCH   4   7
ATOM      7  C   UNL A   1      36.217  23.738  26.089  1.00  0.00     0.017 C 
ATOM      8  H   UNL A   1      36.454  24.182  27.032  1.00  0.00     0.049 H 
ATOM      9  H   UNL A   1      35.919  24.459  25.356  1.00  0.00     0.049 H 
BRANCH   7  10
ATOM     10  N   UNL A   1      35.092  22.841  26.276  1.00  0.00    -0.356 N 
ATOM     11  O   UNL A   1      33.530  24.520  26.476  1.00  0.00    -0.275 OA
ATOM     12  C   UNL A   1      33.798  23.322  26.425  1.00  0.00     0.225 C 
ATOM     13  H   UNL A   1      35.249  21.870  26.299  1.00  0.00     0.163 HD
BRANCH  12  14
ATOM     14  C   UNL A   1      32.735  22.235  26.523  1.00  0.00     0.067 C 
ATOM     15  H   UNL A   1      31.791  22.714  26.683  1.00  0.00     0.043 H 
ATOM     16  H   UNL A   1      33.042  21.600  27.327  1.00  0.00     0.043 H 
BRANCH  14  17
ATOM     17  C   UNL A   1      32.602  21.340  25.319  1.00  0.00     0.032 A 
ATOM     18  C   UNL A   1      32.862  19.974  25.272  1.00  0.00    -0.040 A 
ATOM     19  N   UNL A   1      32.225  21.718  24.040  1.00  0.00    -0.318 N 
ATOM     20  C   UNL A   1      32.634  19.519  23.955  1.00  0.00    -0.044 A 
ATOM     21  H   UNL A   1      33.171  19.392  26.065  1.00  0.00     0.064 H 
ATOM     22  C   UNL A   1      32.203  20.602  23.230  1.00  0.00     0.009 A 
ATOM     23  H   UNL A   1      32.766  18.557  23.606  1.00  0.00     0.064 H 
ATOM     24  H   UNL A   1      31.910  20.583  22.241  1.00  0.00     0.082 H 
BRANCH  19  25
ATOM     25  C   UNL A   1      32.129  23.009  23.502  1.00  0.00     0.081 A 
ATOM     26  C   UNL A   1      30.912  23.696  23.543  1.00  0.00    -0.035 A 
ATOM     27  C   UNL A   1      33.215  23.513  22.800  1.00  0.00     0.147 A 
ATOM     28  C   UNL A   1      30.816  24.934  22.907  1.00  0.00    -0.060 A 
ATOM     29  H   UNL A   1      30.099  23.295  24.036  1.00  0.00     0.065 H 
ATOM     30  C   UNL A   1      33.087  24.701  22.098  1.00  0.00    -0.024 A 
ATOM     31  F   UNL A   1      34.389  22.865  22.772  1.00  0.00    -0.205 F 
ATOM     32  C   UNL A   1      31.898  25.431  22.176  1.00  0.00    -0.059 A 
ATOM     33  H   UNL A   1      29.945  25.483  22.976  1.00  0.00     0.062 H 
ATOM     34  H   UNL A   1      33.868  25.046  21.519  1.00  0.00     0.065 H 
ATOM     35  H   UNL A   1      31.819  26.340  21.692  1.00  0.00     0.062 H 
ENDBRANCH  19  25
ENDBRANCH  14  17
ENDBRANCH  12  14
ENDBRANCH   7  10
ENDBRANCH   4   7
ENDBRANCH   1   4
BRANCH   1  36
ATOM     36  C   UNL A   1      37.027  20.536  24.976  1.00  0.00    -0.052 C 
ATOM     37  H   UNL A   1      36.252  20.129  24.360  1.00  0.00     0.027 H 
ATOM     38  H   UNL A   1      36.799  20.658  26.014  1.00  0.00     0.027 H 
BRANCH  36  39
ATOM     39  C   UNL A   1      38.181  19.527  24.970  1.00  0.00    -0.036 C 
ATOM     40  H   UNL A   1      38.465  19.346  23.955  1.00  0.00     0.028 H 
ATOM     41  H   UNL A   1      37.825  18.645  25.460  1.00  0.00     0.028 H 
BRANCH  39  42
ATOM     42  C   UNL A   1      39.411  19.995  25.738  1.00  0.00     0.018 C 
ATOM     43  H   UNL A   1      39.113  20.306  26.717  1.00  0.00     0.049 H 
ATOM     44  H   UNL A   1      39.854  20.806  25.198  1.00  0.00     0.049 H 
BRANCH  42  45
ATOM     45  N   UNL A   1      40.402  18.930  25.859  1.00  0.00    -0.352 N 
ATOM     46  C   UNL A   1      41.762  19.015  26.051  1.00  0.00     0.251 C 
ATOM     47  H   UNL A   1      40.045  18.016  25.795  1.00  0.00     0.163 HD
ATOM     48  O   UNL A   1      42.482  18.051  25.864  1.00  0.00    -0.269 OA
BRANCH  46  49
ATOM     49  C   UNL A   1      42.348  20.308  26.442  1.00  0.00     0.039 A 
ATOM     50  C   UNL A   1      42.939  21.096  25.450  1.00  0.00    -0.049 A 
ATOM     51  C   UNL A   1      42.286  20.738  27.770  1.00  0.00    -0.049 A 
ATOM     52  C   UNL A   1      43.376  22.372  25.774  1.00  0.00    -0.053 A 
ATOM     53  H   UNL A   1      43.050  20.734  24.490  1.00  0.00     0.063 H 
ATOM     54  C   UNL A   1      42.669  22.030  28.086  1.00  0.00    -0.053 A 
ATOM     55  H   UNL A   1      41.958  20.097  28.509  1.00  0.00     0.063 H 
ATOM     56  C   UNL A   1      43.193  22.849  27.080  1.00  0.00    -0.014 A 
ATOM     57  H   UNL A   1      43.829  22.964  25.062  1.00  0.00     0.063 H 
ATOM     58  H   UNL A   1      42.569  22.384  29.051  1.00  0.00     0.063 H 
BRANCH  56  59
ATOM     59  C   UNL A   1      43.450  24.277  27.350  1.00  0.00     0.031 A 
ATOM     60  C   UNL A   1      42.149  25.070  27.553  1.00  0.00     0.074 A 
ATOM     61  C   UNL A   1      44.764  24.651  27.347  1.00  0.00     0.049 A 
ATOM     62  N   UNL A   1      41.886  26.319  27.320  1.00  0.00    -0.248 NA
ATOM     63  C   UNL A   1      40.933  24.351  28.026  1.00  0.00    -0.034 C 
ATOM     64  C   UNL A   1      45.889  23.709  27.176  1.00  0.00    -0.036 A 
ATOM     65  N   UNL A   1      45.429  25.852  27.475  1.00  0.00    -0.354 N 
ATOM     66  C   UNL A   1      40.567  26.574  27.761  1.00  0.00     0.074 A 
ATOM     67  C   UNL A   1      39.997  25.302  28.080  1.00  0.00    -0.034 C 
ATOM     68  H   UNL A   1      40.837  23.349  28.257  1.00  0.00     0.065 H 
ATOM     69  C   UNL A   1      47.063  24.367  27.129  1.00  0.00    -0.036 A 
ATOM     70  H   UNL A   1      45.789  22.685  27.101  1.00  0.00     0.065 H 
ATOM     71  C   UNL A   1      46.832  25.789  27.259  1.00  0.00     0.049 A 
ATOM     72  H   UNL A   1      44.966  26.691  27.700  1.00  0.00     0.167 HD
ATOM     73  C   UNL A   1      40.078  27.838  27.950  1.00  0.00     0.037 A 
ATOM     74  H   UNL A   1      39.005  25.142  28.317  1.00  0.00     0.065 H 
ATOM     75  H   UNL A   1      47.989  23.923  27.017  1.00  0.00     0.065 H 
ATOM     76  C   UNL A   1      47.733  26.810  27.126  1.00  0.00     0.037 A 
ATOM     77  C   UNL A   1      41.071  28.796  27.602  1.00  0.00     0.049 A 
ATOM     78  C   UNL A   1      46.974  28.038  27.413  1.00  0.00     0.074 A 
ATOM     79  C   UNL A   1      41.567  29.209  26.394  1.00  0.00    -0.036 A 
ATOM     80  N   UNL A   1      41.932  29.187  28.598  1.00  0.00    -0.354 N 
ATOM     81  N   UNL A   1      46.547  28.391  28.591  1.00  0.00    -0.248 NA
ATOM     82  C   UNL A   1      46.545  28.877  26.286  1.00  0.00    -0.034 C 
ATOM     83  C   UNL A   1      42.938  29.410  26.655  1.00  0.00    -0.036 A 
ATOM     84  H   UNL A   1      41.059  29.340  25.505  1.00  0.00     0.065 H 
ATOM     85  C   UNL A   1      43.174  29.325  28.031  1.00  0.00     0.049 A 
ATOM     86  H   UNL A   1      41.701  29.339  29.543  1.00  0.00     0.167 HD
ATOM     87  C   UNL A   1      45.546  29.284  28.282  1.00  0.00     0.074 A 
ATOM     88  C   UNL A   1      45.807  29.763  26.945  1.00  0.00    -0.034 C 
ATOM     89  H   UNL A   1      46.756  28.800  25.279  1.00  0.00     0.065 H 
ATOM     90  H   UNL A   1      43.658  29.594  25.939  1.00  0.00     0.065 H 
ATOM     91  C   UNL A   1      44.333  29.159  28.876  1.00  0.00     0.037 A 
ATOM     92  H   UNL A   1      45.469  30.659  26.560  1.00  0.00     0.065 H 
BRANCH  73  93
ATOM     93  C   UNL A   1      38.845  28.368  28.635  1.00  0.00     0.064 A 
ATOM     94  C   UNL A   1      38.533  28.110  29.975  1.00  0.00     0.173 A 
ATOM     95  C   UNL A   1      38.152  29.448  28.030  1.00  0.00     0.173 A 
ATOM     96  F   UNL A   1      39.141  27.127  30.650  1.00  0.00    -0.203 F 
ATOM     97  C   UNL A   1      37.652  28.934  30.688  1.00  0.00     0.198 A 
ATOM     98  C   UNL A   1      37.314  30.293  28.755  1.00  0.00     0.198 A 
ATOM     99  F   UNL A   1      38.341  29.749  26.735  1.00  0.00    -0.203 F 
ATOM    100  F   UNL A   1      37.419  28.686  31.985  1.00  0.00    -0.200 F 
ATOM    101  C   UNL A   1      37.078  30.045  30.092  1.00  0.00     0.200 A 
ATOM    102  F   UNL A   1      36.792  31.382  28.171  1.00  0.00    -0.200 F 
ATOM    103  F   UNL A   1      36.330  30.891  30.813  1.00  0.00    -0.200 F 
ENDBRANCH  73  93
BRANCH  76 104
ATOM    104  C   UNL A   1      49.158  26.967  26.634  1.00  0.00     0.064 A 
ATOM    105  C   UNL A   1      50.120  27.626  27.452  1.00  0.00     0.173 A 
ATOM    106  C   UNL A   1      49.644  26.611  25.369  1.00  0.00     0.173 A 
ATOM    107  F   UNL A   1      49.891  27.871  28.748  1.00  0.00    -0.203 F 
ATOM    108  C   UNL A   1      51.357  28.071  26.983  1.00  0.00     0.198 A 
ATOM    109  C   UNL A   1      50.910  27.018  24.908  1.00  0.00     0.198 A 
ATOM    110  F   UNL A   1      48.936  25.837  24.542  1.00  0.00    -0.203 F 
ATOM    111  F   UNL A   1      52.149  28.796  27.786  1.00  0.00    -0.200 F 
ATOM    112  C   UNL A   1      51.744  27.789  25.697  1.00  0.00     0.200 A 
ATOM    113  F   UNL A   1      51.311  26.669  23.677  1.00  0.00    -0.200 F 
ATOM    114  F   UNL A   1      52.915  28.238  25.228  1.00  0.00    -0.200 F 
ENDBRANCH  76 104
BRANCH  91 115
ATOM    115  C   UNL A   1      44.370  28.476  30.227  1.00  0.00     0.064 A 
ATOM    116  C   UNL A   1      44.020  27.133  30.443  1.00  0.00     0.173 A 
ATOM    117  C   UNL A   1      44.879  29.163  31.339  1.00  0.00     0.173 A 
ATOM    118  F   UNL A   1      43.525  26.394  29.453  1.00  0.00    -0.203 F 
ATOM    119  C   UNL A   1      44.165  26.509  31.684  1.00  0.00     0.198 A 
ATOM    120  C   UNL A   1      45.034  28.542  32.582  1.00  0.00     0.198 A 
ATOM    121  F   UNL A   1      45.225  30.455  31.224  1.00  0.00    -0.203 F 
ATOM    122  F   UNL A   1      43.799  25.227  31.838  1.00  0.00    -0.200 F 
ATOM    123  C   UNL A   1      44.677  27.214  32.754  1.00  0.00     0.200 A 
ATOM    124  F   UNL A   1      45.522  29.236  33.618  1.00  0.00    -0.200 F 
ATOM    125  F   UNL A   1      44.810  26.623  33.950  1.00  0.00    -0.200 F 
ENDBRANCH  91 115
ENDBRANCH  56  59
ENDBRANCH  46  49
ENDBRANCH  42  45
ENDBRANCH  39  42
ENDBRANCH  36  39
ENDBRANCH   1  36
TORSDOF 15
ENDMDL
