MODEL 1
REMARK VINA RESULT:     -13.6      0.000      0.000
REMARK SMILES O=C1O[C@@H](c2ccc(O)c(O)c2)[C@H](C(=O)NCCCCCCNC(=O)c2ccc(-c3c4nc(c(-c5c(F)c(F)c(F)c(F)c5F)c5ccc([nH]5)c(-c5c(F)c(F)c(F)c(F)c5F)c5nc(c(-c6c(F)c(F)c(F)c(F)c6F)c6ccc3[nH]6)C=C5)C=C4)cc2)/C1=C\c1ccc(O)c(O)c1
REMARK SMILES IDX 19 1 18 4 17 7 16 10 14 11 15 12 13 14 1 15 2 16 3 17 89 18
REMARK SMILES IDX 4 19 90 20 5 24 6 25 12 26 7 27 10 29 8 31 11 33 9 35 91 37
REMARK SMILES IDX 92 38 98 39 93 40 96 42 94 44 97 46 95 48 20 50 21 53 22 56
REMARK SMILES IDX 23 59 24 60 25 62 26 63 27 64 88 65 28 66 87 68 29 70 30 73
REMARK SMILES IDX 31 74 81 75 32 76 86 77 80 78 82 79 33 80 85 81 79 83 78 85
REMARK SMILES IDX 34 87 66 90 46 91 65 92 47 93 50 94 64 95 83 96 48 97 49 99
REMARK SMILES IDX 63 101 84 102 51 105 35 107 36 108 44 109 37 110 38 111
REMARK SMILES IDX 42 112 45 113 39 114 40 115 43 116 41 117 67 118 68 119
REMARK SMILES IDX 76 120 69 121 70 122 74 123 77 124 71 125 72 126 75 127
REMARK SMILES IDX 73 128 52 129 53 130 61 131 54 132 55 133 59 134 62 135
REMARK SMILES IDX 56 136 57 137 60 138 58 139
REMARK H PARENT 19 2 19 3 18 5 18 6 17 8 17 9 16 13 4 21 13 22 90 23 6 28
REMARK H PARENT 12 30 7 32 11 34 9 36 92 41 98 43 93 45 97 47 95 49 20 51
REMARK H PARENT 20 52 21 54 21 55 22 57 22 58 23 61 27 67 88 69 28 71 87 72
REMARK H PARENT 86 82 80 84 82 86 85 88 79 89 47 98 50 100 83 103 48 104
REMARK H PARENT 84 106
REMARK Flexibility Score: inf
ROOT
ATOM      1  C   UNL A   1      32.301  29.918  27.141  1.00  0.00    -0.052 C 
ATOM      2  H   UNL A   1      33.285  29.763  26.751  1.00  0.00     0.027 H 
ATOM      3  H   UNL A   1      32.288  30.438  28.076  1.00  0.00     0.027 H 
ENDROOT
BRANCH   1   4
ATOM      4  C   UNL A   1      31.676  28.548  27.409  1.00  0.00    -0.036 C 
ATOM      5  H   UNL A   1      31.331  28.531  28.421  1.00  0.00     0.028 H 
ATOM      6  H   UNL A   1      30.888  28.427  26.696  1.00  0.00     0.028 H 
BRANCH   4   7
ATOM      7  C   UNL A   1      32.624  27.373  27.211  1.00  0.00     0.017 C 
ATOM      8  H   UNL A   1      33.101  27.163  28.144  1.00  0.00     0.049 H 
ATOM      9  H   UNL A   1      32.036  26.551  26.860  1.00  0.00     0.049 H 
BRANCH   7  10
ATOM     10  N   UNL A   1      33.647  27.617  26.218  1.00  0.00    -0.355 N 
ATOM     11  C   UNL A   1      33.577  27.637  24.853  1.00  0.00     0.231 C 
ATOM     12  O   UNL A   1      34.583  28.022  24.258  1.00  0.00    -0.274 OA
ATOM     13  H   UNL A   1      34.542  27.799  26.586  1.00  0.00     0.163 HD
BRANCH  11  14
ATOM     14  C   UNL A   1      32.332  27.109  24.128  1.00  0.00     0.111 C 
ATOM     15  O   UNL A   1      33.339  26.053  20.865  1.00  0.00    -0.247 OA
ATOM     16  C   UNL A   1      32.849  26.591  21.843  1.00  0.00     0.335 C 
ATOM     17  O   UNL A   1      32.326  27.841  21.871  1.00  0.00    -0.453 OA
ATOM     18  C   UNL A   1      32.698  26.008  23.188  1.00  0.00     0.054 C 
ATOM     19  C   UNL A   1      31.737  28.120  23.152  1.00  0.00     0.143 C 
ATOM     20  C   UNL A   1      32.869  24.692  23.374  1.00  0.00    -0.043 C 
ATOM     21  H   UNL A   1      31.968  29.106  23.498  1.00  0.00     0.081 H 
ATOM     22  H   UNL A   1      31.668  26.839  24.922  1.00  0.00     0.050 H 
ATOM     23  H   UNL A   1      33.116  24.117  22.554  1.00  0.00     0.063 H 
BRANCH  19  24
ATOM     24  C   UNL A   1      30.206  28.131  23.081  1.00  0.00    -0.002 A 
ATOM     25  C   UNL A   1      29.433  27.117  23.694  1.00  0.00    -0.051 A 
ATOM     26  C   UNL A   1      29.519  29.201  22.486  1.00  0.00    -0.009 A 
ATOM     27  C   UNL A   1      28.036  27.177  23.739  1.00  0.00    -0.016 A 
ATOM     28  H   UNL A   1      29.913  26.311  24.123  1.00  0.00     0.063 H 
ATOM     29  C   UNL A   1      28.129  29.242  22.513  1.00  0.00     0.157 A 
ATOM     30  H   UNL A   1      30.048  29.960  22.028  1.00  0.00     0.067 H 
ATOM     31  C   UNL A   1      27.390  28.247  23.144  1.00  0.00     0.157 A 
ATOM     32  H   UNL A   1      27.494  26.434  24.208  1.00  0.00     0.066 H 
BRANCH  29  33
ATOM     33  O   UNL A   1      27.484  30.288  21.918  1.00  0.00    -0.504 OA
ATOM     34  H   UNL A   1      27.959  31.062  21.686  1.00  0.00     0.293 HD
ENDBRANCH  29  33
BRANCH  31  35
ATOM     35  O   UNL A   1      26.030  28.368  23.158  1.00  0.00    -0.504 OA
ATOM     36  H   UNL A   1      25.629  29.104  23.577  1.00  0.00     0.293 HD
ENDBRANCH  31  35
ENDBRANCH  19  24
BRANCH  20  37
ATOM     37  C   UNL A   1      32.732  24.017  24.663  1.00  0.00    -0.021 A 
ATOM     38  C   UNL A   1      33.795  23.984  25.580  1.00  0.00    -0.051 A 
ATOM     39  C   UNL A   1      31.508  23.429  25.000  1.00  0.00    -0.009 A 
ATOM     40  C   UNL A   1      33.651  23.345  26.815  1.00  0.00    -0.016 A 
ATOM     41  H   UNL A   1      34.691  24.436  25.340  1.00  0.00     0.063 H 
ATOM     42  C   UNL A   1      31.370  22.804  26.232  1.00  0.00     0.157 A 
ATOM     43  H   UNL A   1      30.716  23.459  24.340  1.00  0.00     0.067 H 
ATOM     44  C   UNL A   1      32.433  22.756  27.131  1.00  0.00     0.157 A 
ATOM     45  H   UNL A   1      34.438  23.312  27.481  1.00  0.00     0.066 H 
BRANCH  42  46
ATOM     46  O   UNL A   1      30.174  22.236  26.562  1.00  0.00    -0.504 OA
ATOM     47  H   UNL A   1      29.933  21.406  26.201  1.00  0.00     0.293 HD
ENDBRANCH  42  46
BRANCH  44  48
ATOM     48  O   UNL A   1      32.228  22.118  28.323  1.00  0.00    -0.504 OA
ATOM     49  H   UNL A   1      31.940  22.605  29.071  1.00  0.00     0.293 HD
ENDBRANCH  44  48
ENDBRANCH  20  37
ENDBRANCH  11  14
ENDBRANCH   7  10
ENDBRANCH   4   7
ENDBRANCH   1   4
BRANCH   1  50
ATOM     50  C   UNL A   1      31.532  30.802  26.152  1.00  0.00    -0.052 C 
ATOM     51  H   UNL A   1      30.558  30.382  26.022  1.00  0.00     0.027 H 
ATOM     52  H   UNL A   1      32.117  30.816  25.256  1.00  0.00     0.027 H 
BRANCH  50  53
ATOM     53  C   UNL A   1      31.366  32.264  26.571  1.00  0.00    -0.036 C 
ATOM     54  H   UNL A   1      30.510  32.331  27.210  1.00  0.00     0.028 H 
ATOM     55  H   UNL A   1      31.262  32.828  25.669  1.00  0.00     0.028 H 
BRANCH  53  56
ATOM     56  C   UNL A   1      32.559  32.854  27.313  1.00  0.00     0.018 C 
ATOM     57  H   UNL A   1      33.427  32.766  26.692  1.00  0.00     0.049 H 
ATOM     58  H   UNL A   1      32.678  32.313  28.228  1.00  0.00     0.049 H 
BRANCH  56  59
ATOM     59  N   UNL A   1      32.361  34.255  27.645  1.00  0.00    -0.352 N 
ATOM     60  C   UNL A   1      32.977  35.012  28.608  1.00  0.00     0.251 C 
ATOM     61  H   UNL A   1      31.689  34.727  27.102  1.00  0.00     0.163 HD
ATOM     62  O   UNL A   1      32.555  36.130  28.884  1.00  0.00    -0.269 OA
BRANCH  60  63
ATOM     63  C   UNL A   1      34.147  34.468  29.327  1.00  0.00     0.039 A 
ATOM     64  C   UNL A   1      33.950  33.802  30.538  1.00  0.00    -0.049 A 
ATOM     65  C   UNL A   1      35.435  34.617  28.806  1.00  0.00    -0.049 A 
ATOM     66  C   UNL A   1      35.039  33.235  31.201  1.00  0.00    -0.053 A 
ATOM     67  H   UNL A   1      33.001  33.728  30.941  1.00  0.00     0.063 H 
ATOM     68  C   UNL A   1      36.508  33.983  29.425  1.00  0.00    -0.053 A 
ATOM     69  H   UNL A   1      35.591  35.195  27.966  1.00  0.00     0.063 H 
ATOM     70  C   UNL A   1      36.323  33.294  30.633  1.00  0.00    -0.014 A 
ATOM     71  H   UNL A   1      34.902  32.770  32.111  1.00  0.00     0.063 H 
ATOM     72  H   UNL A   1      37.445  34.021  28.994  1.00  0.00     0.063 H 
BRANCH  70  73
ATOM     73  C   UNL A   1      37.491  32.658  31.294  1.00  0.00     0.031 A 
ATOM     74  C   UNL A   1      38.209  31.525  30.618  1.00  0.00     0.074 A 
ATOM     75  C   UNL A   1      37.861  33.054  32.527  1.00  0.00     0.049 A 
ATOM     76  N   UNL A   1      39.187  30.777  31.064  1.00  0.00    -0.248 NA
ATOM     77  C   UNL A   1      37.748  31.161  29.268  1.00  0.00    -0.034 C 
ATOM     78  C   UNL A   1      37.219  34.118  33.302  1.00  0.00    -0.036 A 
ATOM     79  N   UNL A   1      38.859  32.600  33.352  1.00  0.00    -0.354 N 
ATOM     80  C   UNL A   1      39.444  29.853  30.061  1.00  0.00     0.074 A 
ATOM     81  C   UNL A   1      38.482  30.091  29.008  1.00  0.00    -0.034 C 
ATOM     82  H   UNL A   1      37.036  31.622  28.679  1.00  0.00     0.065 H 
ATOM     83  C   UNL A   1      37.853  34.249  34.478  1.00  0.00    -0.036 A 
ATOM     84  H   UNL A   1      36.409  34.678  32.994  1.00  0.00     0.065 H 
ATOM     85  C   UNL A   1      38.914  33.250  34.561  1.00  0.00     0.049 A 
ATOM     86  H   UNL A   1      39.478  31.876  33.100  1.00  0.00     0.167 HD
ATOM     87  C   UNL A   1      40.414  28.908  30.011  1.00  0.00     0.037 A 
ATOM     88  H   UNL A   1      38.381  29.505  28.166  1.00  0.00     0.065 H 
ATOM     89  H   UNL A   1      37.626  34.943  35.207  1.00  0.00     0.065 H 
ATOM     90  C   UNL A   1      39.723  33.052  35.620  1.00  0.00     0.037 A 
ATOM     91  C   UNL A   1      41.382  28.689  31.052  1.00  0.00     0.049 A 
ATOM     92  C   UNL A   1      40.775  31.977  35.549  1.00  0.00     0.074 A 
ATOM     93  C   UNL A   1      42.434  27.791  31.078  1.00  0.00    -0.036 A 
ATOM     94  N   UNL A   1      41.414  29.377  32.257  1.00  0.00    -0.354 N 
ATOM     95  N   UNL A   1      41.049  31.149  34.571  1.00  0.00    -0.248 NA
ATOM     96  C   UNL A   1      41.635  31.815  36.729  1.00  0.00    -0.034 C 
ATOM     97  C   UNL A   1      43.067  27.894  32.320  1.00  0.00    -0.036 A 
ATOM     98  H   UNL A   1      42.705  27.155  30.311  1.00  0.00     0.065 H 
ATOM     99  C   UNL A   1      42.452  28.903  33.044  1.00  0.00     0.049 A 
ATOM    100  H   UNL A   1      40.791  30.095  32.516  1.00  0.00     0.167 HD
ATOM    101  C   UNL A   1      42.133  30.395  35.000  1.00  0.00     0.074 A 
ATOM    102  C   UNL A   1      42.474  30.872  36.324  1.00  0.00    -0.034 C 
ATOM    103  H   UNL A   1      41.597  32.307  37.635  1.00  0.00     0.065 H 
ATOM    104  H   UNL A   1      43.858  27.316  32.644  1.00  0.00     0.065 H 
ATOM    105  C   UNL A   1      42.790  29.400  34.355  1.00  0.00     0.037 A 
ATOM    106  H   UNL A   1      43.269  30.522  36.881  1.00  0.00     0.065 H 
BRANCH  87 107
ATOM    107  C   UNL A   1      40.472  28.036  28.789  1.00  0.00     0.064 A 
ATOM    108  C   UNL A   1      41.230  28.391  27.662  1.00  0.00     0.173 A 
ATOM    109  C   UNL A   1      39.788  26.810  28.755  1.00  0.00     0.173 A 
ATOM    110  F   UNL A   1      41.894  29.557  27.635  1.00  0.00    -0.203 F 
ATOM    111  C   UNL A   1      41.273  27.572  26.537  1.00  0.00     0.198 A 
ATOM    112  C   UNL A   1      39.864  25.975  27.643  1.00  0.00     0.198 A 
ATOM    113  F   UNL A   1      39.052  26.417  29.805  1.00  0.00    -0.203 F 
ATOM    114  F   UNL A   1      41.957  27.961  25.453  1.00  0.00    -0.200 F 
ATOM    115  C   UNL A   1      40.598  26.361  26.532  1.00  0.00     0.200 A 
ATOM    116  F   UNL A   1      39.221  24.799  27.646  1.00  0.00    -0.200 F 
ATOM    117  F   UNL A   1      40.646  25.569  25.452  1.00  0.00    -0.200 F 
ENDBRANCH  87 107
BRANCH  90 118
ATOM    118  C   UNL A   1      39.582  33.901  36.834  1.00  0.00     0.064 A 
ATOM    119  C   UNL A   1      38.801  33.482  37.920  1.00  0.00     0.173 A 
ATOM    120  C   UNL A   1      40.212  35.151  36.929  1.00  0.00     0.173 A 
ATOM    121  F   UNL A   1      38.162  32.305  37.868  1.00  0.00    -0.203 F 
ATOM    122  C   UNL A   1      38.632  34.292  39.041  1.00  0.00     0.198 A 
ATOM    123  C   UNL A   1      40.070  35.945  38.065  1.00  0.00     0.198 A 
ATOM    124  F   UNL A   1      40.977  35.597  35.921  1.00  0.00    -0.203 F 
ATOM    125  F   UNL A   1      37.834  33.890  40.040  1.00  0.00    -0.200 F 
ATOM    126  C   UNL A   1      39.271  35.520  39.116  1.00  0.00     0.200 A 
ATOM    127  F   UNL A   1      40.703  37.123  38.139  1.00  0.00    -0.200 F 
ATOM    128  F   UNL A   1      39.110  36.298  40.195  1.00  0.00    -0.200 F 
ENDBRANCH  90 118
BRANCH 105 129
ATOM    129  C   UNL A   1      43.977  28.791  35.045  1.00  0.00     0.064 A 
ATOM    130  C   UNL A   1      43.859  27.664  35.872  1.00  0.00     0.173 A 
ATOM    131  C   UNL A   1      45.261  29.319  34.836  1.00  0.00     0.173 A 
ATOM    132  F   UNL A   1      42.652  27.129  36.114  1.00  0.00    -0.203 F 
ATOM    133  C   UNL A   1      44.977  27.105  36.483  1.00  0.00     0.198 A 
ATOM    134  C   UNL A   1      46.381  28.736  35.421  1.00  0.00     0.198 A 
ATOM    135  F   UNL A   1      45.431  30.391  34.048  1.00  0.00    -0.203 F 
ATOM    136  F   UNL A   1      44.833  26.059  37.310  1.00  0.00    -0.200 F 
ATOM    137  C   UNL A   1      46.237  27.635  36.251  1.00  0.00     0.200 A 
ATOM    138  F   UNL A   1      47.599  29.239  35.180  1.00  0.00    -0.200 F 
ATOM    139  F   UNL A   1      47.314  27.088  36.831  1.00  0.00    -0.200 F 
ENDBRANCH 105 129
ENDBRANCH  70  73
ENDBRANCH  60  63
ENDBRANCH  56  59
ENDBRANCH  53  56
ENDBRANCH  50  53
ENDBRANCH   1  50
TORSDOF 19
ENDMDL
MODEL 2
REMARK VINA RESULT:     -13.6      0.093      1.521
REMARK SMILES O=C1O[C@@H](c2ccc(O)c(O)c2)[C@H](C(=O)NCCCCCCNC(=O)c2ccc(-c3c4nc(c(-c5c(F)c(F)c(F)c(F)c5F)c5ccc([nH]5)c(-c5c(F)c(F)c(F)c(F)c5F)c5nc(c(-c6c(F)c(F)c(F)c(F)c6F)c6ccc3[nH]6)C=C5)C=C4)cc2)/C1=C\c1ccc(O)c(O)c1
REMARK SMILES IDX 19 1 18 4 17 7 16 10 14 11 15 12 13 14 1 15 2 16 3 17 89 18
REMARK SMILES IDX 4 19 90 20 5 24 6 25 12 26 7 27 10 29 8 31 11 33 9 35 91 37
REMARK SMILES IDX 92 38 98 39 93 40 96 42 94 44 97 46 95 48 20 50 21 53 22 56
REMARK SMILES IDX 23 59 24 60 25 62 26 63 27 64 88 65 28 66 87 68 29 70 30 73
REMARK SMILES IDX 31 74 81 75 32 76 86 77 80 78 82 79 33 80 85 81 79 83 78 85
REMARK SMILES IDX 34 87 66 90 46 91 65 92 47 93 50 94 64 95 83 96 48 97 49 99
REMARK SMILES IDX 63 101 84 102 51 105 35 107 36 108 44 109 37 110 38 111
REMARK SMILES IDX 42 112 45 113 39 114 40 115 43 116 41 117 67 118 68 119
REMARK SMILES IDX 76 120 69 121 70 122 74 123 77 124 71 125 72 126 75 127
REMARK SMILES IDX 73 128 52 129 53 130 61 131 54 132 55 133 59 134 62 135
REMARK SMILES IDX 56 136 57 137 60 138 58 139
REMARK H PARENT 19 2 19 3 18 5 18 6 17 8 17 9 16 13 4 21 13 22 90 23 6 28
REMARK H PARENT 12 30 7 32 11 34 9 36 92 41 98 43 93 45 97 47 95 49 20 51
REMARK H PARENT 20 52 21 54 21 55 22 57 22 58 23 61 27 67 88 69 28 71 87 72
REMARK H PARENT 86 82 80 84 82 86 85 88 79 89 47 98 50 100 83 103 48 104
REMARK H PARENT 84 106
REMARK Flexibility Score: inf
ROOT
ATOM      1  C   UNL A   1      32.239  29.873  27.190  1.00  0.00    -0.052 C 
ATOM      2  H   UNL A   1      33.269  29.780  26.915  1.00  0.00     0.027 H 
ATOM      3  H   UNL A   1      32.091  30.346  28.138  1.00  0.00     0.027 H 
ENDROOT
BRANCH   1   4
ATOM      4  C   UNL A   1      31.652  28.467  27.321  1.00  0.00    -0.036 C 
ATOM      5  H   UNL A   1      31.200  28.384  28.286  1.00  0.00     0.028 H 
ATOM      6  H   UNL A   1      30.953  28.353  26.520  1.00  0.00     0.028 H 
BRANCH   4   7
ATOM      7  C   UNL A   1      32.669  27.344  27.173  1.00  0.00     0.017 C 
ATOM      8  H   UNL A   1      33.159  27.205  28.113  1.00  0.00     0.049 H 
ATOM      9  H   UNL A   1      32.132  26.473  26.861  1.00  0.00     0.049 H 
BRANCH   7  10
ATOM     10  N   UNL A   1      33.676  27.604  26.167  1.00  0.00    -0.355 N 
ATOM     11  C   UNL A   1      33.584  27.637  24.804  1.00  0.00     0.231 C 
ATOM     12  O   UNL A   1      34.579  28.033  24.196  1.00  0.00    -0.274 OA
ATOM     13  H   UNL A   1      34.575  27.789  26.523  1.00  0.00     0.163 HD
BRANCH  11  14
ATOM     14  C   UNL A   1      32.332  27.107  24.092  1.00  0.00     0.111 C 
ATOM     15  O   UNL A   1      33.308  26.025  20.829  1.00  0.00    -0.247 OA
ATOM     16  C   UNL A   1      32.828  26.571  21.807  1.00  0.00     0.335 C 
ATOM     17  O   UNL A   1      32.309  27.823  21.830  1.00  0.00    -0.453 OA
ATOM     18  C   UNL A   1      32.686  25.999  23.158  1.00  0.00     0.054 C 
ATOM     19  C   UNL A   1      31.732  28.113  23.114  1.00  0.00     0.143 C 
ATOM     20  C   UNL A   1      32.855  24.683  23.352  1.00  0.00    -0.043 C 
ATOM     21  H   UNL A   1      31.969  29.101  23.451  1.00  0.00     0.081 H 
ATOM     22  H   UNL A   1      31.673  26.845  24.894  1.00  0.00     0.050 H 
ATOM     23  H   UNL A   1      33.094  24.101  22.533  1.00  0.00     0.063 H 
BRANCH  19  24
ATOM     24  C   UNL A   1      30.200  28.128  23.056  1.00  0.00    -0.002 A 
ATOM     25  C   UNL A   1      29.429  27.119  23.680  1.00  0.00    -0.051 A 
ATOM     26  C   UNL A   1      29.512  29.198  22.462  1.00  0.00    -0.009 A 
ATOM     27  C   UNL A   1      28.033  27.184  23.736  1.00  0.00    -0.016 A 
ATOM     28  H   UNL A   1      29.911  26.314  24.108  1.00  0.00     0.063 H 
ATOM     29  C   UNL A   1      28.122  29.243  22.500  1.00  0.00     0.157 A 
ATOM     30  H   UNL A   1      30.039  29.953  21.996  1.00  0.00     0.067 H 
ATOM     31  C   UNL A   1      27.385  28.253  23.142  1.00  0.00     0.157 A 
ATOM     32  H   UNL A   1      27.493  26.445  24.213  1.00  0.00     0.066 H 
BRANCH  29  33
ATOM     33  O   UNL A   1      27.475  30.288  21.906  1.00  0.00    -0.504 OA
ATOM     34  H   UNL A   1      27.964  30.941  21.444  1.00  0.00     0.293 HD
ENDBRANCH  29  33
BRANCH  31  35
ATOM     35  O   UNL A   1      26.026  28.378  23.166  1.00  0.00    -0.504 OA
ATOM     36  H   UNL A   1      25.570  28.687  22.408  1.00  0.00     0.293 HD
ENDBRANCH  31  35
ENDBRANCH  19  24
BRANCH  20  37
ATOM     37  C   UNL A   1      32.726  24.018  24.647  1.00  0.00    -0.021 A 
ATOM     38  C   UNL A   1      33.796  23.991  25.556  1.00  0.00    -0.051 A 
ATOM     39  C   UNL A   1      31.505  23.433  24.997  1.00  0.00    -0.009 A 
ATOM     40  C   UNL A   1      33.660  23.361  26.796  1.00  0.00    -0.016 A 
ATOM     41  H   UNL A   1      34.691  24.441  25.306  1.00  0.00     0.063 H 
ATOM     42  C   UNL A   1      31.375  22.818  26.234  1.00  0.00     0.157 A 
ATOM     43  H   UNL A   1      30.708  23.459  24.342  1.00  0.00     0.067 H 
ATOM     44  C   UNL A   1      32.444  22.775  27.126  1.00  0.00     0.157 A 
ATOM     45  H   UNL A   1      34.452  23.333  27.457  1.00  0.00     0.066 H 
BRANCH  42  46
ATOM     46  O   UNL A   1      30.181  22.253  26.576  1.00  0.00    -0.504 OA
ATOM     47  H   UNL A   1      30.139  21.631  27.276  1.00  0.00     0.293 HD
ENDBRANCH  42  46
BRANCH  44  48
ATOM     48  O   UNL A   1      32.247  22.147  28.323  1.00  0.00    -0.504 OA
ATOM     49  H   UNL A   1      32.438  21.233  28.410  1.00  0.00     0.293 HD
ENDBRANCH  44  48
ENDBRANCH  20  37
ENDBRANCH  11  14
ENDBRANCH   7  10
ENDBRANCH   4   7
ENDBRANCH   1   4
BRANCH   1  50
ATOM     50  C   UNL A   1      31.552  30.772  26.155  1.00  0.00    -0.052 C 
ATOM     51  H   UNL A   1      30.581  30.370  25.961  1.00  0.00     0.027 H 
ATOM     52  H   UNL A   1      32.194  30.777  25.299  1.00  0.00     0.027 H 
BRANCH  50  53
ATOM     53  C   UNL A   1      31.385  32.236  26.565  1.00  0.00    -0.036 C 
ATOM     54  H   UNL A   1      30.517  32.311  27.186  1.00  0.00     0.028 H 
ATOM     55  H   UNL A   1      31.303  32.798  25.659  1.00  0.00     0.028 H 
BRANCH  53  56
ATOM     56  C   UNL A   1      32.566  32.823  27.329  1.00  0.00     0.018 C 
ATOM     57  H   UNL A   1      33.446  32.723  26.730  1.00  0.00     0.049 H 
ATOM     58  H   UNL A   1      32.659  32.289  28.251  1.00  0.00     0.049 H 
BRANCH  56  59
ATOM     59  N   UNL A   1      32.372  34.228  27.645  1.00  0.00    -0.352 N 
ATOM     60  C   UNL A   1      32.989  34.995  28.600  1.00  0.00     0.251 C 
ATOM     61  H   UNL A   1      31.702  34.697  27.096  1.00  0.00     0.163 HD
ATOM     62  O   UNL A   1      32.570  36.117  28.863  1.00  0.00    -0.269 OA
BRANCH  60  63
ATOM     63  C   UNL A   1      34.155  34.455  29.328  1.00  0.00     0.039 A 
ATOM     64  C   UNL A   1      33.952  33.794  30.542  1.00  0.00    -0.049 A 
ATOM     65  C   UNL A   1      35.446  34.602  28.813  1.00  0.00    -0.049 A 
ATOM     66  C   UNL A   1      35.039  33.232  31.213  1.00  0.00    -0.053 A 
ATOM     67  H   UNL A   1      33.002  33.723  30.940  1.00  0.00     0.063 H 
ATOM     68  C   UNL A   1      36.516  33.971  29.440  1.00  0.00    -0.053 A 
ATOM     69  H   UNL A   1      35.606  35.175  27.970  1.00  0.00     0.063 H 
ATOM     70  C   UNL A   1      36.326  33.288  30.651  1.00  0.00    -0.014 A 
ATOM     71  H   UNL A   1      34.897  32.772  32.125  1.00  0.00     0.063 H 
ATOM     72  H   UNL A   1      37.455  34.007  29.014  1.00  0.00     0.063 H 
BRANCH  70  73
ATOM     73  C   UNL A   1      37.490  32.656  31.321  1.00  0.00     0.031 A 
ATOM     74  C   UNL A   1      38.212  31.520  30.654  1.00  0.00     0.074 A 
ATOM     75  C   UNL A   1      37.853  33.059  32.554  1.00  0.00     0.049 A 
ATOM     76  N   UNL A   1      39.188  30.776  31.109  1.00  0.00    -0.248 NA
ATOM     77  C   UNL A   1      37.758  31.150  29.303  1.00  0.00    -0.034 C 
ATOM     78  C   UNL A   1      37.207  34.126  33.320  1.00  0.00    -0.036 A 
ATOM     79  N   UNL A   1      38.848  32.609  33.386  1.00  0.00    -0.354 N 
ATOM     80  C   UNL A   1      39.451  29.846  30.111  1.00  0.00     0.074 A 
ATOM     81  C   UNL A   1      38.494  30.079  29.052  1.00  0.00    -0.034 C 
ATOM     82  H   UNL A   1      37.049  31.608  28.708  1.00  0.00     0.065 H 
ATOM     83  C   UNL A   1      37.835  34.262  34.499  1.00  0.00    -0.036 A 
ATOM     84  H   UNL A   1      36.398  34.684  33.005  1.00  0.00     0.065 H 
ATOM     85  C   UNL A   1      38.896  33.264  34.592  1.00  0.00     0.049 A 
ATOM     86  H   UNL A   1      39.469  31.884  33.141  1.00  0.00     0.167 HD
ATOM     87  C   UNL A   1      40.422  28.902  30.070  1.00  0.00     0.037 A 
ATOM     88  H   UNL A   1      38.398  29.488  28.212  1.00  0.00     0.065 H 
ATOM     89  H   UNL A   1      37.604  34.960  35.223  1.00  0.00     0.065 H 
ATOM     90  C   UNL A   1      39.699  33.072  35.656  1.00  0.00     0.037 A 
ATOM     91  C   UNL A   1      41.385  28.689  31.118  1.00  0.00     0.049 A 
ATOM     92  C   UNL A   1      40.752  31.998  35.596  1.00  0.00     0.074 A 
ATOM     93  C   UNL A   1      42.437  27.791  31.153  1.00  0.00    -0.036 A 
ATOM     94  N   UNL A   1      41.410  29.382  32.320  1.00  0.00    -0.354 N 
ATOM     95  N   UNL A   1      41.032  31.165  34.623  1.00  0.00    -0.248 NA
ATOM     96  C   UNL A   1      41.607  31.841  36.781  1.00  0.00    -0.034 C 
ATOM     97  C   UNL A   1      43.064  27.900  32.398  1.00  0.00    -0.036 A 
ATOM     98  H   UNL A   1      42.713  27.152  30.391  1.00  0.00     0.065 H 
ATOM     99  C   UNL A   1      42.445  28.913  33.114  1.00  0.00     0.049 A 
ATOM    100  H   UNL A   1      40.786  30.101  32.572  1.00  0.00     0.167 HD
ATOM    101  C   UNL A   1      42.114  30.414  35.061  1.00  0.00     0.074 A 
ATOM    102  C   UNL A   1      42.449  30.897  36.385  1.00  0.00    -0.034 C 
ATOM    103  H   UNL A   1      41.564  32.337  37.685  1.00  0.00     0.065 H 
ATOM    104  H   UNL A   1      43.853  27.324  32.728  1.00  0.00     0.065 H 
ATOM    105  C   UNL A   1      42.775  29.416  34.424  1.00  0.00     0.037 A 
ATOM    106  H   UNL A   1      43.240  30.550  36.948  1.00  0.00     0.065 H 
BRANCH  87 107
ATOM    107  C   UNL A   1      40.487  28.024  28.853  1.00  0.00     0.064 A 
ATOM    108  C   UNL A   1      39.793  26.806  28.781  1.00  0.00     0.173 A 
ATOM    109  C   UNL A   1      41.226  28.422  27.727  1.00  0.00     0.173 A 
ATOM    110  F   UNL A   1      39.081  26.372  29.832  1.00  0.00    -0.203 F 
ATOM    111  C   UNL A   1      39.864  26.005  27.645  1.00  0.00     0.198 A 
ATOM    112  C   UNL A   1      41.264  27.635  26.578  1.00  0.00     0.198 A 
ATOM    113  F   UNL A   1      41.905  29.578  27.738  1.00  0.00    -0.203 F 
ATOM    114  F   UNL A   1      39.239  24.819  27.623  1.00  0.00    -0.200 F 
ATOM    115  C   UNL A   1      40.592  26.424  26.542  1.00  0.00     0.200 A 
ATOM    116  F   UNL A   1      41.958  28.049  25.509  1.00  0.00    -0.200 F 
ATOM    117  F   UNL A   1      40.654  25.655  25.445  1.00  0.00    -0.200 F 
ENDBRANCH  87 107
BRANCH  90 118
ATOM    118  C   UNL A   1      39.552  33.927  36.865  1.00  0.00     0.064 A 
ATOM    119  C   UNL A   1      38.783  33.503  37.958  1.00  0.00     0.173 A 
ATOM    120  C   UNL A   1      40.163  35.187  36.949  1.00  0.00     0.173 A 
ATOM    121  F   UNL A   1      38.164  32.315  37.918  1.00  0.00    -0.203 F 
ATOM    122  C   UNL A   1      38.608  34.317  39.075  1.00  0.00     0.198 A 
ATOM    123  C   UNL A   1      40.014  35.986  38.080  1.00  0.00     0.198 A 
ATOM    124  F   UNL A   1      40.914  35.638  35.933  1.00  0.00    -0.203 F 
ATOM    125  F   UNL A   1      37.823  33.909  40.082  1.00  0.00    -0.200 F 
ATOM    126  C   UNL A   1      39.228  35.555  39.138  1.00  0.00     0.200 A 
ATOM    127  F   UNL A   1      40.628  37.175  38.143  1.00  0.00    -0.200 F 
ATOM    128  F   UNL A   1      39.060  36.338  40.213  1.00  0.00    -0.200 F 
ENDBRANCH  90 118
BRANCH 105 129
ATOM    129  C   UNL A   1      43.959  28.811  35.123  1.00  0.00     0.064 A 
ATOM    130  C   UNL A   1      45.256  29.322  34.965  1.00  0.00     0.173 A 
ATOM    131  C   UNL A   1      43.782  27.732  36.003  1.00  0.00     0.173 A 
ATOM    132  F   UNL A   1      45.481  30.345  34.125  1.00  0.00    -0.203 F 
ATOM    133  C   UNL A   1      46.334  28.758  35.640  1.00  0.00     0.198 A 
ATOM    134  C   UNL A   1      44.858  27.194  36.704  1.00  0.00     0.198 A 
ATOM    135  F   UNL A   1      42.562  27.210  36.198  1.00  0.00    -0.203 F 
ATOM    136  F   UNL A   1      47.572  29.230  35.434  1.00  0.00    -0.200 F 
ATOM    137  C   UNL A   1      46.134  27.702  36.516  1.00  0.00     0.200 A 
ATOM    138  F   UNL A   1      44.658  26.184  37.563  1.00  0.00    -0.200 F 
ATOM    139  F   UNL A   1      47.172  27.168  37.174  1.00  0.00    -0.200 F 
ENDBRANCH 105 129
ENDBRANCH  70  73
ENDBRANCH  60  63
ENDBRANCH  56  59
ENDBRANCH  53  56
ENDBRANCH  50  53
ENDBRANCH   1  50
TORSDOF 19
ENDMDL
MODEL 3
REMARK VINA RESULT:     -13.4      5.542     11.153
REMARK SMILES O=C1O[C@@H](c2ccc(O)c(O)c2)[C@H](C(=O)NCCCCCCNC(=O)c2ccc(-c3c4nc(c(-c5c(F)c(F)c(F)c(F)c5F)c5ccc([nH]5)c(-c5c(F)c(F)c(F)c(F)c5F)c5nc(c(-c6c(F)c(F)c(F)c(F)c6F)c6ccc3[nH]6)C=C5)C=C4)cc2)/C1=C\c1ccc(O)c(O)c1
REMARK SMILES IDX 19 1 18 4 17 7 16 10 14 11 15 12 13 14 1 15 2 16 3 17 89 18
REMARK SMILES IDX 4 19 90 20 5 24 6 25 12 26 7 27 10 29 8 31 11 33 9 35 91 37
REMARK SMILES IDX 92 38 98 39 93 40 96 42 94 44 97 46 95 48 20 50 21 53 22 56
REMARK SMILES IDX 23 59 24 60 25 62 26 63 27 64 88 65 28 66 87 68 29 70 30 73
REMARK SMILES IDX 31 74 81 75 32 76 86 77 80 78 82 79 33 80 85 81 79 83 78 85
REMARK SMILES IDX 34 87 66 90 46 91 65 92 47 93 50 94 64 95 83 96 48 97 49 99
REMARK SMILES IDX 63 101 84 102 51 105 35 107 36 108 44 109 37 110 38 111
REMARK SMILES IDX 42 112 45 113 39 114 40 115 43 116 41 117 67 118 68 119
REMARK SMILES IDX 76 120 69 121 70 122 74 123 77 124 71 125 72 126 75 127
REMARK SMILES IDX 73 128 52 129 53 130 61 131 54 132 55 133 59 134 62 135
REMARK SMILES IDX 56 136 57 137 60 138 58 139
REMARK H PARENT 19 2 19 3 18 5 18 6 17 8 17 9 16 13 4 21 13 22 90 23 6 28
REMARK H PARENT 12 30 7 32 11 34 9 36 92 41 98 43 93 45 97 47 95 49 20 51
REMARK H PARENT 20 52 21 54 21 55 22 57 22 58 23 61 27 67 88 69 28 71 87 72
REMARK H PARENT 86 82 80 84 82 86 85 88 79 89 47 98 50 100 83 103 48 104
REMARK H PARENT 84 106
REMARK Flexibility Score: inf
ROOT
ATOM      1  C   UNL A   1      37.452  21.895  24.646  1.00  0.00    -0.052 C 
ATOM      2  H   UNL A   1      37.335  22.435  25.562  1.00  0.00     0.027 H 
ATOM      3  H   UNL A   1      38.465  21.846  24.305  1.00  0.00     0.027 H 
ENDROOT
BRANCH   1   4
ATOM      4  C   UNL A   1      36.674  22.634  23.557  1.00  0.00    -0.036 C 
ATOM      5  H   UNL A   1      37.338  22.818  22.739  1.00  0.00     0.028 H 
ATOM      6  H   UNL A   1      35.849  22.007  23.292  1.00  0.00     0.028 H 
BRANCH   4   7
ATOM      7  C   UNL A   1      36.083  23.966  23.998  1.00  0.00     0.017 C 
ATOM      8  H   UNL A   1      36.785  24.740  23.771  1.00  0.00     0.049 H 
ATOM      9  H   UNL A   1      35.158  24.089  23.474  1.00  0.00     0.049 H 
BRANCH   7  10
ATOM     10  N   UNL A   1      35.779  24.024  25.412  1.00  0.00    -0.355 N 
ATOM     11  C   UNL A   1      34.764  23.454  26.128  1.00  0.00     0.231 C 
ATOM     12  O   UNL A   1      34.836  23.551  27.353  1.00  0.00    -0.274 OA
ATOM     13  H   UNL A   1      36.407  24.562  25.945  1.00  0.00     0.163 HD
BRANCH  11  14
ATOM     14  C   UNL A   1      33.563  22.821  25.413  1.00  0.00     0.111 C 
ATOM     15  O   UNL A   1      30.731  23.113  27.574  1.00  0.00    -0.247 OA
ATOM     16  C   UNL A   1      31.659  22.752  26.871  1.00  0.00     0.335 C 
ATOM     17  O   UNL A   1      32.275  21.546  26.945  1.00  0.00    -0.453 OA
ATOM     18  C   UNL A   1      32.299  23.520  25.789  1.00  0.00     0.054 C 
ATOM     19  C   UNL A   1      33.255  21.409  25.902  1.00  0.00     0.143 C 
ATOM     20  C   UNL A   1      31.711  24.627  25.312  1.00  0.00    -0.043 C 
ATOM     21  H   UNL A   1      34.162  20.963  26.254  1.00  0.00     0.081 H 
ATOM     22  H   UNL A   1      33.828  22.867  24.377  1.00  0.00     0.050 H 
ATOM     23  H   UNL A   1      30.815  24.917  25.733  1.00  0.00     0.063 H 
BRANCH  19  24
ATOM     24  C   UNL A   1      32.791  20.432  24.815  1.00  0.00    -0.002 A 
ATOM     25  C   UNL A   1      32.477  20.878  23.510  1.00  0.00    -0.051 A 
ATOM     26  C   UNL A   1      32.757  19.049  25.055  1.00  0.00    -0.009 A 
ATOM     27  C   UNL A   1      32.167  19.984  22.478  1.00  0.00    -0.016 A 
ATOM     28  H   UNL A   1      32.478  21.890  23.312  1.00  0.00     0.063 H 
ATOM     29  C   UNL A   1      32.425  18.169  24.031  1.00  0.00     0.157 A 
ATOM     30  H   UNL A   1      32.980  18.685  25.995  1.00  0.00     0.067 H 
ATOM     31  C   UNL A   1      32.144  18.627  22.748  1.00  0.00     0.157 A 
ATOM     32  H   UNL A   1      31.959  20.333  21.529  1.00  0.00     0.066 H 
BRANCH  29  33
ATOM     33  O   UNL A   1      32.388  16.829  24.292  1.00  0.00    -0.504 OA
ATOM     34  H   UNL A   1      32.326  16.526  25.177  1.00  0.00     0.293 HD
ENDBRANCH  29  33
BRANCH  31  35
ATOM     35  O   UNL A   1      31.856  17.704  21.785  1.00  0.00    -0.504 OA
ATOM     36  H   UNL A   1      31.834  17.958  20.883  1.00  0.00     0.293 HD
ENDBRANCH  31  35
ENDBRANCH  19  24
BRANCH  20  37
ATOM     37  C   UNL A   1      32.257  25.451  24.235  1.00  0.00    -0.021 A 
ATOM     38  C   UNL A   1      33.234  26.425  24.495  1.00  0.00    -0.051 A 
ATOM     39  C   UNL A   1      31.824  25.236  22.923  1.00  0.00    -0.009 A 
ATOM     40  C   UNL A   1      33.758  27.202  23.457  1.00  0.00    -0.016 A 
ATOM     41  H   UNL A   1      33.568  26.569  25.460  1.00  0.00     0.063 H 
ATOM     42  C   UNL A   1      32.355  26.005  21.897  1.00  0.00     0.157 A 
ATOM     43  H   UNL A   1      31.116  24.513  22.719  1.00  0.00     0.067 H 
ATOM     44  C   UNL A   1      33.310  26.985  22.160  1.00  0.00     0.157 A 
ATOM     45  H   UNL A   1      34.466  27.925  23.652  1.00  0.00     0.066 H 
BRANCH  42  46
ATOM     46  O   UNL A   1      31.936  25.790  20.616  1.00  0.00    -0.504 OA
ATOM     47  H   UNL A   1      32.530  25.907  19.901  1.00  0.00     0.293 HD
ENDBRANCH  42  46
BRANCH  44  48
ATOM     48  O   UNL A   1      33.784  27.709  21.102  1.00  0.00    -0.504 OA
ATOM     49  H   UNL A   1      33.267  27.798  20.325  1.00  0.00     0.293 HD
ENDBRANCH  44  48
ENDBRANCH  20  37
ENDBRANCH  11  14
ENDBRANCH   7  10
ENDBRANCH   4   7
ENDBRANCH   1   4
BRANCH   1  50
ATOM     50  C   UNL A   1      37.014  20.447  24.890  1.00  0.00    -0.052 C 
ATOM     51  H   UNL A   1      36.401  20.144  24.068  1.00  0.00     0.027 H 
ATOM     52  H   UNL A   1      36.504  20.448  25.830  1.00  0.00     0.027 H 
BRANCH  50  53
ATOM     53  C   UNL A   1      38.152  19.432  25.029  1.00  0.00    -0.036 C 
ATOM     54  H   UNL A   1      38.440  19.119  24.048  1.00  0.00     0.028 H 
ATOM     55  H   UNL A   1      37.773  18.633  25.631  1.00  0.00     0.028 H 
BRANCH  53  56
ATOM     56  C   UNL A   1      39.390  19.958  25.743  1.00  0.00     0.018 C 
ATOM     57  H   UNL A   1      39.107  20.302  26.716  1.00  0.00     0.049 H 
ATOM     58  H   UNL A   1      39.798  20.752  25.153  1.00  0.00     0.049 H 
BRANCH  56  59
ATOM     59  N   UNL A   1      40.416  18.938  25.888  1.00  0.00    -0.352 N 
ATOM     60  C   UNL A   1      41.765  19.087  26.080  1.00  0.00     0.251 C 
ATOM     61  H   UNL A   1      40.096  18.008  25.841  1.00  0.00     0.163 HD
ATOM     62  O   UNL A   1      42.516  18.122  25.989  1.00  0.00    -0.269 OA
BRANCH  60  63
ATOM     63  C   UNL A   1      42.317  20.424  26.382  1.00  0.00     0.039 A 
ATOM     64  C   UNL A   1      42.818  21.203  25.338  1.00  0.00    -0.049 A 
ATOM     65  C   UNL A   1      42.338  20.905  27.694  1.00  0.00    -0.049 A 
ATOM     66  C   UNL A   1      43.292  22.489  25.601  1.00  0.00    -0.053 A 
ATOM     67  H   UNL A   1      42.838  20.829  24.375  1.00  0.00     0.063 H 
ATOM     68  C   UNL A   1      42.734  22.215  27.943  1.00  0.00    -0.053 A 
ATOM     69  H   UNL A   1      42.061  20.292  28.476  1.00  0.00     0.063 H 
ATOM     70  C   UNL A   1      43.224  23.018  26.901  1.00  0.00    -0.014 A 
ATOM     71  H   UNL A   1      43.693  23.055  24.837  1.00  0.00     0.063 H 
ATOM     72  H   UNL A   1      42.669  22.600  28.898  1.00  0.00     0.063 H 
BRANCH  70  73
ATOM     73  C   UNL A   1      43.676  24.400  27.198  1.00  0.00     0.031 A 
ATOM     74  C   UNL A   1      42.698  25.412  27.725  1.00  0.00     0.074 A 
ATOM     75  C   UNL A   1      44.946  24.762  26.931  1.00  0.00     0.049 A 
ATOM     76  N   UNL A   1      42.869  26.688  27.960  1.00  0.00    -0.248 NA
ATOM     77  C   UNL A   1      41.334  24.932  27.999  1.00  0.00    -0.034 C 
ATOM     78  C   UNL A   1      45.979  23.880  26.383  1.00  0.00    -0.036 A 
ATOM     79  N   UNL A   1      45.582  25.970  27.073  1.00  0.00    -0.354 N 
ATOM     80  C   UNL A   1      41.637  27.162  28.392  1.00  0.00     0.074 A 
ATOM     81  C   UNL A   1      40.711  26.052  28.330  1.00  0.00    -0.034 C 
ATOM     82  H   UNL A   1      40.961  23.970  27.947  1.00  0.00     0.065 H 
ATOM     83  C   UNL A   1      47.123  24.571  26.256  1.00  0.00    -0.036 A 
ATOM     84  H   UNL A   1      45.849  22.887  26.134  1.00  0.00     0.065 H 
ATOM     85  C   UNL A   1      46.894  25.953  26.668  1.00  0.00     0.049 A 
ATOM     86  H   UNL A   1      45.139  26.773  27.431  1.00  0.00     0.167 HD
ATOM     87  C   UNL A   1      41.314  28.404  28.827  1.00  0.00     0.037 A 
ATOM     88  H   UNL A   1      39.700  26.125  28.517  1.00  0.00     0.065 H 
ATOM     89  H   UNL A   1      48.020  24.187  25.920  1.00  0.00     0.065 H 
ATOM     90  C   UNL A   1      47.805  26.944  26.624  1.00  0.00     0.037 A 
ATOM     91  C   UNL A   1      42.245  29.498  28.906  1.00  0.00     0.049 A 
ATOM     92  C   UNL A   1      47.413  28.322  27.088  1.00  0.00     0.074 A 
ATOM     93  C   UNL A   1      42.030  30.781  29.378  1.00  0.00    -0.036 A 
ATOM     94  N   UNL A   1      43.570  29.439  28.500  1.00  0.00    -0.354 N 
ATOM     95  N   UNL A   1      46.262  28.743  27.552  1.00  0.00    -0.248 NA
ATOM     96  C   UNL A   1      48.450  29.360  27.029  1.00  0.00    -0.034 C 
ATOM     97  C   UNL A   1      43.207  31.514  29.203  1.00  0.00    -0.036 A 
ATOM     98  H   UNL A   1      41.152  31.135  29.789  1.00  0.00     0.065 H 
ATOM     99  C   UNL A   1      44.177  30.670  28.686  1.00  0.00     0.049 A 
ATOM    100  H   UNL A   1      44.014  28.640  28.133  1.00  0.00     0.167 HD
ATOM    101  C   UNL A   1      46.446  30.081  27.874  1.00  0.00     0.074 A 
ATOM    102  C   UNL A   1      47.824  30.399  27.563  1.00  0.00    -0.034 C 
ATOM    103  H   UNL A   1      49.415  29.297  26.667  1.00  0.00     0.065 H 
ATOM    104  H   UNL A   1      43.333  32.514  29.423  1.00  0.00     0.065 H 
ATOM    105  C   UNL A   1      45.555  30.967  28.385  1.00  0.00     0.037 A 
ATOM    106  H   UNL A   1      48.262  31.317  27.734  1.00  0.00     0.065 H 
BRANCH  87 107
ATOM    107  C   UNL A   1      39.892  28.644  29.247  1.00  0.00     0.064 A 
ATOM    108  C   UNL A   1      39.461  28.415  30.563  1.00  0.00     0.173 A 
ATOM    109  C   UNL A   1      38.954  29.146  28.331  1.00  0.00     0.173 A 
ATOM    110  F   UNL A   1      40.313  27.924  31.477  1.00  0.00    -0.203 F 
ATOM    111  C   UNL A   1      38.139  28.643  30.937  1.00  0.00     0.198 A 
ATOM    112  C   UNL A   1      37.642  29.408  28.717  1.00  0.00     0.198 A 
ATOM    113  F   UNL A   1      39.311  29.388  27.061  1.00  0.00    -0.203 F 
ATOM    114  F   UNL A   1      37.739  28.361  32.184  1.00  0.00    -0.200 F 
ATOM    115  C   UNL A   1      37.234  29.148  30.016  1.00  0.00     0.200 A 
ATOM    116  F   UNL A   1      36.772  29.909  27.830  1.00  0.00    -0.200 F 
ATOM    117  F   UNL A   1      35.963  29.375  30.379  1.00  0.00    -0.200 F 
ENDBRANCH  87 107
BRANCH  90 118
ATOM    118  C   UNL A   1      49.184  26.668  26.138  1.00  0.00     0.064 A 
ATOM    119  C   UNL A   1      49.552  26.953  24.815  1.00  0.00     0.173 A 
ATOM    120  C   UNL A   1      50.157  26.104  26.977  1.00  0.00     0.173 A 
ATOM    121  F   UNL A   1      48.653  27.474  23.969  1.00  0.00    -0.203 F 
ATOM    122  C   UNL A   1      50.830  26.658  24.343  1.00  0.00     0.198 A 
ATOM    123  C   UNL A   1      51.443  25.840  26.513  1.00  0.00     0.198 A 
ATOM    124  F   UNL A   1      49.859  25.818  28.254  1.00  0.00    -0.203 F 
ATOM    125  F   UNL A   1      51.137  26.889  23.059  1.00  0.00    -0.200 F 
ATOM    126  C   UNL A   1      51.776  26.107  25.193  1.00  0.00     0.200 A 
ATOM    127  F   UNL A   1      52.359  25.323  27.344  1.00  0.00    -0.200 F 
ATOM    128  F   UNL A   1      53.005  25.825  24.740  1.00  0.00    -0.200 F 
ENDBRANCH  90 118
BRANCH 105 129
ATOM    129  C   UNL A   1      46.052  32.351  28.691  1.00  0.00     0.064 A 
ATOM    130  C   UNL A   1      45.973  33.393  27.754  1.00  0.00     0.173 A 
ATOM    131  C   UNL A   1      46.572  32.649  29.960  1.00  0.00     0.173 A 
ATOM    132  F   UNL A   1      45.496  33.158  26.522  1.00  0.00    -0.203 F 
ATOM    133  C   UNL A   1      46.420  34.673  28.068  1.00  0.00     0.198 A 
ATOM    134  C   UNL A   1      46.986  33.939  30.282  1.00  0.00     0.198 A 
ATOM    135  F   UNL A   1      46.663  31.693  30.896  1.00  0.00    -0.203 F 
ATOM    136  F   UNL A   1      46.382  35.639  27.140  1.00  0.00    -0.200 F 
ATOM    137  C   UNL A   1      46.917  34.947  29.333  1.00  0.00     0.200 A 
ATOM    138  F   UNL A   1      47.449  34.205  31.511  1.00  0.00    -0.200 F 
ATOM    139  F   UNL A   1      47.336  36.184  29.637  1.00  0.00    -0.200 F 
ENDBRANCH 105 129
ENDBRANCH  70  73
ENDBRANCH  60  63
ENDBRANCH  56  59
ENDBRANCH  53  56
ENDBRANCH  50  53
ENDBRANCH   1  50
TORSDOF 19
ENDMDL
MODEL 4
REMARK VINA RESULT:     -13.4      5.566     11.074
REMARK SMILES O=C1O[C@@H](c2ccc(O)c(O)c2)[C@H](C(=O)NCCCCCCNC(=O)c2ccc(-c3c4nc(c(-c5c(F)c(F)c(F)c(F)c5F)c5ccc([nH]5)c(-c5c(F)c(F)c(F)c(F)c5F)c5nc(c(-c6c(F)c(F)c(F)c(F)c6F)c6ccc3[nH]6)C=C5)C=C4)cc2)/C1=C\c1ccc(O)c(O)c1
REMARK SMILES IDX 19 1 18 4 17 7 16 10 14 11 15 12 13 14 1 15 2 16 3 17 89 18
REMARK SMILES IDX 4 19 90 20 5 24 6 25 12 26 7 27 10 29 8 31 11 33 9 35 91 37
REMARK SMILES IDX 92 38 98 39 93 40 96 42 94 44 97 46 95 48 20 50 21 53 22 56
REMARK SMILES IDX 23 59 24 60 25 62 26 63 27 64 88 65 28 66 87 68 29 70 30 73
REMARK SMILES IDX 31 74 81 75 32 76 86 77 80 78 82 79 33 80 85 81 79 83 78 85
REMARK SMILES IDX 34 87 66 90 46 91 65 92 47 93 50 94 64 95 83 96 48 97 49 99
REMARK SMILES IDX 63 101 84 102 51 105 35 107 36 108 44 109 37 110 38 111
REMARK SMILES IDX 42 112 45 113 39 114 40 115 43 116 41 117 67 118 68 119
REMARK SMILES IDX 76 120 69 121 70 122 74 123 77 124 71 125 72 126 75 127
REMARK SMILES IDX 73 128 52 129 53 130 61 131 54 132 55 133 59 134 62 135
REMARK SMILES IDX 56 136 57 137 60 138 58 139
REMARK H PARENT 19 2 19 3 18 5 18 6 17 8 17 9 16 13 4 21 13 22 90 23 6 28
REMARK H PARENT 12 30 7 32 11 34 9 36 92 41 98 43 93 45 97 47 95 49 20 51
REMARK H PARENT 20 52 21 54 21 55 22 57 22 58 23 61 27 67 88 69 28 71 87 72
REMARK H PARENT 86 82 80 84 82 86 85 88 79 89 47 98 50 100 83 103 48 104
REMARK H PARENT 84 106
REMARK Flexibility Score: inf
ROOT
ATOM      1  C   UNL A   1      37.435  21.942  24.616  1.00  0.00    -0.052 C 
ATOM      2  H   UNL A   1      37.348  22.485  25.533  1.00  0.00     0.027 H 
ATOM      3  H   UNL A   1      38.438  21.873  24.253  1.00  0.00     0.027 H 
ENDROOT
BRANCH   1   4
ATOM      4  C   UNL A   1      36.646  22.694  23.543  1.00  0.00    -0.036 C 
ATOM      5  H   UNL A   1      37.306  22.900  22.727  1.00  0.00     0.028 H 
ATOM      6  H   UNL A   1      35.827  22.064  23.269  1.00  0.00     0.028 H 
BRANCH   4   7
ATOM      7  C   UNL A   1      36.043  24.011  24.011  1.00  0.00     0.017 C 
ATOM      8  H   UNL A   1      36.734  24.797  23.791  1.00  0.00     0.049 H 
ATOM      9  H   UNL A   1      35.113  24.132  23.496  1.00  0.00     0.049 H 
BRANCH   7  10
ATOM     10  N   UNL A   1      35.751  24.042  25.428  1.00  0.00    -0.355 N 
ATOM     11  C   UNL A   1      34.748  23.450  26.143  1.00  0.00     0.231 C 
ATOM     12  O   UNL A   1      34.829  23.528  27.369  1.00  0.00    -0.274 OA
ATOM     13  H   UNL A   1      36.378  24.578  25.965  1.00  0.00     0.163 HD
BRANCH  11  14
ATOM     14  C   UNL A   1      33.548  22.816  25.428  1.00  0.00     0.111 C 
ATOM     15  O   UNL A   1      30.713  23.113  27.584  1.00  0.00    -0.247 OA
ATOM     16  C   UNL A   1      31.642  22.750  26.883  1.00  0.00     0.335 C 
ATOM     17  O   UNL A   1      32.257  21.545  26.960  1.00  0.00    -0.453 OA
ATOM     18  C   UNL A   1      32.283  23.516  25.800  1.00  0.00     0.054 C 
ATOM     19  C   UNL A   1      33.239  21.405  25.919  1.00  0.00     0.143 C 
ATOM     20  C   UNL A   1      31.696  24.622  25.319  1.00  0.00    -0.043 C 
ATOM     21  H   UNL A   1      34.145  20.959  26.274  1.00  0.00     0.081 H 
ATOM     22  H   UNL A   1      33.814  22.859  24.392  1.00  0.00     0.050 H 
ATOM     23  H   UNL A   1      30.800  24.913  25.739  1.00  0.00     0.063 H 
BRANCH  19  24
ATOM     24  C   UNL A   1      32.776  20.426  24.833  1.00  0.00    -0.002 A 
ATOM     25  C   UNL A   1      32.459  20.869  23.528  1.00  0.00    -0.051 A 
ATOM     26  C   UNL A   1      32.746  19.043  25.075  1.00  0.00    -0.009 A 
ATOM     27  C   UNL A   1      32.151  19.974  22.498  1.00  0.00    -0.016 A 
ATOM     28  H   UNL A   1      32.457  21.882  23.329  1.00  0.00     0.063 H 
ATOM     29  C   UNL A   1      32.415  18.161  24.052  1.00  0.00     0.157 A 
ATOM     30  H   UNL A   1      32.971  18.680  26.015  1.00  0.00     0.067 H 
ATOM     31  C   UNL A   1      32.132  18.617  22.769  1.00  0.00     0.157 A 
ATOM     32  H   UNL A   1      31.940  20.321  21.548  1.00  0.00     0.066 H 
BRANCH  29  33
ATOM     33  O   UNL A   1      32.382  16.821  24.315  1.00  0.00    -0.504 OA
ATOM     34  H   UNL A   1      32.231  16.519  25.189  1.00  0.00     0.293 HD
ENDBRANCH  29  33
BRANCH  31  35
ATOM     35  O   UNL A   1      31.845  17.692  21.807  1.00  0.00    -0.504 OA
ATOM     36  H   UNL A   1      32.534  17.326  21.289  1.00  0.00     0.293 HD
ENDBRANCH  31  35
ENDBRANCH  19  24
BRANCH  20  37
ATOM     37  C   UNL A   1      32.244  25.443  24.242  1.00  0.00    -0.021 A 
ATOM     38  C   UNL A   1      33.216  26.423  24.502  1.00  0.00    -0.051 A 
ATOM     39  C   UNL A   1      31.818  25.221  22.928  1.00  0.00    -0.009 A 
ATOM     40  C   UNL A   1      33.742  27.197  23.463  1.00  0.00    -0.016 A 
ATOM     41  H   UNL A   1      33.546  26.572  25.468  1.00  0.00     0.063 H 
ATOM     42  C   UNL A   1      32.351  25.988  21.902  1.00  0.00     0.157 A 
ATOM     43  H   UNL A   1      31.114  24.495  22.724  1.00  0.00     0.067 H 
ATOM     44  C   UNL A   1      33.301  26.973  22.165  1.00  0.00     0.157 A 
ATOM     45  H   UNL A   1      34.447  27.924  23.659  1.00  0.00     0.066 H 
BRANCH  42  46
ATOM     46  O   UNL A   1      31.939  25.766  20.620  1.00  0.00    -0.504 OA
ATOM     47  H   UNL A   1      31.761  24.893  20.328  1.00  0.00     0.293 HD
ENDBRANCH  42  46
BRANCH  44  48
ATOM     48  O   UNL A   1      33.777  27.694  21.106  1.00  0.00    -0.504 OA
ATOM     49  H   UNL A   1      33.940  27.270  20.286  1.00  0.00     0.293 HD
ENDBRANCH  44  48
ENDBRANCH  20  37
ENDBRANCH  11  14
ENDBRANCH   7  10
ENDBRANCH   4   7
ENDBRANCH   1   4
BRANCH   1  50
ATOM     50  C   UNL A   1      36.975  20.502  24.873  1.00  0.00    -0.052 C 
ATOM     51  H   UNL A   1      36.362  20.200  24.051  1.00  0.00     0.027 H 
ATOM     52  H   UNL A   1      36.460  20.521  25.810  1.00  0.00     0.027 H 
BRANCH  50  53
ATOM     53  C   UNL A   1      38.098  19.474  25.029  1.00  0.00    -0.036 C 
ATOM     54  H   UNL A   1      38.379  19.137  24.054  1.00  0.00     0.028 H 
ATOM     55  H   UNL A   1      37.709  18.693  25.648  1.00  0.00     0.028 H 
BRANCH  53  56
ATOM     56  C   UNL A   1      39.346  19.995  25.730  1.00  0.00     0.018 C 
ATOM     57  H   UNL A   1      39.072  20.353  26.701  1.00  0.00     0.049 H 
ATOM     58  H   UNL A   1      39.758  20.778  25.129  1.00  0.00     0.049 H 
BRANCH  56  59
ATOM     59  N   UNL A   1      40.362  18.966  25.880  1.00  0.00    -0.352 N 
ATOM     60  C   UNL A   1      41.712  19.104  26.077  1.00  0.00     0.251 C 
ATOM     61  H   UNL A   1      40.034  18.039  25.834  1.00  0.00     0.163 HD
ATOM     62  O   UNL A   1      42.455  18.132  25.990  1.00  0.00    -0.269 OA
BRANCH  60  63
ATOM     63  C   UNL A   1      42.274  20.436  26.379  1.00  0.00     0.039 A 
ATOM     64  C   UNL A   1      42.775  21.214  25.333  1.00  0.00    -0.049 A 
ATOM     65  C   UNL A   1      42.306  20.914  27.691  1.00  0.00    -0.049 A 
ATOM     66  C   UNL A   1      43.259  22.496  25.596  1.00  0.00    -0.053 A 
ATOM     67  H   UNL A   1      42.786  20.842  24.370  1.00  0.00     0.063 H 
ATOM     68  C   UNL A   1      42.713  22.221  27.940  1.00  0.00    -0.053 A 
ATOM     69  H   UNL A   1      42.029  20.301  28.474  1.00  0.00     0.063 H 
ATOM     70  C   UNL A   1      43.202  23.022  26.897  1.00  0.00    -0.014 A 
ATOM     71  H   UNL A   1      43.659  23.061  24.831  1.00  0.00     0.063 H 
ATOM     72  H   UNL A   1      42.655  22.604  28.897  1.00  0.00     0.063 H 
BRANCH  70  73
ATOM     73  C   UNL A   1      43.666  24.401  27.195  1.00  0.00     0.031 A 
ATOM     74  C   UNL A   1      42.693  25.424  27.711  1.00  0.00     0.074 A 
ATOM     75  C   UNL A   1      44.941  24.749  26.938  1.00  0.00     0.049 A 
ATOM     76  N   UNL A   1      42.874  26.699  27.943  1.00  0.00    -0.248 NA
ATOM     77  C   UNL A   1      41.322  24.958  27.974  1.00  0.00    -0.034 C 
ATOM     78  C   UNL A   1      45.969  23.856  26.401  1.00  0.00    -0.036 A 
ATOM     79  N   UNL A   1      45.588  25.951  27.081  1.00  0.00    -0.354 N 
ATOM     80  C   UNL A   1      41.643  27.186  28.363  1.00  0.00     0.074 A 
ATOM     81  C   UNL A   1      40.707  26.086  28.297  1.00  0.00    -0.034 C 
ATOM     82  H   UNL A   1      40.939  24.000  27.921  1.00  0.00     0.065 H 
ATOM     83  C   UNL A   1      47.122  24.535  26.282  1.00  0.00    -0.036 A 
ATOM     84  H   UNL A   1      45.832  22.864  26.154  1.00  0.00     0.065 H 
ATOM     85  C   UNL A   1      46.903  25.920  26.688  1.00  0.00     0.049 A 
ATOM     86  H   UNL A   1      45.149  26.760  27.433  1.00  0.00     0.167 HD
ATOM     87  C   UNL A   1      41.329  28.432  28.792  1.00  0.00     0.037 A 
ATOM     88  H   UNL A   1      39.695  26.168  28.475  1.00  0.00     0.065 H 
ATOM     89  H   UNL A   1      48.018  24.142  25.954  1.00  0.00     0.065 H 
ATOM     90  C   UNL A   1      47.824  26.902  26.649  1.00  0.00     0.037 A 
ATOM     91  C   UNL A   1      42.270  29.517  28.877  1.00  0.00     0.049 A 
ATOM     92  C   UNL A   1      47.442  28.285  27.106  1.00  0.00     0.074 A 
ATOM     93  C   UNL A   1      42.064  30.804  29.344  1.00  0.00    -0.036 A 
ATOM     94  N   UNL A   1      43.598  29.444  28.482  1.00  0.00    -0.354 N 
ATOM     95  N   UNL A   1      46.291  28.719  27.559  1.00  0.00    -0.248 NA
ATOM     96  C   UNL A   1      48.490  29.313  27.053  1.00  0.00    -0.034 C 
ATOM     97  C   UNL A   1      43.250  31.525  29.177  1.00  0.00    -0.036 A 
ATOM     98  H   UNL A   1      41.186  31.167  29.745  1.00  0.00     0.065 H 
ATOM     99  C   UNL A   1      44.215  30.670  28.670  1.00  0.00     0.049 A 
ATOM    100  H   UNL A   1      44.038  28.640  28.121  1.00  0.00     0.167 HD
ATOM    101  C   UNL A   1      46.486  30.056  27.879  1.00  0.00     0.074 A 
ATOM    102  C   UNL A   1      47.869  30.360  27.579  1.00  0.00    -0.034 C 
ATOM    103  H   UNL A   1      49.457  29.240  26.700  1.00  0.00     0.065 H 
ATOM    104  H   UNL A   1      43.383  32.524  29.395  1.00  0.00     0.065 H 
ATOM    105  C   UNL A   1      45.599  30.952  28.380  1.00  0.00     0.037 A 
ATOM    106  H   UNL A   1      48.315  31.274  27.751  1.00  0.00     0.065 H 
BRANCH  87 107
ATOM    107  C   UNL A   1      39.906  28.688  29.200  1.00  0.00     0.064 A 
ATOM    108  C   UNL A   1      38.949  29.160  28.288  1.00  0.00     0.173 A 
ATOM    109  C   UNL A   1      39.484  28.425  30.513  1.00  0.00     0.173 A 
ATOM    110  F   UNL A   1      39.301  29.440  27.024  1.00  0.00    -0.203 F 
ATOM    111  C   UNL A   1      37.634  29.393  28.683  1.00  0.00     0.198 A 
ATOM    112  C   UNL A   1      38.159  28.623  30.895  1.00  0.00     0.198 A 
ATOM    113  F   UNL A   1      40.354  27.968  31.425  1.00  0.00    -0.203 F 
ATOM    114  F   UNL A   1      36.754  29.899  27.809  1.00  0.00    -0.200 F 
ATOM    115  C   UNL A   1      37.239  29.116  29.983  1.00  0.00     0.200 A 
ATOM    116  F   UNL A   1      37.775  28.342  32.147  1.00  0.00    -0.200 F 
ATOM    117  F   UNL A   1      35.970  29.332  30.360  1.00  0.00    -0.200 F 
ENDBRANCH  87 107
BRANCH  90 118
ATOM    118  C   UNL A   1      49.204  26.612  26.176  1.00  0.00     0.064 A 
ATOM    119  C   UNL A   1      50.171  26.093  27.048  1.00  0.00     0.173 A 
ATOM    120  C   UNL A   1      49.590  26.858  24.849  1.00  0.00     0.173 A 
ATOM    121  F   UNL A   1      49.858  25.858  28.330  1.00  0.00    -0.203 F 
ATOM    122  C   UNL A   1      51.477  25.858  26.620  1.00  0.00     0.198 A 
ATOM    123  C   UNL A   1      50.886  26.592  24.414  1.00  0.00     0.198 A 
ATOM    124  F   UNL A   1      48.701  27.349  23.972  1.00  0.00    -0.203 F 
ATOM    125  F   UNL A   1      52.395  25.414  27.490  1.00  0.00    -0.200 F 
ATOM    126  C   UNL A   1      51.832  26.102  25.303  1.00  0.00     0.200 A 
ATOM    127  F   UNL A   1      51.219  26.815  23.136  1.00  0.00    -0.200 F 
ATOM    128  F   UNL A   1      53.086  25.876  24.890  1.00  0.00    -0.200 F 
ENDBRANCH  90 118
BRANCH 105 129
ATOM    129  C   UNL A   1      46.107  32.332  28.686  1.00  0.00     0.064 A 
ATOM    130  C   UNL A   1      46.676  32.657  29.927  1.00  0.00     0.173 A 
ATOM    131  C   UNL A   1      46.065  33.333  27.702  1.00  0.00     0.173 A 
ATOM    132  F   UNL A   1      46.728  31.740  30.906  1.00  0.00    -0.203 F 
ATOM    133  C   UNL A   1      47.159  33.938  30.179  1.00  0.00     0.198 A 
ATOM    134  C   UNL A   1      46.581  34.602  27.947  1.00  0.00     0.198 A 
ATOM    135  F   UNL A   1      45.539  33.074  26.496  1.00  0.00    -0.203 F 
ATOM    136  F   UNL A   1      47.652  34.239  31.389  1.00  0.00    -0.200 F 
ATOM    137  C   UNL A   1      47.120  34.906  29.187  1.00  0.00     0.200 A 
ATOM    138  F   UNL A   1      46.558  35.530  26.980  1.00  0.00    -0.200 F 
ATOM    139  F   UNL A   1      47.597  36.135  29.429  1.00  0.00    -0.200 F 
ENDBRANCH 105 129
ENDBRANCH  70  73
ENDBRANCH  60  63
ENDBRANCH  56  59
ENDBRANCH  53  56
ENDBRANCH  50  53
ENDBRANCH   1  50
TORSDOF 19
ENDMDL
MODEL 5
REMARK VINA RESULT:     -13.4      0.481      7.067
REMARK SMILES O=C1O[C@@H](c2ccc(O)c(O)c2)[C@H](C(=O)NCCCCCCNC(=O)c2ccc(-c3c4nc(c(-c5c(F)c(F)c(F)c(F)c5F)c5ccc([nH]5)c(-c5c(F)c(F)c(F)c(F)c5F)c5nc(c(-c6c(F)c(F)c(F)c(F)c6F)c6ccc3[nH]6)C=C5)C=C4)cc2)/C1=C\c1ccc(O)c(O)c1
REMARK SMILES IDX 19 1 18 4 17 7 16 10 14 11 15 12 13 14 1 15 2 16 3 17 89 18
REMARK SMILES IDX 4 19 90 20 5 24 6 25 12 26 7 27 10 29 8 31 11 33 9 35 91 37
REMARK SMILES IDX 92 38 98 39 93 40 96 42 94 44 97 46 95 48 20 50 21 53 22 56
REMARK SMILES IDX 23 59 24 60 25 62 26 63 27 64 88 65 28 66 87 68 29 70 30 73
REMARK SMILES IDX 31 74 81 75 32 76 86 77 80 78 82 79 33 80 85 81 79 83 78 85
REMARK SMILES IDX 34 87 66 90 46 91 65 92 47 93 50 94 64 95 83 96 48 97 49 99
REMARK SMILES IDX 63 101 84 102 51 105 35 107 36 108 44 109 37 110 38 111
REMARK SMILES IDX 42 112 45 113 39 114 40 115 43 116 41 117 67 118 68 119
REMARK SMILES IDX 76 120 69 121 70 122 74 123 77 124 71 125 72 126 75 127
REMARK SMILES IDX 73 128 52 129 53 130 61 131 54 132 55 133 59 134 62 135
REMARK SMILES IDX 56 136 57 137 60 138 58 139
REMARK H PARENT 19 2 19 3 18 5 18 6 17 8 17 9 16 13 4 21 13 22 90 23 6 28
REMARK H PARENT 12 30 7 32 11 34 9 36 92 41 98 43 93 45 97 47 95 49 20 51
REMARK H PARENT 20 52 21 54 21 55 22 57 22 58 23 61 27 67 88 69 28 71 87 72
REMARK H PARENT 86 82 80 84 82 86 85 88 79 89 47 98 50 100 83 103 48 104
REMARK H PARENT 84 106
REMARK Flexibility Score: inf
ROOT
ATOM      1  C   UNL A   1      32.270  29.958  26.935  1.00  0.00    -0.052 C 
ATOM      2  H   UNL A   1      33.189  29.801  26.410  1.00  0.00     0.027 H 
ATOM      3  H   UNL A   1      32.392  30.470  27.866  1.00  0.00     0.027 H 
ENDROOT
BRANCH   1   4
ATOM      4  C   UNL A   1      31.678  28.590  27.277  1.00  0.00    -0.036 C 
ATOM      5  H   UNL A   1      31.317  28.626  28.283  1.00  0.00     0.028 H 
ATOM      6  H   UNL A   1      30.906  28.405  26.561  1.00  0.00     0.028 H 
BRANCH   4   7
ATOM      7  C   UNL A   1      32.661  27.433  27.165  1.00  0.00     0.017 C 
ATOM      8  H   UNL A   1      33.135  27.299  28.114  1.00  0.00     0.049 H 
ATOM      9  H   UNL A   1      32.100  26.573  26.865  1.00  0.00     0.049 H 
BRANCH   7  10
ATOM     10  N   UNL A   1      33.687  27.640  26.167  1.00  0.00    -0.355 N 
ATOM     11  C   UNL A   1      33.616  27.631  24.802  1.00  0.00     0.231 C 
ATOM     12  O   UNL A   1      34.628  27.988  24.198  1.00  0.00    -0.274 OA
ATOM     13  H   UNL A   1      34.585  27.817  26.531  1.00  0.00     0.163 HD
BRANCH  11  14
ATOM     14  C   UNL A   1      32.364  27.105  24.089  1.00  0.00     0.111 C 
ATOM     15  O   UNL A   1      33.344  26.011  20.831  1.00  0.00    -0.247 OA
ATOM     16  C   UNL A   1      32.863  26.561  21.806  1.00  0.00     0.335 C 
ATOM     17  O   UNL A   1      32.350  27.815  21.824  1.00  0.00    -0.453 OA
ATOM     18  C   UNL A   1      32.715  25.993  23.158  1.00  0.00     0.054 C 
ATOM     19  C   UNL A   1      31.770  28.112  23.107  1.00  0.00     0.143 C 
ATOM     20  C   UNL A   1      32.879  24.677  23.356  1.00  0.00    -0.043 C 
ATOM     21  H   UNL A   1      32.011  29.099  23.441  1.00  0.00     0.081 H 
ATOM     22  H   UNL A   1      31.701  26.848  24.890  1.00  0.00     0.050 H 
ATOM     23  H   UNL A   1      33.117  24.092  22.539  1.00  0.00     0.063 H 
BRANCH  19  24
ATOM     24  C   UNL A   1      30.239  28.133  23.044  1.00  0.00    -0.002 A 
ATOM     25  C   UNL A   1      29.461  27.149  23.698  1.00  0.00    -0.051 A 
ATOM     26  C   UNL A   1      29.558  29.187  22.415  1.00  0.00    -0.009 A 
ATOM     27  C   UNL A   1      28.065  27.222  23.748  1.00  0.00    -0.016 A 
ATOM     28  H   UNL A   1      29.937  26.354  24.153  1.00  0.00     0.063 H 
ATOM     29  C   UNL A   1      28.168  29.241  22.448  1.00  0.00     0.157 A 
ATOM     30  H   UNL A   1      30.090  29.924  21.927  1.00  0.00     0.067 H 
ATOM     31  C   UNL A   1      27.424  28.276  23.119  1.00  0.00     0.157 A 
ATOM     32  H   UNL A   1      27.520  26.502  24.247  1.00  0.00     0.066 H 
BRANCH  29  33
ATOM     33  O   UNL A   1      27.528  30.270  21.820  1.00  0.00    -0.504 OA
ATOM     34  H   UNL A   1      28.017  31.008  21.511  1.00  0.00     0.293 HD
ENDBRANCH  29  33
BRANCH  31  35
ATOM     35  O   UNL A   1      26.066  28.409  23.136  1.00  0.00    -0.504 OA
ATOM     36  H   UNL A   1      25.529  27.803  22.665  1.00  0.00     0.293 HD
ENDBRANCH  31  35
ENDBRANCH  19  24
BRANCH  20  37
ATOM     37  C   UNL A   1      32.743  24.016  24.652  1.00  0.00    -0.021 A 
ATOM     38  C   UNL A   1      33.810  23.990  25.565  1.00  0.00    -0.051 A 
ATOM     39  C   UNL A   1      31.519  23.434  24.998  1.00  0.00    -0.009 A 
ATOM     40  C   UNL A   1      33.667  23.364  26.807  1.00  0.00    -0.016 A 
ATOM     41  H   UNL A   1      34.706  24.437  25.318  1.00  0.00     0.063 H 
ATOM     42  C   UNL A   1      31.384  22.822  26.237  1.00  0.00     0.157 A 
ATOM     43  H   UNL A   1      30.725  23.459  24.341  1.00  0.00     0.067 H 
ATOM     44  C   UNL A   1      32.449  22.780  27.133  1.00  0.00     0.157 A 
ATOM     45  H   UNL A   1      34.456  23.335  27.471  1.00  0.00     0.066 H 
BRANCH  42  46
ATOM     46  O   UNL A   1      30.187  22.260  26.576  1.00  0.00    -0.504 OA
ATOM     47  H   UNL A   1      29.918  21.455  26.180  1.00  0.00     0.293 HD
ENDBRANCH  42  46
BRANCH  44  48
ATOM     48  O   UNL A   1      32.246  22.155  28.332  1.00  0.00    -0.504 OA
ATOM     49  H   UNL A   1      32.901  21.581  28.678  1.00  0.00     0.293 HD
ENDBRANCH  44  48
ENDBRANCH  20  37
ENDBRANCH  11  14
ENDBRANCH   7  10
ENDBRANCH   4   7
ENDBRANCH   1   4
BRANCH   1  50
ATOM     50  C   UNL A   1      31.378  30.856  26.070  1.00  0.00    -0.052 C 
ATOM     51  H   UNL A   1      30.381  30.472  26.114  1.00  0.00     0.027 H 
ATOM     52  H   UNL A   1      31.803  30.836  25.089  1.00  0.00     0.027 H 
BRANCH  50  53
ATOM     53  C   UNL A   1      31.334  32.330  26.482  1.00  0.00    -0.036 C 
ATOM     54  H   UNL A   1      30.482  32.474  27.112  1.00  0.00     0.028 H 
ATOM     55  H   UNL A   1      31.289  32.896  25.576  1.00  0.00     0.028 H 
BRANCH  53  56
ATOM     56  C   UNL A   1      32.567  32.818  27.232  1.00  0.00     0.018 C 
ATOM     57  H   UNL A   1      33.419  32.726  26.590  1.00  0.00     0.049 H 
ATOM     58  H   UNL A   1      32.676  32.218  28.111  1.00  0.00     0.049 H 
BRANCH  56  59
ATOM     59  N   UNL A   1      32.443  34.204  27.650  1.00  0.00    -0.352 N 
ATOM     60  C   UNL A   1      33.101  34.870  28.652  1.00  0.00     0.251 C 
ATOM     61  H   UNL A   1      31.794  34.742  27.141  1.00  0.00     0.163 HD
ATOM     62  O   UNL A   1      32.738  35.989  28.998  1.00  0.00    -0.269 OA
BRANCH  60  63
ATOM     63  C   UNL A   1      34.245  34.224  29.329  1.00  0.00     0.039 A 
ATOM     64  C   UNL A   1      33.999  33.330  30.373  1.00  0.00    -0.049 A 
ATOM     65  C   UNL A   1      35.556  34.503  28.933  1.00  0.00    -0.049 A 
ATOM     66  C   UNL A   1      35.066  32.672  30.985  1.00  0.00    -0.053 A 
ATOM     67  H   UNL A   1      33.031  33.157  30.689  1.00  0.00     0.063 H 
ATOM     68  C   UNL A   1      36.611  33.786  29.487  1.00  0.00    -0.053 A 
ATOM     69  H   UNL A   1      35.741  35.236  28.231  1.00  0.00     0.063 H 
ATOM     70  C   UNL A   1      36.380  32.871  30.525  1.00  0.00    -0.014 A 
ATOM     71  H   UNL A   1      34.891  32.035  31.777  1.00  0.00     0.063 H 
ATOM     72  H   UNL A   1      37.571  33.929  29.135  1.00  0.00     0.063 H 
BRANCH  70  73
ATOM     73  C   UNL A   1      37.527  32.146  31.127  1.00  0.00     0.031 A 
ATOM     74  C   UNL A   1      38.020  32.528  32.495  1.00  0.00     0.074 A 
ATOM     75  C   UNL A   1      38.166  31.196  30.418  1.00  0.00     0.049 A 
ATOM     76  N   UNL A   1      39.059  32.085  33.156  1.00  0.00    -0.248 NA
ATOM     77  C   UNL A   1      37.259  33.568  33.205  1.00  0.00    -0.034 C 
ATOM     78  C   UNL A   1      37.806  30.764  29.066  1.00  0.00    -0.036 A 
ATOM     79  N   UNL A   1      39.261  30.430  30.730  1.00  0.00    -0.354 N 
ATOM     80  C   UNL A   1      39.083  32.800  34.346  1.00  0.00     0.074 A 
ATOM     81  C   UNL A   1      37.993  33.749  34.292  1.00  0.00    -0.034 C 
ATOM     82  H   UNL A   1      36.381  34.036  32.926  1.00  0.00     0.065 H 
ATOM     83  C   UNL A   1      38.650  29.795  28.675  1.00  0.00    -0.036 A 
ATOM     84  H   UNL A   1      37.028  31.142  28.503  1.00  0.00     0.065 H 
ATOM     85  C   UNL A   1      39.637  29.571  29.727  1.00  0.00     0.049 A 
ATOM     86  H   UNL A   1      39.733  30.490  31.593  1.00  0.00     0.167 HD
ATOM     87  C   UNL A   1      39.923  32.660  35.400  1.00  0.00     0.037 A 
ATOM     88  H   UNL A   1      37.811  34.471  35.005  1.00  0.00     0.065 H 
ATOM     89  H   UNL A   1      38.608  29.292  27.775  1.00  0.00     0.065 H 
ATOM     90  C   UNL A   1      40.670  28.709  29.660  1.00  0.00     0.037 A 
ATOM     91  C   UNL A   1      40.993  31.699  35.456  1.00  0.00     0.049 A 
ATOM     92  C   UNL A   1      41.605  28.591  30.834  1.00  0.00     0.074 A 
ATOM     93  C   UNL A   1      41.869  31.444  36.497  1.00  0.00    -0.036 A 
ATOM     94  N   UNL A   1      41.335  30.837  34.425  1.00  0.00    -0.354 N 
ATOM     95  N   UNL A   1      41.582  29.229  31.979  1.00  0.00    -0.248 NA
ATOM     96  C   UNL A   1      42.706  27.626  30.710  1.00  0.00    -0.034 C 
ATOM     97  C   UNL A   1      42.777  30.469  36.074  1.00  0.00    -0.036 A 
ATOM     98  H   UNL A   1      41.854  31.896  37.424  1.00  0.00     0.065 H 
ATOM     99  C   UNL A   1      42.426  30.067  34.795  1.00  0.00     0.049 A 
ATOM    100  H   UNL A   1      40.872  30.780  33.557  1.00  0.00     0.167 HD
ATOM    101  C   UNL A   1      42.637  28.719  32.723  1.00  0.00     0.074 A 
ATOM    102  C   UNL A   1      43.275  27.709  31.904  1.00  0.00    -0.034 C 
ATOM    103  H   UNL A   1      42.968  27.037  29.904  1.00  0.00     0.065 H 
ATOM    104  H   UNL A   1      43.574  30.109  36.622  1.00  0.00     0.065 H 
ATOM    105  C   UNL A   1      43.040  29.054  33.974  1.00  0.00     0.037 A 
ATOM    106  H   UNL A   1      44.071  27.129  32.211  1.00  0.00     0.065 H 
BRANCH  87 107
ATOM    107  C   UNL A   1      39.718  33.570  36.577  1.00  0.00     0.064 A 
ATOM    108  C   UNL A   1      40.362  34.813  36.672  1.00  0.00     0.173 A 
ATOM    109  C   UNL A   1      38.838  33.210  37.611  1.00  0.00     0.173 A 
ATOM    110  F   UNL A   1      41.224  35.202  35.719  1.00  0.00    -0.203 F 
ATOM    111  C   UNL A   1      40.162  35.645  37.771  1.00  0.00     0.198 A 
ATOM    112  C   UNL A   1      38.611  34.061  38.689  1.00  0.00     0.198 A 
ATOM    113  F   UNL A   1      38.191  32.036  37.570  1.00  0.00    -0.203 F 
ATOM    114  F   UNL A   1      40.833  36.800  37.865  1.00  0.00    -0.200 F 
ATOM    115  C   UNL A   1      39.280  35.272  38.773  1.00  0.00     0.200 A 
ATOM    116  F   UNL A   1      37.748  33.705  39.651  1.00  0.00    -0.200 F 
ATOM    117  F   UNL A   1      39.081  36.076  39.827  1.00  0.00    -0.200 F 
ENDBRANCH  87 107
BRANCH  90 118
ATOM    118  C   UNL A   1      40.868  27.875  28.443  1.00  0.00     0.064 A 
ATOM    119  C   UNL A   1      41.659  28.329  27.379  1.00  0.00     0.173 A 
ATOM    120  C   UNL A   1      40.261  26.617  28.312  1.00  0.00     0.173 A 
ATOM    121  F   UNL A   1      42.244  29.533  27.448  1.00  0.00    -0.203 F 
ATOM    122  C   UNL A   1      41.813  27.570  26.220  1.00  0.00     0.198 A 
ATOM    123  C   UNL A   1      40.443  25.845  27.167  1.00  0.00     0.198 A 
ATOM    124  F   UNL A   1      39.498  26.132  29.304  1.00  0.00    -0.203 F 
ATOM    125  F   UNL A   1      42.530  28.053  25.196  1.00  0.00    -0.200 F 
ATOM    126  C   UNL A   1      41.210  26.327  26.117  1.00  0.00     0.200 A 
ATOM    127  F   UNL A   1      39.870  24.636  27.080  1.00  0.00    -0.200 F 
ATOM    128  F   UNL A   1      41.359  25.596  25.004  1.00  0.00    -0.200 F 
ENDBRANCH  90 118
BRANCH 105 129
ATOM    129  C   UNL A   1      44.193  28.289  34.558  1.00  0.00     0.064 A 
ATOM    130  C   UNL A   1      45.515  28.747  34.461  1.00  0.00     0.173 A 
ATOM    131  C   UNL A   1      43.962  27.100  35.268  1.00  0.00     0.173 A 
ATOM    132  F   UNL A   1      45.791  29.871  33.781  1.00  0.00    -0.203 F 
ATOM    133  C   UNL A   1      46.565  28.031  35.029  1.00  0.00     0.198 A 
ATOM    134  C   UNL A   1      45.010  26.405  35.866  1.00  0.00     0.198 A 
ATOM    135  F   UNL A   1      42.716  26.621  35.399  1.00  0.00    -0.203 F 
ATOM    136  F   UNL A   1      47.825  28.463  34.880  1.00  0.00    -0.200 F 
ATOM    137  C   UNL A   1      46.311  26.867  35.739  1.00  0.00     0.200 A 
ATOM    138  F   UNL A   1      44.760  25.290  36.566  1.00  0.00    -0.200 F 
ATOM    139  F   UNL A   1      47.322  26.186  36.295  1.00  0.00    -0.200 F 
ENDBRANCH 105 129
ENDBRANCH  70  73
ENDBRANCH  60  63
ENDBRANCH  56  59
ENDBRANCH  53  56
ENDBRANCH  50  53
ENDBRANCH   1  50
TORSDOF 19
ENDMDL
MODEL 6
REMARK VINA RESULT:     -13.3      0.612      7.025
REMARK SMILES O=C1O[C@@H](c2ccc(O)c(O)c2)[C@H](C(=O)NCCCCCCNC(=O)c2ccc(-c3c4nc(c(-c5c(F)c(F)c(F)c(F)c5F)c5ccc([nH]5)c(-c5c(F)c(F)c(F)c(F)c5F)c5nc(c(-c6c(F)c(F)c(F)c(F)c6F)c6ccc3[nH]6)C=C5)C=C4)cc2)/C1=C\c1ccc(O)c(O)c1
REMARK SMILES IDX 19 1 18 4 17 7 16 10 14 11 15 12 13 14 1 15 2 16 3 17 89 18
REMARK SMILES IDX 4 19 90 20 5 24 6 25 12 26 7 27 10 29 8 31 11 33 9 35 91 37
REMARK SMILES IDX 92 38 98 39 93 40 96 42 94 44 97 46 95 48 20 50 21 53 22 56
REMARK SMILES IDX 23 59 24 60 25 62 26 63 27 64 88 65 28 66 87 68 29 70 30 73
REMARK SMILES IDX 31 74 81 75 32 76 86 77 80 78 82 79 33 80 85 81 79 83 78 85
REMARK SMILES IDX 34 87 66 90 46 91 65 92 47 93 50 94 64 95 83 96 48 97 49 99
REMARK SMILES IDX 63 101 84 102 51 105 35 107 36 108 44 109 37 110 38 111
REMARK SMILES IDX 42 112 45 113 39 114 40 115 43 116 41 117 67 118 68 119
REMARK SMILES IDX 76 120 69 121 70 122 74 123 77 124 71 125 72 126 75 127
REMARK SMILES IDX 73 128 52 129 53 130 61 131 54 132 55 133 59 134 62 135
REMARK SMILES IDX 56 136 57 137 60 138 58 139
REMARK H PARENT 19 2 19 3 18 5 18 6 17 8 17 9 16 13 4 21 13 22 90 23 6 28
REMARK H PARENT 12 30 7 32 11 34 9 36 92 41 98 43 93 45 97 47 95 49 20 51
REMARK H PARENT 20 52 21 54 21 55 22 57 22 58 23 61 27 67 88 69 28 71 87 72
REMARK H PARENT 86 82 80 84 82 86 85 88 79 89 47 98 50 100 83 103 48 104
REMARK H PARENT 84 106
REMARK Flexibility Score: inf
ROOT
ATOM      1  C   UNL A   1      32.345  30.263  26.807  1.00  0.00    -0.052 C 
ATOM      2  H   UNL A   1      33.130  30.016  26.124  1.00  0.00     0.027 H 
ATOM      3  H   UNL A   1      32.678  30.822  27.656  1.00  0.00     0.027 H 
ENDROOT
BRANCH   1   4
ATOM      4  C   UNL A   1      31.767  28.959  27.358  1.00  0.00    -0.036 C 
ATOM      5  H   UNL A   1      31.412  29.145  28.350  1.00  0.00     0.028 H 
ATOM      6  H   UNL A   1      30.991  28.662  26.686  1.00  0.00     0.028 H 
BRANCH   4   7
ATOM      7  C   UNL A   1      32.757  27.805  27.416  1.00  0.00     0.017 C 
ATOM      8  H   UNL A   1      33.218  27.801  28.381  1.00  0.00     0.049 H 
ATOM      9  H   UNL A   1      32.206  26.908  27.225  1.00  0.00     0.049 H 
BRANCH   7  10
ATOM     10  N   UNL A   1      33.798  27.885  26.413  1.00  0.00    -0.355 N 
ATOM     11  C   UNL A   1      33.730  27.793  25.051  1.00  0.00     0.231 C 
ATOM     12  O   UNL A   1      34.763  28.048  24.432  1.00  0.00    -0.274 OA
ATOM     13  H   UNL A   1      34.703  28.031  26.771  1.00  0.00     0.163 HD
BRANCH  11  14
ATOM     14  C   UNL A   1      32.450  27.298  24.365  1.00  0.00     0.111 C 
ATOM     15  O   UNL A   1      33.314  26.289  21.047  1.00  0.00    -0.247 OA
ATOM     16  C   UNL A   1      32.870  26.815  22.052  1.00  0.00     0.335 C 
ATOM     17  O   UNL A   1      32.370  28.073  22.123  1.00  0.00    -0.453 OA
ATOM     18  C   UNL A   1      32.761  26.210  23.391  1.00  0.00     0.054 C 
ATOM     19  C   UNL A   1      31.835  28.337  23.431  1.00  0.00     0.143 C 
ATOM     20  C   UNL A   1      32.918  24.887  23.546  1.00  0.00    -0.043 C 
ATOM     21  H   UNL A   1      32.095  29.313  23.786  1.00  0.00     0.081 H 
ATOM     22  H   UNL A   1      31.812  27.023  25.179  1.00  0.00     0.050 H 
ATOM     23  H   UNL A   1      33.124  24.325  22.706  1.00  0.00     0.063 H 
BRANCH  19  24
ATOM     24  C   UNL A   1      30.302  28.373  23.419  1.00  0.00    -0.002 A 
ATOM     25  C   UNL A   1      29.596  29.528  23.012  1.00  0.00    -0.051 A 
ATOM     26  C   UNL A   1      29.552  27.225  23.722  1.00  0.00    -0.009 A 
ATOM     27  C   UNL A   1      28.202  29.536  22.884  1.00  0.00    -0.016 A 
ATOM     28  H   UNL A   1      30.123  30.390  22.801  1.00  0.00     0.063 H 
ATOM     29  C   UNL A   1      28.165  27.247  23.616  1.00  0.00     0.157 A 
ATOM     30  H   UNL A   1      30.032  26.362  24.024  1.00  0.00     0.067 H 
ATOM     31  C   UNL A   1      27.493  28.387  23.188  1.00  0.00     0.157 A 
ATOM     32  H   UNL A   1      27.710  30.386  22.567  1.00  0.00     0.066 H 
BRANCH  29  33
ATOM     33  O   UNL A   1      27.458  26.122  23.926  1.00  0.00    -0.504 OA
ATOM     34  H   UNL A   1      27.213  25.952  24.815  1.00  0.00     0.293 HD
ENDBRANCH  29  33
BRANCH  31  35
ATOM     35  O   UNL A   1      26.133  28.327  23.078  1.00  0.00    -0.504 OA
ATOM     36  H   UNL A   1      25.596  28.899  23.589  1.00  0.00     0.293 HD
ENDBRANCH  31  35
ENDBRANCH  19  24
BRANCH  20  37
ATOM     37  C   UNL A   1      32.818  24.190  24.827  1.00  0.00    -0.021 A 
ATOM     38  C   UNL A   1      33.955  23.639  25.440  1.00  0.00    -0.051 A 
ATOM     39  C   UNL A   1      31.577  24.107  25.465  1.00  0.00    -0.009 A 
ATOM     40  C   UNL A   1      33.852  22.983  26.670  1.00  0.00    -0.016 A 
ATOM     41  H   UNL A   1      34.874  23.719  24.979  1.00  0.00     0.063 H 
ATOM     42  C   UNL A   1      31.484  23.461  26.690  1.00  0.00     0.157 A 
ATOM     43  H   UNL A   1      30.738  24.520  25.030  1.00  0.00     0.067 H 
ATOM     44  C   UNL A   1      32.610  22.897  27.288  1.00  0.00     0.157 A 
ATOM     45  H   UNL A   1      34.686  22.568  27.113  1.00  0.00     0.066 H 
BRANCH  42  46
ATOM     46  O   UNL A   1      30.273  23.386  27.315  1.00  0.00    -0.504 OA
ATOM     47  H   UNL A   1      29.575  23.954  27.055  1.00  0.00     0.293 HD
ENDBRANCH  42  46
BRANCH  44  48
ATOM     48  O   UNL A   1      32.443  22.272  28.491  1.00  0.00    -0.504 OA
ATOM     49  H   UNL A   1      32.932  21.496  28.688  1.00  0.00     0.293 HD
ENDBRANCH  44  48
ENDBRANCH  20  37
ENDBRANCH  11  14
ENDBRANCH   7  10
ENDBRANCH   4   7
ENDBRANCH   1   4
BRANCH   1  50
ATOM     50  C   UNL A   1      31.343  31.161  26.073  1.00  0.00    -0.052 C 
ATOM     51  H   UNL A   1      30.366  30.753  26.218  1.00  0.00     0.027 H 
ATOM     52  H   UNL A   1      31.656  31.175  25.050  1.00  0.00     0.027 H 
BRANCH  50  53
ATOM     53  C   UNL A   1      31.317  32.622  26.526  1.00  0.00    -0.036 C 
ATOM     54  H   UNL A   1      30.467  32.758  27.162  1.00  0.00     0.028 H 
ATOM     55  H   UNL A   1      31.276  33.215  25.636  1.00  0.00     0.028 H 
BRANCH  53  56
ATOM     56  C   UNL A   1      32.556  33.076  27.287  1.00  0.00     0.018 C 
ATOM     57  H   UNL A   1      33.408  32.979  26.646  1.00  0.00     0.049 H 
ATOM     58  H   UNL A   1      32.652  32.460  28.156  1.00  0.00     0.049 H 
BRANCH  56  59
ATOM     59  N   UNL A   1      32.456  34.457  27.727  1.00  0.00    -0.352 N 
ATOM     60  C   UNL A   1      33.127  35.095  28.739  1.00  0.00     0.251 C 
ATOM     61  H   UNL A   1      31.815  35.014  27.229  1.00  0.00     0.163 HD
ATOM     62  O   UNL A   1      32.783  36.214  29.104  1.00  0.00    -0.269 OA
BRANCH  60  63
ATOM     63  C   UNL A   1      34.260  34.419  29.403  1.00  0.00     0.039 A 
ATOM     64  C   UNL A   1      34.007  33.580  30.490  1.00  0.00    -0.049 A 
ATOM     65  C   UNL A   1      35.569  34.616  28.954  1.00  0.00    -0.049 A 
ATOM     66  C   UNL A   1      35.062  32.893  31.093  1.00  0.00    -0.053 A 
ATOM     67  H   UNL A   1      33.044  33.468  30.845  1.00  0.00     0.063 H 
ATOM     68  C   UNL A   1      36.607  33.869  29.502  1.00  0.00    -0.053 A 
ATOM     69  H   UNL A   1      35.765  35.312  28.218  1.00  0.00     0.063 H 
ATOM     70  C   UNL A   1      36.366  33.007  30.582  1.00  0.00    -0.014 A 
ATOM     71  H   UNL A   1      34.883  32.297  31.915  1.00  0.00     0.063 H 
ATOM     72  H   UNL A   1      37.559  33.950  29.113  1.00  0.00     0.063 H 
BRANCH  70  73
ATOM     73  C   UNL A   1      37.498  32.250  31.175  1.00  0.00     0.031 A 
ATOM     74  C   UNL A   1      38.014  32.619  32.537  1.00  0.00     0.074 A 
ATOM     75  C   UNL A   1      38.101  31.279  30.462  1.00  0.00     0.049 A 
ATOM     76  N   UNL A   1      39.046  32.146  33.189  1.00  0.00    -0.248 NA
ATOM     77  C   UNL A   1      37.292  33.684  33.252  1.00  0.00    -0.034 C 
ATOM     78  C   UNL A   1      37.715  30.856  29.115  1.00  0.00    -0.036 A 
ATOM     79  N   UNL A   1      39.175  30.481  30.766  1.00  0.00    -0.354 N 
ATOM     80  C   UNL A   1      39.103  32.863  34.377  1.00  0.00     0.074 A 
ATOM     81  C   UNL A   1      38.041  33.844  34.332  1.00  0.00    -0.034 C 
ATOM     82  H   UNL A   1      36.426  34.177  32.981  1.00  0.00     0.065 H 
ATOM     83  C   UNL A   1      38.525  29.861  28.718  1.00  0.00    -0.036 A 
ATOM     84  H   UNL A   1      36.943  31.256  28.559  1.00  0.00     0.065 H 
ATOM     85  C   UNL A   1      39.516  29.609  29.761  1.00  0.00     0.049 A 
ATOM     86  H   UNL A   1      39.656  30.529  31.624  1.00  0.00     0.167 HD
ATOM     87  C   UNL A   1      39.948  32.699  35.424  1.00  0.00     0.037 A 
ATOM     88  H   UNL A   1      37.888  34.572  35.045  1.00  0.00     0.065 H 
ATOM     89  H   UNL A   1      38.460  29.357  27.820  1.00  0.00     0.065 H 
ATOM     90  C   UNL A   1      40.521  28.716  29.686  1.00  0.00     0.037 A 
ATOM     91  C   UNL A   1      40.989  31.707  35.472  1.00  0.00     0.049 A 
ATOM     92  C   UNL A   1      41.463  28.573  30.851  1.00  0.00     0.074 A 
ATOM     93  C   UNL A   1      41.867  31.428  36.505  1.00  0.00    -0.036 A 
ATOM     94  N   UNL A   1      41.296  30.833  34.440  1.00  0.00    -0.354 N 
ATOM     95  N   UNL A   1      41.470  29.214  31.995  1.00  0.00    -0.248 NA
ATOM     96  C   UNL A   1      42.533  27.575  30.719  1.00  0.00    -0.034 C 
ATOM     97  C   UNL A   1      42.741  30.425  36.076  1.00  0.00    -0.036 A 
ATOM     98  H   UNL A   1      41.874  31.881  37.432  1.00  0.00     0.065 H 
ATOM     99  C   UNL A   1      42.366  30.031  34.801  1.00  0.00     0.049 A 
ATOM    100  H   UNL A   1      40.822  30.788  33.577  1.00  0.00     0.167 HD
ATOM    101  C   UNL A   1      42.516  28.673  32.730  1.00  0.00     0.074 A 
ATOM    102  C   UNL A   1      43.116  27.643  31.908  1.00  0.00    -0.034 C 
ATOM    103  H   UNL A   1      42.770  26.977  29.912  1.00  0.00     0.065 H 
ATOM    104  H   UNL A   1      43.532  30.042  36.617  1.00  0.00     0.065 H 
ATOM    105  C   UNL A   1      42.942  28.998  33.977  1.00  0.00     0.037 A 
ATOM    106  H   UNL A   1      43.897  27.040  32.208  1.00  0.00     0.065 H 
BRANCH  87 107
ATOM    107  C   UNL A   1      39.782  33.618  36.601  1.00  0.00     0.064 A 
ATOM    108  C   UNL A   1      38.917  33.310  37.663  1.00  0.00     0.173 A 
ATOM    109  C   UNL A   1      40.525  34.806  36.687  1.00  0.00     0.173 A 
ATOM    110  F   UNL A   1      38.174  32.193  37.626  1.00  0.00    -0.203 F 
ATOM    111  C   UNL A   1      38.775  34.172  38.747  1.00  0.00     0.198 A 
ATOM    112  C   UNL A   1      40.408  35.648  37.791  1.00  0.00     0.198 A 
ATOM    113  F   UNL A   1      41.370  35.148  35.704  1.00  0.00    -0.203 F 
ATOM    114  F   UNL A   1      37.899  33.884  39.719  1.00  0.00    -0.200 F 
ATOM    115  C   UNL A   1      39.526  35.335  38.814  1.00  0.00     0.200 A 
ATOM    116  F   UNL A   1      41.145  36.764  37.860  1.00  0.00    -0.200 F 
ATOM    117  F   UNL A   1      39.395  36.161  39.862  1.00  0.00    -0.200 F 
ENDBRANCH  87 107
BRANCH  90 118
ATOM    118  C   UNL A   1      40.682  27.874  28.470  1.00  0.00     0.064 A 
ATOM    119  C   UNL A   1      40.082  26.610  28.384  1.00  0.00     0.173 A 
ATOM    120  C   UNL A   1      41.446  28.307  27.376  1.00  0.00     0.173 A 
ATOM    121  F   UNL A   1      39.358  26.143  29.411  1.00  0.00    -0.203 F 
ATOM    122  C   UNL A   1      40.263  25.800  27.265  1.00  0.00     0.198 A 
ATOM    123  C   UNL A   1      41.600  27.511  26.244  1.00  0.00     0.198 A 
ATOM    124  F   UNL A   1      42.036  29.512  27.404  1.00  0.00    -0.203 F 
ATOM    125  F   UNL A   1      39.724  24.574  27.233  1.00  0.00    -0.200 F 
ATOM    126  C   UNL A   1      41.017  26.253  26.193  1.00  0.00     0.200 A 
ATOM    127  F   UNL A   1      42.316  27.960  25.204  1.00  0.00    -0.200 F 
ATOM    128  F   UNL A   1      41.191  25.475  25.116  1.00  0.00    -0.200 F 
ENDBRANCH  90 118
BRANCH 105 129
ATOM    129  C   UNL A   1      44.076  28.200  34.552  1.00  0.00     0.064 A 
ATOM    130  C   UNL A   1      43.865  26.994  35.237  1.00  0.00     0.173 A 
ATOM    131  C   UNL A   1      45.402  28.628  34.372  1.00  0.00     0.173 A 
ATOM    132  F   UNL A   1      42.617  26.547  35.447  1.00  0.00    -0.203 F 
ATOM    133  C   UNL A   1      44.935  26.261  35.742  1.00  0.00     0.198 A 
ATOM    134  C   UNL A   1      46.470  27.873  34.848  1.00  0.00     0.198 A 
ATOM    135  F   UNL A   1      45.661  29.769  33.717  1.00  0.00    -0.203 F 
ATOM    136  F   UNL A   1      44.704  25.138  36.437  1.00  0.00    -0.200 F 
ATOM    137  C   UNL A   1      46.235  26.695  35.540  1.00  0.00     0.200 A 
ATOM    138  F   UNL A   1      47.727  28.287  34.635  1.00  0.00    -0.200 F 
ATOM    139  F   UNL A   1      47.264  25.981  36.017  1.00  0.00    -0.200 F 
ENDBRANCH 105 129
ENDBRANCH  70  73
ENDBRANCH  60  63
ENDBRANCH  56  59
ENDBRANCH  53  56
ENDBRANCH  50  53
ENDBRANCH   1  50
TORSDOF 19
ENDMDL
MODEL 7
REMARK VINA RESULT:     -13.2      1.632      4.330
REMARK SMILES O=C1O[C@@H](c2ccc(O)c(O)c2)[C@H](C(=O)NCCCCCCNC(=O)c2ccc(-c3c4nc(c(-c5c(F)c(F)c(F)c(F)c5F)c5ccc([nH]5)c(-c5c(F)c(F)c(F)c(F)c5F)c5nc(c(-c6c(F)c(F)c(F)c(F)c6F)c6ccc3[nH]6)C=C5)C=C4)cc2)/C1=C\c1ccc(O)c(O)c1
REMARK SMILES IDX 19 1 18 4 17 7 16 10 14 11 15 12 13 14 1 15 2 16 3 17 89 18
REMARK SMILES IDX 4 19 90 20 5 24 6 25 12 26 7 27 10 29 8 31 11 33 9 35 91 37
REMARK SMILES IDX 92 38 98 39 93 40 96 42 94 44 97 46 95 48 20 50 21 53 22 56
REMARK SMILES IDX 23 59 24 60 25 62 26 63 27 64 88 65 28 66 87 68 29 70 30 73
REMARK SMILES IDX 31 74 81 75 32 76 86 77 80 78 82 79 33 80 85 81 79 83 78 85
REMARK SMILES IDX 34 87 66 90 46 91 65 92 47 93 50 94 64 95 83 96 48 97 49 99
REMARK SMILES IDX 63 101 84 102 51 105 35 107 36 108 44 109 37 110 38 111
REMARK SMILES IDX 42 112 45 113 39 114 40 115 43 116 41 117 67 118 68 119
REMARK SMILES IDX 76 120 69 121 70 122 74 123 77 124 71 125 72 126 75 127
REMARK SMILES IDX 73 128 52 129 53 130 61 131 54 132 55 133 59 134 62 135
REMARK SMILES IDX 56 136 57 137 60 138 58 139
REMARK H PARENT 19 2 19 3 18 5 18 6 17 8 17 9 16 13 4 21 13 22 90 23 6 28
REMARK H PARENT 12 30 7 32 11 34 9 36 92 41 98 43 93 45 97 47 95 49 20 51
REMARK H PARENT 20 52 21 54 21 55 22 57 22 58 23 61 27 67 88 69 28 71 87 72
REMARK H PARENT 86 82 80 84 82 86 85 88 79 89 47 98 50 100 83 103 48 104
REMARK H PARENT 84 106
REMARK Flexibility Score: inf
ROOT
ATOM      1  C   UNL A   1      32.117  28.895  26.705  1.00  0.00    -0.052 C 
ATOM      2  H   UNL A   1      33.160  28.667  26.637  1.00  0.00     0.027 H 
ATOM      3  H   UNL A   1      31.804  29.179  27.688  1.00  0.00     0.027 H 
ENDROOT
BRANCH   1   4
ATOM      4  C   UNL A   1      31.331  27.630  26.359  1.00  0.00    -0.036 C 
ATOM      5  H   UNL A   1      30.528  27.535  27.058  1.00  0.00     0.028 H 
ATOM      6  H   UNL A   1      30.996  27.746  25.350  1.00  0.00     0.028 H 
BRANCH   4   7
ATOM      7  C   UNL A   1      32.151  26.348  26.399  1.00  0.00     0.017 C 
ATOM      8  H   UNL A   1      32.471  26.120  25.405  1.00  0.00     0.049 H 
ATOM      9  H   UNL A   1      32.973  26.521  27.061  1.00  0.00     0.049 H 
BRANCH   7  10
ATOM     10  N   UNL A   1      31.421  25.211  26.917  1.00  0.00    -0.355 N 
ATOM     11  C   UNL A   1      31.696  23.874  26.853  1.00  0.00     0.231 C 
ATOM     12  O   UNL A   1      30.969  23.133  27.516  1.00  0.00    -0.274 OA
ATOM     13  H   UNL A   1      30.591  25.438  27.394  1.00  0.00     0.163 HD
BRANCH  11  14
ATOM     14  C   UNL A   1      32.793  23.345  25.921  1.00  0.00     0.111 C 
ATOM     15  O   UNL A   1      31.741  20.155  24.700  1.00  0.00    -0.247 OA
ATOM     16  C   UNL A   1      32.297  21.102  25.228  1.00  0.00     0.335 C 
ATOM     17  O   UNL A   1      33.136  21.026  26.289  1.00  0.00    -0.453 OA
ATOM     18  C   UNL A   1      32.201  22.517  24.828  1.00  0.00     0.054 C 
ATOM     19  C   UNL A   1      33.698  22.315  26.590  1.00  0.00     0.143 C 
ATOM     20  C   UNL A   1      31.668  22.847  23.643  1.00  0.00    -0.043 C 
ATOM     21  H   UNL A   1      33.722  22.511  27.641  1.00  0.00     0.081 H 
ATOM     22  H   UNL A   1      33.309  24.228  25.605  1.00  0.00     0.050 H 
ATOM     23  H   UNL A   1      31.326  22.083  23.039  1.00  0.00     0.063 H 
BRANCH  19  24
ATOM     24  C   UNL A   1      35.177  22.394  26.191  1.00  0.00    -0.002 A 
ATOM     25  C   UNL A   1      35.921  23.585  26.356  1.00  0.00    -0.051 A 
ATOM     26  C   UNL A   1      35.863  21.255  25.739  1.00  0.00    -0.009 A 
ATOM     27  C   UNL A   1      37.297  23.636  26.108  1.00  0.00    -0.016 A 
ATOM     28  H   UNL A   1      35.437  24.439  26.671  1.00  0.00     0.063 H 
ATOM     29  C   UNL A   1      37.226  21.320  25.471  1.00  0.00     0.157 A 
ATOM     30  H   UNL A   1      35.354  20.367  25.606  1.00  0.00     0.067 H 
ATOM     31  C   UNL A   1      37.944  22.496  25.665  1.00  0.00     0.157 A 
ATOM     32  H   UNL A   1      37.823  24.513  26.253  1.00  0.00     0.066 H 
BRANCH  29  33
ATOM     33  O   UNL A   1      37.869  20.203  25.022  1.00  0.00    -0.504 OA
ATOM     34  H   UNL A   1      37.875  19.424  25.543  1.00  0.00     0.293 HD
ENDBRANCH  29  33
BRANCH  31  35
ATOM     35  O   UNL A   1      39.286  22.479  25.411  1.00  0.00    -0.504 OA
ATOM     36  H   UNL A   1      39.597  22.575  24.533  1.00  0.00     0.293 HD
ENDBRANCH  31  35
ENDBRANCH  19  24
BRANCH  20  37
ATOM     37  C   UNL A   1      31.538  24.216  23.150  1.00  0.00    -0.021 A 
ATOM     38  C   UNL A   1      30.448  25.019  23.523  1.00  0.00    -0.051 A 
ATOM     39  C   UNL A   1      32.537  24.744  22.325  1.00  0.00    -0.009 A 
ATOM     40  C   UNL A   1      30.337  26.331  23.055  1.00  0.00    -0.016 A 
ATOM     41  H   UNL A   1      29.722  24.636  24.149  1.00  0.00     0.063 H 
ATOM     42  C   UNL A   1      32.424  26.051  21.872  1.00  0.00     0.157 A 
ATOM     43  H   UNL A   1      33.349  24.168  22.056  1.00  0.00     0.067 H 
ATOM     44  C   UNL A   1      31.331  26.838  22.227  1.00  0.00     0.157 A 
ATOM     45  H   UNL A   1      29.529  26.914  23.321  1.00  0.00     0.066 H 
BRANCH  42  46
ATOM     46  O   UNL A   1      33.403  26.566  21.072  1.00  0.00    -0.504 OA
ATOM     47  H   UNL A   1      34.301  26.505  21.331  1.00  0.00     0.293 HD
ENDBRANCH  42  46
BRANCH  44  48
ATOM     48  O   UNL A   1      31.283  28.114  21.739  1.00  0.00    -0.504 OA
ATOM     49  H   UNL A   1      31.387  28.843  22.320  1.00  0.00     0.293 HD
ENDBRANCH  44  48
ENDBRANCH  20  37
ENDBRANCH  11  14
ENDBRANCH   7  10
ENDBRANCH   4   7
ENDBRANCH   1   4
BRANCH   1  50
ATOM     50  C   UNL A   1      31.836  30.103  25.804  1.00  0.00    -0.052 C 
ATOM     51  H   UNL A   1      30.998  29.865  25.184  1.00  0.00     0.027 H 
ATOM     52  H   UNL A   1      32.739  30.278  25.258  1.00  0.00     0.027 H 
BRANCH  50  53
ATOM     53  C   UNL A   1      31.526  31.410  26.537  1.00  0.00    -0.036 C 
ATOM     54  H   UNL A   1      30.881  31.185  27.360  1.00  0.00     0.028 H 
ATOM     55  H   UNL A   1      31.078  32.062  25.817  1.00  0.00     0.028 H 
BRANCH  53  56
ATOM     56  C   UNL A   1      32.748  32.143  27.078  1.00  0.00     0.018 C 
ATOM     57  H   UNL A   1      33.527  32.100  26.345  1.00  0.00     0.049 H 
ATOM     58  H   UNL A   1      33.042  31.663  27.988  1.00  0.00     0.049 H 
BRANCH  56  59
ATOM     59  N   UNL A   1      32.465  33.536  27.379  1.00  0.00    -0.352 N 
ATOM     60  C   UNL A   1      33.032  34.351  28.324  1.00  0.00     0.251 C 
ATOM     61  H   UNL A   1      31.765  33.954  26.826  1.00  0.00     0.163 HD
ATOM     62  O   UNL A   1      32.543  35.447  28.575  1.00  0.00    -0.269 OA
BRANCH  60  63
ATOM     63  C   UNL A   1      34.233  33.896  29.055  1.00  0.00     0.039 A 
ATOM     64  C   UNL A   1      34.092  32.941  30.063  1.00  0.00    -0.049 A 
ATOM     65  C   UNL A   1      35.494  34.412  28.744  1.00  0.00    -0.049 A 
ATOM     66  C   UNL A   1      35.223  32.462  30.725  1.00  0.00    -0.053 A 
ATOM     67  H   UNL A   1      33.154  32.591  30.318  1.00  0.00     0.063 H 
ATOM     68  C   UNL A   1      36.627  33.876  29.346  1.00  0.00    -0.053 A 
ATOM     69  H   UNL A   1      35.585  35.189  28.070  1.00  0.00     0.063 H 
ATOM     70  C   UNL A   1      36.504  32.902  30.349  1.00  0.00    -0.014 A 
ATOM     71  H   UNL A   1      35.120  31.780  31.492  1.00  0.00     0.063 H 
ATOM     72  H   UNL A   1      37.564  34.196  29.055  1.00  0.00     0.063 H 
BRANCH  70  73
ATOM     73  C   UNL A   1      37.727  32.373  31.003  1.00  0.00     0.031 A 
ATOM     74  C   UNL A   1      38.539  31.307  30.323  1.00  0.00     0.074 A 
ATOM     75  C   UNL A   1      38.066  32.800  32.235  1.00  0.00     0.049 A 
ATOM     76  N   UNL A   1      39.582  30.650  30.764  1.00  0.00    -0.248 NA
ATOM     77  C   UNL A   1      38.105  30.905  28.975  1.00  0.00    -0.034 C 
ATOM     78  C   UNL A   1      37.336  33.803  33.013  1.00  0.00    -0.036 A 
ATOM     79  N   UNL A   1      39.105  32.436  33.054  1.00  0.00    -0.354 N 
ATOM     80  C   UNL A   1      39.915  29.752  29.758  1.00  0.00     0.074 A 
ATOM     81  C   UNL A   1      38.930  29.904  28.711  1.00  0.00    -0.034 C 
ATOM     82  H   UNL A   1      37.352  31.301  28.390  1.00  0.00     0.065 H 
ATOM     83  C   UNL A   1      37.963  33.989  34.186  1.00  0.00    -0.036 A 
ATOM     84  H   UNL A   1      36.478  34.288  32.710  1.00  0.00     0.065 H 
ATOM     85  C   UNL A   1      39.109  33.088  34.263  1.00  0.00     0.049 A 
ATOM     86  H   UNL A   1      39.785  31.770  32.799  1.00  0.00     0.167 HD
ATOM     87  C   UNL A   1      40.965  28.897  29.703  1.00  0.00     0.037 A 
ATOM     88  H   UNL A   1      38.877  29.311  27.869  1.00  0.00     0.065 H 
ATOM     89  H   UNL A   1      37.679  34.660  34.917  1.00  0.00     0.065 H 
ATOM     90  C   UNL A   1      39.937  32.963  35.318  1.00  0.00     0.037 A 
ATOM     91  C   UNL A   1      41.954  28.765  30.740  1.00  0.00     0.049 A 
ATOM     92  C   UNL A   1      41.080  31.986  35.241  1.00  0.00     0.074 A 
ATOM     93  C   UNL A   1      43.082  27.964  30.759  1.00  0.00    -0.036 A 
ATOM     94  N   UNL A   1      41.931  29.453  31.945  1.00  0.00    -0.354 N 
ATOM     95  N   UNL A   1      41.421  31.186  34.261  1.00  0.00    -0.248 NA
ATOM     96  C   UNL A   1      41.958  31.900  36.416  1.00  0.00    -0.034 C 
ATOM     97  C   UNL A   1      43.709  28.123  31.998  1.00  0.00    -0.036 A 
ATOM     98  H   UNL A   1      43.404  27.355  29.991  1.00  0.00     0.065 H 
ATOM     99  C   UNL A   1      43.011  29.073  32.725  1.00  0.00     0.049 A 
ATOM    100  H   UNL A   1      41.248  30.112  32.207  1.00  0.00     0.167 HD
ATOM    101  C   UNL A   1      42.571  30.531  34.684  1.00  0.00     0.074 A 
ATOM    102  C   UNL A   1      42.875  31.036  36.007  1.00  0.00    -0.034 C 
ATOM    103  H   UNL A   1      41.881  32.387  37.323  1.00  0.00     0.065 H 
ATOM    104  H   UNL A   1      44.550  27.617  32.317  1.00  0.00     0.065 H 
ATOM    105  C   UNL A   1      43.310  29.598  34.035  1.00  0.00     0.037 A 
ATOM    106  H   UNL A   1      43.700  30.758  36.560  1.00  0.00     0.065 H 
BRANCH  87 107
ATOM    107  C   UNL A   1      41.094  28.034  28.480  1.00  0.00     0.064 A 
ATOM    108  C   UNL A   1      41.798  28.462  27.344  1.00  0.00     0.173 A 
ATOM    109  C   UNL A   1      40.536  26.745  28.456  1.00  0.00     0.173 A 
ATOM    110  F   UNL A   1      42.341  29.689  27.308  1.00  0.00    -0.203 F 
ATOM    111  C   UNL A   1      41.908  27.649  26.218  1.00  0.00     0.198 A 
ATOM    112  C   UNL A   1      40.680  25.921  27.343  1.00  0.00     0.198 A 
ATOM    113  F   UNL A   1      39.857  26.282  29.515  1.00  0.00    -0.203 F 
ATOM    114  F   UNL A   1      42.535  28.104  25.125  1.00  0.00    -0.200 F 
ATOM    115  C   UNL A   1      41.357  26.377  26.222  1.00  0.00     0.200 A 
ATOM    116  F   UNL A   1      40.159  24.687  27.354  1.00  0.00    -0.200 F 
ATOM    117  F   UNL A   1      41.470  25.592  25.141  1.00  0.00    -0.200 F 
ENDBRANCH  87 107
BRANCH  90 118
ATOM    118  C   UNL A   1      39.728  33.796  36.533  1.00  0.00     0.064 A 
ATOM    119  C   UNL A   1      38.931  33.339  37.592  1.00  0.00     0.173 A 
ATOM    120  C   UNL A   1      40.306  35.069  36.656  1.00  0.00     0.173 A 
ATOM    121  F   UNL A   1      38.341  32.138  37.513  1.00  0.00    -0.203 F 
ATOM    122  C   UNL A   1      38.698  34.132  38.713  1.00  0.00     0.198 A 
ATOM    123  C   UNL A   1      40.099  35.847  37.792  1.00  0.00     0.198 A 
ATOM    124  F   UNL A   1      41.082  35.552  35.674  1.00  0.00    -0.203 F 
ATOM    125  F   UNL A   1      37.888  33.692  39.686  1.00  0.00    -0.200 F 
ATOM    126  C   UNL A   1      39.287  35.383  38.816  1.00  0.00     0.200 A 
ATOM    127  F   UNL A   1      40.684  37.049  37.893  1.00  0.00    -0.200 F 
ATOM    128  F   UNL A   1      39.064  36.145  39.895  1.00  0.00    -0.200 F 
ENDBRANCH  90 118
BRANCH 105 129
ATOM    129  C   UNL A   1      44.550  29.097  34.719  1.00  0.00     0.064 A 
ATOM    130  C   UNL A   1      45.785  29.750  34.589  1.00  0.00     0.173 A 
ATOM    131  C   UNL A   1      44.488  27.971  35.555  1.00  0.00     0.173 A 
ATOM    132  F   UNL A   1      45.901  30.823  33.791  1.00  0.00    -0.203 F 
ATOM    133  C   UNL A   1      46.916  29.279  35.250  1.00  0.00     0.198 A 
ATOM    134  C   UNL A   1      45.613  27.525  36.243  1.00  0.00     0.198 A 
ATOM    135  F   UNL A   1      43.330  27.315  35.721  1.00  0.00    -0.203 F 
ATOM    136  F   UNL A   1      48.096  29.889  35.071  1.00  0.00    -0.200 F 
ATOM    137  C   UNL A   1      46.828  28.174  36.083  1.00  0.00     0.200 A 
ATOM    138  F   UNL A   1      45.520  26.468  37.061  1.00  0.00    -0.200 F 
ATOM    139  F   UNL A   1      47.915  27.730  36.728  1.00  0.00    -0.200 F 
ENDBRANCH 105 129
ENDBRANCH  70  73
ENDBRANCH  60  63
ENDBRANCH  56  59
ENDBRANCH  53  56
ENDBRANCH  50  53
ENDBRANCH   1  50
TORSDOF 19
ENDMDL
MODEL 8
REMARK VINA RESULT:     -13.1      5.371      9.881
REMARK SMILES O=C1O[C@@H](c2ccc(O)c(O)c2)[C@H](C(=O)NCCCCCCNC(=O)c2ccc(-c3c4nc(c(-c5c(F)c(F)c(F)c(F)c5F)c5ccc([nH]5)c(-c5c(F)c(F)c(F)c(F)c5F)c5nc(c(-c6c(F)c(F)c(F)c(F)c6F)c6ccc3[nH]6)C=C5)C=C4)cc2)/C1=C\c1ccc(O)c(O)c1
REMARK SMILES IDX 19 1 18 4 17 7 16 10 14 11 15 12 13 14 1 15 2 16 3 17 89 18
REMARK SMILES IDX 4 19 90 20 5 24 6 25 12 26 7 27 10 29 8 31 11 33 9 35 91 37
REMARK SMILES IDX 92 38 98 39 93 40 96 42 94 44 97 46 95 48 20 50 21 53 22 56
REMARK SMILES IDX 23 59 24 60 25 62 26 63 27 64 88 65 28 66 87 68 29 70 30 73
REMARK SMILES IDX 31 74 81 75 32 76 86 77 80 78 82 79 33 80 85 81 79 83 78 85
REMARK SMILES IDX 34 87 66 90 46 91 65 92 47 93 50 94 64 95 83 96 48 97 49 99
REMARK SMILES IDX 63 101 84 102 51 105 35 107 36 108 44 109 37 110 38 111
REMARK SMILES IDX 42 112 45 113 39 114 40 115 43 116 41 117 67 118 68 119
REMARK SMILES IDX 76 120 69 121 70 122 74 123 77 124 71 125 72 126 75 127
REMARK SMILES IDX 73 128 52 129 53 130 61 131 54 132 55 133 59 134 62 135
REMARK SMILES IDX 56 136 57 137 60 138 58 139
REMARK H PARENT 19 2 19 3 18 5 18 6 17 8 17 9 16 13 4 21 13 22 90 23 6 28
REMARK H PARENT 12 30 7 32 11 34 9 36 92 41 98 43 93 45 97 47 95 49 20 51
REMARK H PARENT 20 52 21 54 21 55 22 57 22 58 23 61 27 67 88 69 28 71 87 72
REMARK H PARENT 86 82 80 84 82 86 85 88 79 89 47 98 50 100 83 103 48 104
REMARK H PARENT 84 106
REMARK Flexibility Score: inf
ROOT
ATOM      1  C   UNL A   1      37.404  21.788  24.518  1.00  0.00    -0.052 C 
ATOM      2  H   UNL A   1      37.241  22.268  25.460  1.00  0.00     0.027 H 
ATOM      3  H   UNL A   1      38.430  21.777  24.216  1.00  0.00     0.027 H 
ENDROOT
BRANCH   1   4
ATOM      4  C   UNL A   1      36.654  22.579  23.446  1.00  0.00    -0.036 C 
ATOM      5  H   UNL A   1      37.327  22.761  22.635  1.00  0.00     0.028 H 
ATOM      6  H   UNL A   1      35.810  21.985  23.163  1.00  0.00     0.028 H 
BRANCH   4   7
ATOM      7  C   UNL A   1      36.104  23.917  23.919  1.00  0.00     0.017 C 
ATOM      8  H   UNL A   1      36.821  24.677  23.689  1.00  0.00     0.049 H 
ATOM      9  H   UNL A   1      35.173  24.070  23.415  1.00  0.00     0.049 H 
BRANCH   7  10
ATOM     10  N   UNL A   1      35.831  23.961  25.339  1.00  0.00    -0.355 N 
ATOM     11  C   UNL A   1      34.834  23.380  26.071  1.00  0.00     0.231 C 
ATOM     12  O   UNL A   1      34.932  23.467  27.296  1.00  0.00    -0.274 OA
ATOM     13  H   UNL A   1      36.469  24.497  25.864  1.00  0.00     0.163 HD
BRANCH  11  14
ATOM     14  C   UNL A   1      33.621  22.749  25.377  1.00  0.00     0.111 C 
ATOM     15  O   UNL A   1      30.851  22.951  27.626  1.00  0.00    -0.247 OA
ATOM     16  C   UNL A   1      31.762  22.619  26.888  1.00  0.00     0.335 C 
ATOM     17  O   UNL A   1      32.394  21.421  26.914  1.00  0.00    -0.453 OA
ATOM     18  C   UNL A   1      32.359  23.422  25.806  1.00  0.00     0.054 C 
ATOM     19  C   UNL A   1      33.345  21.321  25.840  1.00  0.00     0.143 C 
ATOM     20  C   UNL A   1      31.744  24.532  25.374  1.00  0.00    -0.043 C 
ATOM     21  H   UNL A   1      34.267  20.879  26.154  1.00  0.00     0.081 H 
ATOM     22  H   UNL A   1      33.854  22.823  24.335  1.00  0.00     0.050 H 
ATOM     23  H   UNL A   1      30.857  24.800  25.828  1.00  0.00     0.063 H 
BRANCH  19  24
ATOM     24  C   UNL A   1      32.861  20.365  24.743  1.00  0.00    -0.002 A 
ATOM     25  C   UNL A   1      32.482  20.840  23.466  1.00  0.00    -0.051 A 
ATOM     26  C   UNL A   1      32.872  18.976  24.943  1.00  0.00    -0.009 A 
ATOM     27  C   UNL A   1      32.153  19.970  22.421  1.00  0.00    -0.016 A 
ATOM     28  H   UNL A   1      32.449  21.858  23.299  1.00  0.00     0.063 H 
ATOM     29  C   UNL A   1      32.520  18.117  23.907  1.00  0.00     0.157 A 
ATOM     30  H   UNL A   1      33.143  18.590  25.861  1.00  0.00     0.067 H 
ATOM     31  C   UNL A   1      32.175  18.605  22.651  1.00  0.00     0.157 A 
ATOM     32  H   UNL A   1      31.896  20.340  21.492  1.00  0.00     0.066 H 
BRANCH  29  33
ATOM     33  O   UNL A   1      32.528  16.770  24.129  1.00  0.00    -0.504 OA
ATOM     34  H   UNL A   1      32.831  16.431  24.948  1.00  0.00     0.293 HD
ENDBRANCH  29  33
BRANCH  31  35
ATOM     35  O   UNL A   1      31.871  17.703  21.672  1.00  0.00    -0.504 OA
ATOM     36  H   UNL A   1      31.086  17.802  21.171  1.00  0.00     0.293 HD
ENDBRANCH  31  35
ENDBRANCH  19  24
BRANCH  20  37
ATOM     37  C   UNL A   1      32.247  25.389  24.302  1.00  0.00    -0.021 A 
ATOM     38  C   UNL A   1      33.232  26.358  24.553  1.00  0.00    -0.051 A 
ATOM     39  C   UNL A   1      31.765  25.211  23.001  1.00  0.00    -0.009 A 
ATOM     40  C   UNL A   1      33.715  27.166  23.520  1.00  0.00    -0.016 A 
ATOM     41  H   UNL A   1      33.602  26.475  25.509  1.00  0.00     0.063 H 
ATOM     42  C   UNL A   1      32.257  26.011  21.979  1.00  0.00     0.157 A 
ATOM     43  H   UNL A   1      31.052  24.493  22.803  1.00  0.00     0.067 H 
ATOM     44  C   UNL A   1      33.219  26.986  22.234  1.00  0.00     0.157 A 
ATOM     45  H   UNL A   1      34.429  27.886  23.709  1.00  0.00     0.066 H 
BRANCH  42  46
ATOM     46  O   UNL A   1      31.790  25.833  20.709  1.00  0.00    -0.504 OA
ATOM     47  H   UNL A   1      31.308  25.059  20.490  1.00  0.00     0.293 HD
ENDBRANCH  42  46
BRANCH  44  48
ATOM     48  O   UNL A   1      33.652  27.742  21.181  1.00  0.00    -0.504 OA
ATOM     49  H   UNL A   1      33.479  27.464  20.302  1.00  0.00     0.293 HD
ENDBRANCH  44  48
ENDBRANCH  20  37
ENDBRANCH  11  14
ENDBRANCH   7  10
ENDBRANCH   4   7
ENDBRANCH   1   4
BRANCH   1  50
ATOM     50  C   UNL A   1      36.986  20.319  24.656  1.00  0.00    -0.052 C 
ATOM     51  H   UNL A   1      36.566  20.006  23.724  1.00  0.00     0.027 H 
ATOM     52  H   UNL A   1      36.295  20.286  25.472  1.00  0.00     0.027 H 
BRANCH  50  53
ATOM     53  C   UNL A   1      38.112  19.348  25.017  1.00  0.00    -0.036 C 
ATOM     54  H   UNL A   1      38.480  18.913  24.111  1.00  0.00     0.028 H 
ATOM     55  H   UNL A   1      37.689  18.629  25.687  1.00  0.00     0.028 H 
BRANCH  53  56
ATOM     56  C   UNL A   1      39.288  19.980  25.751  1.00  0.00     0.018 C 
ATOM     57  H   UNL A   1      38.946  20.344  26.698  1.00  0.00     0.049 H 
ATOM     58  H   UNL A   1      39.667  20.773  25.142  1.00  0.00     0.049 H 
BRANCH  56  59
ATOM     59  N   UNL A   1      40.368  19.034  25.976  1.00  0.00    -0.352 N 
ATOM     60  C   UNL A   1      41.699  19.275  26.200  1.00  0.00     0.251 C 
ATOM     61  H   UNL A   1      40.107  18.085  25.965  1.00  0.00     0.163 HD
ATOM     62  O   UNL A   1      42.510  18.356  26.178  1.00  0.00    -0.269 OA
BRANCH  60  63
ATOM     63  C   UNL A   1      42.158  20.657  26.452  1.00  0.00     0.039 A 
ATOM     64  C   UNL A   1      42.443  21.486  25.365  1.00  0.00    -0.049 A 
ATOM     65  C   UNL A   1      42.307  21.131  27.758  1.00  0.00    -0.049 A 
ATOM     66  C   UNL A   1      42.825  22.810  25.587  1.00  0.00    -0.053 A 
ATOM     67  H   UNL A   1      42.371  21.121  24.401  1.00  0.00     0.063 H 
ATOM     68  C   UNL A   1      42.608  22.471  27.976  1.00  0.00    -0.053 A 
ATOM     69  H   UNL A   1      42.193  20.489  28.558  1.00  0.00     0.063 H 
ATOM     70  C   UNL A   1      42.880  23.322  26.894  1.00  0.00    -0.014 A 
ATOM     71  H   UNL A   1      43.068  23.416  24.788  1.00  0.00     0.063 H 
ATOM     72  H   UNL A   1      42.633  22.842  28.939  1.00  0.00     0.063 H 
BRANCH  70  73
ATOM     73  C   UNL A   1      43.236  24.740  27.155  1.00  0.00     0.031 A 
ATOM     74  C   UNL A   1      44.636  25.220  26.893  1.00  0.00     0.074 A 
ATOM     75  C   UNL A   1      42.323  25.573  27.689  1.00  0.00     0.049 A 
ATOM     76  N   UNL A   1      45.172  26.389  27.141  1.00  0.00    -0.248 NA
ATOM     77  C   UNL A   1      45.569  24.248  26.300  1.00  0.00    -0.034 C 
ATOM     78  C   UNL A   1      40.943  25.214  28.022  1.00  0.00    -0.036 A 
ATOM     79  N   UNL A   1      42.421  26.892  28.057  1.00  0.00    -0.354 N 
ATOM     80  C   UNL A   1      46.500  26.285  26.748  1.00  0.00     0.074 A 
ATOM     81  C   UNL A   1      46.707  24.925  26.304  1.00  0.00    -0.034 C 
ATOM     82  H   UNL A   1      45.382  23.288  25.968  1.00  0.00     0.065 H 
ATOM     83  C   UNL A   1      40.319  26.292  28.524  1.00  0.00    -0.036 A 
ATOM     84  H   UNL A   1      40.518  24.283  27.892  1.00  0.00     0.065 H 
ATOM     85  C   UNL A   1      41.263  27.402  28.592  1.00  0.00     0.049 A 
ATOM     86  H   UNL A   1      43.244  27.422  27.948  1.00  0.00     0.167 HD
ATOM     87  C   UNL A   1      47.455  27.247  26.735  1.00  0.00     0.037 A 
ATOM     88  H   UNL A   1      47.619  24.533  26.027  1.00  0.00     0.065 H 
ATOM     89  H   UNL A   1      39.329  26.328  28.816  1.00  0.00     0.065 H 
ATOM     90  C   UNL A   1      41.000  28.625  29.092  1.00  0.00     0.037 A 
ATOM     91  C   UNL A   1      47.238  28.605  27.158  1.00  0.00     0.049 A 
ATOM     92  C   UNL A   1      42.086  29.668  29.090  1.00  0.00     0.074 A 
ATOM     93  C   UNL A   1      48.125  29.667  27.138  1.00  0.00    -0.036 A 
ATOM     94  N   UNL A   1      46.047  29.088  27.682  1.00  0.00    -0.354 N 
ATOM     95  N   UNL A   1      43.321  29.577  28.661  1.00  0.00    -0.248 NA
ATOM     96  C   UNL A   1      41.739  30.986  29.636  1.00  0.00    -0.034 C 
ATOM     97  C   UNL A   1      47.490  30.777  27.703  1.00  0.00    -0.036 A 
ATOM     98  H   UNL A   1      49.088  29.643  26.769  1.00  0.00     0.065 H 
ATOM     99  C   UNL A   1      46.186  30.426  28.014  1.00  0.00     0.049 A 
ATOM    100  H   UNL A   1      45.225  28.558  27.802  1.00  0.00     0.167 HD
ATOM    101  C   UNL A   1      43.885  30.832  28.849  1.00  0.00     0.074 A 
ATOM    102  C   UNL A   1      42.854  31.671  29.422  1.00  0.00    -0.034 C 
ATOM    103  H   UNL A   1      40.857  31.299  30.072  1.00  0.00     0.065 H 
ATOM    104  H   UNL A   1      47.921  31.701  27.863  1.00  0.00     0.065 H 
ATOM    105  C   UNL A   1      45.144  31.253  28.569  1.00  0.00     0.037 A 
ATOM    106  H   UNL A   1      42.971  32.672  29.637  1.00  0.00     0.065 H 
BRANCH  87 107
ATOM    107  C   UNL A   1      48.823  26.861  26.248  1.00  0.00     0.064 A 
ATOM    108  C   UNL A   1      49.202  27.019  24.906  1.00  0.00     0.173 A 
ATOM    109  C   UNL A   1      49.781  26.359  27.143  1.00  0.00     0.173 A 
ATOM    110  F   UNL A   1      48.322  27.482  24.005  1.00  0.00    -0.203 F 
ATOM    111  C   UNL A   1      50.474  26.656  24.472  1.00  0.00     0.198 A 
ATOM    112  C   UNL A   1      51.065  26.033  26.713  1.00  0.00     0.198 A 
ATOM    113  F   UNL A   1      49.476  26.193  28.438  1.00  0.00    -0.203 F 
ATOM    114  F   UNL A   1      50.792  26.761  23.174  1.00  0.00    -0.200 F 
ATOM    115  C   UNL A   1      51.406  26.172  25.376  1.00  0.00     0.200 A 
ATOM    116  F   UNL A   1      51.969  25.579  27.591  1.00  0.00    -0.200 F 
ATOM    117  F   UNL A   1      52.634  25.831  24.959  1.00  0.00    -0.200 F 
ENDBRANCH  87 107
BRANCH  90 118
ATOM    118  C   UNL A   1      39.645  28.938  29.622  1.00  0.00     0.064 A 
ATOM    119  C   UNL A   1      39.328  28.710  30.969  1.00  0.00     0.173 A 
ATOM    120  C   UNL A   1      38.638  29.456  28.795  1.00  0.00     0.173 A 
ATOM    121  F   UNL A   1      40.250  28.197  31.795  1.00  0.00    -0.203 F 
ATOM    122  C   UNL A   1      38.049  28.962  31.460  1.00  0.00     0.198 A 
ATOM    123  C   UNL A   1      37.369  29.739  29.295  1.00  0.00     0.198 A 
ATOM    124  F   UNL A   1      38.891  29.699  27.499  1.00  0.00    -0.203 F 
ATOM    125  F   UNL A   1      37.758  28.683  32.738  1.00  0.00    -0.200 F 
ATOM    126  C   UNL A   1      37.072  29.481  30.625  1.00  0.00     0.200 A 
ATOM    127  F   UNL A   1      36.434  30.256  28.487  1.00  0.00    -0.200 F 
ATOM    128  F   UNL A   1      35.842  29.725  31.098  1.00  0.00    -0.200 F 
ENDBRANCH  90 118
BRANCH 105 129
ATOM    129  C   UNL A   1      45.465  32.697  28.829  1.00  0.00     0.064 A 
ATOM    130  C   UNL A   1      46.053  33.124  30.029  1.00  0.00     0.173 A 
ATOM    131  C   UNL A   1      45.222  33.662  27.839  1.00  0.00     0.173 A 
ATOM    132  F   UNL A   1      46.293  32.243  31.013  1.00  0.00    -0.203 F 
ATOM    133  C   UNL A   1      46.360  34.465  30.238  1.00  0.00     0.198 A 
ATOM    134  C   UNL A   1      45.564  34.997  28.037  1.00  0.00     0.198 A 
ATOM    135  F   UNL A   1      44.669  33.307  26.669  1.00  0.00    -0.203 F 
ATOM    136  F   UNL A   1      46.875  34.857  31.412  1.00  0.00    -0.200 F 
ATOM    137  C   UNL A   1      46.125  35.398  29.240  1.00  0.00     0.200 A 
ATOM    138  F   UNL A   1      45.351  35.893  27.064  1.00  0.00    -0.200 F 
ATOM    139  F   UNL A   1      46.433  36.687  29.438  1.00  0.00    -0.200 F 
ENDBRANCH 105 129
ENDBRANCH  70  73
ENDBRANCH  60  63
ENDBRANCH  56  59
ENDBRANCH  53  56
ENDBRANCH  50  53
ENDBRANCH   1  50
TORSDOF 19
ENDMDL
MODEL 9
REMARK VINA RESULT:     -13.0      5.275     10.518
REMARK SMILES O=C1O[C@@H](c2ccc(O)c(O)c2)[C@H](C(=O)NCCCCCCNC(=O)c2ccc(-c3c4nc(c(-c5c(F)c(F)c(F)c(F)c5F)c5ccc([nH]5)c(-c5c(F)c(F)c(F)c(F)c5F)c5nc(c(-c6c(F)c(F)c(F)c(F)c6F)c6ccc3[nH]6)C=C5)C=C4)cc2)/C1=C\c1ccc(O)c(O)c1
REMARK SMILES IDX 19 1 18 4 17 7 16 10 14 11 15 12 13 14 1 15 2 16 3 17 89 18
REMARK SMILES IDX 4 19 90 20 5 24 6 25 12 26 7 27 10 29 8 31 11 33 9 35 91 37
REMARK SMILES IDX 92 38 98 39 93 40 96 42 94 44 97 46 95 48 20 50 21 53 22 56
REMARK SMILES IDX 23 59 24 60 25 62 26 63 27 64 88 65 28 66 87 68 29 70 30 73
REMARK SMILES IDX 31 74 81 75 32 76 86 77 80 78 82 79 33 80 85 81 79 83 78 85
REMARK SMILES IDX 34 87 66 90 46 91 65 92 47 93 50 94 64 95 83 96 48 97 49 99
REMARK SMILES IDX 63 101 84 102 51 105 35 107 36 108 44 109 37 110 38 111
REMARK SMILES IDX 42 112 45 113 39 114 40 115 43 116 41 117 67 118 68 119
REMARK SMILES IDX 76 120 69 121 70 122 74 123 77 124 71 125 72 126 75 127
REMARK SMILES IDX 73 128 52 129 53 130 61 131 54 132 55 133 59 134 62 135
REMARK SMILES IDX 56 136 57 137 60 138 58 139
REMARK H PARENT 19 2 19 3 18 5 18 6 17 8 17 9 16 13 4 21 13 22 90 23 6 28
REMARK H PARENT 12 30 7 32 11 34 9 36 92 41 98 43 93 45 97 47 95 49 20 51
REMARK H PARENT 20 52 21 54 21 55 22 57 22 58 23 61 27 67 88 69 28 71 87 72
REMARK H PARENT 86 82 80 84 82 86 85 88 79 89 47 98 50 100 83 103 48 104
REMARK H PARENT 84 106
REMARK Flexibility Score: inf
ROOT
ATOM      1  C   UNL A   1      36.408  22.093  24.699  1.00  0.00    -0.052 C 
ATOM      2  H   UNL A   1      36.311  22.612  25.630  1.00  0.00     0.027 H 
ATOM      3  H   UNL A   1      37.289  22.356  24.152  1.00  0.00     0.027 H 
ENDROOT
BRANCH   1   4
ATOM      4  C   UNL A   1      35.226  22.486  23.812  1.00  0.00    -0.036 C 
ATOM      5  H   UNL A   1      35.507  22.329  22.792  1.00  0.00     0.028 H 
ATOM      6  H   UNL A   1      34.400  21.878  24.116  1.00  0.00     0.028 H 
BRANCH   4   7
ATOM      7  C   UNL A   1      34.778  23.933  23.963  1.00  0.00     0.017 C 
ATOM      8  H   UNL A   1      34.160  24.007  24.833  1.00  0.00     0.049 H 
ATOM      9  H   UNL A   1      35.662  24.530  24.040  1.00  0.00     0.049 H 
BRANCH   7  10
ATOM     10  N   UNL A   1      34.030  24.428  22.828  1.00  0.00    -0.355 N 
ATOM     11  C   UNL A   1      33.138  25.460  22.732  1.00  0.00     0.231 C 
ATOM     12  O   UNL A   1      32.760  25.753  21.597  1.00  0.00    -0.274 OA
ATOM     13  H   UNL A   1      34.189  23.943  21.987  1.00  0.00     0.163 HD
BRANCH  11  14
ATOM     14  C   UNL A   1      32.580  26.130  23.994  1.00  0.00     0.111 C 
ATOM     15  O   UNL A   1      29.076  26.636  23.501  1.00  0.00    -0.247 OA
ATOM     16  C   UNL A   1      30.278  26.730  23.678  1.00  0.00     0.335 C 
ATOM     17  O   UNL A   1      31.027  27.826  23.404  1.00  0.00    -0.453 OA
ATOM     18  C   UNL A   1      31.171  25.701  24.240  1.00  0.00     0.054 C 
ATOM     19  C   UNL A   1      32.386  27.636  23.833  1.00  0.00     0.143 C 
ATOM     20  C   UNL A   1      30.656  24.628  24.857  1.00  0.00    -0.043 C 
ATOM     21  H   UNL A   1      33.092  27.996  23.114  1.00  0.00     0.081 H 
ATOM     22  H   UNL A   1      33.284  25.869  24.756  1.00  0.00     0.050 H 
ATOM     23  H   UNL A   1      29.629  24.550  24.913  1.00  0.00     0.063 H 
BRANCH  19  24
ATOM     24  C   UNL A   1      32.708  28.468  25.079  1.00  0.00    -0.002 A 
ATOM     25  C   UNL A   1      33.789  28.136  25.929  1.00  0.00    -0.051 A 
ATOM     26  C   UNL A   1      31.998  29.646  25.363  1.00  0.00    -0.009 A 
ATOM     27  C   UNL A   1      34.166  28.953  27.000  1.00  0.00    -0.016 A 
ATOM     28  H   UNL A   1      34.316  27.267  25.752  1.00  0.00     0.063 H 
ATOM     29  C   UNL A   1      32.362  30.440  26.444  1.00  0.00     0.157 A 
ATOM     30  H   UNL A   1      31.202  29.922  24.766  1.00  0.00     0.067 H 
ATOM     31  C   UNL A   1      33.445  30.107  27.251  1.00  0.00     0.157 A 
ATOM     32  H   UNL A   1      34.970  28.698  27.596  1.00  0.00     0.066 H 
BRANCH  29  33
ATOM     33  O   UNL A   1      31.649  31.574  26.706  1.00  0.00    -0.504 OA
ATOM     34  H   UNL A   1      30.715  31.570  26.627  1.00  0.00     0.293 HD
ENDBRANCH  29  33
BRANCH  31  35
ATOM     35  O   UNL A   1      33.765  30.950  28.277  1.00  0.00    -0.504 OA
ATOM     36  H   UNL A   1      34.574  30.843  28.736  1.00  0.00     0.293 HD
ENDBRANCH  31  35
ENDBRANCH  19  24
BRANCH  20  37
ATOM     37  C   UNL A   1      31.455  23.560  25.455  1.00  0.00    -0.021 A 
ATOM     38  C   UNL A   1      32.208  23.785  26.619  1.00  0.00    -0.051 A 
ATOM     39  C   UNL A   1      31.435  22.286  24.878  1.00  0.00    -0.009 A 
ATOM     40  C   UNL A   1      32.961  22.755  27.189  1.00  0.00    -0.016 A 
ATOM     41  H   UNL A   1      32.206  24.720  27.056  1.00  0.00     0.063 H 
ATOM     42  C   UNL A   1      32.178  21.266  25.456  1.00  0.00     0.157 A 
ATOM     43  H   UNL A   1      30.874  22.106  24.031  1.00  0.00     0.067 H 
ATOM     44  C   UNL A   1      32.941  21.497  26.599  1.00  0.00     0.157 A 
ATOM     45  H   UNL A   1      33.523  22.926  28.037  1.00  0.00     0.066 H 
BRANCH  42  46
ATOM     46  O   UNL A   1      32.153  20.022  24.895  1.00  0.00    -0.504 OA
ATOM     47  H   UNL A   1      32.129  19.261  25.441  1.00  0.00     0.293 HD
ENDBRANCH  42  46
BRANCH  44  48
ATOM     48  O   UNL A   1      33.652  20.448  27.110  1.00  0.00    -0.504 OA
ATOM     49  H   UNL A   1      33.211  19.767  27.580  1.00  0.00     0.293 HD
ENDBRANCH  44  48
ENDBRANCH  20  37
ENDBRANCH  11  14
ENDBRANCH   7  10
ENDBRANCH   4   7
ENDBRANCH   1   4
BRANCH   1  50
ATOM     50  C   UNL A   1      36.525  20.595  25.001  1.00  0.00    -0.052 C 
ATOM     51  H   UNL A   1      35.801  20.080  24.406  1.00  0.00     0.027 H 
ATOM     52  H   UNL A   1      36.366  20.494  26.054  1.00  0.00     0.027 H 
BRANCH  50  53
ATOM     53  C   UNL A   1      37.895  19.974  24.720  1.00  0.00    -0.036 C 
ATOM     54  H   UNL A   1      38.230  20.326  23.767  1.00  0.00     0.028 H 
ATOM     55  H   UNL A   1      37.760  18.914  24.753  1.00  0.00     0.028 H 
BRANCH  53  56
ATOM     56  C   UNL A   1      38.968  20.303  25.751  1.00  0.00     0.018 C 
ATOM     57  H   UNL A   1      38.498  20.445  26.702  1.00  0.00     0.049 H 
ATOM     58  H   UNL A   1      39.472  21.190  25.429  1.00  0.00     0.049 H 
BRANCH  56  59
ATOM     59  N   UNL A   1      39.957  19.245  25.871  1.00  0.00    -0.352 N 
ATOM     60  C   UNL A   1      41.314  19.343  26.046  1.00  0.00     0.251 C 
ATOM     61  H   UNL A   1      39.603  18.328  25.819  1.00  0.00     0.163 HD
ATOM     62  O   UNL A   1      42.028  18.353  25.934  1.00  0.00    -0.269 OA
BRANCH  60  63
ATOM     63  C   UNL A   1      41.917  20.656  26.353  1.00  0.00     0.039 A 
ATOM     64  C   UNL A   1      42.274  21.502  25.301  1.00  0.00    -0.049 A 
ATOM     65  C   UNL A   1      42.130  21.049  27.677  1.00  0.00    -0.049 A 
ATOM     66  C   UNL A   1      42.795  22.767  25.577  1.00  0.00    -0.053 A 
ATOM     67  H   UNL A   1      42.153  21.193  24.323  1.00  0.00     0.063 H 
ATOM     68  C   UNL A   1      42.572  22.339  27.952  1.00  0.00    -0.053 A 
ATOM     69  H   UNL A   1      41.960  20.386  28.449  1.00  0.00     0.063 H 
ATOM     70  C   UNL A   1      42.918  23.208  26.906  1.00  0.00    -0.014 A 
ATOM     71  H   UNL A   1      43.090  23.382  24.804  1.00  0.00     0.063 H 
ATOM     72  H   UNL A   1      42.647  22.659  28.930  1.00  0.00     0.063 H 
BRANCH  70  73
ATOM     73  C   UNL A   1      43.424  24.567  27.226  1.00  0.00     0.031 A 
ATOM     74  C   UNL A   1      42.484  25.608  27.766  1.00  0.00     0.074 A 
ATOM     75  C   UNL A   1      44.708  24.882  26.967  1.00  0.00     0.049 A 
ATOM     76  N   UNL A   1      42.705  26.873  28.020  1.00  0.00    -0.248 NA
ATOM     77  C   UNL A   1      41.101  25.178  28.029  1.00  0.00    -0.034 C 
ATOM     78  C   UNL A   1      45.706  23.969  26.408  1.00  0.00    -0.036 A 
ATOM     79  N   UNL A   1      45.390  26.062  27.129  1.00  0.00    -0.354 N 
ATOM     80  C   UNL A   1      41.491  27.388  28.457  1.00  0.00     0.074 A 
ATOM     81  C   UNL A   1      40.523  26.317  28.375  1.00  0.00    -0.034 C 
ATOM     82  H   UNL A   1      40.691  24.232  27.961  1.00  0.00     0.065 H 
ATOM     83  C   UNL A   1      46.877  24.616  26.295  1.00  0.00    -0.036 A 
ATOM     84  H   UNL A   1      45.538  22.986  26.144  1.00  0.00     0.065 H 
ATOM     85  C   UNL A   1      46.702  25.999  26.728  1.00  0.00     0.049 A 
ATOM     86  H   UNL A   1      44.978  26.876  27.498  1.00  0.00     0.167 HD
ATOM     87  C   UNL A   1      41.216  28.635  28.910  1.00  0.00     0.037 A 
ATOM     88  H   UNL A   1      39.514  26.426  28.562  1.00  0.00     0.065 H 
ATOM     89  H   UNL A   1      47.760  24.202  25.955  1.00  0.00     0.065 H 
ATOM     90  C   UNL A   1      47.651  26.954  26.701  1.00  0.00     0.037 A 
ATOM     91  C   UNL A   1      42.189  29.690  29.009  1.00  0.00     0.049 A 
ATOM     92  C   UNL A   1      47.312  28.339  27.185  1.00  0.00     0.074 A 
ATOM     93  C   UNL A   1      42.023  30.973  29.500  1.00  0.00    -0.036 A 
ATOM     94  N   UNL A   1      43.512  29.585  28.605  1.00  0.00    -0.354 N 
ATOM     95  N   UNL A   1      46.178  28.799  27.653  1.00  0.00    -0.248 NA
ATOM     96  C   UNL A   1      48.390  29.337  27.145  1.00  0.00    -0.034 C 
ATOM     97  C   UNL A   1      43.229  31.662  29.339  1.00  0.00    -0.036 A 
ATOM     98  H   UNL A   1      41.158  31.355  29.914  1.00  0.00     0.065 H 
ATOM     99  C   UNL A   1      44.166  30.789  28.811  1.00  0.00     0.049 A 
ATOM    100  H   UNL A   1      43.926  28.775  28.226  1.00  0.00     0.167 HD
ATOM    101  C   UNL A   1      46.413  30.123  27.996  1.00  0.00     0.074 A 
ATOM    102  C   UNL A   1      47.804  30.391  27.693  1.00  0.00    -0.034 C 
ATOM    103  H   UNL A   1      49.353  29.241  26.784  1.00  0.00     0.065 H 
ATOM    104  H   UNL A   1      43.393  32.653  29.575  1.00  0.00     0.065 H 
ATOM    105  C   UNL A   1      45.556  31.035  28.519  1.00  0.00     0.037 A 
ATOM    106  H   UNL A   1      48.277  31.288  27.880  1.00  0.00     0.065 H 
BRANCH  87 107
ATOM    107  C   UNL A   1      39.803  28.925  29.331  1.00  0.00     0.064 A 
ATOM    108  C   UNL A   1      39.363  28.703  30.645  1.00  0.00     0.173 A 
ATOM    109  C   UNL A   1      38.885  29.466  28.417  1.00  0.00     0.173 A 
ATOM    110  F   UNL A   1      40.195  28.175  31.556  1.00  0.00    -0.203 F 
ATOM    111  C   UNL A   1      38.050  28.977  31.019  1.00  0.00     0.198 A 
ATOM    112  C   UNL A   1      37.583  29.774  28.804  1.00  0.00     0.198 A 
ATOM    113  F   UNL A   1      39.253  29.704  27.150  1.00  0.00    -0.203 F 
ATOM    114  F   UNL A   1      37.638  28.701  32.264  1.00  0.00    -0.200 F 
ATOM    115  C   UNL A   1      37.165  29.520  30.101  1.00  0.00     0.200 A 
ATOM    116  F   UNL A   1      36.733  30.313  27.919  1.00  0.00    -0.200 F 
ATOM    117  F   UNL A   1      35.903  29.792  30.463  1.00  0.00    -0.200 F 
ENDBRANCH  87 107
BRANCH  90 118
ATOM    118  C   UNL A   1      49.020  26.632  26.214  1.00  0.00     0.064 A 
ATOM    119  C   UNL A   1      49.392  26.892  24.887  1.00  0.00     0.173 A 
ATOM    120  C   UNL A   1      49.977  26.047  27.056  1.00  0.00     0.173 A 
ATOM    121  F   UNL A   1      48.507  27.431  24.038  1.00  0.00    -0.203 F 
ATOM    122  C   UNL A   1      50.659  26.553  24.415  1.00  0.00     0.198 A 
ATOM    123  C   UNL A   1      51.254  25.740  26.591  1.00  0.00     0.198 A 
ATOM    124  F   UNL A   1      49.675  25.784  28.337  1.00  0.00    -0.203 F 
ATOM    125  F   UNL A   1      50.969  26.762  23.128  1.00  0.00    -0.200 F 
ATOM    126  C   UNL A   1      51.590  25.983  25.268  1.00  0.00     0.200 A 
ATOM    127  F   UNL A   1      52.156  25.204  27.425  1.00  0.00    -0.200 F 
ATOM    128  F   UNL A   1      52.809  25.659  24.815  1.00  0.00    -0.200 F 
ENDBRANCH  90 118
BRANCH 105 129
ATOM    129  C   UNL A   1      46.106  32.394  28.847  1.00  0.00     0.064 A 
ATOM    130  C   UNL A   1      46.069  33.453  27.927  1.00  0.00     0.173 A 
ATOM    131  C   UNL A   1      46.636  32.651  30.121  1.00  0.00     0.173 A 
ATOM    132  F   UNL A   1      45.585  33.256  26.691  1.00  0.00    -0.203 F 
ATOM    133  C   UNL A   1      46.566  34.709  28.262  1.00  0.00     0.198 A 
ATOM    134  C   UNL A   1      47.098  33.918  30.464  1.00  0.00     0.198 A 
ATOM    135  F   UNL A   1      46.687  31.677  31.041  1.00  0.00    -0.203 F 
ATOM    136  F   UNL A   1      46.566  35.691  27.349  1.00  0.00    -0.200 F 
ATOM    137  C   UNL A   1      47.071  34.944  29.531  1.00  0.00     0.200 A 
ATOM    138  F   UNL A   1      47.570  34.147  31.698  1.00  0.00    -0.200 F 
ATOM    139  F   UNL A   1      47.537  36.158  29.855  1.00  0.00    -0.200 F 
ENDBRANCH 105 129
ENDBRANCH  70  73
ENDBRANCH  60  63
ENDBRANCH  56  59
ENDBRANCH  53  56
ENDBRANCH  50  53
ENDBRANCH   1  50
TORSDOF 19
ENDMDL
MODEL 10
REMARK VINA RESULT:     -13.0      3.782      9.267
REMARK SMILES O=C1O[C@@H](c2ccc(O)c(O)c2)[C@H](C(=O)NCCCCCCNC(=O)c2ccc(-c3c4nc(c(-c5c(F)c(F)c(F)c(F)c5F)c5ccc([nH]5)c(-c5c(F)c(F)c(F)c(F)c5F)c5nc(c(-c6c(F)c(F)c(F)c(F)c6F)c6ccc3[nH]6)C=C5)C=C4)cc2)/C1=C\c1ccc(O)c(O)c1
REMARK SMILES IDX 19 1 18 4 17 7 16 10 14 11 15 12 13 14 1 15 2 16 3 17 89 18
REMARK SMILES IDX 4 19 90 20 5 24 6 25 12 26 7 27 10 29 8 31 11 33 9 35 91 37
REMARK SMILES IDX 92 38 98 39 93 40 96 42 94 44 97 46 95 48 20 50 21 53 22 56
REMARK SMILES IDX 23 59 24 60 25 62 26 63 27 64 88 65 28 66 87 68 29 70 30 73
REMARK SMILES IDX 31 74 81 75 32 76 86 77 80 78 82 79 33 80 85 81 79 83 78 85
REMARK SMILES IDX 34 87 66 90 46 91 65 92 47 93 50 94 64 95 83 96 48 97 49 99
REMARK SMILES IDX 63 101 84 102 51 105 35 107 36 108 44 109 37 110 38 111
REMARK SMILES IDX 42 112 45 113 39 114 40 115 43 116 41 117 67 118 68 119
REMARK SMILES IDX 76 120 69 121 70 122 74 123 77 124 71 125 72 126 75 127
REMARK SMILES IDX 73 128 52 129 53 130 61 131 54 132 55 133 59 134 62 135
REMARK SMILES IDX 56 136 57 137 60 138 58 139
REMARK H PARENT 19 2 19 3 18 5 18 6 17 8 17 9 16 13 4 21 13 22 90 23 6 28
REMARK H PARENT 12 30 7 32 11 34 9 36 92 41 98 43 93 45 97 47 95 49 20 51
REMARK H PARENT 20 52 21 54 21 55 22 57 22 58 23 61 27 67 88 69 28 71 87 72
REMARK H PARENT 86 82 80 84 82 86 85 88 79 89 47 98 50 100 83 103 48 104
REMARK H PARENT 84 106
REMARK Flexibility Score: inf
ROOT
ATOM      1  C   UNL A   1      31.501  27.903  25.747  1.00  0.00    -0.052 C 
ATOM      2  H   UNL A   1      31.615  28.661  26.493  1.00  0.00     0.027 H 
ATOM      3  H   UNL A   1      30.857  28.188  24.942  1.00  0.00     0.027 H 
ENDROOT
BRANCH   1   4
ATOM      4  C   UNL A   1      30.848  26.686  26.402  1.00  0.00    -0.036 C 
ATOM      5  H   UNL A   1      30.522  26.969  27.380  1.00  0.00     0.028 H 
ATOM      6  H   UNL A   1      30.043  26.390  25.762  1.00  0.00     0.028 H 
BRANCH   4   7
ATOM      7  C   UNL A   1      31.762  25.476  26.537  1.00  0.00     0.017 C 
ATOM      8  H   UNL A   1      32.428  25.461  25.701  1.00  0.00     0.049 H 
ATOM      9  H   UNL A   1      32.280  25.576  27.468  1.00  0.00     0.049 H 
BRANCH   7  10
ATOM     10  N   UNL A   1      31.052  24.217  26.579  1.00  0.00    -0.355 N 
ATOM     11  C   UNL A   1      31.439  22.963  26.196  1.00  0.00     0.231 C 
ATOM     12  O   UNL A   1      30.676  22.041  26.486  1.00  0.00    -0.274 OA
ATOM     13  H   UNL A   1      30.139  24.271  26.944  1.00  0.00     0.163 HD
BRANCH  11  14
ATOM     14  C   UNL A   1      32.713  22.759  25.366  1.00  0.00     0.111 C 
ATOM     15  O   UNL A   1      32.302  19.764  23.460  1.00  0.00    -0.247 OA
ATOM     16  C   UNL A   1      32.642  20.650  24.224  1.00  0.00     0.335 C 
ATOM     17  O   UNL A   1      33.339  20.470  25.373  1.00  0.00    -0.453 OA
ATOM     18  C   UNL A   1      32.394  22.094  24.068  1.00  0.00     0.054 C 
ATOM     19  C   UNL A   1      33.664  21.734  25.976  1.00  0.00     0.143 C 
ATOM     20  C   UNL A   1      31.977  22.581  22.890  1.00  0.00    -0.043 C 
ATOM     21  H   UNL A   1      33.523  21.724  27.037  1.00  0.00     0.081 H 
ATOM     22  H   UNL A   1      33.132  23.741  25.293  1.00  0.00     0.050 H 
ATOM     23  H   UNL A   1      31.830  21.914  22.118  1.00  0.00     0.063 H 
BRANCH  19  24
ATOM     24  C   UNL A   1      35.155  22.063  25.830  1.00  0.00    -0.002 A 
ATOM     25  C   UNL A   1      35.655  23.354  26.118  1.00  0.00    -0.051 A 
ATOM     26  C   UNL A   1      36.084  21.065  25.498  1.00  0.00    -0.009 A 
ATOM     27  C   UNL A   1      37.026  23.636  26.103  1.00  0.00    -0.016 A 
ATOM     28  H   UNL A   1      34.991  24.110  26.348  1.00  0.00     0.063 H 
ATOM     29  C   UNL A   1      37.444  21.358  25.462  1.00  0.00     0.157 A 
ATOM     30  H   UNL A   1      35.758  20.110  25.281  1.00  0.00     0.067 H 
ATOM     31  C   UNL A   1      37.916  22.629  25.774  1.00  0.00     0.157 A 
ATOM     32  H   UNL A   1      37.368  24.582  26.335  1.00  0.00     0.066 H 
BRANCH  29  33
ATOM     33  O   UNL A   1      38.327  20.374  25.125  1.00  0.00    -0.504 OA
ATOM     34  H   UNL A   1      38.191  19.498  25.429  1.00  0.00     0.293 HD
ENDBRANCH  29  33
BRANCH  31  35
ATOM     35  O   UNL A   1      39.265  22.838  25.747  1.00  0.00    -0.504 OA
ATOM     36  H   UNL A   1      39.604  23.711  25.735  1.00  0.00     0.293 HD
ENDBRANCH  31  35
ENDBRANCH  19  24
BRANCH  20  37
ATOM     37  C   UNL A   1      31.714  23.995  22.631  1.00  0.00    -0.021 A 
ATOM     38  C   UNL A   1      30.551  24.616  23.116  1.00  0.00    -0.051 A 
ATOM     39  C   UNL A   1      32.656  24.746  21.920  1.00  0.00    -0.009 A 
ATOM     40  C   UNL A   1      30.314  25.971  22.871  1.00  0.00    -0.016 A 
ATOM     41  H   UNL A   1      29.867  24.066  23.658  1.00  0.00     0.063 H 
ATOM     42  C   UNL A   1      32.416  26.094  21.689  1.00  0.00     0.157 A 
ATOM     43  H   UNL A   1      33.520  24.304  21.571  1.00  0.00     0.067 H 
ATOM     44  C   UNL A   1      31.253  26.702  22.153  1.00  0.00     0.157 A 
ATOM     45  H   UNL A   1      29.453  26.422  23.218  1.00  0.00     0.066 H 
BRANCH  42  46
ATOM     46  O   UNL A   1      33.339  26.827  21.000  1.00  0.00    -0.504 OA
ATOM     47  H   UNL A   1      33.145  27.134  20.136  1.00  0.00     0.293 HD
ENDBRANCH  42  46
BRANCH  44  48
ATOM     48  O   UNL A   1      31.080  28.031  21.883  1.00  0.00    -0.504 OA
ATOM     49  H   UNL A   1      31.822  28.604  21.857  1.00  0.00     0.293 HD
ENDBRANCH  44  48
ENDBRANCH  20  37
ENDBRANCH  11  14
ENDBRANCH   7  10
ENDBRANCH   4   7
ENDBRANCH   1   4
BRANCH   1  50
ATOM     50  C   UNL A   1      32.876  27.646  25.120  1.00  0.00    -0.052 C 
ATOM     51  H   UNL A   1      32.828  27.931  24.090  1.00  0.00     0.027 H 
ATOM     52  H   UNL A   1      33.077  26.606  25.269  1.00  0.00     0.027 H 
BRANCH  50  53
ATOM     53  C   UNL A   1      34.042  28.398  25.765  1.00  0.00    -0.036 C 
ATOM     54  H   UNL A   1      34.088  29.375  25.332  1.00  0.00     0.028 H 
ATOM     55  H   UNL A   1      34.919  27.814  25.579  1.00  0.00     0.028 H 
BRANCH  53  56
ATOM     56  C   UNL A   1      33.942  28.553  27.277  1.00  0.00     0.018 C 
ATOM     57  H   UNL A   1      34.812  28.122  27.726  1.00  0.00     0.049 H 
ATOM     58  H   UNL A   1      33.050  28.057  27.600  1.00  0.00     0.049 H 
BRANCH  56  59
ATOM     59  N   UNL A   1      33.848  29.946  27.681  1.00  0.00    -0.352 N 
ATOM     60  C   UNL A   1      34.753  30.711  28.371  1.00  0.00     0.251 C 
ATOM     61  H   UNL A   1      33.016  30.406  27.424  1.00  0.00     0.163 HD
ATOM     62  O   UNL A   1      34.436  31.816  28.798  1.00  0.00    -0.269 OA
BRANCH  60  63
ATOM     63  C   UNL A   1      36.115  30.191  28.613  1.00  0.00     0.039 A 
ATOM     64  C   UNL A   1      37.077  30.314  27.608  1.00  0.00    -0.049 A 
ATOM     65  C   UNL A   1      36.438  29.581  29.828  1.00  0.00    -0.049 A 
ATOM     66  C   UNL A   1      38.381  29.876  27.843  1.00  0.00    -0.053 A 
ATOM     67  H   UNL A   1      36.825  30.729  26.697  1.00  0.00     0.063 H 
ATOM     68  C   UNL A   1      37.755  29.220  30.090  1.00  0.00    -0.053 A 
ATOM     69  H   UNL A   1      35.703  29.400  30.529  1.00  0.00     0.063 H 
ATOM     70  C   UNL A   1      38.739  29.354  29.098  1.00  0.00    -0.014 A 
ATOM     71  H   UNL A   1      39.086  29.936  27.093  1.00  0.00     0.063 H 
ATOM     72  H   UNL A   1      38.012  28.849  31.019  1.00  0.00     0.063 H 
BRANCH  70  73
ATOM     73  C   UNL A   1      40.130  28.925  29.390  1.00  0.00     0.031 A 
ATOM     74  C   UNL A   1      41.048  29.834  30.158  1.00  0.00     0.074 A 
ATOM     75  C   UNL A   1      40.585  27.754  28.906  1.00  0.00     0.049 A 
ATOM     76  N   UNL A   1      42.319  29.687  30.435  1.00  0.00    -0.248 NA
ATOM     77  C   UNL A   1      40.468  31.090  30.659  1.00  0.00    -0.034 C 
ATOM     78  C   UNL A   1      39.801  26.804  28.115  1.00  0.00    -0.036 A 
ATOM     79  N   UNL A   1      41.822  27.167  28.998  1.00  0.00    -0.354 N 
ATOM     80  C   UNL A   1      42.690  30.834  31.126  1.00  0.00     0.074 A 
ATOM     81  C   UNL A   1      41.528  31.694  31.174  1.00  0.00    -0.034 C 
ATOM     82  H   UNL A   1      39.488  31.415  30.619  1.00  0.00     0.065 H 
ATOM     83  C   UNL A   1      40.569  25.745  27.813  1.00  0.00    -0.036 A 
ATOM     84  H   UNL A   1      38.816  26.927  27.833  1.00  0.00     0.065 H 
ATOM     85  C   UNL A   1      41.910  25.960  28.348  1.00  0.00     0.049 A 
ATOM     86  H   UNL A   1      42.576  27.573  29.485  1.00  0.00     0.167 HD
ATOM     87  C   UNL A   1      43.884  31.130  31.693  1.00  0.00     0.037 A 
ATOM     88  H   UNL A   1      41.526  32.651  31.557  1.00  0.00     0.065 H 
ATOM     89  H   UNL A   1      40.262  24.912  27.286  1.00  0.00     0.065 H 
ATOM     90  C   UNL A   1      42.959  25.130  28.192  1.00  0.00     0.037 A 
ATOM     91  C   UNL A   1      45.030  30.261  31.660  1.00  0.00     0.049 A 
ATOM     92  C   UNL A   1      44.283  25.495  28.808  1.00  0.00     0.074 A 
ATOM     93  C   UNL A   1      46.270  30.446  32.245  1.00  0.00    -0.036 A 
ATOM     94  N   UNL A   1      45.077  29.040  31.003  1.00  0.00    -0.354 N 
ATOM     95  N   UNL A   1      44.605  26.553  29.511  1.00  0.00    -0.248 NA
ATOM     96  C   UNL A   1      45.387  24.546  28.617  1.00  0.00    -0.034 C 
ATOM     97  C   UNL A   1      47.086  29.366  31.893  1.00  0.00    -0.036 A 
ATOM     98  H   UNL A   1      46.546  31.244  32.838  1.00  0.00     0.065 H 
ATOM     99  C   UNL A   1      46.334  28.474  31.146  1.00  0.00     0.049 A 
ATOM    100  H   UNL A   1      44.328  28.635  30.507  1.00  0.00     0.167 HD
ATOM    101  C   UNL A   1      45.934  26.380  29.876  1.00  0.00     0.074 A 
ATOM    102  C   UNL A   1      46.355  25.109  29.326  1.00  0.00    -0.034 C 
ATOM    103  H   UNL A   1      45.405  23.669  28.072  1.00  0.00     0.065 H 
ATOM    104  H   UNL A   1      48.079  29.253  32.147  1.00  0.00     0.065 H 
ATOM    105  C   UNL A   1      46.733  27.199  30.604  1.00  0.00     0.037 A 
ATOM    106  H   UNL A   1      47.289  24.695  29.467  1.00  0.00     0.065 H 
BRANCH  87 107
ATOM    107  C   UNL A   1      44.011  32.452  32.394  1.00  0.00     0.064 A 
ATOM    108  C   UNL A   1      43.717  32.597  33.759  1.00  0.00     0.173 A 
ATOM    109  C   UNL A   1      44.468  33.585  31.701  1.00  0.00     0.173 A 
ATOM    110  F   UNL A   1      43.264  31.551  34.466  1.00  0.00    -0.203 F 
ATOM    111  C   UNL A   1      43.840  33.830  34.394  1.00  0.00     0.198 A 
ATOM    112  C   UNL A   1      44.626  34.808  32.348  1.00  0.00     0.198 A 
ATOM    113  F   UNL A   1      44.770  33.504  30.397  1.00  0.00    -0.203 F 
ATOM    114  F   UNL A   1      43.497  33.955  35.683  1.00  0.00    -0.200 F 
ATOM    115  C   UNL A   1      44.303  34.931  33.690  1.00  0.00     0.200 A 
ATOM    116  F   UNL A   1      45.087  35.868  31.670  1.00  0.00    -0.200 F 
ATOM    117  F   UNL A   1      44.429  36.117  34.304  1.00  0.00    -0.200 F 
ENDBRANCH  87 107
BRANCH  90 118
ATOM    118  C   UNL A   1      42.798  23.860  27.432  1.00  0.00     0.064 A 
ATOM    119  C   UNL A   1      42.335  22.697  28.063  1.00  0.00     0.173 A 
ATOM    120  C   UNL A   1      43.113  23.779  26.068  1.00  0.00     0.173 A 
ATOM    121  F   UNL A   1      42.039  22.718  29.370  1.00  0.00    -0.203 F 
ATOM    122  C   UNL A   1      42.222  21.495  27.367  1.00  0.00     0.198 A 
ATOM    123  C   UNL A   1      42.968  22.586  25.365  1.00  0.00     0.198 A 
ATOM    124  F   UNL A   1      43.554  24.865  25.414  1.00  0.00    -0.203 F 
ATOM    125  F   UNL A   1      41.831  20.386  28.008  1.00  0.00    -0.200 F 
ATOM    126  C   UNL A   1      42.533  21.442  26.017  1.00  0.00     0.200 A 
ATOM    127  F   UNL A   1      43.255  22.543  24.056  1.00  0.00    -0.200 F 
ATOM    128  F   UNL A   1      42.423  20.287  25.346  1.00  0.00    -0.200 F 
ENDBRANCH  90 118
BRANCH 105 129
ATOM    129  C   UNL A   1      48.129  26.726  30.895  1.00  0.00     0.064 A 
ATOM    130  C   UNL A   1      49.218  27.080  30.085  1.00  0.00     0.173 A 
ATOM    131  C   UNL A   1      48.385  25.943  32.032  1.00  0.00     0.173 A 
ATOM    132  F   UNL A   1      49.025  27.815  28.979  1.00  0.00    -0.203 F 
ATOM    133  C   UNL A   1      50.505  26.646  30.387  1.00  0.00     0.198 A 
ATOM    134  C   UNL A   1      49.679  25.542  32.351  1.00  0.00     0.198 A 
ATOM    135  F   UNL A   1      47.381  25.583  32.846  1.00  0.00    -0.203 F 
ATOM    136  F   UNL A   1      51.522  26.955  29.570  1.00  0.00    -0.200 F 
ATOM    137  C   UNL A   1      50.737  25.886  31.523  1.00  0.00     0.200 A 
ATOM    138  F   UNL A   1      49.902  24.822  33.459  1.00  0.00    -0.200 F 
ATOM    139  F   UNL A   1      51.979  25.480  31.819  1.00  0.00    -0.200 F 
ENDBRANCH 105 129
ENDBRANCH  70  73
ENDBRANCH  60  63
ENDBRANCH  56  59
ENDBRANCH  53  56
ENDBRANCH  50  53
ENDBRANCH   1  50
TORSDOF 19
ENDMDL
