MODEL 1
REMARK VINA RESULT:     -11.2      0.000      0.000
REMARK SMILES O=C(NCCCCCCNC(=O)c1ccc(-n2cc(CSc3nc4ccccc4c(=O)n3-c3ccccc3)nn2)cc1)c1ccc(-c2c3nc(c(-c4c(F)c(F)c(F)c(F)c4F)c4ccc([nH]4)c(-c4c(F)c(F)c(F)c(F)c4F)c4nc(c(-c5c(F)c(F)c(F)c(F)c5F)c5ccc2[nH]5)C=C4)C=C3)cc1
REMARK SMILES IDX 8 1 7 4 6 7 5 10 4 13 3 16 1 17 2 18 43 20 44 21 105 22
REMARK SMILES IDX 45 23 104 25 46 27 47 30 48 31 98 32 49 33 103 34 97 35
REMARK SMILES IDX 99 36 50 37 102 38 96 40 95 42 51 44 83 47 63 48 82 49 64 50
REMARK SMILES IDX 67 51 81 52 100 53 65 54 66 56 80 58 101 59 68 62 52 64
REMARK SMILES IDX 53 65 61 66 54 67 55 68 59 69 62 70 56 71 57 72 60 73 58 74
REMARK SMILES IDX 84 75 85 76 93 77 86 78 87 79 91 80 94 81 88 82 89 83 92 84
REMARK SMILES IDX 90 85 69 86 70 87 78 88 71 89 72 90 76 91 79 92 73 93 74 94
REMARK SMILES IDX 77 95 75 96 9 97 10 100 11 101 12 103 13 104 14 105 42 106
REMARK SMILES IDX 15 107 41 109 16 111 17 114 18 115 40 116 19 117 39 119
REMARK SMILES IDX 20 120 21 123 22 124 23 125 32 126 24 127 30 128 25 129
REMARK SMILES IDX 29 130 31 131 26 132 28 134 27 135 33 139 34 140 38 141
REMARK SMILES IDX 35 142 37 144 36 146
REMARK H PARENT 8 2 8 3 7 5 7 6 6 8 6 9 5 11 5 12 4 14 4 15 3 19 44 24 105 26
REMARK H PARENT 45 28 104 29 103 39 97 41 99 43 102 45 96 46 64 55 67 57
REMARK H PARENT 100 60 65 61 101 63 9 98 9 99 10 102 14 108 42 110 15 112
REMARK H PARENT 41 113 18 118 20 121 20 122 25 133 26 136 28 137 27 138 34 143
REMARK H PARENT 38 145 35 147 37 148 36 149
REMARK Flexibility Score: inf
ROOT
ATOM      1  C   UNL A   1      36.465  33.490  36.162  1.00  0.00    -0.036 C 
ATOM      2  H   UNL A   1      36.021  32.518  36.218  1.00  0.00     0.028 H 
ATOM      3  H   UNL A   1      35.956  34.221  36.756  1.00  0.00     0.028 H 
ENDROOT
BRANCH   1   4
ATOM      4  C   UNL A   1      36.373  33.973  34.713  1.00  0.00    -0.052 C 
ATOM      5  H   UNL A   1      36.504  35.035  34.711  1.00  0.00     0.027 H 
ATOM      6  H   UNL A   1      37.133  33.444  34.178  1.00  0.00     0.027 H 
BRANCH   4   7
ATOM      7  C   UNL A   1      35.057  33.659  33.995  1.00  0.00    -0.052 C 
ATOM      8  H   UNL A   1      34.446  33.089  34.664  1.00  0.00     0.027 H 
ATOM      9  H   UNL A   1      34.641  34.606  33.725  1.00  0.00     0.027 H 
BRANCH   7  10
ATOM     10  C   UNL A   1      35.182  32.870  32.686  1.00  0.00    -0.036 C 
ATOM     11  H   UNL A   1      36.021  32.212  32.774  1.00  0.00     0.028 H 
ATOM     12  H   UNL A   1      34.252  32.358  32.557  1.00  0.00     0.028 H 
BRANCH  10  13
ATOM     13  C   UNL A   1      35.379  33.723  31.433  1.00  0.00     0.018 C 
ATOM     14  H   UNL A   1      34.983  34.699  31.625  1.00  0.00     0.049 H 
ATOM     15  H   UNL A   1      36.430  33.736  31.230  1.00  0.00     0.049 H 
BRANCH  13  16
ATOM     16  N   UNL A   1      34.732  33.195  30.251  1.00  0.00    -0.352 N 
ATOM     17  O   UNL A   1      34.069  31.890  28.602  1.00  0.00    -0.269 OA
ATOM     18  C   UNL A   1      34.954  32.129  29.429  1.00  0.00     0.251 C 
ATOM     19  H   UNL A   1      33.952  33.729  29.978  1.00  0.00     0.163 HD
BRANCH  18  20
ATOM     20  C   UNL A   1      36.192  31.305  29.402  1.00  0.00     0.039 A 
ATOM     21  C   UNL A   1      36.284  29.945  29.703  1.00  0.00    -0.049 A 
ATOM     22  C   UNL A   1      37.377  32.009  29.112  1.00  0.00    -0.049 A 
ATOM     23  C   UNL A   1      37.528  29.334  29.826  1.00  0.00    -0.053 A 
ATOM     24  H   UNL A   1      35.424  29.390  29.836  1.00  0.00     0.063 H 
ATOM     25  C   UNL A   1      38.621  31.405  29.223  1.00  0.00    -0.053 A 
ATOM     26  H   UNL A   1      37.319  32.995  28.812  1.00  0.00     0.063 H 
ATOM     27  C   UNL A   1      38.694  30.079  29.631  1.00  0.00    -0.014 A 
ATOM     28  H   UNL A   1      37.590  28.331  30.062  1.00  0.00     0.063 H 
ATOM     29  H   UNL A   1      39.480  31.933  29.006  1.00  0.00     0.063 H 
BRANCH  27  30
ATOM     30  C   UNL A   1      39.980  29.397  29.724  1.00  0.00     0.031 A 
ATOM     31  C   UNL A   1      40.496  29.253  31.115  1.00  0.00     0.074 A 
ATOM     32  C   UNL A   1      40.579  28.813  28.665  1.00  0.00     0.049 A 
ATOM     33  N   UNL A   1      41.606  29.698  31.608  1.00  0.00    -0.248 NA
ATOM     34  C   UNL A   1      39.607  28.633  32.113  1.00  0.00    -0.034 C 
ATOM     35  C   UNL A   1      40.045  28.633  27.312  1.00  0.00    -0.036 A 
ATOM     36  N   UNL A   1      41.776  28.162  28.604  1.00  0.00    -0.354 N 
ATOM     37  C   UNL A   1      41.638  29.267  32.935  1.00  0.00     0.074 A 
ATOM     38  C   UNL A   1      40.328  28.753  33.228  1.00  0.00    -0.034 C 
ATOM     39  H   UNL A   1      38.672  28.215  31.983  1.00  0.00     0.065 H 
ATOM     40  C   UNL A   1      40.804  27.732  26.646  1.00  0.00    -0.036 A 
ATOM     41  H   UNL A   1      39.219  29.119  26.928  1.00  0.00     0.065 H 
ATOM     42  C   UNL A   1      41.943  27.372  27.472  1.00  0.00     0.049 A 
ATOM     43  H   UNL A   1      42.464  28.244  29.303  1.00  0.00     0.167 HD
ATOM     44  C   UNL A   1      42.817  29.156  33.611  1.00  0.00     0.037 A 
ATOM     45  H   UNL A   1      39.991  28.510  34.173  1.00  0.00     0.065 H 
ATOM     46  H   UNL A   1      40.605  27.361  25.704  1.00  0.00     0.065 H 
ATOM     47  C   UNL A   1      42.913  26.444  27.266  1.00  0.00     0.037 A 
ATOM     48  C   UNL A   1      43.841  29.961  32.997  1.00  0.00     0.049 A 
ATOM     49  C   UNL A   1      44.015  26.727  28.219  1.00  0.00     0.074 A 
ATOM     50  C   UNL A   1      44.010  31.309  32.752  1.00  0.00    -0.036 A 
ATOM     51  N   UNL A   1      44.775  29.329  32.214  1.00  0.00    -0.354 N 
ATOM     52  N   UNL A   1      44.782  27.778  28.149  1.00  0.00    -0.248 NA
ATOM     53  C   UNL A   1      43.962  26.074  29.517  1.00  0.00    -0.034 C 
ATOM     54  C   UNL A   1      44.670  31.376  31.488  1.00  0.00    -0.036 A 
ATOM     55  H   UNL A   1      43.722  32.098  33.353  1.00  0.00     0.065 H 
ATOM     56  C   UNL A   1      44.915  30.069  31.071  1.00  0.00     0.049 A 
ATOM     57  H   UNL A   1      45.255  28.497  32.433  1.00  0.00     0.167 HD
ATOM     58  C   UNL A   1      44.951  28.174  29.466  1.00  0.00     0.074 A 
ATOM     59  C   UNL A   1      44.489  27.043  30.269  1.00  0.00    -0.034 C 
ATOM     60  H   UNL A   1      43.619  25.136  29.781  1.00  0.00     0.065 H 
ATOM     61  H   UNL A   1      44.919  32.236  30.977  1.00  0.00     0.065 H 
ATOM     62  C   UNL A   1      45.175  29.483  29.780  1.00  0.00     0.037 A 
ATOM     63  H   UNL A   1      44.562  26.999  31.297  1.00  0.00     0.065 H 
BRANCH  44  64
ATOM     64  C   UNL A   1      43.155  28.013  34.550  1.00  0.00     0.064 A 
ATOM     65  C   UNL A   1      43.463  28.315  35.895  1.00  0.00     0.173 A 
ATOM     66  C   UNL A   1      43.525  26.719  34.125  1.00  0.00     0.173 A 
ATOM     67  F   UNL A   1      43.143  29.509  36.419  1.00  0.00    -0.203 F 
ATOM     68  C   UNL A   1      44.208  27.447  36.697  1.00  0.00     0.198 A 
ATOM     69  C   UNL A   1      44.227  25.836  34.945  1.00  0.00     0.198 A 
ATOM     70  F   UNL A   1      43.329  26.287  32.875  1.00  0.00    -0.203 F 
ATOM     71  F   UNL A   1      44.611  27.846  37.911  1.00  0.00    -0.200 F 
ATOM     72  C   UNL A   1      44.606  26.216  36.214  1.00  0.00     0.200 A 
ATOM     73  F   UNL A   1      44.608  24.648  34.456  1.00  0.00    -0.200 F 
ATOM     74  F   UNL A   1      45.392  25.418  36.948  1.00  0.00    -0.200 F 
ENDBRANCH  44  64
BRANCH  47  75
ATOM     75  C   UNL A   1      42.807  25.142  26.558  1.00  0.00     0.064 A 
ATOM     76  C   UNL A   1      43.585  24.863  25.421  1.00  0.00     0.173 A 
ATOM     77  C   UNL A   1      42.155  24.045  27.152  1.00  0.00     0.173 A 
ATOM     78  F   UNL A   1      44.284  25.840  24.825  1.00  0.00    -0.203 F 
ATOM     79  C   UNL A   1      43.717  23.560  24.923  1.00  0.00     0.198 A 
ATOM     80  C   UNL A   1      42.282  22.748  26.651  1.00  0.00     0.198 A 
ATOM     81  F   UNL A   1      41.461  24.191  28.289  1.00  0.00    -0.203 F 
ATOM     82  F   UNL A   1      44.517  23.323  23.874  1.00  0.00    -0.200 F 
ATOM     83  C   UNL A   1      43.073  22.503  25.544  1.00  0.00     0.200 A 
ATOM     84  F   UNL A   1      41.687  21.729  27.286  1.00  0.00    -0.200 F 
ATOM     85  F   UNL A   1      43.248  21.248  25.106  1.00  0.00    -0.200 F 
ENDBRANCH  47  75
BRANCH  62  86
ATOM     86  C   UNL A   1      45.492  30.427  28.657  1.00  0.00     0.064 A 
ATOM     87  C   UNL A   1      44.518  31.076  27.878  1.00  0.00     0.173 A 
ATOM     88  C   UNL A   1      46.828  30.796  28.460  1.00  0.00     0.173 A 
ATOM     89  F   UNL A   1      43.213  30.854  28.077  1.00  0.00    -0.203 F 
ATOM     90  C   UNL A   1      44.875  32.017  26.914  1.00  0.00     0.198 A 
ATOM     91  C   UNL A   1      47.179  31.764  27.524  1.00  0.00     0.198 A 
ATOM     92  F   UNL A   1      47.794  30.253  29.217  1.00  0.00    -0.203 F 
ATOM     93  F   UNL A   1      43.928  32.616  26.176  1.00  0.00    -0.200 F 
ATOM     94  C   UNL A   1      46.204  32.365  26.744  1.00  0.00     0.200 A 
ATOM     95  F   UNL A   1      48.459  32.136  27.400  1.00  0.00    -0.200 F 
ATOM     96  F   UNL A   1      46.544  33.304  25.849  1.00  0.00    -0.200 F 
ENDBRANCH  62  86
ENDBRANCH  27  30
ENDBRANCH  18  20
ENDBRANCH  13  16
ENDBRANCH  10  13
ENDBRANCH   7  10
ENDBRANCH   4   7
ENDBRANCH   1   4
BRANCH   1  97
ATOM     97  C   UNL A   1      37.883  33.396  36.719  1.00  0.00     0.018 C 
ATOM     98  H   UNL A   1      37.899  33.838  37.693  1.00  0.00     0.049 H 
ATOM     99  H   UNL A   1      38.532  33.912  36.043  1.00  0.00     0.049 H 
BRANCH  97 100
ATOM    100  N   UNL A   1      38.348  32.023  36.822  1.00  0.00    -0.352 N 
ATOM    101  C   UNL A   1      39.138  31.312  35.955  1.00  0.00     0.251 C 
ATOM    102  H   UNL A   1      38.056  31.535  37.625  1.00  0.00     0.163 HD
ATOM    103  O   UNL A   1      39.332  30.107  36.127  1.00  0.00    -0.269 OA
BRANCH 101 104
ATOM    104  C   UNL A   1      39.732  31.990  34.789  1.00  0.00     0.039 A 
ATOM    105  C   UNL A   1      39.048  31.952  33.568  1.00  0.00    -0.047 A 
ATOM    106  C   UNL A   1      40.951  32.668  34.906  1.00  0.00    -0.047 A 
ATOM    107  C   UNL A   1      39.526  32.679  32.478  1.00  0.00    -0.036 A 
ATOM    108  H   UNL A   1      38.191  31.385  33.474  1.00  0.00     0.063 H 
ATOM    109  C   UNL A   1      41.454  33.361  33.809  1.00  0.00    -0.036 A 
ATOM    110  H   UNL A   1      41.472  32.653  35.796  1.00  0.00     0.063 H 
ATOM    111  C   UNL A   1      40.724  33.382  32.607  1.00  0.00     0.066 A 
ATOM    112  H   UNL A   1      39.001  32.698  31.589  1.00  0.00     0.065 H 
ATOM    113  H   UNL A   1      42.357  33.857  33.878  1.00  0.00     0.065 H 
BRANCH 111 114
ATOM    114  N   UNL A   1      41.280  34.005  31.477  1.00  0.00    -0.220 N 
ATOM    115  C   UNL A   1      42.537  34.529  31.419  1.00  0.00     0.055 A 
ATOM    116  N   UNL A   1      40.650  34.202  30.305  1.00  0.00    -0.062 NA
ATOM    117  C   UNL A   1      42.667  35.086  30.174  1.00  0.00     0.093 A 
ATOM    118  H   UNL A   1      43.250  34.509  32.165  1.00  0.00     0.086 H 
ATOM    119  N   UNL A   1      41.463  34.921  29.526  1.00  0.00    -0.134 NA
BRANCH 117 120
ATOM    120  C   UNL A   1      43.728  35.981  29.652  1.00  0.00     0.047 C 
ATOM    121  H   UNL A   1      44.436  35.338  29.171  1.00  0.00     0.045 H 
ATOM    122  H   UNL A   1      43.980  36.525  30.537  1.00  0.00     0.045 H 
BRANCH 120 123
ATOM    123  S   UNL A   1      43.447  37.330  28.504  1.00  0.00    -0.081 SA
BRANCH 123 124
ATOM    124  C   UNL A   1      43.231  38.889  29.252  1.00  0.00     0.176 A 
ATOM    125  N   UNL A   1      43.732  38.936  30.455  1.00  0.00    -0.223 NA
ATOM    126  N   UNL A   1      42.608  39.993  28.697  1.00  0.00    -0.255 N 
ATOM    127  C   UNL A   1      43.505  40.085  31.226  1.00  0.00     0.079 A 
ATOM    128  C   UNL A   1      41.821  40.704  29.610  1.00  0.00     0.266 A 
ATOM    129  C   UNL A   1      44.275  40.379  32.350  1.00  0.00    -0.035 A 
ATOM    130  C   UNL A   1      42.423  40.902  30.933  1.00  0.00     0.066 A 
ATOM    131  O   UNL A   1      40.697  41.154  29.400  1.00  0.00    -0.268 OA
ATOM    132  C   UNL A   1      43.910  41.436  33.195  1.00  0.00    -0.060 A 
ATOM    133  H   UNL A   1      45.113  39.817  32.561  1.00  0.00     0.065 H 
ATOM    134  C   UNL A   1      42.005  41.918  31.797  1.00  0.00    -0.047 A 
ATOM    135  C   UNL A   1      42.753  42.179  32.941  1.00  0.00    -0.061 A 
ATOM    136  H   UNL A   1      44.500  41.668  34.011  1.00  0.00     0.062 H 
ATOM    137  H   UNL A   1      41.155  42.466  31.590  1.00  0.00     0.063 H 
ATOM    138  H   UNL A   1      42.457  42.916  33.599  1.00  0.00     0.062 H 
BRANCH 126 139
ATOM    139  C   UNL A   1      42.635  40.443  27.321  1.00  0.00     0.051 A 
ATOM    140  C   UNL A   1      43.765  41.140  26.840  1.00  0.00    -0.038 A 
ATOM    141  C   UNL A   1      41.582  40.287  26.414  1.00  0.00    -0.038 A 
ATOM    142  C   UNL A   1      43.741  41.858  25.644  1.00  0.00    -0.060 A 
ATOM    143  H   UNL A   1      44.637  41.118  27.393  1.00  0.00     0.064 H 
ATOM    144  C   UNL A   1      41.521  41.060  25.244  1.00  0.00    -0.060 A 
ATOM    145  H   UNL A   1      40.841  39.595  26.607  1.00  0.00     0.064 H 
ATOM    146  C   UNL A   1      42.586  41.875  24.879  1.00  0.00    -0.062 A 
ATOM    147  H   UNL A   1      44.578  42.374  25.330  1.00  0.00     0.062 H 
ATOM    148  H   UNL A   1      40.678  41.022  24.650  1.00  0.00     0.062 H 
ATOM    149  H   UNL A   1      42.517  42.486  24.050  1.00  0.00     0.062 H 
ENDBRANCH 126 139
ENDBRANCH 123 124
ENDBRANCH 120 123
ENDBRANCH 117 120
ENDBRANCH 111 114
ENDBRANCH 101 104
ENDBRANCH  97 100
ENDBRANCH   1  97
TORSDOF 18
ENDMDL
MODEL 2
REMARK VINA RESULT:     -11.1      5.800     12.476
REMARK SMILES O=C(NCCCCCCNC(=O)c1ccc(-n2cc(CSc3nc4ccccc4c(=O)n3-c3ccccc3)nn2)cc1)c1ccc(-c2c3nc(c(-c4c(F)c(F)c(F)c(F)c4F)c4ccc([nH]4)c(-c4c(F)c(F)c(F)c(F)c4F)c4nc(c(-c5c(F)c(F)c(F)c(F)c5F)c5ccc2[nH]5)C=C4)C=C3)cc1
REMARK SMILES IDX 8 1 7 4 6 7 5 10 4 13 3 16 1 17 2 18 43 20 44 21 105 22
REMARK SMILES IDX 45 23 104 25 46 27 47 30 48 31 98 32 49 33 103 34 97 35
REMARK SMILES IDX 99 36 50 37 102 38 96 40 95 42 51 44 83 47 63 48 82 49 64 50
REMARK SMILES IDX 67 51 81 52 100 53 65 54 66 56 80 58 101 59 68 62 52 64
REMARK SMILES IDX 53 65 61 66 54 67 55 68 59 69 62 70 56 71 57 72 60 73 58 74
REMARK SMILES IDX 84 75 85 76 93 77 86 78 87 79 91 80 94 81 88 82 89 83 92 84
REMARK SMILES IDX 90 85 69 86 70 87 78 88 71 89 72 90 76 91 79 92 73 93 74 94
REMARK SMILES IDX 77 95 75 96 9 97 10 100 11 101 12 103 13 104 14 105 42 106
REMARK SMILES IDX 15 107 41 109 16 111 17 114 18 115 40 116 19 117 39 119
REMARK SMILES IDX 20 120 21 123 22 124 23 125 32 126 24 127 30 128 25 129
REMARK SMILES IDX 29 130 31 131 26 132 28 134 27 135 33 139 34 140 38 141
REMARK SMILES IDX 35 142 37 144 36 146
REMARK H PARENT 8 2 8 3 7 5 7 6 6 8 6 9 5 11 5 12 4 14 4 15 3 19 44 24 105 26
REMARK H PARENT 45 28 104 29 103 39 97 41 99 43 102 45 96 46 64 55 67 57
REMARK H PARENT 100 60 65 61 101 63 9 98 9 99 10 102 14 108 42 110 15 112
REMARK H PARENT 41 113 18 118 20 121 20 122 25 133 26 136 28 137 27 138 34 143
REMARK H PARENT 38 145 35 147 37 148 36 149
REMARK Flexibility Score: inf
ROOT
ATOM      1  C   UNL A   1      37.868  21.337  25.529  1.00  0.00    -0.036 C 
ATOM      2  H   UNL A   1      37.531  20.772  26.373  1.00  0.00     0.028 H 
ATOM      3  H   UNL A   1      38.753  20.938  25.080  1.00  0.00     0.028 H 
ENDROOT
BRANCH   1   4
ATOM      4  C   UNL A   1      38.227  22.744  26.012  1.00  0.00    -0.052 C 
ATOM      5  H   UNL A   1      38.346  23.368  25.151  1.00  0.00     0.027 H 
ATOM      6  H   UNL A   1      37.430  23.047  26.657  1.00  0.00     0.027 H 
BRANCH   4   7
ATOM      7  C   UNL A   1      39.507  22.848  26.848  1.00  0.00    -0.052 C 
ATOM      8  H   UNL A   1      40.085  23.662  26.464  1.00  0.00     0.027 H 
ATOM      9  H   UNL A   1      39.183  22.982  27.858  1.00  0.00     0.027 H 
BRANCH   7  10
ATOM     10  C   UNL A   1      40.400  21.601  26.859  1.00  0.00    -0.036 C 
ATOM     11  H   UNL A   1      40.081  20.972  27.664  1.00  0.00     0.028 H 
ATOM     12  H   UNL A   1      40.292  21.147  25.896  1.00  0.00     0.028 H 
BRANCH  10  13
ATOM     13  C   UNL A   1      41.893  21.877  27.037  1.00  0.00     0.018 C 
ATOM     14  H   UNL A   1      42.018  22.522  27.881  1.00  0.00     0.049 H 
ATOM     15  H   UNL A   1      42.369  20.927  27.168  1.00  0.00     0.049 H 
BRANCH  13  16
ATOM     16  N   UNL A   1      42.518  22.501  25.891  1.00  0.00    -0.352 N 
ATOM     17  O   UNL A   1      43.573  23.900  24.552  1.00  0.00    -0.269 OA
ATOM     18  C   UNL A   1      42.893  23.774  25.575  1.00  0.00     0.251 C 
ATOM     19  H   UNL A   1      42.720  21.857  25.174  1.00  0.00     0.163 HD
BRANCH  18  20
ATOM     20  C   UNL A   1      42.481  25.000  26.309  1.00  0.00     0.039 A 
ATOM     21  C   UNL A   1      41.519  25.924  25.897  1.00  0.00    -0.049 A 
ATOM     22  C   UNL A   1      43.200  25.263  27.491  1.00  0.00    -0.049 A 
ATOM     23  C   UNL A   1      41.361  27.127  26.579  1.00  0.00    -0.053 A 
ATOM     24  H   UNL A   1      40.922  25.713  25.083  1.00  0.00     0.063 H 
ATOM     25  C   UNL A   1      43.043  26.457  28.182  1.00  0.00    -0.053 A 
ATOM     26  H   UNL A   1      43.859  24.555  27.851  1.00  0.00     0.063 H 
ATOM     27  C   UNL A   1      42.157  27.408  27.692  1.00  0.00    -0.014 A 
ATOM     28  H   UNL A   1      40.657  27.812  26.262  1.00  0.00     0.063 H 
ATOM     29  H   UNL A   1      43.575  26.634  29.047  1.00  0.00     0.063 H 
BRANCH  27  30
ATOM     30  C   UNL A   1      41.934  28.659  28.409  1.00  0.00     0.031 A 
ATOM     31  C   UNL A   1      42.949  29.714  28.126  1.00  0.00     0.074 A 
ATOM     32  C   UNL A   1      40.829  28.896  29.146  1.00  0.00     0.049 A 
ATOM     33  N   UNL A   1      43.738  30.312  28.959  1.00  0.00    -0.248 NA
ATOM     34  C   UNL A   1      43.196  30.064  26.716  1.00  0.00    -0.034 C 
ATOM     35  C   UNL A   1      39.632  28.060  29.270  1.00  0.00    -0.036 A 
ATOM     36  N   UNL A   1      40.500  30.001  29.874  1.00  0.00    -0.354 N 
ATOM     37  C   UNL A   1      44.461  31.238  28.207  1.00  0.00     0.074 A 
ATOM     38  C   UNL A   1      44.197  30.937  26.826  1.00  0.00    -0.034 C 
ATOM     39  H   UNL A   1      42.718  29.723  25.867  1.00  0.00     0.065 H 
ATOM     40  C   UNL A   1      38.635  28.784  29.829  1.00  0.00    -0.036 A 
ATOM     41  H   UNL A   1      39.561  27.073  28.977  1.00  0.00     0.065 H 
ATOM     42  C   UNL A   1      39.156  30.084  30.218  1.00  0.00     0.049 A 
ATOM     43  H   UNL A   1      41.160  30.684  30.133  1.00  0.00     0.167 HD
ATOM     44  C   UNL A   1      45.035  32.327  28.793  1.00  0.00     0.037 A 
ATOM     45  H   UNL A   1      44.712  31.342  26.029  1.00  0.00     0.065 H 
ATOM     46  H   UNL A   1      37.662  28.466  29.958  1.00  0.00     0.065 H 
ATOM     47  C   UNL A   1      38.512  31.167  30.724  1.00  0.00     0.037 A 
ATOM     48  C   UNL A   1      45.213  32.117  30.208  1.00  0.00     0.049 A 
ATOM     49  C   UNL A   1      39.541  32.083  31.276  1.00  0.00     0.074 A 
ATOM     50  C   UNL A   1      45.922  31.219  30.981  1.00  0.00    -0.036 A 
ATOM     51  N   UNL A   1      44.323  32.713  31.065  1.00  0.00    -0.354 N 
ATOM     52  N   UNL A   1      40.259  31.816  32.331  1.00  0.00    -0.248 NA
ATOM     53  C   UNL A   1      40.090  33.091  30.382  1.00  0.00    -0.034 C 
ATOM     54  C   UNL A   1      45.090  30.970  32.114  1.00  0.00    -0.036 A 
ATOM     55  H   UNL A   1      46.851  30.816  30.784  1.00  0.00     0.065 H 
ATOM     56  C   UNL A   1      43.957  31.773  31.990  1.00  0.00     0.049 A 
ATOM     57  H   UNL A   1      44.005  33.644  31.023  1.00  0.00     0.167 HD
ATOM     58  C   UNL A   1      41.526  32.278  32.016  1.00  0.00     0.074 A 
ATOM     59  C   UNL A   1      41.345  33.123  30.837  1.00  0.00    -0.034 C 
ATOM     60  H   UNL A   1      39.641  33.626  29.622  1.00  0.00     0.065 H 
ATOM     61  H   UNL A   1      45.291  30.314  32.884  1.00  0.00     0.065 H 
ATOM     62  C   UNL A   1      42.636  31.703  32.562  1.00  0.00     0.037 A 
ATOM     63  H   UNL A   1      42.099  33.679  30.406  1.00  0.00     0.065 H 
BRANCH  44  64
ATOM     64  C   UNL A   1      45.042  33.717  28.186  1.00  0.00     0.064 A 
ATOM     65  C   UNL A   1      46.280  34.379  28.032  1.00  0.00     0.173 A 
ATOM     66  C   UNL A   1      43.902  34.543  28.080  1.00  0.00     0.173 A 
ATOM     67  F   UNL A   1      47.434  33.696  28.094  1.00  0.00    -0.203 F 
ATOM     68  C   UNL A   1      46.368  35.769  27.927  1.00  0.00     0.198 A 
ATOM     69  C   UNL A   1      43.994  35.926  27.927  1.00  0.00     0.198 A 
ATOM     70  F   UNL A   1      42.658  34.076  28.229  1.00  0.00    -0.203 F 
ATOM     71  F   UNL A   1      47.570  36.362  27.945  1.00  0.00    -0.200 F 
ATOM     72  C   UNL A   1      45.225  36.543  27.894  1.00  0.00     0.200 A 
ATOM     73  F   UNL A   1      42.872  36.659  27.902  1.00  0.00    -0.200 F 
ATOM     74  F   UNL A   1      45.306  37.879  27.880  1.00  0.00    -0.200 F 
ENDBRANCH  44  64
BRANCH  47  75
ATOM     75  C   UNL A   1      37.124  31.622  30.456  1.00  0.00     0.064 A 
ATOM     76  C   UNL A   1      36.211  31.842  31.502  1.00  0.00     0.173 A 
ATOM     77  C   UNL A   1      36.757  32.127  29.193  1.00  0.00     0.173 A 
ATOM     78  F   UNL A   1      36.505  31.443  32.748  1.00  0.00    -0.203 F 
ATOM     79  C   UNL A   1      35.014  32.541  31.300  1.00  0.00     0.198 A 
ATOM     80  C   UNL A   1      35.561  32.818  28.991  1.00  0.00     0.198 A 
ATOM     81  F   UNL A   1      37.596  32.046  28.152  1.00  0.00    -0.203 F 
ATOM     82  F   UNL A   1      34.198  32.785  32.335  1.00  0.00    -0.200 F 
ATOM     83  C   UNL A   1      34.696  33.037  30.046  1.00  0.00     0.200 A 
ATOM     84  F   UNL A   1      35.285  33.328  27.783  1.00  0.00    -0.200 F 
ATOM     85  F   UNL A   1      33.581  33.759  29.864  1.00  0.00    -0.200 F 
ENDBRANCH  47  75
BRANCH  62  86
ATOM     86  C   UNL A   1      42.439  30.743  33.699  1.00  0.00     0.064 A 
ATOM     87  C   UNL A   1      42.379  31.126  35.050  1.00  0.00     0.173 A 
ATOM     88  C   UNL A   1      42.159  29.405  33.393  1.00  0.00     0.173 A 
ATOM     89  F   UNL A   1      42.534  32.405  35.412  1.00  0.00    -0.203 F 
ATOM     90  C   UNL A   1      42.096  30.199  36.051  1.00  0.00     0.198 A 
ATOM     91  C   UNL A   1      41.839  28.489  34.392  1.00  0.00     0.198 A 
ATOM     92  F   UNL A   1      42.144  28.996  32.115  1.00  0.00    -0.203 F 
ATOM     93  F   UNL A   1      42.053  30.587  37.335  1.00  0.00    -0.200 F 
ATOM     94  C   UNL A   1      41.818  28.884  35.720  1.00  0.00     0.200 A 
ATOM     95  F   UNL A   1      41.518  27.231  34.061  1.00  0.00    -0.200 F 
ATOM     96  F   UNL A   1      41.500  28.001  36.677  1.00  0.00    -0.200 F 
ENDBRANCH  62  86
ENDBRANCH  27  30
ENDBRANCH  18  20
ENDBRANCH  13  16
ENDBRANCH  10  13
ENDBRANCH   7  10
ENDBRANCH   4   7
ENDBRANCH   1   4
BRANCH   1  97
ATOM     97  C   UNL A   1      36.782  21.285  24.458  1.00  0.00     0.018 C 
ATOM     98  H   UNL A   1      37.250  21.238  23.497  1.00  0.00     0.049 H 
ATOM     99  H   UNL A   1      36.181  22.165  24.560  1.00  0.00     0.049 H 
BRANCH  97 100
ATOM    100  N   UNL A   1      35.910  20.132  24.609  1.00  0.00    -0.352 N 
ATOM    101  C   UNL A   1      34.616  20.082  25.061  1.00  0.00     0.251 C 
ATOM    102  H   UNL A   1      36.302  19.266  24.351  1.00  0.00     0.163 HD
ATOM    103  O   UNL A   1      34.060  18.998  25.254  1.00  0.00    -0.269 OA
BRANCH 101 104
ATOM    104  C   UNL A   1      33.897  21.335  25.349  1.00  0.00     0.039 A 
ATOM    105  C   UNL A   1      34.012  21.899  26.626  1.00  0.00    -0.047 A 
ATOM    106  C   UNL A   1      33.123  21.954  24.360  1.00  0.00    -0.047 A 
ATOM    107  C   UNL A   1      33.438  23.141  26.894  1.00  0.00    -0.036 A 
ATOM    108  H   UNL A   1      34.520  21.394  27.368  1.00  0.00     0.063 H 
ATOM    109  C   UNL A   1      32.514  23.175  24.637  1.00  0.00    -0.036 A 
ATOM    110  H   UNL A   1      33.005  21.510  23.437  1.00  0.00     0.063 H 
ATOM    111  C   UNL A   1      32.696  23.773  25.896  1.00  0.00     0.066 A 
ATOM    112  H   UNL A   1      33.562  23.587  27.817  1.00  0.00     0.065 H 
ATOM    113  H   UNL A   1      31.932  23.637  23.920  1.00  0.00     0.065 H 
BRANCH 111 114
ATOM    114  N   UNL A   1      32.004  24.957  26.200  1.00  0.00    -0.220 N 
ATOM    115  C   UNL A   1      32.595  26.159  26.454  1.00  0.00     0.055 A 
ATOM    116  N   UNL A   1      30.668  25.074  26.313  1.00  0.00    -0.062 NA
ATOM    117  C   UNL A   1      31.583  27.031  26.757  1.00  0.00     0.093 A 
ATOM    118  H   UNL A   1      33.604  26.369  26.425  1.00  0.00     0.086 H 
ATOM    119  N   UNL A   1      30.405  26.318  26.720  1.00  0.00    -0.134 NA
BRANCH 117 120
ATOM    120  C   UNL A   1      31.661  28.397  27.330  1.00  0.00     0.047 C 
ATOM    121  H   UNL A   1      32.438  28.357  28.065  1.00  0.00     0.045 H 
ATOM    122  H   UNL A   1      30.639  28.552  27.607  1.00  0.00     0.045 H 
BRANCH 120 123
ATOM    123  S   UNL A   1      31.975  29.884  26.379  1.00  0.00    -0.081 SA
BRANCH 123 124
ATOM    124  C   UNL A   1      31.034  30.026  24.918  1.00  0.00     0.176 A 
ATOM    125  N   UNL A   1      30.444  31.184  24.818  1.00  0.00    -0.223 NA
ATOM    126  N   UNL A   1      30.884  29.063  23.936  1.00  0.00    -0.255 N 
ATOM    127  C   UNL A   1      29.543  31.382  23.762  1.00  0.00     0.079 A 
ATOM    128  C   UNL A   1      29.584  28.992  23.422  1.00  0.00     0.266 A 
ATOM    129  C   UNL A   1      29.146  32.658  23.365  1.00  0.00    -0.035 A 
ATOM    130  C   UNL A   1      28.944  30.286  23.159  1.00  0.00     0.066 A 
ATOM    131  O   UNL A   1      28.953  27.964  23.190  1.00  0.00    -0.268 OA
ATOM    132  C   UNL A   1      28.115  32.814  22.429  1.00  0.00    -0.060 A 
ATOM    133  H   UNL A   1      29.611  33.489  23.763  1.00  0.00     0.065 H 
ATOM    134  C   UNL A   1      27.871  30.420  22.274  1.00  0.00    -0.047 A 
ATOM    135  C   UNL A   1      27.451  31.697  21.914  1.00  0.00    -0.061 A 
ATOM    136  H   UNL A   1      27.844  33.760  22.117  1.00  0.00     0.062 H 
ATOM    137  H   UNL A   1      27.398  29.585  21.893  1.00  0.00     0.063 H 
ATOM    138  H   UNL A   1      26.653  31.819  21.271  1.00  0.00     0.062 H 
BRANCH 126 139
ATOM    139  C   UNL A   1      31.867  28.122  23.441  1.00  0.00     0.051 A 
ATOM    140  C   UNL A   1      33.188  28.559  23.204  1.00  0.00    -0.038 A 
ATOM    141  C   UNL A   1      31.598  26.788  23.118  1.00  0.00    -0.038 A 
ATOM    142  C   UNL A   1      34.095  27.809  22.454  1.00  0.00    -0.060 A 
ATOM    143  H   UNL A   1      33.493  29.464  23.597  1.00  0.00     0.064 H 
ATOM    144  C   UNL A   1      32.475  26.054  22.306  1.00  0.00    -0.060 A 
ATOM    145  H   UNL A   1      30.744  26.338  23.482  1.00  0.00     0.064 H 
ATOM    146  C   UNL A   1      33.710  26.581  21.942  1.00  0.00    -0.062 A 
ATOM    147  H   UNL A   1      35.048  28.166  22.282  1.00  0.00     0.062 H 
ATOM    148  H   UNL A   1      32.203  25.115  21.976  1.00  0.00     0.062 H 
ATOM    149  H   UNL A   1      34.330  26.065  21.298  1.00  0.00     0.062 H 
ENDBRANCH 126 139
ENDBRANCH 123 124
ENDBRANCH 120 123
ENDBRANCH 117 120
ENDBRANCH 111 114
ENDBRANCH 101 104
ENDBRANCH  97 100
ENDBRANCH   1  97
TORSDOF 18
ENDMDL
MODEL 3
REMARK VINA RESULT:     -11.1      5.757     12.633
REMARK SMILES O=C(NCCCCCCNC(=O)c1ccc(-n2cc(CSc3nc4ccccc4c(=O)n3-c3ccccc3)nn2)cc1)c1ccc(-c2c3nc(c(-c4c(F)c(F)c(F)c(F)c4F)c4ccc([nH]4)c(-c4c(F)c(F)c(F)c(F)c4F)c4nc(c(-c5c(F)c(F)c(F)c(F)c5F)c5ccc2[nH]5)C=C4)C=C3)cc1
REMARK SMILES IDX 8 1 7 4 6 7 5 10 4 13 3 16 1 17 2 18 43 20 44 21 105 22
REMARK SMILES IDX 45 23 104 25 46 27 47 30 48 31 98 32 49 33 103 34 97 35
REMARK SMILES IDX 99 36 50 37 102 38 96 40 95 42 51 44 83 47 63 48 82 49 64 50
REMARK SMILES IDX 67 51 81 52 100 53 65 54 66 56 80 58 101 59 68 62 52 64
REMARK SMILES IDX 53 65 61 66 54 67 55 68 59 69 62 70 56 71 57 72 60 73 58 74
REMARK SMILES IDX 84 75 85 76 93 77 86 78 87 79 91 80 94 81 88 82 89 83 92 84
REMARK SMILES IDX 90 85 69 86 70 87 78 88 71 89 72 90 76 91 79 92 73 93 74 94
REMARK SMILES IDX 77 95 75 96 9 97 10 100 11 101 12 103 13 104 14 105 42 106
REMARK SMILES IDX 15 107 41 109 16 111 17 114 18 115 40 116 19 117 39 119
REMARK SMILES IDX 20 120 21 123 22 124 23 125 32 126 24 127 30 128 25 129
REMARK SMILES IDX 29 130 31 131 26 132 28 134 27 135 33 139 34 140 38 141
REMARK SMILES IDX 35 142 37 144 36 146
REMARK H PARENT 8 2 8 3 7 5 7 6 6 8 6 9 5 11 5 12 4 14 4 15 3 19 44 24 105 26
REMARK H PARENT 45 28 104 29 103 39 97 41 99 43 102 45 96 46 64 55 67 57
REMARK H PARENT 100 60 65 61 101 63 9 98 9 99 10 102 14 108 42 110 15 112
REMARK H PARENT 41 113 18 118 20 121 20 122 25 133 26 136 28 137 27 138 34 143
REMARK H PARENT 38 145 35 147 37 148 36 149
REMARK Flexibility Score: inf
ROOT
ATOM      1  C   UNL A   1      40.018  25.067  27.213  1.00  0.00    -0.036 C 
ATOM      2  H   UNL A   1      40.329  25.235  26.203  1.00  0.00     0.028 H 
ATOM      3  H   UNL A   1      39.516  25.907  27.647  1.00  0.00     0.028 H 
ENDROOT
BRANCH   1   4
ATOM      4  C   UNL A   1      41.269  24.829  28.062  1.00  0.00    -0.052 C 
ATOM      5  H   UNL A   1      42.032  25.496  27.721  1.00  0.00     0.027 H 
ATOM      6  H   UNL A   1      40.973  24.996  29.077  1.00  0.00     0.027 H 
BRANCH   4   7
ATOM      7  C   UNL A   1      41.834  23.406  28.019  1.00  0.00    -0.052 C 
ATOM      8  H   UNL A   1      41.984  23.081  29.028  1.00  0.00     0.027 H 
ATOM      9  H   UNL A   1      41.117  22.825  27.477  1.00  0.00     0.027 H 
BRANCH   7  10
ATOM     10  C   UNL A   1      43.160  23.235  27.269  1.00  0.00    -0.036 C 
ATOM     11  H   UNL A   1      43.825  24.010  27.590  1.00  0.00     0.028 H 
ATOM     12  H   UNL A   1      43.511  22.252  27.501  1.00  0.00     0.028 H 
BRANCH  10  13
ATOM     13  C   UNL A   1      43.055  23.303  25.745  1.00  0.00     0.018 C 
ATOM     14  H   UNL A   1      43.106  22.306  25.360  1.00  0.00     0.049 H 
ATOM     15  H   UNL A   1      42.126  23.786  25.521  1.00  0.00     0.049 H 
BRANCH  13  16
ATOM     16  N   UNL A   1      44.095  24.088  25.116  1.00  0.00    -0.352 N 
ATOM     17  O   UNL A   1      45.619  25.617  24.667  1.00  0.00    -0.269 OA
ATOM     18  C   UNL A   1      44.586  25.349  25.288  1.00  0.00     0.251 C 
ATOM     19  H   UNL A   1      44.554  23.597  24.396  1.00  0.00     0.163 HD
BRANCH  18  20
ATOM     20  C   UNL A   1      43.937  26.424  26.085  1.00  0.00     0.039 A 
ATOM     21  C   UNL A   1      42.909  27.264  25.653  1.00  0.00    -0.049 A 
ATOM     22  C   UNL A   1      44.483  26.636  27.366  1.00  0.00    -0.049 A 
ATOM     23  C   UNL A   1      42.519  28.353  26.426  1.00  0.00    -0.053 A 
ATOM     24  H   UNL A   1      42.436  27.075  24.756  1.00  0.00     0.063 H 
ATOM     25  C   UNL A   1      44.094  27.715  28.147  1.00  0.00    -0.053 A 
ATOM     26  H   UNL A   1      45.189  25.977  27.730  1.00  0.00     0.063 H 
ATOM     27  C   UNL A   1      43.145  28.601  27.650  1.00  0.00    -0.014 A 
ATOM     28  H   UNL A   1      41.767  28.979  26.096  1.00  0.00     0.063 H 
ATOM     29  H   UNL A   1      44.502  27.857  29.084  1.00  0.00     0.063 H 
BRANCH  27  30
ATOM     30  C   UNL A   1      42.682  29.725  28.456  1.00  0.00     0.031 A 
ATOM     31  C   UNL A   1      43.517  30.953  28.328  1.00  0.00     0.074 A 
ATOM     32  C   UNL A   1      41.518  29.708  29.138  1.00  0.00     0.049 A 
ATOM     33  N   UNL A   1      44.153  31.590  29.257  1.00  0.00    -0.248 NA
ATOM     34  C   UNL A   1      43.769  31.470  26.972  1.00  0.00    -0.034 C 
ATOM     35  C   UNL A   1      40.474  28.681  29.115  1.00  0.00    -0.036 A 
ATOM     36  N   UNL A   1      40.973  30.671  29.935  1.00  0.00    -0.354 N 
ATOM     37  C   UNL A   1      44.746  32.690  28.634  1.00  0.00     0.074 A 
ATOM     38  C   UNL A   1      44.603  32.481  27.219  1.00  0.00    -0.034 C 
ATOM     39  H   UNL A   1      43.398  31.138  26.068  1.00  0.00     0.065 H 
ATOM     40  C   UNL A   1      39.343  29.176  29.669  1.00  0.00    -0.036 A 
ATOM     41  H   UNL A   1      40.584  27.727  28.735  1.00  0.00     0.065 H 
ATOM     42  C   UNL A   1      39.619  30.501  30.200  1.00  0.00     0.049 A 
ATOM     43  H   UNL A   1      41.495  31.425  30.293  1.00  0.00     0.167 HD
ATOM     44  C   UNL A   1      45.099  33.797  29.346  1.00  0.00     0.037 A 
ATOM     45  H   UNL A   1      45.080  33.038  26.493  1.00  0.00     0.065 H 
ATOM     46  H   UNL A   1      38.433  28.693  29.708  1.00  0.00     0.065 H 
ATOM     47  C   UNL A   1      38.778  31.412  30.754  1.00  0.00     0.037 A 
ATOM     48  C   UNL A   1      45.241  33.486  30.746  1.00  0.00     0.049 A 
ATOM     49  C   UNL A   1      39.611  32.427  31.446  1.00  0.00     0.074 A 
ATOM     50  C   UNL A   1      46.053  32.647  31.483  1.00  0.00    -0.036 A 
ATOM     51  N   UNL A   1      44.223  33.846  31.592  1.00  0.00    -0.354 N 
ATOM     52  N   UNL A   1      40.311  32.182  32.517  1.00  0.00    -0.248 NA
ATOM     53  C   UNL A   1      40.025  33.591  30.678  1.00  0.00    -0.034 C 
ATOM     54  C   UNL A   1      45.221  32.160  32.536  1.00  0.00    -0.036 A 
ATOM     55  H   UNL A   1      47.045  32.421  31.312  1.00  0.00     0.065 H 
ATOM     56  C   UNL A   1      43.977  32.776  32.410  1.00  0.00     0.049 A 
ATOM     57  H   UNL A   1      43.756  34.712  31.610  1.00  0.00     0.167 HD
ATOM     58  C   UNL A   1      41.497  32.872  32.324  1.00  0.00     0.074 A 
ATOM     59  C   UNL A   1      41.233  33.784  31.212  1.00  0.00    -0.034 C 
ATOM     60  H   UNL A   1      39.530  34.115  29.939  1.00  0.00     0.065 H 
ATOM     61  H   UNL A   1      45.492  31.475  33.259  1.00  0.00     0.065 H 
ATOM     62  C   UNL A   1      42.660  32.437  32.888  1.00  0.00     0.037 A 
ATOM     63  H   UNL A   1      41.903  34.494  30.878  1.00  0.00     0.065 H 
BRANCH  44  64
ATOM     64  C   UNL A   1      44.902  35.220  28.860  1.00  0.00     0.064 A 
ATOM     65  C   UNL A   1      43.652  35.575  28.306  1.00  0.00     0.173 A 
ATOM     66  C   UNL A   1      45.954  36.123  28.596  1.00  0.00     0.173 A 
ATOM     67  F   UNL A   1      42.571  34.805  28.504  1.00  0.00    -0.203 F 
ATOM     68  C   UNL A   1      43.508  36.663  27.441  1.00  0.00     0.198 A 
ATOM     69  C   UNL A   1      45.794  37.235  27.771  1.00  0.00     0.198 A 
ATOM     70  F   UNL A   1      47.204  35.918  29.025  1.00  0.00    -0.203 F 
ATOM     71  F   UNL A   1      42.340  36.864  26.815  1.00  0.00    -0.200 F 
ATOM     72  C   UNL A   1      44.584  37.481  27.159  1.00  0.00     0.200 A 
ATOM     73  F   UNL A   1      46.852  38.014  27.505  1.00  0.00    -0.200 F 
ATOM     74  F   UNL A   1      44.472  38.472  26.266  1.00  0.00    -0.200 F 
ENDBRANCH  44  64
BRANCH  47  75
ATOM     75  C   UNL A   1      37.348  31.658  30.438  1.00  0.00     0.064 A 
ATOM     76  C   UNL A   1      36.410  31.918  31.452  1.00  0.00     0.173 A 
ATOM     77  C   UNL A   1      36.932  31.928  29.120  1.00  0.00     0.173 A 
ATOM     78  F   UNL A   1      36.741  31.740  32.739  1.00  0.00    -0.203 F 
ATOM     79  C   UNL A   1      35.140  32.435  31.163  1.00  0.00     0.198 A 
ATOM     80  C   UNL A   1      35.665  32.438  28.834  1.00  0.00     0.198 A 
ATOM     81  F   UNL A   1      37.781  31.797  28.092  1.00  0.00    -0.203 F 
ATOM     82  F   UNL A   1      34.294  32.729  32.161  1.00  0.00    -0.200 F 
ATOM     83  C   UNL A   1      34.773  32.704  29.855  1.00  0.00     0.200 A 
ATOM     84  F   UNL A   1      35.339  32.732  27.567  1.00  0.00    -0.200 F 
ATOM     85  F   UNL A   1      33.583  33.257  29.583  1.00  0.00    -0.200 F 
ENDBRANCH  47  75
BRANCH  62  86
ATOM     86  C   UNL A   1      42.573  31.354  33.925  1.00  0.00     0.064 A 
ATOM     87  C   UNL A   1      42.425  31.595  35.301  1.00  0.00     0.173 A 
ATOM     88  C   UNL A   1      42.492  30.026  33.488  1.00  0.00     0.173 A 
ATOM     89  F   UNL A   1      42.388  32.843  35.785  1.00  0.00    -0.203 F 
ATOM     90  C   UNL A   1      42.251  30.547  36.203  1.00  0.00     0.198 A 
ATOM     91  C   UNL A   1      42.280  28.984  34.386  1.00  0.00     0.198 A 
ATOM     92  F   UNL A   1      42.568  29.743  32.179  1.00  0.00    -0.203 F 
ATOM     93  F   UNL A   1      42.121  30.800  37.514  1.00  0.00    -0.200 F 
ATOM     94  C   UNL A   1      42.171  29.243  35.743  1.00  0.00     0.200 A 
ATOM     95  F   UNL A   1      42.150  27.731  33.930  1.00  0.00    -0.200 F 
ATOM     96  F   UNL A   1      41.957  28.237  36.603  1.00  0.00    -0.200 F 
ENDBRANCH  62  86
ENDBRANCH  27  30
ENDBRANCH  18  20
ENDBRANCH  13  16
ENDBRANCH  10  13
ENDBRANCH   7  10
ENDBRANCH   4   7
ENDBRANCH   1   4
BRANCH   1  97
ATOM     97  C   UNL A   1      39.013  23.919  27.216  1.00  0.00     0.018 C 
ATOM     98  H   UNL A   1      38.184  24.188  26.596  1.00  0.00     0.049 H 
ATOM     99  H   UNL A   1      38.710  23.754  28.229  1.00  0.00     0.049 H 
BRANCH  97 100
ATOM    100  N   UNL A   1      39.586  22.679  26.716  1.00  0.00    -0.352 N 
ATOM    101  C   UNL A   1      38.992  21.690  25.976  1.00  0.00     0.251 C 
ATOM    102  H   UNL A   1      40.533  22.530  26.940  1.00  0.00     0.163 HD
ATOM    103  O   UNL A   1      39.586  20.635  25.746  1.00  0.00    -0.269 OA
BRANCH 101 104
ATOM    104  C   UNL A   1      37.616  21.878  25.481  1.00  0.00     0.039 A 
ATOM    105  C   UNL A   1      37.237  23.142  25.012  1.00  0.00    -0.047 A 
ATOM    106  C   UNL A   1      36.713  20.809  25.471  1.00  0.00    -0.047 A 
ATOM    107  C   UNL A   1      35.981  23.322  24.431  1.00  0.00    -0.036 A 
ATOM    108  H   UNL A   1      37.885  23.940  25.097  1.00  0.00     0.063 H 
ATOM    109  C   UNL A   1      35.444  20.995  24.930  1.00  0.00    -0.036 A 
ATOM    110  H   UNL A   1      36.984  19.894  25.860  1.00  0.00     0.063 H 
ATOM    111  C   UNL A   1      35.094  22.246  24.391  1.00  0.00     0.066 A 
ATOM    112  H   UNL A   1      35.713  24.237  24.036  1.00  0.00     0.065 H 
ATOM    113  H   UNL A   1      34.763  20.218  24.925  1.00  0.00     0.065 H 
BRANCH 111 114
ATOM    114  N   UNL A   1      33.783  22.454  23.932  1.00  0.00    -0.220 N 
ATOM    115  C   UNL A   1      33.073  23.605  24.102  1.00  0.00     0.055 A 
ATOM    116  N   UNL A   1      33.029  21.544  23.287  1.00  0.00    -0.062 NA
ATOM    117  C   UNL A   1      31.835  23.378  23.563  1.00  0.00     0.093 A 
ATOM    118  H   UNL A   1      33.404  24.474  24.548  1.00  0.00     0.086 H 
ATOM    119  N   UNL A   1      31.815  22.075  23.119  1.00  0.00    -0.134 NA
BRANCH 117 120
ATOM    120  C   UNL A   1      30.600  24.193  23.672  1.00  0.00     0.047 C 
ATOM    121  H   UNL A   1      29.802  23.491  23.798  1.00  0.00     0.045 H 
ATOM    122  H   UNL A   1      30.681  24.792  22.789  1.00  0.00     0.045 H 
BRANCH 120 123
ATOM    123  S   UNL A   1      30.323  25.463  24.908  1.00  0.00    -0.081 SA
BRANCH 123 124
ATOM    124  C   UNL A   1      30.244  27.086  24.278  1.00  0.00     0.176 A 
ATOM    125  N   UNL A   1      29.109  27.335  23.688  1.00  0.00    -0.223 NA
ATOM    126  N   UNL A   1      31.233  28.051  24.357  1.00  0.00    -0.255 N 
ATOM    127  C   UNL A   1      28.964  28.556  23.014  1.00  0.00     0.079 A 
ATOM    128  C   UNL A   1      31.358  28.814  23.190  1.00  0.00     0.266 A 
ATOM    129  C   UNL A   1      27.711  29.060  22.669  1.00  0.00    -0.035 A 
ATOM    130  C   UNL A   1      30.092  29.237  22.580  1.00  0.00     0.066 A 
ATOM    131  O   UNL A   1      32.411  29.140  22.649  1.00  0.00    -0.268 OA
ATOM    132  C   UNL A   1      27.609  30.189  21.845  1.00  0.00    -0.060 A 
ATOM    133  H   UNL A   1      26.857  28.601  23.021  1.00  0.00     0.065 H 
ATOM    134  C   UNL A   1      30.013  30.323  21.705  1.00  0.00    -0.047 A 
ATOM    135  C   UNL A   1      28.759  30.795  21.330  1.00  0.00    -0.061 A 
ATOM    136  H   UNL A   1      26.680  30.576  21.616  1.00  0.00     0.062 H 
ATOM    137  H   UNL A   1      30.872  30.768  21.343  1.00  0.00     0.063 H 
ATOM    138  H   UNL A   1      28.677  31.589  20.676  1.00  0.00     0.062 H 
BRANCH 126 139
ATOM    139  C   UNL A   1      32.151  28.312  25.446  1.00  0.00     0.051 A 
ATOM    140  C   UNL A   1      31.878  29.365  26.347  1.00  0.00    -0.038 A 
ATOM    141  C   UNL A   1      33.348  27.622  25.658  1.00  0.00    -0.038 A 
ATOM    142  C   UNL A   1      32.846  29.864  27.219  1.00  0.00    -0.060 A 
ATOM    143  H   UNL A   1      30.932  29.778  26.360  1.00  0.00     0.064 H 
ATOM    144  C   UNL A   1      34.351  28.158  26.479  1.00  0.00    -0.060 A 
ATOM    145  H   UNL A   1      33.496  26.706  25.204  1.00  0.00     0.064 H 
ATOM    146  C   UNL A   1      34.112  29.302  27.232  1.00  0.00    -0.062 A 
ATOM    147  H   UNL A   1      32.621  30.649  27.851  1.00  0.00     0.062 H 
ATOM    148  H   UNL A   1      35.274  27.698  26.527  1.00  0.00     0.062 H 
ATOM    149  H   UNL A   1      34.868  29.728  27.791  1.00  0.00     0.062 H 
ENDBRANCH 126 139
ENDBRANCH 123 124
ENDBRANCH 120 123
ENDBRANCH 117 120
ENDBRANCH 111 114
ENDBRANCH 101 104
ENDBRANCH  97 100
ENDBRANCH   1  97
TORSDOF 18
ENDMDL
MODEL 4
REMARK VINA RESULT:     -11.0      4.089      9.702
REMARK SMILES O=C(NCCCCCCNC(=O)c1ccc(-n2cc(CSc3nc4ccccc4c(=O)n3-c3ccccc3)nn2)cc1)c1ccc(-c2c3nc(c(-c4c(F)c(F)c(F)c(F)c4F)c4ccc([nH]4)c(-c4c(F)c(F)c(F)c(F)c4F)c4nc(c(-c5c(F)c(F)c(F)c(F)c5F)c5ccc2[nH]5)C=C4)C=C3)cc1
REMARK SMILES IDX 8 1 7 4 6 7 5 10 4 13 3 16 1 17 2 18 43 20 44 21 105 22
REMARK SMILES IDX 45 23 104 25 46 27 47 30 48 31 98 32 49 33 103 34 97 35
REMARK SMILES IDX 99 36 50 37 102 38 96 40 95 42 51 44 83 47 63 48 82 49 64 50
REMARK SMILES IDX 67 51 81 52 100 53 65 54 66 56 80 58 101 59 68 62 52 64
REMARK SMILES IDX 53 65 61 66 54 67 55 68 59 69 62 70 56 71 57 72 60 73 58 74
REMARK SMILES IDX 84 75 85 76 93 77 86 78 87 79 91 80 94 81 88 82 89 83 92 84
REMARK SMILES IDX 90 85 69 86 70 87 78 88 71 89 72 90 76 91 79 92 73 93 74 94
REMARK SMILES IDX 77 95 75 96 9 97 10 100 11 101 12 103 13 104 14 105 42 106
REMARK SMILES IDX 15 107 41 109 16 111 17 114 18 115 40 116 19 117 39 119
REMARK SMILES IDX 20 120 21 123 22 124 23 125 32 126 24 127 30 128 25 129
REMARK SMILES IDX 29 130 31 131 26 132 28 134 27 135 33 139 34 140 38 141
REMARK SMILES IDX 35 142 37 144 36 146
REMARK H PARENT 8 2 8 3 7 5 7 6 6 8 6 9 5 11 5 12 4 14 4 15 3 19 44 24 105 26
REMARK H PARENT 45 28 104 29 103 39 97 41 99 43 102 45 96 46 64 55 67 57
REMARK H PARENT 100 60 65 61 101 63 9 98 9 99 10 102 14 108 42 110 15 112
REMARK H PARENT 41 113 18 118 20 121 20 122 25 133 26 136 28 137 27 138 34 143
REMARK H PARENT 38 145 35 147 37 148 36 149
REMARK Flexibility Score: inf
ROOT
ATOM      1  C   UNL A   1      33.302  28.375  24.135  1.00  0.00    -0.036 C 
ATOM      2  H   UNL A   1      34.156  28.597  24.741  1.00  0.00     0.028 H 
ATOM      3  H   UNL A   1      33.057  29.158  23.448  1.00  0.00     0.028 H 
ENDROOT
BRANCH   1   4
ATOM      4  C   UNL A   1      32.092  28.218  25.059  1.00  0.00    -0.052 C 
ATOM      5  H   UNL A   1      31.216  28.473  24.500  1.00  0.00     0.027 H 
ATOM      6  H   UNL A   1      32.108  27.203  25.396  1.00  0.00     0.027 H 
BRANCH   4   7
ATOM      7  C   UNL A   1      32.111  29.081  26.324  1.00  0.00    -0.052 C 
ATOM      8  H   UNL A   1      32.071  30.107  26.022  1.00  0.00     0.027 H 
ATOM      9  H   UNL A   1      31.271  28.765  26.904  1.00  0.00     0.027 H 
BRANCH   7  10
ATOM     10  C   UNL A   1      33.334  28.907  27.233  1.00  0.00    -0.036 C 
ATOM     11  H   UNL A   1      32.985  28.760  28.234  1.00  0.00     0.028 H 
ATOM     12  H   UNL A   1      33.877  28.070  26.846  1.00  0.00     0.028 H 
BRANCH  10  13
ATOM     13  C   UNL A   1      34.309  30.084  27.239  1.00  0.00     0.018 C 
ATOM     14  H   UNL A   1      35.250  29.740  27.616  1.00  0.00     0.049 H 
ATOM     15  H   UNL A   1      34.372  30.438  26.231  1.00  0.00     0.049 H 
BRANCH  13  16
ATOM     16  N   UNL A   1      33.877  31.204  28.048  1.00  0.00    -0.352 N 
ATOM     17  O   UNL A   1      33.824  32.997  29.330  1.00  0.00    -0.269 OA
ATOM     18  C   UNL A   1      34.476  32.013  28.969  1.00  0.00     0.251 C 
ATOM     19  H   UNL A   1      32.932  31.434  27.898  1.00  0.00     0.163 HD
BRANCH  18  20
ATOM     20  C   UNL A   1      35.791  31.756  29.615  1.00  0.00     0.039 A 
ATOM     21  C   UNL A   1      35.993  31.208  30.882  1.00  0.00    -0.049 A 
ATOM     22  C   UNL A   1      36.915  32.184  28.882  1.00  0.00    -0.049 A 
ATOM     23  C   UNL A   1      37.264  31.194  31.449  1.00  0.00    -0.053 A 
ATOM     24  H   UNL A   1      35.195  30.810  31.402  1.00  0.00     0.063 H 
ATOM     25  C   UNL A   1      38.188  32.166  29.436  1.00  0.00    -0.053 A 
ATOM     26  H   UNL A   1      36.790  32.519  27.914  1.00  0.00     0.063 H 
ATOM     27  C   UNL A   1      38.350  31.716  30.741  1.00  0.00    -0.014 A 
ATOM     28  H   UNL A   1      37.406  30.800  32.392  1.00  0.00     0.063 H 
ATOM     29  H   UNL A   1      39.002  32.481  28.886  1.00  0.00     0.063 H 
BRANCH  27  30
ATOM     30  C   UNL A   1      39.675  31.646  31.346  1.00  0.00     0.031 A 
ATOM     31  C   UNL A   1      40.093  32.894  32.046  1.00  0.00     0.074 A 
ATOM     32  C   UNL A   1      40.398  30.508  31.400  1.00  0.00     0.049 A 
ATOM     33  N   UNL A   1      41.123  33.640  31.808  1.00  0.00    -0.248 NA
ATOM     34  C   UNL A   1      39.183  33.444  33.065  1.00  0.00    -0.034 C 
ATOM     35  C   UNL A   1      39.984  29.158  31.009  1.00  0.00    -0.036 A 
ATOM     36  N   UNL A   1      41.643  30.303  31.916  1.00  0.00    -0.354 N 
ATOM     37  C   UNL A   1      41.089  34.659  32.761  1.00  0.00     0.074 A 
ATOM     38  C   UNL A   1      39.805  34.574  33.402  1.00  0.00    -0.034 C 
ATOM     39  H   UNL A   1      38.297  33.055  33.426  1.00  0.00     0.065 H 
ATOM     40  C   UNL A   1      40.860  28.257  31.511  1.00  0.00    -0.036 A 
ATOM     41  H   UNL A   1      39.154  28.930  30.440  1.00  0.00     0.065 H 
ATOM     42  C   UNL A   1      41.959  28.968  32.143  1.00  0.00     0.049 A 
ATOM     43  H   UNL A   1      42.267  31.039  32.111  1.00  0.00     0.167 HD
ATOM     44  C   UNL A   1      42.218  35.343  33.102  1.00  0.00     0.037 A 
ATOM     45  H   UNL A   1      39.418  35.290  34.036  1.00  0.00     0.065 H 
ATOM     46  H   UNL A   1      40.764  27.231  31.455  1.00  0.00     0.065 H 
ATOM     47  C   UNL A   1      43.012  28.493  32.856  1.00  0.00     0.037 A 
ATOM     48  C   UNL A   1      43.219  35.232  32.072  1.00  0.00     0.049 A 
ATOM     49  C   UNL A   1      44.012  29.584  32.961  1.00  0.00     0.074 A 
ATOM     50  C   UNL A   1      43.298  35.593  30.741  1.00  0.00    -0.036 A 
ATOM     51  N   UNL A   1      44.257  34.356  32.274  1.00  0.00    -0.354 N 
ATOM     52  N   UNL A   1      44.696  30.040  31.950  1.00  0.00    -0.248 NA
ATOM     53  C   UNL A   1      43.913  30.476  34.105  1.00  0.00    -0.034 C 
ATOM     54  C   UNL A   1      44.045  34.549  30.118  1.00  0.00    -0.036 A 
ATOM     55  H   UNL A   1      42.904  36.436  30.295  1.00  0.00     0.065 H 
ATOM     56  C   UNL A   1      44.424  33.649  31.114  1.00  0.00     0.049 A 
ATOM     57  H   UNL A   1      44.783  34.255  33.100  1.00  0.00     0.167 HD
ATOM     58  C   UNL A   1      44.732  31.411  32.145  1.00  0.00     0.074 A 
ATOM     59  C   UNL A   1      44.302  31.615  33.526  1.00  0.00    -0.034 C 
ATOM     60  H   UNL A   1      43.627  30.286  35.079  1.00  0.00     0.065 H 
ATOM     61  H   UNL A   1      44.263  34.473  29.113  1.00  0.00     0.065 H 
ATOM     62  C   UNL A   1      44.828  32.266  31.085  1.00  0.00     0.037 A 
ATOM     63  H   UNL A   1      44.300  32.531  34.000  1.00  0.00     0.065 H 
BRANCH  44  64
ATOM     64  C   UNL A   1      42.573  35.747  34.520  1.00  0.00     0.064 A 
ATOM     65  C   UNL A   1      42.969  37.080  34.762  1.00  0.00     0.173 A 
ATOM     66  C   UNL A   1      42.876  34.834  35.553  1.00  0.00     0.173 A 
ATOM     67  F   UNL A   1      42.719  38.043  33.861  1.00  0.00    -0.203 F 
ATOM     68  C   UNL A   1      43.731  37.436  35.878  1.00  0.00     0.198 A 
ATOM     69  C   UNL A   1      43.596  35.203  36.689  1.00  0.00     0.198 A 
ATOM     70  F   UNL A   1      42.594  33.529  35.468  1.00  0.00    -0.203 F 
ATOM     71  F   UNL A   1      44.217  38.680  35.981  1.00  0.00    -0.200 F 
ATOM     72  C   UNL A   1      44.061  36.492  36.830  1.00  0.00     0.200 A 
ATOM     73  F   UNL A   1      43.909  34.271  37.599  1.00  0.00    -0.200 F 
ATOM     74  F   UNL A   1      44.861  36.808  37.856  1.00  0.00    -0.200 F 
ENDBRANCH  44  64
BRANCH  47  75
ATOM     75  C   UNL A   1      43.064  27.298  33.737  1.00  0.00     0.064 A 
ATOM     76  C   UNL A   1      42.101  27.086  34.739  1.00  0.00     0.173 A 
ATOM     77  C   UNL A   1      43.888  26.200  33.424  1.00  0.00     0.173 A 
ATOM     78  F   UNL A   1      41.238  28.061  35.062  1.00  0.00    -0.203 F 
ATOM     79  C   UNL A   1      41.960  25.845  35.373  1.00  0.00     0.198 A 
ATOM     80  C   UNL A   1      43.751  24.966  34.061  1.00  0.00     0.198 A 
ATOM     81  F   UNL A   1      44.778  26.273  32.424  1.00  0.00    -0.203 F 
ATOM     82  F   UNL A   1      40.989  25.663  36.280  1.00  0.00    -0.200 F 
ATOM     83  C   UNL A   1      42.779  24.783  35.026  1.00  0.00     0.200 A 
ATOM     84  F   UNL A   1      44.523  23.936  33.685  1.00  0.00    -0.200 F 
ATOM     85  F   UNL A   1      42.604  23.579  35.586  1.00  0.00    -0.200 F 
ENDBRANCH  47  75
BRANCH  62  86
ATOM     86  C   UNL A   1      45.152  31.682  29.741  1.00  0.00     0.064 A 
ATOM     87  C   UNL A   1      44.187  31.208  28.836  1.00  0.00     0.173 A 
ATOM     88  C   UNL A   1      46.480  31.736  29.300  1.00  0.00     0.173 A 
ATOM     89  F   UNL A   1      42.885  31.221  29.146  1.00  0.00    -0.203 F 
ATOM     90  C   UNL A   1      44.545  30.767  27.564  1.00  0.00     0.198 A 
ATOM     91  C   UNL A   1      46.831  31.331  28.015  1.00  0.00     0.198 A 
ATOM     92  F   UNL A   1      47.435  32.234  30.101  1.00  0.00    -0.203 F 
ATOM     93  F   UNL A   1      43.608  30.311  26.720  1.00  0.00    -0.200 F 
ATOM     94  C   UNL A   1      45.866  30.837  27.153  1.00  0.00     0.200 A 
ATOM     95  F   UNL A   1      48.100  31.451  27.604  1.00  0.00    -0.200 F 
ATOM     96  F   UNL A   1      46.206  30.456  25.913  1.00  0.00    -0.200 F 
ENDBRANCH  62  86
ENDBRANCH  27  30
ENDBRANCH  18  20
ENDBRANCH  13  16
ENDBRANCH  10  13
ENDBRANCH   7  10
ENDBRANCH   4   7
ENDBRANCH   1   4
BRANCH   1  97
ATOM     97  C   UNL A   1      33.627  27.147  23.290  1.00  0.00     0.018 C 
ATOM     98  H   UNL A   1      34.566  26.748  23.611  1.00  0.00     0.049 H 
ATOM     99  H   UNL A   1      33.661  27.457  22.266  1.00  0.00     0.049 H 
BRANCH  97 100
ATOM    100  N   UNL A   1      32.615  26.110  23.407  1.00  0.00    -0.352 N 
ATOM    101  C   UNL A   1      32.762  24.799  23.780  1.00  0.00     0.251 C 
ATOM    102  H   UNL A   1      31.696  26.387  23.188  1.00  0.00     0.163 HD
ATOM    103  O   UNL A   1      31.816  24.013  23.699  1.00  0.00    -0.269 OA
BRANCH 101 104
ATOM    104  C   UNL A   1      34.074  24.319  24.251  1.00  0.00     0.039 A 
ATOM    105  C   UNL A   1      34.430  24.536  25.587  1.00  0.00    -0.047 A 
ATOM    106  C   UNL A   1      34.940  23.648  23.379  1.00  0.00    -0.047 A 
ATOM    107  C   UNL A   1      35.612  23.993  26.091  1.00  0.00    -0.036 A 
ATOM    108  H   UNL A   1      33.819  25.099  26.199  1.00  0.00     0.063 H 
ATOM    109  C   UNL A   1      36.140  23.141  23.867  1.00  0.00    -0.036 A 
ATOM    110  H   UNL A   1      34.690  23.532  22.385  1.00  0.00     0.063 H 
ATOM    111  C   UNL A   1      36.458  23.296  25.228  1.00  0.00     0.066 A 
ATOM    112  H   UNL A   1      35.857  24.105  27.087  1.00  0.00     0.065 H 
ATOM    113  H   UNL A   1      36.793  22.652  23.233  1.00  0.00     0.065 H 
BRANCH 111 114
ATOM    114  N   UNL A   1      37.710  22.863  25.694  1.00  0.00    -0.220 N 
ATOM    115  C   UNL A   1      38.625  23.659  26.317  1.00  0.00     0.055 A 
ATOM    116  N   UNL A   1      38.202  21.617  25.569  1.00  0.00    -0.062 NA
ATOM    117  C   UNL A   1      39.721  22.875  26.557  1.00  0.00     0.093 A 
ATOM    118  H   UNL A   1      38.513  24.656  26.559  1.00  0.00     0.086 H 
ATOM    119  N   UNL A   1      39.455  21.630  26.031  1.00  0.00    -0.134 NA
BRANCH 117 120
ATOM    120  C   UNL A   1      41.081  23.270  26.998  1.00  0.00     0.047 C 
ATOM    121  H   UNL A   1      41.545  22.369  27.342  1.00  0.00     0.045 H 
ATOM    122  H   UNL A   1      40.846  24.067  27.672  1.00  0.00     0.045 H 
BRANCH 120 123
ATOM    123  S   UNL A   1      42.299  24.069  25.952  1.00  0.00    -0.081 SA
BRANCH 123 124
ATOM    124  C   UNL A   1      43.164  25.377  26.712  1.00  0.00     0.176 A 
ATOM    125  N   UNL A   1      44.431  25.380  26.402  1.00  0.00    -0.223 NA
ATOM    126  N   UNL A   1      42.636  26.335  27.559  1.00  0.00    -0.255 N 
ATOM    127  C   UNL A   1      45.272  26.294  27.054  1.00  0.00     0.079 A 
ATOM    128  C   UNL A   1      43.479  26.656  28.629  1.00  0.00     0.266 A 
ATOM    129  C   UNL A   1      46.532  26.618  26.552  1.00  0.00    -0.035 A 
ATOM    130  C   UNL A   1      44.896  26.814  28.284  1.00  0.00     0.066 A 
ATOM    131  O   UNL A   1      43.137  26.804  29.800  1.00  0.00    -0.268 OA
ATOM    132  C   UNL A   1      47.414  27.394  27.316  1.00  0.00    -0.060 A 
ATOM    133  H   UNL A   1      46.815  26.285  25.618  1.00  0.00     0.065 H 
ATOM    134  C   UNL A   1      45.784  27.533  29.088  1.00  0.00    -0.047 A 
ATOM    135  C   UNL A   1      47.056  27.817  28.600  1.00  0.00    -0.061 A 
ATOM    136  H   UNL A   1      48.335  27.656  26.929  1.00  0.00     0.062 H 
ATOM    137  H   UNL A   1      45.500  27.849  30.029  1.00  0.00     0.063 H 
ATOM    138  H   UNL A   1      47.731  28.337  29.181  1.00  0.00     0.062 H 
BRANCH 126 139
ATOM    139  C   UNL A   1      41.339  26.975  27.494  1.00  0.00     0.051 A 
ATOM    140  C   UNL A   1      41.213  28.226  26.850  1.00  0.00    -0.038 A 
ATOM    141  C   UNL A   1      40.173  26.470  28.079  1.00  0.00    -0.038 A 
ATOM    142  C   UNL A   1      40.085  29.033  27.010  1.00  0.00    -0.060 A 
ATOM    143  H   UNL A   1      41.980  28.554  26.242  1.00  0.00     0.064 H 
ATOM    144  C   UNL A   1      39.064  27.299  28.305  1.00  0.00    -0.060 A 
ATOM    145  H   UNL A   1      40.129  25.475  28.349  1.00  0.00     0.064 H 
ATOM    146  C   UNL A   1      39.036  28.595  27.802  1.00  0.00    -0.062 A 
ATOM    147  H   UNL A   1      40.033  29.951  26.541  1.00  0.00     0.062 H 
ATOM    148  H   UNL A   1      38.261  26.944  28.847  1.00  0.00     0.062 H 
ATOM    149  H   UNL A   1      38.245  29.222  28.016  1.00  0.00     0.062 H 
ENDBRANCH 126 139
ENDBRANCH 123 124
ENDBRANCH 120 123
ENDBRANCH 117 120
ENDBRANCH 111 114
ENDBRANCH 101 104
ENDBRANCH  97 100
ENDBRANCH   1  97
TORSDOF 18
ENDMDL
MODEL 5
REMARK VINA RESULT:     -10.9      4.164      6.449
REMARK SMILES O=C(NCCCCCCNC(=O)c1ccc(-n2cc(CSc3nc4ccccc4c(=O)n3-c3ccccc3)nn2)cc1)c1ccc(-c2c3nc(c(-c4c(F)c(F)c(F)c(F)c4F)c4ccc([nH]4)c(-c4c(F)c(F)c(F)c(F)c4F)c4nc(c(-c5c(F)c(F)c(F)c(F)c5F)c5ccc2[nH]5)C=C4)C=C3)cc1
REMARK SMILES IDX 8 1 7 4 6 7 5 10 4 13 3 16 1 17 2 18 43 20 44 21 105 22
REMARK SMILES IDX 45 23 104 25 46 27 47 30 48 31 98 32 49 33 103 34 97 35
REMARK SMILES IDX 99 36 50 37 102 38 96 40 95 42 51 44 83 47 63 48 82 49 64 50
REMARK SMILES IDX 67 51 81 52 100 53 65 54 66 56 80 58 101 59 68 62 52 64
REMARK SMILES IDX 53 65 61 66 54 67 55 68 59 69 62 70 56 71 57 72 60 73 58 74
REMARK SMILES IDX 84 75 85 76 93 77 86 78 87 79 91 80 94 81 88 82 89 83 92 84
REMARK SMILES IDX 90 85 69 86 70 87 78 88 71 89 72 90 76 91 79 92 73 93 74 94
REMARK SMILES IDX 77 95 75 96 9 97 10 100 11 101 12 103 13 104 14 105 42 106
REMARK SMILES IDX 15 107 41 109 16 111 17 114 18 115 40 116 19 117 39 119
REMARK SMILES IDX 20 120 21 123 22 124 23 125 32 126 24 127 30 128 25 129
REMARK SMILES IDX 29 130 31 131 26 132 28 134 27 135 33 139 34 140 38 141
REMARK SMILES IDX 35 142 37 144 36 146
REMARK H PARENT 8 2 8 3 7 5 7 6 6 8 6 9 5 11 5 12 4 14 4 15 3 19 44 24 105 26
REMARK H PARENT 45 28 104 29 103 39 97 41 99 43 102 45 96 46 64 55 67 57
REMARK H PARENT 100 60 65 61 101 63 9 98 9 99 10 102 14 108 42 110 15 112
REMARK H PARENT 41 113 18 118 20 121 20 122 25 133 26 136 28 137 27 138 34 143
REMARK H PARENT 38 145 35 147 37 148 36 149
REMARK Flexibility Score: inf
ROOT
ATOM      1  C   UNL A   1      38.373  31.804  32.473  1.00  0.00    -0.036 C 
ATOM      2  H   UNL A   1      38.375  31.675  31.411  1.00  0.00     0.028 H 
ATOM      3  H   UNL A   1      39.107  31.207  32.972  1.00  0.00     0.028 H 
ENDROOT
BRANCH   1   4
ATOM      4  C   UNL A   1      37.013  31.346  33.005  1.00  0.00    -0.052 C 
ATOM      5  H   UNL A   1      37.151  30.406  33.498  1.00  0.00     0.027 H 
ATOM      6  H   UNL A   1      36.671  32.126  33.652  1.00  0.00     0.027 H 
BRANCH   4   7
ATOM      7  C   UNL A   1      35.918  31.167  31.949  1.00  0.00    -0.052 C 
ATOM      8  H   UNL A   1      36.395  31.031  31.000  1.00  0.00     0.027 H 
ATOM      9  H   UNL A   1      35.340  30.326  32.269  1.00  0.00     0.027 H 
BRANCH   7  10
ATOM     10  C   UNL A   1      34.925  32.327  31.812  1.00  0.00    -0.036 C 
ATOM     11  H   UNL A   1      33.951  31.913  31.650  1.00  0.00     0.028 H 
ATOM     12  H   UNL A   1      35.000  32.893  32.717  1.00  0.00     0.028 H 
BRANCH  10  13
ATOM     13  C   UNL A   1      35.222  33.302  30.672  1.00  0.00     0.018 C 
ATOM     14  H   UNL A   1      34.768  34.242  30.907  1.00  0.00     0.049 H 
ATOM     15  H   UNL A   1      36.287  33.367  30.591  1.00  0.00     0.049 H 
BRANCH  13  16
ATOM     16  N   UNL A   1      34.731  32.869  29.382  1.00  0.00    -0.352 N 
ATOM     17  O   UNL A   1      34.277  31.695  27.572  1.00  0.00    -0.269 OA
ATOM     18  C   UNL A   1      35.049  31.860  28.521  1.00  0.00     0.251 C 
ATOM     19  H   UNL A   1      33.997  33.435  29.049  1.00  0.00     0.163 HD
BRANCH  18  20
ATOM     20  C   UNL A   1      36.273  31.018  28.596  1.00  0.00     0.039 A 
ATOM     21  C   UNL A   1      36.316  29.624  28.587  1.00  0.00    -0.049 A 
ATOM     22  C   UNL A   1      37.480  31.726  28.762  1.00  0.00    -0.049 A 
ATOM     23  C   UNL A   1      37.507  28.954  28.854  1.00  0.00    -0.053 A 
ATOM     24  H   UNL A   1      35.460  29.085  28.382  1.00  0.00     0.063 H 
ATOM     25  C   UNL A   1      38.673  31.066  29.020  1.00  0.00    -0.053 A 
ATOM     26  H   UNL A   1      37.476  32.755  28.693  1.00  0.00     0.063 H 
ATOM     27  C   UNL A   1      38.672  29.680  29.115  1.00  0.00    -0.014 A 
ATOM     28  H   UNL A   1      37.530  27.923  28.859  1.00  0.00     0.063 H 
ATOM     29  H   UNL A   1      39.549  31.598  29.138  1.00  0.00     0.063 H 
BRANCH  27  30
ATOM     30  C   UNL A   1      39.912  28.948  29.346  1.00  0.00     0.031 A 
ATOM     31  C   UNL A   1      40.277  28.804  30.784  1.00  0.00     0.074 A 
ATOM     32  C   UNL A   1      40.591  28.324  28.361  1.00  0.00     0.049 A 
ATOM     33  N   UNL A   1      41.348  29.210  31.385  1.00  0.00    -0.248 NA
ATOM     34  C   UNL A   1      39.265  28.236  31.693  1.00  0.00    -0.034 C 
ATOM     35  C   UNL A   1      40.191  28.146  26.963  1.00  0.00    -0.036 A 
ATOM     36  N   UNL A   1      41.759  27.624  28.430  1.00  0.00    -0.354 N 
ATOM     37  C   UNL A   1      41.227  28.798  32.712  1.00  0.00     0.074 A 
ATOM     38  C   UNL A   1      39.873  28.342  32.874  1.00  0.00    -0.034 C 
ATOM     39  H   UNL A   1      38.331  27.854  31.472  1.00  0.00     0.065 H 
ATOM     40  C   UNL A   1      40.975  27.205  26.387  1.00  0.00    -0.036 A 
ATOM     41  H   UNL A   1      39.430  28.659  26.490  1.00  0.00     0.065 H 
ATOM     42  C   UNL A   1      42.008  26.811  27.330  1.00  0.00     0.049 A 
ATOM     43  H   UNL A   1      42.375  27.688  29.195  1.00  0.00     0.167 HD
ATOM     44  C   UNL A   1      42.324  28.649  33.507  1.00  0.00     0.037 A 
ATOM     45  H   UNL A   1      39.432  28.128  33.782  1.00  0.00     0.065 H 
ATOM     46  H   UNL A   1      40.857  26.828  25.434  1.00  0.00     0.065 H 
ATOM     47  C   UNL A   1      42.953  25.841  27.234  1.00  0.00     0.037 A 
ATOM     48  C   UNL A   1      43.439  29.402  32.992  1.00  0.00     0.049 A 
ATOM     49  C   UNL A   1      43.963  26.093  28.292  1.00  0.00     0.074 A 
ATOM     50  C   UNL A   1      43.688  30.738  32.752  1.00  0.00    -0.036 A 
ATOM     51  N   UNL A   1      44.420  28.721  32.316  1.00  0.00    -0.354 N 
ATOM     52  N   UNL A   1      44.777  27.111  28.290  1.00  0.00    -0.248 NA
ATOM     53  C   UNL A   1      43.750  25.462  29.585  1.00  0.00    -0.034 C 
ATOM     54  C   UNL A   1      44.476  30.759  31.562  1.00  0.00    -0.036 A 
ATOM     55  H   UNL A   1      43.375  31.547  33.311  1.00  0.00     0.065 H 
ATOM     56  C   UNL A   1      44.707  29.437  31.186  1.00  0.00     0.049 A 
ATOM     57  H   UNL A   1      44.840  27.874  32.592  1.00  0.00     0.167 HD
ATOM     58  C   UNL A   1      44.827  27.518  29.613  1.00  0.00     0.074 A 
ATOM     59  C   UNL A   1      44.238  26.420  30.376  1.00  0.00    -0.034 C 
ATOM     60  H   UNL A   1      43.343  24.543  29.822  1.00  0.00     0.065 H 
ATOM     61  H   UNL A   1      44.813  31.601  31.070  1.00  0.00     0.065 H 
ATOM     62  C   UNL A   1      45.073  28.822  29.935  1.00  0.00     0.037 A 
ATOM     63  H   UNL A   1      44.204  26.388  31.407  1.00  0.00     0.065 H 
BRANCH  44  64
ATOM     64  C   UNL A   1      42.516  27.507  34.488  1.00  0.00     0.064 A 
ATOM     65  C   UNL A   1      42.945  26.257  33.990  1.00  0.00     0.173 A 
ATOM     66  C   UNL A   1      41.978  27.482  35.792  1.00  0.00     0.173 A 
ATOM     67  F   UNL A   1      43.491  26.156  32.768  1.00  0.00    -0.203 F 
ATOM     68  C   UNL A   1      42.718  25.066  34.685  1.00  0.00     0.198 A 
ATOM     69  C   UNL A   1      41.798  26.296  36.503  1.00  0.00     0.198 A 
ATOM     70  F   UNL A   1      41.501  28.576  36.396  1.00  0.00    -0.203 F 
ATOM     71  F   UNL A   1      42.999  23.893  34.102  1.00  0.00    -0.200 F 
ATOM     72  C   UNL A   1      42.127  25.085  35.933  1.00  0.00     0.200 A 
ATOM     73  F   UNL A   1      41.217  26.336  37.710  1.00  0.00    -0.200 F 
ATOM     74  F   UNL A   1      41.830  23.943  36.565  1.00  0.00    -0.200 F 
ENDBRANCH  44  64
BRANCH  47  75
ATOM     75  C   UNL A   1      42.865  24.534  26.533  1.00  0.00     0.064 A 
ATOM     76  C   UNL A   1      43.676  24.245  25.422  1.00  0.00     0.173 A 
ATOM     77  C   UNL A   1      42.192  23.443  27.115  1.00  0.00     0.173 A 
ATOM     78  F   UNL A   1      44.395  25.215  24.840  1.00  0.00    -0.203 F 
ATOM     79  C   UNL A   1      43.820  22.938  24.937  1.00  0.00     0.198 A 
ATOM     80  C   UNL A   1      42.331  22.143  26.627  1.00  0.00     0.198 A 
ATOM     81  F   UNL A   1      41.465  23.599  28.229  1.00  0.00    -0.203 F 
ATOM     82  F   UNL A   1      44.651  22.691  23.915  1.00  0.00    -0.200 F 
ATOM     83  C   UNL A   1      43.155  21.887  25.547  1.00  0.00     0.200 A 
ATOM     84  F   UNL A   1      41.715  21.130  27.252  1.00  0.00    -0.200 F 
ATOM     85  F   UNL A   1      43.340  20.629  25.124  1.00  0.00    -0.200 F 
ENDBRANCH  47  75
BRANCH  62  86
ATOM     86  C   UNL A   1      45.542  29.736  28.840  1.00  0.00     0.064 A 
ATOM     87  C   UNL A   1      44.681  30.440  27.981  1.00  0.00     0.173 A 
ATOM     88  C   UNL A   1      46.911  30.016  28.755  1.00  0.00     0.173 A 
ATOM     89  F   UNL A   1      43.352  30.303  28.072  1.00  0.00    -0.203 F 
ATOM     90  C   UNL A   1      45.176  31.349  27.049  1.00  0.00     0.198 A 
ATOM     91  C   UNL A   1      47.400  30.953  27.849  1.00  0.00     0.198 A 
ATOM     92  F   UNL A   1      47.774  29.418  29.590  1.00  0.00    -0.203 F 
ATOM     93  F   UNL A   1      44.335  32.003  26.233  1.00  0.00    -0.200 F 
ATOM     94  C   UNL A   1      46.535  31.610  26.989  1.00  0.00     0.200 A 
ATOM     95  F   UNL A   1      48.709  31.241  27.832  1.00  0.00    -0.200 F 
ATOM     96  F   UNL A   1      47.009  32.518  26.125  1.00  0.00    -0.200 F 
ENDBRANCH  62  86
ENDBRANCH  27  30
ENDBRANCH  18  20
ENDBRANCH  13  16
ENDBRANCH  10  13
ENDBRANCH   7  10
ENDBRANCH   4   7
ENDBRANCH   1   4
BRANCH   1  97
ATOM     97  C   UNL A   1      38.723  33.258  32.775  1.00  0.00     0.018 C 
ATOM     98  H   UNL A   1      39.135  33.702  31.894  1.00  0.00     0.049 H 
ATOM     99  H   UNL A   1      39.425  33.262  33.583  1.00  0.00     0.049 H 
BRANCH  97 100
ATOM    100  N   UNL A   1      37.564  34.032  33.190  1.00  0.00    -0.352 N 
ATOM    101  C   UNL A   1      37.118  34.306  34.457  1.00  0.00     0.251 C 
ATOM    102  H   UNL A   1      37.025  34.413  32.460  1.00  0.00     0.163 HD
ATOM    103  O   UNL A   1      36.037  34.871  34.634  1.00  0.00    -0.269 OA
BRANCH 101 104
ATOM    104  C   UNL A   1      37.925  33.891  35.619  1.00  0.00     0.039 A 
ATOM    105  C   UNL A   1      38.904  34.766  36.105  1.00  0.00    -0.047 A 
ATOM    106  C   UNL A   1      37.707  32.650  36.229  1.00  0.00    -0.047 A 
ATOM    107  C   UNL A   1      39.604  34.451  37.271  1.00  0.00    -0.036 A 
ATOM    108  H   UNL A   1      39.110  35.642  35.601  1.00  0.00     0.063 H 
ATOM    109  C   UNL A   1      38.432  32.314  37.369  1.00  0.00    -0.036 A 
ATOM    110  H   UNL A   1      37.016  31.992  35.838  1.00  0.00     0.063 H 
ATOM    111  C   UNL A   1      39.360  33.229  37.897  1.00  0.00     0.066 A 
ATOM    112  H   UNL A   1      40.291  35.114  37.664  1.00  0.00     0.065 H 
ATOM    113  H   UNL A   1      38.288  31.398  37.823  1.00  0.00     0.065 H 
BRANCH 111 114
ATOM    114  N   UNL A   1      40.154  32.847  38.991  1.00  0.00    -0.220 N 
ATOM    115  C   UNL A   1      41.514  32.920  39.027  1.00  0.00     0.055 A 
ATOM    116  N   UNL A   1      39.695  32.329  40.145  1.00  0.00    -0.062 NA
ATOM    117  C   UNL A   1      41.897  32.405  40.236  1.00  0.00     0.093 A 
ATOM    118  H   UNL A   1      42.132  33.289  38.288  1.00  0.00     0.086 H 
ATOM    119  N   UNL A   1      40.754  31.992  40.885  1.00  0.00    -0.134 NA
BRANCH 117 120
ATOM    120  C   UNL A   1      43.252  32.032  40.712  1.00  0.00     0.047 C 
ATOM    121  H   UNL A   1      43.151  31.050  41.126  1.00  0.00     0.045 H 
ATOM    122  H   UNL A   1      43.484  32.875  41.328  1.00  0.00     0.045 H 
BRANCH 120 123
ATOM    123  S   UNL A   1      44.714  31.969  39.675  1.00  0.00    -0.081 SA
BRANCH 123 124
ATOM    124  C   UNL A   1      44.689  30.722  38.457  1.00  0.00     0.176 A 
ATOM    125  N   UNL A   1      44.901  29.537  38.957  1.00  0.00    -0.223 NA
ATOM    126  N   UNL A   1      44.478  30.897  37.101  1.00  0.00    -0.255 N 
ATOM    127  C   UNL A   1      45.047  28.459  38.071  1.00  0.00     0.079 A 
ATOM    128  C   UNL A   1      45.293  30.085  36.304  1.00  0.00     0.266 A 
ATOM    129  C   UNL A   1      44.920  27.137  38.495  1.00  0.00    -0.035 A 
ATOM    130  C   UNL A   1      45.433  28.698  36.760  1.00  0.00     0.066 A 
ATOM    131  O   UNL A   1      45.888  30.435  35.287  1.00  0.00    -0.268 OA
ATOM    132  C   UNL A   1      45.244  26.086  37.628  1.00  0.00    -0.060 A 
ATOM    133  H   UNL A   1      44.586  26.934  39.450  1.00  0.00     0.065 H 
ATOM    134  C   UNL A   1      45.824  27.667  35.902  1.00  0.00    -0.047 A 
ATOM    135  C   UNL A   1      45.735  26.351  36.346  1.00  0.00    -0.061 A 
ATOM    136  H   UNL A   1      45.121  25.108  37.937  1.00  0.00     0.062 H 
ATOM    137  H   UNL A   1      46.173  27.878  34.953  1.00  0.00     0.063 H 
ATOM    138  H   UNL A   1      46.029  25.575  35.733  1.00  0.00     0.062 H 
BRANCH 126 139
ATOM    139  C   UNL A   1      43.585  31.826  36.443  1.00  0.00     0.051 A 
ATOM    140  C   UNL A   1      42.299  31.394  36.049  1.00  0.00    -0.038 A 
ATOM    141  C   UNL A   1      43.915  33.143  36.106  1.00  0.00    -0.038 A 
ATOM    142  C   UNL A   1      41.512  32.122  35.156  1.00  0.00    -0.060 A 
ATOM    143  H   UNL A   1      41.931  30.510  36.434  1.00  0.00     0.064 H 
ATOM    144  C   UNL A   1      43.166  33.852  35.155  1.00  0.00    -0.060 A 
ATOM    145  H   UNL A   1      44.721  33.598  36.562  1.00  0.00     0.064 H 
ATOM    146  C   UNL A   1      41.982  33.324  34.651  1.00  0.00    -0.062 A 
ATOM    147  H   UNL A   1      40.584  31.768  34.873  1.00  0.00     0.062 H 
ATOM    148  H   UNL A   1      43.494  34.773  34.827  1.00  0.00     0.062 H 
ATOM    149  H   UNL A   1      41.461  33.819  33.911  1.00  0.00     0.062 H 
ENDBRANCH 126 139
ENDBRANCH 123 124
ENDBRANCH 120 123
ENDBRANCH 117 120
ENDBRANCH 111 114
ENDBRANCH 101 104
ENDBRANCH  97 100
ENDBRANCH   1  97
TORSDOF 18
ENDMDL
MODEL 6
REMARK VINA RESULT:     -10.9      4.776     12.248
REMARK SMILES O=C(NCCCCCCNC(=O)c1ccc(-n2cc(CSc3nc4ccccc4c(=O)n3-c3ccccc3)nn2)cc1)c1ccc(-c2c3nc(c(-c4c(F)c(F)c(F)c(F)c4F)c4ccc([nH]4)c(-c4c(F)c(F)c(F)c(F)c4F)c4nc(c(-c5c(F)c(F)c(F)c(F)c5F)c5ccc2[nH]5)C=C4)C=C3)cc1
REMARK SMILES IDX 8 1 7 4 6 7 5 10 4 13 3 16 1 17 2 18 43 20 44 21 105 22
REMARK SMILES IDX 45 23 104 25 46 27 47 30 48 31 98 32 49 33 103 34 97 35
REMARK SMILES IDX 99 36 50 37 102 38 96 40 95 42 51 44 83 47 63 48 82 49 64 50
REMARK SMILES IDX 67 51 81 52 100 53 65 54 66 56 80 58 101 59 68 62 52 64
REMARK SMILES IDX 53 65 61 66 54 67 55 68 59 69 62 70 56 71 57 72 60 73 58 74
REMARK SMILES IDX 84 75 85 76 93 77 86 78 87 79 91 80 94 81 88 82 89 83 92 84
REMARK SMILES IDX 90 85 69 86 70 87 78 88 71 89 72 90 76 91 79 92 73 93 74 94
REMARK SMILES IDX 77 95 75 96 9 97 10 100 11 101 12 103 13 104 14 105 42 106
REMARK SMILES IDX 15 107 41 109 16 111 17 114 18 115 40 116 19 117 39 119
REMARK SMILES IDX 20 120 21 123 22 124 23 125 32 126 24 127 30 128 25 129
REMARK SMILES IDX 29 130 31 131 26 132 28 134 27 135 33 139 34 140 38 141
REMARK SMILES IDX 35 142 37 144 36 146
REMARK H PARENT 8 2 8 3 7 5 7 6 6 8 6 9 5 11 5 12 4 14 4 15 3 19 44 24 105 26
REMARK H PARENT 45 28 104 29 103 39 97 41 99 43 102 45 96 46 64 55 67 57
REMARK H PARENT 100 60 65 61 101 63 9 98 9 99 10 102 14 108 42 110 15 112
REMARK H PARENT 41 113 18 118 20 121 20 122 25 133 26 136 28 137 27 138 34 143
REMARK H PARENT 38 145 35 147 37 148 36 149
REMARK Flexibility Score: inf
ROOT
ATOM      1  C   UNL A   1      31.280  28.184  23.414  1.00  0.00    -0.036 C 
ATOM      2  H   UNL A   1      32.183  28.162  22.842  1.00  0.00     0.028 H 
ATOM      3  H   UNL A   1      30.529  28.821  22.993  1.00  0.00     0.028 H 
ENDROOT
BRANCH   1   4
ATOM      4  C   UNL A   1      31.605  28.758  24.795  1.00  0.00    -0.052 C 
ATOM      5  H   UNL A   1      30.913  29.549  24.995  1.00  0.00     0.027 H 
ATOM      6  H   UNL A   1      31.532  27.938  25.479  1.00  0.00     0.027 H 
BRANCH   4   7
ATOM      7  C   UNL A   1      33.021  29.317  24.959  1.00  0.00    -0.052 C 
ATOM      8  H   UNL A   1      33.511  29.256  24.010  1.00  0.00     0.027 H 
ATOM      9  H   UNL A   1      32.898  30.316  25.323  1.00  0.00     0.027 H 
BRANCH   7  10
ATOM     10  C   UNL A   1      33.906  28.605  25.991  1.00  0.00    -0.036 C 
ATOM     11  H   UNL A   1      33.611  27.577  26.027  1.00  0.00     0.028 H 
ATOM     12  H   UNL A   1      34.915  28.747  25.666  1.00  0.00     0.028 H 
BRANCH  10  13
ATOM     13  C   UNL A   1      33.829  29.171  27.409  1.00  0.00     0.018 C 
ATOM     14  H   UNL A   1      33.252  28.498  28.009  1.00  0.00     0.049 H 
ATOM     15  H   UNL A   1      34.836  29.272  27.756  1.00  0.00     0.049 H 
BRANCH  13  16
ATOM     16  N   UNL A   1      33.225  30.483  27.490  1.00  0.00    -0.352 N 
ATOM     17  O   UNL A   1      32.894  32.660  27.617  1.00  0.00    -0.269 OA
ATOM     18  C   UNL A   1      33.666  31.724  27.845  1.00  0.00     0.251 C 
ATOM     19  H   UNL A   1      32.277  30.478  27.228  1.00  0.00     0.163 HD
BRANCH  18  20
ATOM     20  C   UNL A   1      34.945  32.015  28.546  1.00  0.00     0.039 A 
ATOM     21  C   UNL A   1      36.169  31.383  28.325  1.00  0.00    -0.049 A 
ATOM     22  C   UNL A   1      34.863  32.975  29.575  1.00  0.00    -0.049 A 
ATOM     23  C   UNL A   1      37.245  31.613  29.177  1.00  0.00    -0.053 A 
ATOM     24  H   UNL A   1      36.277  30.740  27.524  1.00  0.00     0.063 H 
ATOM     25  C   UNL A   1      35.934  33.217  30.424  1.00  0.00    -0.053 A 
ATOM     26  H   UNL A   1      33.988  33.507  29.701  1.00  0.00     0.063 H 
ATOM     27  C   UNL A   1      37.109  32.495  30.251  1.00  0.00    -0.014 A 
ATOM     28  H   UNL A   1      38.144  31.132  29.016  1.00  0.00     0.063 H 
ATOM     29  H   UNL A   1      35.859  33.923  31.172  1.00  0.00     0.063 H 
BRANCH  27  30
ATOM     30  C   UNL A   1      38.269  32.747  31.098  1.00  0.00     0.031 A 
ATOM     31  C   UNL A   1      39.400  33.422  30.400  1.00  0.00     0.074 A 
ATOM     32  C   UNL A   1      38.267  32.529  32.430  1.00  0.00     0.049 A 
ATOM     33  N   UNL A   1      40.613  33.000  30.244  1.00  0.00    -0.248 NA
ATOM     34  C   UNL A   1      39.110  34.676  29.683  1.00  0.00    -0.034 C 
ATOM     35  C   UNL A   1      37.137  32.143  33.279  1.00  0.00    -0.036 A 
ATOM     36  N   UNL A   1      39.274  32.703  33.332  1.00  0.00    -0.354 N 
ATOM     37  C   UNL A   1      41.288  34.011  29.560  1.00  0.00     0.074 A 
ATOM     38  C   UNL A   1      40.286  34.940  29.113  1.00  0.00    -0.034 C 
ATOM     39  H   UNL A   1      38.228  35.211  29.635  1.00  0.00     0.065 H 
ATOM     40  C   UNL A   1      37.463  32.339  34.577  1.00  0.00    -0.036 A 
ATOM     41  H   UNL A   1      36.233  31.780  32.939  1.00  0.00     0.065 H 
ATOM     42  C   UNL A   1      38.858  32.736  34.659  1.00  0.00     0.049 A 
ATOM     43  H   UNL A   1      40.217  32.798  33.067  1.00  0.00     0.167 HD
ATOM     44  C   UNL A   1      42.646  34.118  29.621  1.00  0.00     0.037 A 
ATOM     45  H   UNL A   1      40.454  35.706  28.443  1.00  0.00     0.065 H 
ATOM     46  H   UNL A   1      36.825  32.225  35.380  1.00  0.00     0.065 H 
ATOM     47  C   UNL A   1      39.594  33.127  35.731  1.00  0.00     0.037 A 
ATOM     48  C   UNL A   1      43.244  32.868  30.014  1.00  0.00     0.049 A 
ATOM     49  C   UNL A   1      41.024  33.070  35.338  1.00  0.00     0.074 A 
ATOM     50  C   UNL A   1      43.282  31.593  29.484  1.00  0.00    -0.036 A 
ATOM     51  N   UNL A   1      43.668  32.736  31.313  1.00  0.00    -0.354 N 
ATOM     52  N   UNL A   1      41.667  31.963  35.097  1.00  0.00    -0.248 NA
ATOM     53  C   UNL A   1      41.610  34.273  34.766  1.00  0.00    -0.034 C 
ATOM     54  C   UNL A   1      43.238  30.723  30.614  1.00  0.00    -0.036 A 
ATOM     55  H   UNL A   1      43.333  31.328  28.488  1.00  0.00     0.065 H 
ATOM     56  C   UNL A   1      43.235  31.517  31.760  1.00  0.00     0.049 A 
ATOM     57  H   UNL A   1      44.187  33.396  31.828  1.00  0.00     0.167 HD
ATOM     58  C   UNL A   1      42.464  32.254  34.002  1.00  0.00     0.074 A 
ATOM     59  C   UNL A   1      42.446  33.711  33.890  1.00  0.00    -0.034 C 
ATOM     60  H   UNL A   1      41.433  35.268  34.977  1.00  0.00     0.065 H 
ATOM     61  H   UNL A   1      43.212  29.692  30.587  1.00  0.00     0.065 H 
ATOM     62  C   UNL A   1      42.825  31.277  33.120  1.00  0.00     0.037 A 
ATOM     63  H   UNL A   1      43.013  34.243  33.213  1.00  0.00     0.065 H 
BRANCH  44  64
ATOM     64  C   UNL A   1      43.391  35.434  29.744  1.00  0.00     0.064 A 
ATOM     65  C   UNL A   1      44.330  35.772  28.745  1.00  0.00     0.173 A 
ATOM     66  C   UNL A   1      43.486  36.185  30.936  1.00  0.00     0.173 A 
ATOM     67  F   UNL A   1      44.328  35.139  27.561  1.00  0.00    -0.203 F 
ATOM     68  C   UNL A   1      45.365  36.681  28.979  1.00  0.00     0.198 A 
ATOM     69  C   UNL A   1      44.491  37.128  31.146  1.00  0.00     0.198 A 
ATOM     70  F   UNL A   1      42.689  35.970  31.988  1.00  0.00    -0.203 F 
ATOM     71  F   UNL A   1      46.323  36.849  28.056  1.00  0.00    -0.200 F 
ATOM     72  C   UNL A   1      45.455  37.344  30.186  1.00  0.00     0.200 A 
ATOM     73  F   UNL A   1      44.565  37.756  32.328  1.00  0.00    -0.200 F 
ATOM     74  F   UNL A   1      46.491  38.152  30.445  1.00  0.00    -0.200 F 
ENDBRANCH  44  64
BRANCH  47  75
ATOM     75  C   UNL A   1      39.144  33.867  36.937  1.00  0.00     0.064 A 
ATOM     76  C   UNL A   1      38.706  33.191  38.089  1.00  0.00     0.173 A 
ATOM     77  C   UNL A   1      39.407  35.243  37.085  1.00  0.00     0.173 A 
ATOM     78  F   UNL A   1      38.484  31.869  38.052  1.00  0.00    -0.203 F 
ATOM     79  C   UNL A   1      38.560  33.849  39.317  1.00  0.00     0.198 A 
ATOM     80  C   UNL A   1      39.256  35.898  38.307  1.00  0.00     0.198 A 
ATOM     81  F   UNL A   1      39.912  35.958  36.070  1.00  0.00    -0.203 F 
ATOM     82  F   UNL A   1      38.200  33.158  40.408  1.00  0.00    -0.200 F 
ATOM     83  C   UNL A   1      38.845  35.199  39.427  1.00  0.00     0.200 A 
ATOM     84  F   UNL A   1      39.575  37.196  38.409  1.00  0.00    -0.200 F 
ATOM     85  F   UNL A   1      38.767  35.816  40.614  1.00  0.00    -0.200 F 
ENDBRANCH  47  75
BRANCH  62  86
ATOM     86  C   UNL A   1      42.557  29.851  33.507  1.00  0.00     0.064 A 
ATOM     87  C   UNL A   1      43.400  29.091  34.336  1.00  0.00     0.173 A 
ATOM     88  C   UNL A   1      41.330  29.285  33.139  1.00  0.00     0.173 A 
ATOM     89  F   UNL A   1      44.542  29.600  34.814  1.00  0.00    -0.203 F 
ATOM     90  C   UNL A   1      43.047  27.804  34.738  1.00  0.00     0.198 A 
ATOM     91  C   UNL A   1      40.963  28.015  33.573  1.00  0.00     0.198 A 
ATOM     92  F   UNL A   1      40.461  29.989  32.397  1.00  0.00    -0.203 F 
ATOM     93  F   UNL A   1      43.871  27.094  35.522  1.00  0.00    -0.200 F 
ATOM     94  C   UNL A   1      41.825  27.272  34.363  1.00  0.00     0.200 A 
ATOM     95  F   UNL A   1      39.758  27.526  33.252  1.00  0.00    -0.200 F 
ATOM     96  F   UNL A   1      41.464  26.052  34.787  1.00  0.00    -0.200 F 
ENDBRANCH  62  86
ENDBRANCH  27  30
ENDBRANCH  18  20
ENDBRANCH  13  16
ENDBRANCH  10  13
ENDBRANCH   7  10
ENDBRANCH   4   7
ENDBRANCH   1   4
BRANCH   1  97
ATOM     97  C   UNL A   1      30.691  26.776  23.427  1.00  0.00     0.018 C 
ATOM     98  H   UNL A   1      31.490  26.070  23.350  1.00  0.00     0.049 H 
ATOM     99  H   UNL A   1      30.016  26.698  22.600  1.00  0.00     0.049 H 
BRANCH  97 100
ATOM    100  N   UNL A   1      29.939  26.501  24.640  1.00  0.00    -0.352 N 
ATOM    101  C   UNL A   1      30.187  25.571  25.616  1.00  0.00     0.251 C 
ATOM    102  H   UNL A   1      29.141  27.060  24.781  1.00  0.00     0.163 HD
ATOM    103  O   UNL A   1      29.372  25.376  26.520  1.00  0.00    -0.269 OA
BRANCH 101 104
ATOM    104  C   UNL A   1      31.426  24.773  25.564  1.00  0.00     0.039 A 
ATOM    105  C   UNL A   1      32.610  25.336  26.057  1.00  0.00    -0.047 A 
ATOM    106  C   UNL A   1      31.413  23.474  25.043  1.00  0.00    -0.047 A 
ATOM    107  C   UNL A   1      33.771  24.567  26.127  1.00  0.00    -0.036 A 
ATOM    108  H   UNL A   1      32.624  26.321  26.365  1.00  0.00     0.063 H 
ATOM    109  C   UNL A   1      32.580  22.717  25.074  1.00  0.00    -0.036 A 
ATOM    110  H   UNL A   1      30.548  23.083  24.641  1.00  0.00     0.063 H 
ATOM    111  C   UNL A   1      33.748  23.261  25.639  1.00  0.00     0.066 A 
ATOM    112  H   UNL A   1      34.635  24.958  26.536  1.00  0.00     0.065 H 
ATOM    113  H   UNL A   1      32.588  21.760  24.684  1.00  0.00     0.065 H 
BRANCH 111 114
ATOM    114  N   UNL A   1      34.944  22.526  25.582  1.00  0.00    -0.220 N 
ATOM    115  C   UNL A   1      36.185  23.044  25.808  1.00  0.00     0.055 A 
ATOM    116  N   UNL A   1      35.045  21.221  25.270  1.00  0.00    -0.062 NA
ATOM    117  C   UNL A   1      37.073  22.022  25.602  1.00  0.00     0.093 A 
ATOM    118  H   UNL A   1      36.409  24.013  26.080  1.00  0.00     0.086 H 
ATOM    119  N   UNL A   1      36.345  20.920  25.212  1.00  0.00    -0.134 NA
BRANCH 117 120
ATOM    120  C   UNL A   1      38.551  22.072  25.486  1.00  0.00     0.047 C 
ATOM    121  H   UNL A   1      38.760  22.871  24.806  1.00  0.00     0.045 H 
ATOM    122  H   UNL A   1      38.763  21.055  25.232  1.00  0.00     0.045 H 
BRANCH 120 123
ATOM    123  S   UNL A   1      39.674  22.308  26.865  1.00  0.00    -0.081 SA
BRANCH 123 124
ATOM    124  C   UNL A   1      40.229  23.946  27.078  1.00  0.00     0.176 A 
ATOM    125  N   UNL A   1      39.448  24.637  27.860  1.00  0.00    -0.223 NA
ATOM    126  N   UNL A   1      41.356  24.516  26.513  1.00  0.00    -0.255 N 
ATOM    127  C   UNL A   1      39.699  26.009  28.007  1.00  0.00     0.079 A 
ATOM    128  C   UNL A   1      41.158  25.837  26.092  1.00  0.00     0.266 A 
ATOM    129  C   UNL A   1      39.166  26.744  29.065  1.00  0.00    -0.035 A 
ATOM    130  C   UNL A   1      40.406  26.684  27.023  1.00  0.00     0.066 A 
ATOM    131  O   UNL A   1      41.546  26.323  25.032  1.00  0.00    -0.268 OA
ATOM    132  C   UNL A   1      39.290  28.140  29.084  1.00  0.00    -0.060 A 
ATOM    133  H   UNL A   1      38.680  26.260  29.834  1.00  0.00     0.065 H 
ATOM    134  C   UNL A   1      40.484  28.079  26.989  1.00  0.00    -0.047 A 
ATOM    135  C   UNL A   1      39.912  28.810  28.026  1.00  0.00    -0.061 A 
ATOM    136  H   UNL A   1      38.919  28.678  29.883  1.00  0.00     0.062 H 
ATOM    137  H   UNL A   1      40.957  28.559  26.207  1.00  0.00     0.063 H 
ATOM    138  H   UNL A   1      39.948  29.841  28.016  1.00  0.00     0.062 H 
BRANCH 126 139
ATOM    139  C   UNL A   1      42.646  23.906  26.268  1.00  0.00     0.051 A 
ATOM    140  C   UNL A   1      43.500  23.629  27.358  1.00  0.00    -0.038 A 
ATOM    141  C   UNL A   1      43.156  23.607  25.001  1.00  0.00    -0.038 A 
ATOM    142  C   UNL A   1      44.853  23.331  27.184  1.00  0.00    -0.060 A 
ATOM    143  H   UNL A   1      43.112  23.647  28.314  1.00  0.00     0.064 H 
ATOM    144  C   UNL A   1      44.528  23.378  24.814  1.00  0.00    -0.060 A 
ATOM    145  H   UNL A   1      42.516  23.554  24.194  1.00  0.00     0.064 H 
ATOM    146  C   UNL A   1      45.383  23.278  25.905  1.00  0.00    -0.062 A 
ATOM    147  H   UNL A   1      45.456  23.153  28.003  1.00  0.00     0.062 H 
ATOM    148  H   UNL A   1      44.905  23.281  23.858  1.00  0.00     0.062 H 
ATOM    149  H   UNL A   1      46.400  23.166  25.765  1.00  0.00     0.062 H 
ENDBRANCH 126 139
ENDBRANCH 123 124
ENDBRANCH 120 123
ENDBRANCH 117 120
ENDBRANCH 111 114
ENDBRANCH 101 104
ENDBRANCH  97 100
ENDBRANCH   1  97
TORSDOF 18
ENDMDL
MODEL 7
REMARK VINA RESULT:     -10.9      4.758      8.923
REMARK SMILES O=C(NCCCCCCNC(=O)c1ccc(-n2cc(CSc3nc4ccccc4c(=O)n3-c3ccccc3)nn2)cc1)c1ccc(-c2c3nc(c(-c4c(F)c(F)c(F)c(F)c4F)c4ccc([nH]4)c(-c4c(F)c(F)c(F)c(F)c4F)c4nc(c(-c5c(F)c(F)c(F)c(F)c5F)c5ccc2[nH]5)C=C4)C=C3)cc1
REMARK SMILES IDX 8 1 7 4 6 7 5 10 4 13 3 16 1 17 2 18 43 20 44 21 105 22
REMARK SMILES IDX 45 23 104 25 46 27 47 30 48 31 98 32 49 33 103 34 97 35
REMARK SMILES IDX 99 36 50 37 102 38 96 40 95 42 51 44 83 47 63 48 82 49 64 50
REMARK SMILES IDX 67 51 81 52 100 53 65 54 66 56 80 58 101 59 68 62 52 64
REMARK SMILES IDX 53 65 61 66 54 67 55 68 59 69 62 70 56 71 57 72 60 73 58 74
REMARK SMILES IDX 84 75 85 76 93 77 86 78 87 79 91 80 94 81 88 82 89 83 92 84
REMARK SMILES IDX 90 85 69 86 70 87 78 88 71 89 72 90 76 91 79 92 73 93 74 94
REMARK SMILES IDX 77 95 75 96 9 97 10 100 11 101 12 103 13 104 14 105 42 106
REMARK SMILES IDX 15 107 41 109 16 111 17 114 18 115 40 116 19 117 39 119
REMARK SMILES IDX 20 120 21 123 22 124 23 125 32 126 24 127 30 128 25 129
REMARK SMILES IDX 29 130 31 131 26 132 28 134 27 135 33 139 34 140 38 141
REMARK SMILES IDX 35 142 37 144 36 146
REMARK H PARENT 8 2 8 3 7 5 7 6 6 8 6 9 5 11 5 12 4 14 4 15 3 19 44 24 105 26
REMARK H PARENT 45 28 104 29 103 39 97 41 99 43 102 45 96 46 64 55 67 57
REMARK H PARENT 100 60 65 61 101 63 9 98 9 99 10 102 14 108 42 110 15 112
REMARK H PARENT 41 113 18 118 20 121 20 122 25 133 26 136 28 137 27 138 34 143
REMARK H PARENT 38 145 35 147 37 148 36 149
REMARK Flexibility Score: inf
ROOT
ATOM      1  C   UNL A   1      32.561  23.549  25.514  1.00  0.00    -0.036 C 
ATOM      2  H   UNL A   1      32.724  22.499  25.641  1.00  0.00     0.028 H 
ATOM      3  H   UNL A   1      32.433  23.835  24.490  1.00  0.00     0.028 H 
ENDROOT
BRANCH   1   4
ATOM      4  C   UNL A   1      33.805  24.288  26.014  1.00  0.00    -0.052 C 
ATOM      5  H   UNL A   1      33.642  25.336  25.880  1.00  0.00     0.027 H 
ATOM      6  H   UNL A   1      33.929  23.998  27.036  1.00  0.00     0.027 H 
BRANCH   4   7
ATOM      7  C   UNL A   1      35.116  23.921  25.311  1.00  0.00    -0.052 C 
ATOM      8  H   UNL A   1      34.953  23.018  24.762  1.00  0.00     0.027 H 
ATOM      9  H   UNL A   1      35.363  24.764  24.701  1.00  0.00     0.027 H 
BRANCH   7  10
ATOM     10  C   UNL A   1      36.326  23.702  26.228  1.00  0.00    -0.036 C 
ATOM     11  H   UNL A   1      36.353  24.501  26.939  1.00  0.00     0.028 H 
ATOM     12  H   UNL A   1      36.191  22.739  26.675  1.00  0.00     0.028 H 
BRANCH  10  13
ATOM     13  C   UNL A   1      37.678  23.657  25.514  1.00  0.00     0.018 C 
ATOM     14  H   UNL A   1      37.532  23.962  24.499  1.00  0.00     0.049 H 
ATOM     15  H   UNL A   1      38.333  24.310  26.053  1.00  0.00     0.049 H 
BRANCH  13  16
ATOM     16  N   UNL A   1      38.300  22.351  25.512  1.00  0.00    -0.352 N 
ATOM     17  O   UNL A   1      39.523  20.584  26.009  1.00  0.00    -0.269 OA
ATOM     18  C   UNL A   1      39.400  21.809  26.110  1.00  0.00     0.251 C 
ATOM     19  H   UNL A   1      37.819  21.705  24.946  1.00  0.00     0.163 HD
BRANCH  18  20
ATOM     20  C   UNL A   1      40.479  22.577  26.787  1.00  0.00     0.039 A 
ATOM     21  C   UNL A   1      40.316  23.751  27.525  1.00  0.00    -0.049 A 
ATOM     22  C   UNL A   1      41.784  22.087  26.585  1.00  0.00    -0.049 A 
ATOM     23  C   UNL A   1      41.426  24.476  27.947  1.00  0.00    -0.053 A 
ATOM     24  H   UNL A   1      39.367  24.082  27.758  1.00  0.00     0.063 H 
ATOM     25  C   UNL A   1      42.897  22.799  27.011  1.00  0.00    -0.053 A 
ATOM     26  H   UNL A   1      41.916  21.181  26.110  1.00  0.00     0.063 H 
ATOM     27  C   UNL A   1      42.713  24.020  27.648  1.00  0.00    -0.014 A 
ATOM     28  H   UNL A   1      41.300  25.350  28.481  1.00  0.00     0.063 H 
ATOM     29  H   UNL A   1      43.846  22.427  26.857  1.00  0.00     0.063 H 
BRANCH  27  30
ATOM     30  C   UNL A   1      43.854  24.781  28.144  1.00  0.00     0.031 A 
ATOM     31  C   UNL A   1      44.062  24.681  29.617  1.00  0.00     0.074 A 
ATOM     32  C   UNL A   1      44.735  25.399  27.329  1.00  0.00     0.049 A 
ATOM     33  N   UNL A   1      44.071  25.633  30.492  1.00  0.00    -0.248 NA
ATOM     34  C   UNL A   1      44.155  23.332  30.203  1.00  0.00    -0.034 C 
ATOM     35  C   UNL A   1      44.809  25.334  25.867  1.00  0.00    -0.036 A 
ATOM     36  N   UNL A   1      45.827  26.149  27.652  1.00  0.00    -0.354 N 
ATOM     37  C   UNL A   1      44.345  25.027  31.719  1.00  0.00     0.074 A 
ATOM     38  C   UNL A   1      44.237  23.609  31.505  1.00  0.00    -0.034 C 
ATOM     39  H   UNL A   1      44.158  22.415  29.731  1.00  0.00     0.065 H 
ATOM     40  C   UNL A   1      46.004  25.817  25.456  1.00  0.00    -0.036 A 
ATOM     41  H   UNL A   1      44.065  24.976  25.248  1.00  0.00     0.065 H 
ATOM     42  C   UNL A   1      46.722  26.341  26.605  1.00  0.00     0.049 A 
ATOM     43  H   UNL A   1      45.969  26.524  28.551  1.00  0.00     0.167 HD
ATOM     44  C   UNL A   1      44.868  25.740  32.756  1.00  0.00     0.037 A 
ATOM     45  H   UNL A   1      44.224  22.902  32.257  1.00  0.00     0.065 H 
ATOM     46  H   UNL A   1      46.350  25.814  24.484  1.00  0.00     0.065 H 
ATOM     47  C   UNL A   1      47.984  26.834  26.697  1.00  0.00     0.037 A 
ATOM     48  C   UNL A   1      44.626  27.150  32.587  1.00  0.00     0.049 A 
ATOM     49  C   UNL A   1      48.091  27.555  27.989  1.00  0.00     0.074 A 
ATOM     50  C   UNL A   1      43.500  27.944  32.496  1.00  0.00    -0.036 A 
ATOM     51  N   UNL A   1      45.661  27.933  32.143  1.00  0.00    -0.354 N 
ATOM     52  N   UNL A   1      47.466  28.667  28.254  1.00  0.00    -0.248 NA
ATOM     53  C   UNL A   1      48.533  26.793  29.147  1.00  0.00    -0.034 C 
ATOM     54  C   UNL A   1      43.838  28.956  31.548  1.00  0.00    -0.036 A 
ATOM     55  H   UNL A   1      42.608  27.831  33.004  1.00  0.00     0.065 H 
ATOM     56  C   UNL A   1      45.162  28.752  31.167  1.00  0.00     0.049 A 
ATOM     57  H   UNL A   1      46.591  27.911  32.467  1.00  0.00     0.167 HD
ATOM     58  C   UNL A   1      47.049  28.528  29.568  1.00  0.00     0.074 A 
ATOM     59  C   UNL A   1      47.801  27.390  30.091  1.00  0.00    -0.034 C 
ATOM     60  H   UNL A   1      49.213  26.019  29.219  1.00  0.00     0.065 H 
ATOM     61  H   UNL A   1      43.213  29.704  31.208  1.00  0.00     0.065 H 
ATOM     62  C   UNL A   1      45.927  29.163  30.017  1.00  0.00     0.037 A 
ATOM     63  H   UNL A   1      47.770  27.082  31.075  1.00  0.00     0.065 H 
BRANCH  44  64
ATOM     64  C   UNL A   1      45.950  25.222  33.685  1.00  0.00     0.064 A 
ATOM     65  C   UNL A   1      45.675  25.159  35.069  1.00  0.00     0.173 A 
ATOM     66  C   UNL A   1      47.314  25.123  33.339  1.00  0.00     0.173 A 
ATOM     67  F   UNL A   1      44.413  25.224  35.521  1.00  0.00    -0.203 F 
ATOM     68  C   UNL A   1      46.693  25.146  36.026  1.00  0.00     0.198 A 
ATOM     69  C   UNL A   1      48.325  25.061  34.297  1.00  0.00     0.198 A 
ATOM     70  F   UNL A   1      47.743  25.193  32.074  1.00  0.00    -0.203 F 
ATOM     71  F   UNL A   1      46.384  25.248  37.326  1.00  0.00    -0.200 F 
ATOM     72  C   UNL A   1      48.018  25.117  35.639  1.00  0.00     0.200 A 
ATOM     73  F   UNL A   1      49.605  25.038  33.900  1.00  0.00    -0.200 F 
ATOM     74  F   UNL A   1      48.997  25.190  36.549  1.00  0.00    -0.200 F 
ENDBRANCH  44  64
BRANCH  47  75
ATOM     75  C   UNL A   1      49.187  26.436  25.922  1.00  0.00     0.064 A 
ATOM     76  C   UNL A   1      49.536  27.089  24.727  1.00  0.00     0.173 A 
ATOM     77  C   UNL A   1      50.172  25.603  26.487  1.00  0.00     0.173 A 
ATOM     78  F   UNL A   1      48.678  27.944  24.150  1.00  0.00    -0.203 F 
ATOM     79  C   UNL A   1      50.801  26.933  24.146  1.00  0.00     0.198 A 
ATOM     80  C   UNL A   1      51.429  25.444  25.904  1.00  0.00     0.198 A 
ATOM     81  F   UNL A   1      49.969  25.005  27.669  1.00  0.00    -0.203 F 
ATOM     82  F   UNL A   1      51.120  27.621  23.040  1.00  0.00    -0.200 F 
ATOM     83  C   UNL A   1      51.750  26.119  24.741  1.00  0.00     0.200 A 
ATOM     84  F   UNL A   1      52.352  24.685  26.512  1.00  0.00    -0.200 F 
ATOM     85  F   UNL A   1      52.981  26.017  24.221  1.00  0.00    -0.200 F 
ENDBRANCH  47  75
BRANCH  62  86
ATOM     86  C   UNL A   1      45.314  30.210  29.132  1.00  0.00     0.064 A 
ATOM     87  C   UNL A   1      45.758  31.542  29.068  1.00  0.00     0.173 A 
ATOM     88  C   UNL A   1      44.335  29.809  28.215  1.00  0.00     0.173 A 
ATOM     89  F   UNL A   1      46.762  31.974  29.841  1.00  0.00    -0.203 F 
ATOM     90  C   UNL A   1      45.211  32.441  28.155  1.00  0.00     0.198 A 
ATOM     91  C   UNL A   1      43.818  30.699  27.278  1.00  0.00     0.198 A 
ATOM     92  F   UNL A   1      43.916  28.535  28.192  1.00  0.00    -0.203 F 
ATOM     93  F   UNL A   1      45.645  33.710  28.117  1.00  0.00    -0.200 F 
ATOM     94  C   UNL A   1      44.248  32.016  27.256  1.00  0.00     0.200 A 
ATOM     95  F   UNL A   1      42.925  30.270  26.376  1.00  0.00    -0.200 F 
ATOM     96  F   UNL A   1      43.753  32.868  26.346  1.00  0.00    -0.200 F 
ENDBRANCH  62  86
ENDBRANCH  27  30
ENDBRANCH  18  20
ENDBRANCH  13  16
ENDBRANCH  10  13
ENDBRANCH   7  10
ENDBRANCH   4   7
ENDBRANCH   1   4
BRANCH   1  97
ATOM     97  C   UNL A   1      31.265  23.919  26.229  1.00  0.00     0.018 C 
ATOM     98  H   UNL A   1      31.497  24.569  27.046  1.00  0.00     0.049 H 
ATOM     99  H   UNL A   1      30.809  23.012  26.566  1.00  0.00     0.049 H 
BRANCH  97 100
ATOM    100  N   UNL A   1      30.320  24.591  25.351  1.00  0.00    -0.352 N 
ATOM    101  C   UNL A   1      30.193  25.930  25.084  1.00  0.00     0.251 C 
ATOM    102  H   UNL A   1      29.683  24.004  24.884  1.00  0.00     0.163 HD
ATOM    103  O   UNL A   1      29.247  26.349  24.413  1.00  0.00    -0.269 OA
BRANCH 101 104
ATOM    104  C   UNL A   1      31.178  26.879  25.633  1.00  0.00     0.039 A 
ATOM    105  C   UNL A   1      32.207  27.337  24.800  1.00  0.00    -0.047 A 
ATOM    106  C   UNL A   1      31.079  27.320  26.957  1.00  0.00    -0.047 A 
ATOM    107  C   UNL A   1      33.085  28.322  25.254  1.00  0.00    -0.036 A 
ATOM    108  H   UNL A   1      32.316  26.946  23.852  1.00  0.00     0.063 H 
ATOM    109  C   UNL A   1      31.978  28.272  27.428  1.00  0.00    -0.036 A 
ATOM    110  H   UNL A   1      30.346  26.944  27.578  1.00  0.00     0.063 H 
ATOM    111  C   UNL A   1      32.962  28.785  26.564  1.00  0.00     0.066 A 
ATOM    112  H   UNL A   1      33.814  28.702  24.630  1.00  0.00     0.065 H 
ATOM    113  H   UNL A   1      31.923  28.600  28.406  1.00  0.00     0.065 H 
BRANCH 111 114
ATOM    114  N   UNL A   1      33.924  29.676  27.071  1.00  0.00    -0.220 N 
ATOM    115  C   UNL A   1      33.663  30.949  27.481  1.00  0.00     0.055 A 
ATOM    116  N   UNL A   1      35.238  29.416  27.197  1.00  0.00    -0.062 NA
ATOM    117  C   UNL A   1      34.866  31.491  27.847  1.00  0.00     0.093 A 
ATOM    118  H   UNL A   1      32.742  31.412  27.510  1.00  0.00     0.086 H 
ATOM    119  N   UNL A   1      35.833  30.540  27.605  1.00  0.00    -0.134 NA
BRANCH 117 120
ATOM    120  C   UNL A   1      35.208  32.902  28.151  1.00  0.00     0.047 C 
ATOM    121  H   UNL A   1      34.327  33.323  28.590  1.00  0.00     0.045 H 
ATOM    122  H   UNL A   1      35.565  33.228  27.197  1.00  0.00     0.045 H 
BRANCH 120 123
ATOM    123  S   UNL A   1      36.564  33.418  29.206  1.00  0.00    -0.081 SA
BRANCH 123 124
ATOM    124  C   UNL A   1      37.381  32.117  30.029  1.00  0.00     0.176 A 
ATOM    125  N   UNL A   1      38.447  31.720  29.393  1.00  0.00    -0.223 NA
ATOM    126  N   UNL A   1      36.998  31.524  31.219  1.00  0.00    -0.255 N 
ATOM    127  C   UNL A   1      39.122  30.588  29.870  1.00  0.00     0.079 A 
ATOM    128  C   UNL A   1      37.180  30.136  31.230  1.00  0.00     0.266 A 
ATOM    129  C   UNL A   1      40.434  30.302  29.494  1.00  0.00    -0.035 A 
ATOM    130  C   UNL A   1      38.443  29.665  30.653  1.00  0.00     0.066 A 
ATOM    131  O   UNL A   1      36.384  29.307  31.665  1.00  0.00    -0.268 OA
ATOM    132  C   UNL A   1      41.016  29.076  29.846  1.00  0.00    -0.060 A 
ATOM    133  H   UNL A   1      40.977  30.994  28.954  1.00  0.00     0.065 H 
ATOM    134  C   UNL A   1      38.981  28.412  30.958  1.00  0.00    -0.047 A 
ATOM    135  C   UNL A   1      40.276  28.116  30.542  1.00  0.00    -0.061 A 
ATOM    136  H   UNL A   1      41.997  28.881  29.590  1.00  0.00     0.062 H 
ATOM    137  H   UNL A   1      38.426  27.717  31.483  1.00  0.00     0.063 H 
ATOM    138  H   UNL A   1      40.688  27.193  30.747  1.00  0.00     0.062 H 
BRANCH 126 139
ATOM    139  C   UNL A   1      36.405  32.146  32.384  1.00  0.00     0.051 A 
ATOM    140  C   UNL A   1      35.042  32.515  32.356  1.00  0.00    -0.038 A 
ATOM    141  C   UNL A   1      37.101  32.470  33.552  1.00  0.00    -0.038 A 
ATOM    142  C   UNL A   1      34.487  33.377  33.303  1.00  0.00    -0.060 A 
ATOM    143  H   UNL A   1      34.437  32.135  31.610  1.00  0.00     0.064 H 
ATOM    144  C   UNL A   1      36.575  33.391  34.471  1.00  0.00    -0.060 A 
ATOM    145  H   UNL A   1      38.014  32.026  33.741  1.00  0.00     0.064 H 
ATOM    146  C   UNL A   1      35.280  33.874  34.324  1.00  0.00    -0.062 A 
ATOM    147  H   UNL A   1      33.492  33.644  33.242  1.00  0.00     0.062 H 
ATOM    148  H   UNL A   1      37.154  33.712  35.262  1.00  0.00     0.062 H 
ATOM    149  H   UNL A   1      34.914  34.594  34.967  1.00  0.00     0.062 H 
ENDBRANCH 126 139
ENDBRANCH 123 124
ENDBRANCH 120 123
ENDBRANCH 117 120
ENDBRANCH 111 114
ENDBRANCH 101 104
ENDBRANCH  97 100
ENDBRANCH   1  97
TORSDOF 18
ENDMDL
MODEL 8
REMARK VINA RESULT:     -10.8      5.072     13.271
REMARK SMILES O=C(NCCCCCCNC(=O)c1ccc(-n2cc(CSc3nc4ccccc4c(=O)n3-c3ccccc3)nn2)cc1)c1ccc(-c2c3nc(c(-c4c(F)c(F)c(F)c(F)c4F)c4ccc([nH]4)c(-c4c(F)c(F)c(F)c(F)c4F)c4nc(c(-c5c(F)c(F)c(F)c(F)c5F)c5ccc2[nH]5)C=C4)C=C3)cc1
REMARK SMILES IDX 8 1 7 4 6 7 5 10 4 13 3 16 1 17 2 18 43 20 44 21 105 22
REMARK SMILES IDX 45 23 104 25 46 27 47 30 48 31 98 32 49 33 103 34 97 35
REMARK SMILES IDX 99 36 50 37 102 38 96 40 95 42 51 44 83 47 63 48 82 49 64 50
REMARK SMILES IDX 67 51 81 52 100 53 65 54 66 56 80 58 101 59 68 62 52 64
REMARK SMILES IDX 53 65 61 66 54 67 55 68 59 69 62 70 56 71 57 72 60 73 58 74
REMARK SMILES IDX 84 75 85 76 93 77 86 78 87 79 91 80 94 81 88 82 89 83 92 84
REMARK SMILES IDX 90 85 69 86 70 87 78 88 71 89 72 90 76 91 79 92 73 93 74 94
REMARK SMILES IDX 77 95 75 96 9 97 10 100 11 101 12 103 13 104 14 105 42 106
REMARK SMILES IDX 15 107 41 109 16 111 17 114 18 115 40 116 19 117 39 119
REMARK SMILES IDX 20 120 21 123 22 124 23 125 32 126 24 127 30 128 25 129
REMARK SMILES IDX 29 130 31 131 26 132 28 134 27 135 33 139 34 140 38 141
REMARK SMILES IDX 35 142 37 144 36 146
REMARK H PARENT 8 2 8 3 7 5 7 6 6 8 6 9 5 11 5 12 4 14 4 15 3 19 44 24 105 26
REMARK H PARENT 45 28 104 29 103 39 97 41 99 43 102 45 96 46 64 55 67 57
REMARK H PARENT 100 60 65 61 101 63 9 98 9 99 10 102 14 108 42 110 15 112
REMARK H PARENT 41 113 18 118 20 121 20 122 25 133 26 136 28 137 27 138 34 143
REMARK H PARENT 38 145 35 147 37 148 36 149
REMARK Flexibility Score: inf
ROOT
ATOM      1  C   UNL A   1      48.070  25.168  26.106  1.00  0.00    -0.036 C 
ATOM      2  H   UNL A   1      47.804  26.017  25.512  1.00  0.00     0.028 H 
ATOM      3  H   UNL A   1      48.635  24.436  25.567  1.00  0.00     0.028 H 
ENDROOT
BRANCH   1   4
ATOM      4  C   UNL A   1      46.779  24.474  26.547  1.00  0.00    -0.052 C 
ATOM      5  H   UNL A   1      47.034  23.495  26.897  1.00  0.00     0.027 H 
ATOM      6  H   UNL A   1      46.349  25.102  27.298  1.00  0.00     0.027 H 
BRANCH   4   7
ATOM      7  C   UNL A   1      45.708  24.322  25.462  1.00  0.00    -0.052 C 
ATOM      8  H   UNL A   1      44.811  24.781  25.820  1.00  0.00     0.027 H 
ATOM      9  H   UNL A   1      46.114  24.783  24.587  1.00  0.00     0.027 H 
BRANCH   7  10
ATOM     10  C   UNL A   1      45.369  22.883  25.055  1.00  0.00    -0.036 C 
ATOM     11  H   UNL A   1      46.185  22.500  24.478  1.00  0.00     0.028 H 
ATOM     12  H   UNL A   1      45.204  22.346  25.966  1.00  0.00     0.028 H 
BRANCH  10  13
ATOM     13  C   UNL A   1      44.091  22.728  24.230  1.00  0.00     0.018 C 
ATOM     14  H   UNL A   1      43.791  23.697  23.890  1.00  0.00     0.049 H 
ATOM     15  H   UNL A   1      44.322  22.061  23.425  1.00  0.00     0.049 H 
BRANCH  13  16
ATOM     16  N   UNL A   1      42.987  22.139  24.956  1.00  0.00    -0.352 N 
ATOM     17  O   UNL A   1      41.151  21.831  26.139  1.00  0.00    -0.269 OA
ATOM     18  C   UNL A   1      42.077  22.599  25.863  1.00  0.00     0.251 C 
ATOM     19  H   UNL A   1      42.864  21.185  24.747  1.00  0.00     0.163 HD
BRANCH  18  20
ATOM     20  C   UNL A   1      42.164  23.895  26.588  1.00  0.00     0.039 A 
ATOM     21  C   UNL A   1      42.795  24.113  27.813  1.00  0.00    -0.049 A 
ATOM     22  C   UNL A   1      41.473  24.967  25.989  1.00  0.00    -0.049 A 
ATOM     23  C   UNL A   1      42.643  25.327  28.477  1.00  0.00    -0.053 A 
ATOM     24  H   UNL A   1      43.378  23.370  28.229  1.00  0.00     0.063 H 
ATOM     25  C   UNL A   1      41.324  26.183  26.640  1.00  0.00    -0.053 A 
ATOM     26  H   UNL A   1      41.068  24.845  25.048  1.00  0.00     0.063 H 
ATOM     27  C   UNL A   1      41.869  26.342  27.908  1.00  0.00    -0.014 A 
ATOM     28  H   UNL A   1      43.102  25.478  29.390  1.00  0.00     0.063 H 
ATOM     29  H   UNL A   1      40.816  26.959  26.189  1.00  0.00     0.063 H 
BRANCH  27  30
ATOM     30  C   UNL A   1      41.767  27.617  28.610  1.00  0.00     0.031 A 
ATOM     31  C   UNL A   1      42.883  28.563  28.323  1.00  0.00     0.074 A 
ATOM     32  C   UNL A   1      40.686  27.970  29.335  1.00  0.00     0.049 A 
ATOM     33  N   UNL A   1      43.722  29.089  29.155  1.00  0.00    -0.248 NA
ATOM     34  C   UNL A   1      43.172  28.870  26.912  1.00  0.00    -0.034 C 
ATOM     35  C   UNL A   1      39.411  27.259  29.460  1.00  0.00    -0.036 A 
ATOM     36  N   UNL A   1      40.463  29.111  30.049  1.00  0.00    -0.354 N 
ATOM     37  C   UNL A   1      44.538  29.931  28.399  1.00  0.00     0.074 A 
ATOM     38  C   UNL A   1      44.254  29.642  27.019  1.00  0.00    -0.034 C 
ATOM     39  H   UNL A   1      42.669  28.568  26.062  1.00  0.00     0.065 H 
ATOM     40  C   UNL A   1      38.487  28.084  30.003  1.00  0.00    -0.036 A 
ATOM     41  H   UNL A   1      39.245  26.280  29.177  1.00  0.00     0.065 H 
ATOM     42  C   UNL A   1      39.131  29.330  30.382  1.00  0.00     0.049 A 
ATOM     43  H   UNL A   1      41.186  29.728  30.306  1.00  0.00     0.167 HD
ATOM     44  C   UNL A   1      45.213  30.964  28.977  1.00  0.00     0.037 A 
ATOM     45  H   UNL A   1      44.812  29.984  26.222  1.00  0.00     0.065 H 
ATOM     46  H   UNL A   1      37.487  27.865  30.128  1.00  0.00     0.065 H 
ATOM     47  C   UNL A   1      38.595  30.478  30.871  1.00  0.00     0.037 A 
ATOM     48  C   UNL A   1      45.360  30.755  30.395  1.00  0.00     0.049 A 
ATOM     49  C   UNL A   1      39.706  31.294  31.421  1.00  0.00     0.074 A 
ATOM     50  C   UNL A   1      45.971  29.800  31.184  1.00  0.00    -0.036 A 
ATOM     51  N   UNL A   1      44.527  31.446  31.239  1.00  0.00    -0.354 N 
ATOM     52  N   UNL A   1      40.386  30.970  32.483  1.00  0.00    -0.248 NA
ATOM     53  C   UNL A   1      40.357  32.232  30.520  1.00  0.00    -0.034 C 
ATOM     54  C   UNL A   1      45.111  29.648  32.313  1.00  0.00    -0.036 A 
ATOM     55  H   UNL A   1      46.858  29.305  30.998  1.00  0.00     0.065 H 
ATOM     56  C   UNL A   1      44.065  30.558  32.172  1.00  0.00     0.049 A 
ATOM     57  H   UNL A   1      44.303  32.404  31.184  1.00  0.00     0.167 HD
ATOM     58  C   UNL A   1      41.695  31.300  32.173  1.00  0.00     0.074 A 
ATOM     59  C   UNL A   1      41.606  32.145  30.984  1.00  0.00    -0.034 C 
ATOM     60  H   UNL A   1      39.968  32.800  29.750  1.00  0.00     0.065 H 
ATOM     61  H   UNL A   1      45.241  28.984  33.092  1.00  0.00     0.065 H 
ATOM     62  C   UNL A   1      42.739  30.625  32.734  1.00  0.00     0.037 A 
ATOM     63  H   UNL A   1      42.414  32.619  30.552  1.00  0.00     0.065 H 
BRANCH  44  64
ATOM     64  C   UNL A   1      45.361  32.340  28.354  1.00  0.00     0.064 A 
ATOM     65  C   UNL A   1      44.191  33.061  28.030  1.00  0.00     0.173 A 
ATOM     66  C   UNL A   1      46.547  32.818  27.756  1.00  0.00     0.173 A 
ATOM     67  F   UNL A   1      43.004  32.713  28.552  1.00  0.00    -0.203 F 
ATOM     68  C   UNL A   1      44.191  34.080  27.074  1.00  0.00     0.198 A 
ATOM     69  C   UNL A   1      46.549  33.867  26.839  1.00  0.00     0.198 A 
ATOM     70  F   UNL A   1      47.734  32.229  27.939  1.00  0.00    -0.203 F 
ATOM     71  F   UNL A   1      43.031  34.625  26.684  1.00  0.00    -0.200 F 
ATOM     72  C   UNL A   1      45.368  34.469  26.465  1.00  0.00     0.200 A 
ATOM     73  F   UNL A   1      47.701  34.226  26.255  1.00  0.00    -0.200 F 
ATOM     74  F   UNL A   1      45.360  35.385  25.488  1.00  0.00    -0.200 F 
ENDBRANCH  44  64
BRANCH  47  75
ATOM     75  C   UNL A   1      37.260  31.065  30.587  1.00  0.00     0.064 A 
ATOM     76  C   UNL A   1      36.367  31.384  31.623  1.00  0.00     0.173 A 
ATOM     77  C   UNL A   1      36.953  31.589  29.316  1.00  0.00     0.173 A 
ATOM     78  F   UNL A   1      36.611  30.973  32.876  1.00  0.00    -0.203 F 
ATOM     79  C   UNL A   1      35.245  32.196  31.404  1.00  0.00     0.198 A 
ATOM     80  C   UNL A   1      35.833  32.392  29.098  1.00  0.00     0.198 A 
ATOM     81  F   UNL A   1      37.787  31.414  28.282  1.00  0.00    -0.203 F 
ATOM     82  F   UNL A   1      34.450  32.531  32.430  1.00  0.00    -0.200 F 
ATOM     83  C   UNL A   1      34.986  32.707  30.143  1.00  0.00     0.200 A 
ATOM     84  F   UNL A   1      35.617  32.913  27.882  1.00  0.00    -0.200 F 
ATOM     85  F   UNL A   1      33.950  33.534  29.945  1.00  0.00    -0.200 F 
ENDBRANCH  47  75
BRANCH  62  86
ATOM     86  C   UNL A   1      42.441  29.702  33.880  1.00  0.00     0.064 A 
ATOM     87  C   UNL A   1      41.999  28.377  33.727  1.00  0.00     0.173 A 
ATOM     88  C   UNL A   1      42.752  30.135  35.175  1.00  0.00     0.173 A 
ATOM     89  F   UNL A   1      41.779  27.857  32.513  1.00  0.00    -0.203 F 
ATOM     90  C   UNL A   1      41.833  27.540  34.829  1.00  0.00     0.198 A 
ATOM     91  C   UNL A   1      42.622  29.285  36.270  1.00  0.00     0.198 A 
ATOM     92  F   UNL A   1      43.234  31.371  35.373  1.00  0.00    -0.203 F 
ATOM     93  F   UNL A   1      41.402  26.281  34.660  1.00  0.00    -0.200 F 
ATOM     94  C   UNL A   1      42.153  27.993  36.098  1.00  0.00     0.200 A 
ATOM     95  F   UNL A   1      42.984  29.710  37.487  1.00  0.00    -0.200 F 
ATOM     96  F   UNL A   1      42.038  27.174  37.154  1.00  0.00    -0.200 F 
ENDBRANCH  62  86
ENDBRANCH  27  30
ENDBRANCH  18  20
ENDBRANCH  13  16
ENDBRANCH  10  13
ENDBRANCH   7  10
ENDBRANCH   4   7
ENDBRANCH   1   4
BRANCH   1  97
ATOM     97  C   UNL A   1      48.963  25.646  27.247  1.00  0.00     0.018 C 
ATOM     98  H   UNL A   1      49.975  25.377  27.026  1.00  0.00     0.049 H 
ATOM     99  H   UNL A   1      48.620  25.179  28.146  1.00  0.00     0.049 H 
BRANCH  97 100
ATOM    100  N   UNL A   1      48.894  27.085  27.439  1.00  0.00    -0.352 N 
ATOM    101  C   UNL A   1      48.213  27.796  28.393  1.00  0.00     0.251 C 
ATOM    102  H   UNL A   1      49.406  27.625  26.795  1.00  0.00     0.163 HD
ATOM    103  O   UNL A   1      48.152  29.026  28.335  1.00  0.00    -0.269 OA
BRANCH 101 104
ATOM    104  C   UNL A   1      47.521  27.080  29.479  1.00  0.00     0.039 A 
ATOM    105  C   UNL A   1      48.229  26.786  30.650  1.00  0.00    -0.047 A 
ATOM    106  C   UNL A   1      46.177  26.712  29.344  1.00  0.00    -0.047 A 
ATOM    107  C   UNL A   1      47.571  26.213  31.739  1.00  0.00    -0.036 A 
ATOM    108  H   UNL A   1      49.239  26.992  30.708  1.00  0.00     0.063 H 
ATOM    109  C   UNL A   1      45.526  26.102  30.413  1.00  0.00    -0.036 A 
ATOM    110  H   UNL A   1      45.674  26.891  28.462  1.00  0.00     0.063 H 
ATOM    111  C   UNL A   1      46.223  25.878  31.614  1.00  0.00     0.066 A 
ATOM    112  H   UNL A   1      48.074  26.040  32.623  1.00  0.00     0.065 H 
ATOM    113  H   UNL A   1      44.538  25.817  30.324  1.00  0.00     0.065 H 
BRANCH 111 114
ATOM    114  N   UNL A   1      45.589  25.180  32.655  1.00  0.00    -0.220 N 
ATOM    115  C   UNL A   1      46.228  24.647  33.735  1.00  0.00     0.055 A 
ATOM    116  N   UNL A   1      44.273  24.909  32.725  1.00  0.00    -0.062 NA
ATOM    117  C   UNL A   1      45.269  24.009  34.475  1.00  0.00     0.093 A 
ATOM    118  H   UNL A   1      47.234  24.711  33.950  1.00  0.00     0.086 H 
ATOM    119  N   UNL A   1      44.077  24.136  33.797  1.00  0.00    -0.134 NA
BRANCH 117 120
ATOM    120  C   UNL A   1      45.430  23.076  35.617  1.00  0.00     0.047 C 
ATOM    121  H   UNL A   1      44.646  23.322  36.303  1.00  0.00     0.045 H 
ATOM    122  H   UNL A   1      46.457  23.241  35.863  1.00  0.00     0.045 H 
BRANCH 120 123
ATOM    123  S   UNL A   1      45.406  21.287  35.482  1.00  0.00    -0.081 SA
BRANCH 123 124
ATOM    124  C   UNL A   1      46.518  20.463  36.540  1.00  0.00     0.176 A 
ATOM    125  N   UNL A   1      45.910  19.667  37.376  1.00  0.00    -0.223 NA
ATOM    126  N   UNL A   1      47.896  20.590  36.551  1.00  0.00    -0.255 N 
ATOM    127  C   UNL A   1      46.672  19.048  38.377  1.00  0.00     0.079 A 
ATOM    128  C   UNL A   1      48.442  20.600  37.840  1.00  0.00     0.266 A 
ATOM    129  C   UNL A   1      46.204  17.935  39.073  1.00  0.00    -0.035 A 
ATOM    130  C   UNL A   1      47.879  19.611  38.766  1.00  0.00     0.066 A 
ATOM    131  O   UNL A   1      49.322  21.355  38.247  1.00  0.00    -0.268 OA
ATOM    132  C   UNL A   1      46.910  17.451  40.183  1.00  0.00    -0.060 A 
ATOM    133  H   UNL A   1      45.335  17.468  38.772  1.00  0.00     0.065 H 
ATOM    134  C   UNL A   1      48.563  19.185  39.908  1.00  0.00    -0.047 A 
ATOM    135  C   UNL A   1      48.067  18.100  40.624  1.00  0.00    -0.061 A 
ATOM    136  H   UNL A   1      46.574  16.609  40.677  1.00  0.00     0.062 H 
ATOM    137  H   UNL A   1      49.423  19.668  40.214  1.00  0.00     0.063 H 
ATOM    138  H   UNL A   1      48.549  17.776  41.476  1.00  0.00     0.062 H 
BRANCH 126 139
ATOM    139  C   UNL A   1      48.792  20.762  35.428  1.00  0.00     0.051 A 
ATOM    140  C   UNL A   1      49.742  19.759  35.137  1.00  0.00    -0.038 A 
ATOM    141  C   UNL A   1      48.833  21.896  34.610  1.00  0.00    -0.038 A 
ATOM    142  C   UNL A   1      50.821  19.983  34.280  1.00  0.00    -0.060 A 
ATOM    143  H   UNL A   1      49.637  18.829  35.575  1.00  0.00     0.064 H 
ATOM    144  C   UNL A   1      49.948  22.159  33.801  1.00  0.00    -0.060 A 
ATOM    145  H   UNL A   1      48.033  22.548  34.603  1.00  0.00     0.064 H 
ATOM    146  C   UNL A   1      50.961  21.217  33.665  1.00  0.00    -0.062 A 
ATOM    147  H   UNL A   1      51.510  19.235  34.105  1.00  0.00     0.062 H 
ATOM    148  H   UNL A   1      50.017  23.059  33.300  1.00  0.00     0.062 H 
ATOM    149  H   UNL A   1      51.808  21.433  33.116  1.00  0.00     0.062 H 
ENDBRANCH 126 139
ENDBRANCH 123 124
ENDBRANCH 120 123
ENDBRANCH 117 120
ENDBRANCH 111 114
ENDBRANCH 101 104
ENDBRANCH  97 100
ENDBRANCH   1  97
TORSDOF 18
ENDMDL
MODEL 9
REMARK VINA RESULT:     -10.8      1.657      2.657
REMARK SMILES O=C(NCCCCCCNC(=O)c1ccc(-n2cc(CSc3nc4ccccc4c(=O)n3-c3ccccc3)nn2)cc1)c1ccc(-c2c3nc(c(-c4c(F)c(F)c(F)c(F)c4F)c4ccc([nH]4)c(-c4c(F)c(F)c(F)c(F)c4F)c4nc(c(-c5c(F)c(F)c(F)c(F)c5F)c5ccc2[nH]5)C=C4)C=C3)cc1
REMARK SMILES IDX 8 1 7 4 6 7 5 10 4 13 3 16 1 17 2 18 43 20 44 21 105 22
REMARK SMILES IDX 45 23 104 25 46 27 47 30 48 31 98 32 49 33 103 34 97 35
REMARK SMILES IDX 99 36 50 37 102 38 96 40 95 42 51 44 83 47 63 48 82 49 64 50
REMARK SMILES IDX 67 51 81 52 100 53 65 54 66 56 80 58 101 59 68 62 52 64
REMARK SMILES IDX 53 65 61 66 54 67 55 68 59 69 62 70 56 71 57 72 60 73 58 74
REMARK SMILES IDX 84 75 85 76 93 77 86 78 87 79 91 80 94 81 88 82 89 83 92 84
REMARK SMILES IDX 90 85 69 86 70 87 78 88 71 89 72 90 76 91 79 92 73 93 74 94
REMARK SMILES IDX 77 95 75 96 9 97 10 100 11 101 12 103 13 104 14 105 42 106
REMARK SMILES IDX 15 107 41 109 16 111 17 114 18 115 40 116 19 117 39 119
REMARK SMILES IDX 20 120 21 123 22 124 23 125 32 126 24 127 30 128 25 129
REMARK SMILES IDX 29 130 31 131 26 132 28 134 27 135 33 139 34 140 38 141
REMARK SMILES IDX 35 142 37 144 36 146
REMARK H PARENT 8 2 8 3 7 5 7 6 6 8 6 9 5 11 5 12 4 14 4 15 3 19 44 24 105 26
REMARK H PARENT 45 28 104 29 103 39 97 41 99 43 102 45 96 46 64 55 67 57
REMARK H PARENT 100 60 65 61 101 63 9 98 9 99 10 102 14 108 42 110 15 112
REMARK H PARENT 41 113 18 118 20 121 20 122 25 133 26 136 28 137 27 138 34 143
REMARK H PARENT 38 145 35 147 37 148 36 149
REMARK Flexibility Score: inf
ROOT
ATOM      1  C   UNL A   1      36.579  33.477  36.401  1.00  0.00    -0.036 C 
ATOM      2  H   UNL A   1      36.124  32.509  36.408  1.00  0.00     0.028 H 
ATOM      3  H   UNL A   1      36.082  34.181  37.035  1.00  0.00     0.028 H 
ENDROOT
BRANCH   1   4
ATOM      4  C   UNL A   1      36.486  34.037  34.980  1.00  0.00    -0.052 C 
ATOM      5  H   UNL A   1      36.690  35.086  35.026  1.00  0.00     0.027 H 
ATOM      6  H   UNL A   1      37.194  33.485  34.399  1.00  0.00     0.027 H 
BRANCH   4   7
ATOM      7  C   UNL A   1      35.134  33.850  34.285  1.00  0.00    -0.052 C 
ATOM      8  H   UNL A   1      34.465  33.396  34.985  1.00  0.00     0.027 H 
ATOM      9  H   UNL A   1      34.834  34.826  33.966  1.00  0.00     0.027 H 
BRANCH   7  10
ATOM     10  C   UNL A   1      35.148  32.985  33.019  1.00  0.00    -0.036 C 
ATOM     11  H   UNL A   1      35.870  32.207  33.157  1.00  0.00     0.028 H 
ATOM     12  H   UNL A   1      34.150  32.620  32.896  1.00  0.00     0.028 H 
BRANCH  10  13
ATOM     13  C   UNL A   1      35.494  33.730  31.729  1.00  0.00     0.018 C 
ATOM     14  H   UNL A   1      35.228  34.759  31.854  1.00  0.00     0.049 H 
ATOM     15  H   UNL A   1      36.543  33.591  31.565  1.00  0.00     0.049 H 
BRANCH  13  16
ATOM     16  N   UNL A   1      34.817  33.224  30.556  1.00  0.00    -0.352 N 
ATOM     17  O   UNL A   1      34.094  31.944  28.911  1.00  0.00    -0.269 OA
ATOM     18  C   UNL A   1      34.997  32.156  29.726  1.00  0.00     0.251 C 
ATOM     19  H   UNL A   1      34.048  33.781  30.295  1.00  0.00     0.163 HD
BRANCH  18  20
ATOM     20  C   UNL A   1      36.211  31.298  29.679  1.00  0.00     0.039 A 
ATOM     21  C   UNL A   1      36.312  29.985  30.141  1.00  0.00    -0.049 A 
ATOM     22  C   UNL A   1      37.371  31.924  29.181  1.00  0.00    -0.049 A 
ATOM     23  C   UNL A   1      37.551  29.357  30.214  1.00  0.00    -0.053 A 
ATOM     24  H   UNL A   1      35.461  29.477  30.431  1.00  0.00     0.063 H 
ATOM     25  C   UNL A   1      38.610  31.302  29.242  1.00  0.00    -0.053 A 
ATOM     26  H   UNL A   1      37.298  32.865  28.765  1.00  0.00     0.063 H 
ATOM     27  C   UNL A   1      38.703  30.035  29.806  1.00  0.00    -0.014 A 
ATOM     28  H   UNL A   1      37.621  28.390  30.569  1.00  0.00     0.063 H 
ATOM     29  H   UNL A   1      39.450  31.772  28.872  1.00  0.00     0.063 H 
BRANCH  27  30
ATOM     30  C   UNL A   1      39.980  29.332  29.854  1.00  0.00     0.031 A 
ATOM     31  C   UNL A   1      40.554  29.202  31.223  1.00  0.00     0.074 A 
ATOM     32  C   UNL A   1      40.521  28.721  28.780  1.00  0.00     0.049 A 
ATOM     33  N   UNL A   1      41.692  29.635  31.660  1.00  0.00    -0.248 NA
ATOM     34  C   UNL A   1      39.700  28.615  32.270  1.00  0.00    -0.034 C 
ATOM     35  C   UNL A   1      39.925  28.529  27.455  1.00  0.00    -0.036 A 
ATOM     36  N   UNL A   1      41.703  28.047  28.677  1.00  0.00    -0.354 N 
ATOM     37  C   UNL A   1      41.777  29.225  32.991  1.00  0.00     0.074 A 
ATOM     38  C   UNL A   1      40.472  28.739  33.350  1.00  0.00    -0.034 C 
ATOM     39  H   UNL A   1      38.753  28.211  32.188  1.00  0.00     0.065 H 
ATOM     40  C   UNL A   1      40.637  27.604  26.772  1.00  0.00    -0.036 A 
ATOM     41  H   UNL A   1      39.091  29.023  27.099  1.00  0.00     0.065 H 
ATOM     42  C   UNL A   1      41.806  27.236  27.553  1.00  0.00     0.049 A 
ATOM     43  H   UNL A   1      42.422  28.129  29.344  1.00  0.00     0.167 HD
ATOM     44  C   UNL A   1      42.981  29.103  33.616  1.00  0.00     0.037 A 
ATOM     45  H   UNL A   1      40.173  28.518  34.313  1.00  0.00     0.065 H 
ATOM     46  H   UNL A   1      40.391  27.221  25.846  1.00  0.00     0.065 H 
ATOM     47  C   UNL A   1      42.750  26.288  27.320  1.00  0.00     0.037 A 
ATOM     48  C   UNL A   1      43.992  29.880  32.944  1.00  0.00     0.049 A 
ATOM     49  C   UNL A   1      43.897  26.567  28.218  1.00  0.00     0.074 A 
ATOM     50  C   UNL A   1      44.172  31.221  32.669  1.00  0.00    -0.036 A 
ATOM     51  N   UNL A   1      44.878  29.219  32.131  1.00  0.00    -0.354 N 
ATOM     52  N   UNL A   1      44.678  27.603  28.097  1.00  0.00    -0.248 NA
ATOM     53  C   UNL A   1      43.891  25.935  29.529  1.00  0.00    -0.034 C 
ATOM     54  C   UNL A   1      44.776  31.255  31.376  1.00  0.00    -0.036 A 
ATOM     55  H   UNL A   1      43.925  32.024  33.268  1.00  0.00     0.065 H 
ATOM     56  C   UNL A   1      44.980  29.937  30.971  1.00  0.00     0.049 A 
ATOM     57  H   UNL A   1      45.353  28.383  32.343  1.00  0.00     0.167 HD
ATOM     58  C   UNL A   1      44.912  28.016  29.398  1.00  0.00     0.074 A 
ATOM     59  C   UNL A   1      44.467  26.908  30.240  1.00  0.00    -0.034 C 
ATOM     60  H   UNL A   1      43.544  25.008  29.823  1.00  0.00     0.065 H 
ATOM     61  H   UNL A   1      45.018  32.103  30.840  1.00  0.00     0.065 H 
ATOM     62  C   UNL A   1      45.173  29.326  29.680  1.00  0.00     0.037 A 
ATOM     63  H   UNL A   1      44.585  26.879  31.264  1.00  0.00     0.065 H 
BRANCH  44  64
ATOM     64  C   UNL A   1      43.341  27.970  34.559  1.00  0.00     0.064 A 
ATOM     65  C   UNL A   1      43.824  28.293  35.846  1.00  0.00     0.173 A 
ATOM     66  C   UNL A   1      43.564  26.638  34.150  1.00  0.00     0.173 A 
ATOM     67  F   UNL A   1      43.656  29.525  36.352  1.00  0.00    -0.203 F 
ATOM     68  C   UNL A   1      44.592  27.397  36.595  1.00  0.00     0.198 A 
ATOM     69  C   UNL A   1      44.289  25.731  34.922  1.00  0.00     0.198 A 
ATOM     70  F   UNL A   1      43.194  26.181  32.949  1.00  0.00    -0.203 F 
ATOM     71  F   UNL A   1      45.161  27.804  37.737  1.00  0.00    -0.200 F 
ATOM     72  C   UNL A   1      44.840  26.123  36.123  1.00  0.00     0.200 A 
ATOM     73  F   UNL A   1      44.523  24.502  34.444  1.00  0.00    -0.200 F 
ATOM     74  F   UNL A   1      45.644  25.291  36.796  1.00  0.00    -0.200 F 
ENDBRANCH  44  64
BRANCH  47  75
ATOM     75  C   UNL A   1      42.590  24.977  26.640  1.00  0.00     0.064 A 
ATOM     76  C   UNL A   1      43.316  24.663  25.478  1.00  0.00     0.173 A 
ATOM     77  C   UNL A   1      41.941  23.903  27.278  1.00  0.00     0.173 A 
ATOM     78  F   UNL A   1      44.009  25.616  24.837  1.00  0.00    -0.203 F 
ATOM     79  C   UNL A   1      43.402  23.350  24.997  1.00  0.00     0.198 A 
ATOM     80  C   UNL A   1      42.023  22.596  26.795  1.00  0.00     0.198 A 
ATOM     81  F   UNL A   1      41.296  24.082  28.439  1.00  0.00    -0.203 F 
ATOM     82  F   UNL A   1      44.155  23.079  23.921  1.00  0.00    -0.200 F 
ATOM     83  C   UNL A   1      42.764  22.317  25.662  1.00  0.00     0.200 A 
ATOM     84  F   UNL A   1      41.434  21.600  27.471  1.00  0.00    -0.200 F 
ATOM     85  F   UNL A   1      42.897  21.052  25.239  1.00  0.00    -0.200 F 
ENDBRANCH  47  75
BRANCH  62  86
ATOM     86  C   UNL A   1      45.455  30.247  28.528  1.00  0.00     0.064 A 
ATOM     87  C   UNL A   1      44.462  30.933  27.809  1.00  0.00     0.173 A 
ATOM     88  C   UNL A   1      46.791  30.552  28.238  1.00  0.00     0.173 A 
ATOM     89  F   UNL A   1      43.165  30.773  28.098  1.00  0.00    -0.203 F 
ATOM     90  C   UNL A   1      44.795  31.850  26.814  1.00  0.00     0.198 A 
ATOM     91  C   UNL A   1      47.121  31.495  27.270  1.00  0.00     0.198 A 
ATOM     92  F   UNL A   1      47.780  29.970  28.934  1.00  0.00    -0.203 F 
ATOM     93  F   UNL A   1      43.829  32.487  26.135  1.00  0.00    -0.200 F 
ATOM     94  C   UNL A   1      46.124  32.135  26.551  1.00  0.00     0.200 A 
ATOM     95  F   UNL A   1      48.406  31.807  27.057  1.00  0.00    -0.200 F 
ATOM     96  F   UNL A   1      46.446  33.050  25.626  1.00  0.00    -0.200 F 
ENDBRANCH  62  86
ENDBRANCH  27  30
ENDBRANCH  18  20
ENDBRANCH  13  16
ENDBRANCH  10  13
ENDBRANCH   7  10
ENDBRANCH   4   7
ENDBRANCH   1   4
BRANCH   1  97
ATOM     97  C   UNL A   1      37.999  33.337  36.944  1.00  0.00     0.018 C 
ATOM     98  H   UNL A   1      38.036  33.770  37.922  1.00  0.00     0.049 H 
ATOM     99  H   UNL A   1      38.657  33.840  36.266  1.00  0.00     0.049 H 
BRANCH  97 100
ATOM    100  N   UNL A   1      38.425  31.950  37.031  1.00  0.00    -0.352 N 
ATOM    101  C   UNL A   1      39.063  31.183  36.091  1.00  0.00     0.251 C 
ATOM    102  H   UNL A   1      38.228  31.499  37.883  1.00  0.00     0.163 HD
ATOM    103  O   UNL A   1      39.237  29.977  36.277  1.00  0.00    -0.269 OA
BRANCH 101 104
ATOM    104  C   UNL A   1      39.516  31.802  34.832  1.00  0.00     0.039 A 
ATOM    105  C   UNL A   1      38.665  31.768  33.722  1.00  0.00    -0.047 A 
ATOM    106  C   UNL A   1      40.770  32.420  34.755  1.00  0.00    -0.047 A 
ATOM    107  C   UNL A   1      39.016  32.444  32.553  1.00  0.00    -0.036 A 
ATOM    108  H   UNL A   1      37.778  31.242  33.767  1.00  0.00     0.063 H 
ATOM    109  C   UNL A   1      41.142  33.061  33.577  1.00  0.00    -0.036 A 
ATOM    110  H   UNL A   1      41.410  32.402  35.563  1.00  0.00     0.063 H 
ATOM    111  C   UNL A   1      40.251  33.089  32.489  1.00  0.00     0.066 A 
ATOM    112  H   UNL A   1      38.371  32.467  31.747  1.00  0.00     0.065 H 
ATOM    113  H   UNL A   1      42.068  33.512  33.503  1.00  0.00     0.065 H 
BRANCH 111 114
ATOM    114  N   UNL A   1      40.669  33.655  31.274  1.00  0.00    -0.220 N 
ATOM    115  C   UNL A   1      41.939  33.590  30.782  1.00  0.00     0.055 A 
ATOM    116  N   UNL A   1      39.892  34.366  30.436  1.00  0.00    -0.062 NA
ATOM    117  C   UNL A   1      41.939  34.307  29.616  1.00  0.00     0.093 A 
ATOM    118  H   UNL A   1      42.740  33.097  31.205  1.00  0.00     0.086 H 
ATOM    119  N   UNL A   1      40.674  34.827  29.456  1.00  0.00    -0.134 NA
BRANCH 117 120
ATOM    120  C   UNL A   1      43.086  34.757  28.790  1.00  0.00     0.047 C 
ATOM    121  H   UNL A   1      42.700  35.529  28.157  1.00  0.00     0.045 H 
ATOM    122  H   UNL A   1      43.420  33.823  28.390  1.00  0.00     0.045 H 
BRANCH 120 123
ATOM    123  S   UNL A   1      44.625  35.402  29.449  1.00  0.00    -0.081 SA
BRANCH 123 124
ATOM    124  C   UNL A   1      45.597  36.281  28.300  1.00  0.00     0.176 A 
ATOM    125  N   UNL A   1      46.475  35.520  27.708  1.00  0.00    -0.223 NA
ATOM    126  N   UNL A   1      45.505  37.629  28.001  1.00  0.00    -0.255 N 
ATOM    127  C   UNL A   1      47.416  36.125  26.863  1.00  0.00     0.079 A 
ATOM    128  C   UNL A   1      46.750  38.241  27.814  1.00  0.00     0.266 A 
ATOM    129  C   UNL A   1      48.145  35.389  25.929  1.00  0.00    -0.035 A 
ATOM    130  C   UNL A   1      47.715  37.470  27.022  1.00  0.00     0.066 A 
ATOM    131  O   UNL A   1      47.090  39.337  28.255  1.00  0.00    -0.268 OA
ATOM    132  C   UNL A   1      49.198  35.991  25.227  1.00  0.00    -0.060 A 
ATOM    133  H   UNL A   1      47.908  34.400  25.757  1.00  0.00     0.065 H 
ATOM    134  C   UNL A   1      48.801  38.071  26.381  1.00  0.00    -0.047 A 
ATOM    135  C   UNL A   1      49.552  37.318  25.482  1.00  0.00    -0.061 A 
ATOM    136  H   UNL A   1      49.716  35.449  24.516  1.00  0.00     0.062 H 
ATOM    137  H   UNL A   1      49.043  39.056  26.572  1.00  0.00     0.063 H 
ATOM    138  H   UNL A   1      50.365  37.738  25.007  1.00  0.00     0.062 H 
BRANCH 126 139
ATOM    139  C   UNL A   1      44.318  38.452  27.918  1.00  0.00     0.051 A 
ATOM    140  C   UNL A   1      43.915  39.205  29.043  1.00  0.00    -0.038 A 
ATOM    141  C   UNL A   1      43.480  38.528  26.801  1.00  0.00    -0.038 A 
ATOM    142  C   UNL A   1      42.643  39.771  29.141  1.00  0.00    -0.060 A 
ATOM    143  H   UNL A   1      44.583  39.341  29.818  1.00  0.00     0.064 H 
ATOM    144  C   UNL A   1      42.175  39.032  26.914  1.00  0.00    -0.060 A 
ATOM    145  H   UNL A   1      43.826  38.210  25.882  1.00  0.00     0.064 H 
ATOM    146  C   UNL A   1      41.744  39.619  28.098  1.00  0.00    -0.062 A 
ATOM    147  H   UNL A   1      42.372  40.298  29.986  1.00  0.00     0.062 H 
ATOM    148  H   UNL A   1      41.530  38.966  26.111  1.00  0.00     0.062 H 
ATOM    149  H   UNL A   1      40.767  39.937  28.199  1.00  0.00     0.062 H 
ENDBRANCH 126 139
ENDBRANCH 123 124
ENDBRANCH 120 123
ENDBRANCH 117 120
ENDBRANCH 111 114
ENDBRANCH 101 104
ENDBRANCH  97 100
ENDBRANCH   1  97
TORSDOF 18
ENDMDL
MODEL 10
REMARK VINA RESULT:     -10.8      4.452     10.627
REMARK SMILES O=C(NCCCCCCNC(=O)c1ccc(-n2cc(CSc3nc4ccccc4c(=O)n3-c3ccccc3)nn2)cc1)c1ccc(-c2c3nc(c(-c4c(F)c(F)c(F)c(F)c4F)c4ccc([nH]4)c(-c4c(F)c(F)c(F)c(F)c4F)c4nc(c(-c5c(F)c(F)c(F)c(F)c5F)c5ccc2[nH]5)C=C4)C=C3)cc1
REMARK SMILES IDX 8 1 7 4 6 7 5 10 4 13 3 16 1 17 2 18 43 20 44 21 105 22
REMARK SMILES IDX 45 23 104 25 46 27 47 30 48 31 98 32 49 33 103 34 97 35
REMARK SMILES IDX 99 36 50 37 102 38 96 40 95 42 51 44 83 47 63 48 82 49 64 50
REMARK SMILES IDX 67 51 81 52 100 53 65 54 66 56 80 58 101 59 68 62 52 64
REMARK SMILES IDX 53 65 61 66 54 67 55 68 59 69 62 70 56 71 57 72 60 73 58 74
REMARK SMILES IDX 84 75 85 76 93 77 86 78 87 79 91 80 94 81 88 82 89 83 92 84
REMARK SMILES IDX 90 85 69 86 70 87 78 88 71 89 72 90 76 91 79 92 73 93 74 94
REMARK SMILES IDX 77 95 75 96 9 97 10 100 11 101 12 103 13 104 14 105 42 106
REMARK SMILES IDX 15 107 41 109 16 111 17 114 18 115 40 116 19 117 39 119
REMARK SMILES IDX 20 120 21 123 22 124 23 125 32 126 24 127 30 128 25 129
REMARK SMILES IDX 29 130 31 131 26 132 28 134 27 135 33 139 34 140 38 141
REMARK SMILES IDX 35 142 37 144 36 146
REMARK H PARENT 8 2 8 3 7 5 7 6 6 8 6 9 5 11 5 12 4 14 4 15 3 19 44 24 105 26
REMARK H PARENT 45 28 104 29 103 39 97 41 99 43 102 45 96 46 64 55 67 57
REMARK H PARENT 100 60 65 61 101 63 9 98 9 99 10 102 14 108 42 110 15 112
REMARK H PARENT 41 113 18 118 20 121 20 122 25 133 26 136 28 137 27 138 34 143
REMARK H PARENT 38 145 35 147 37 148 36 149
REMARK Flexibility Score: inf
ROOT
ATOM      1  C   UNL A   1      32.993  25.502  25.662  1.00  0.00    -0.036 C 
ATOM      2  H   UNL A   1      33.935  25.653  26.146  1.00  0.00     0.028 H 
ATOM      3  H   UNL A   1      32.980  25.842  24.647  1.00  0.00     0.028 H 
ENDROOT
BRANCH   1   4
ATOM      4  C   UNL A   1      31.939  26.326  26.404  1.00  0.00    -0.052 C 
ATOM      5  H   UNL A   1      30.974  25.962  26.118  1.00  0.00     0.027 H 
ATOM      6  H   UNL A   1      32.153  26.209  27.445  1.00  0.00     0.027 H 
BRANCH   4   7
ATOM      7  C   UNL A   1      31.972  27.834  26.135  1.00  0.00    -0.052 C 
ATOM      8  H   UNL A   1      31.470  28.013  25.208  1.00  0.00     0.027 H 
ATOM      9  H   UNL A   1      31.501  28.289  26.981  1.00  0.00     0.027 H 
BRANCH   7  10
ATOM     10  C   UNL A   1      33.366  28.466  26.044  1.00  0.00    -0.036 C 
ATOM     11  H   UNL A   1      34.024  27.754  25.591  1.00  0.00     0.028 H 
ATOM     12  H   UNL A   1      33.250  29.362  25.472  1.00  0.00     0.028 H 
BRANCH  10  13
ATOM     13  C   UNL A   1      33.974  28.888  27.383  1.00  0.00     0.018 C 
ATOM     14  H   UNL A   1      33.562  28.265  28.150  1.00  0.00     0.049 H 
ATOM     15  H   UNL A   1      35.035  28.779  27.288  1.00  0.00     0.049 H 
BRANCH  13  16
ATOM     16  N   UNL A   1      33.726  30.269  27.735  1.00  0.00    -0.352 N 
ATOM     17  O   UNL A   1      33.960  32.395  28.270  1.00  0.00    -0.269 OA
ATOM     18  C   UNL A   1      34.473  31.272  28.278  1.00  0.00     0.251 C 
ATOM     19  H   UNL A   1      32.803  30.548  27.536  1.00  0.00     0.163 HD
BRANCH  18  20
ATOM     20  C   UNL A   1      35.795  31.100  28.938  1.00  0.00     0.039 A 
ATOM     21  C   UNL A   1      36.061  31.244  30.300  1.00  0.00    -0.049 A 
ATOM     22  C   UNL A   1      36.872  30.838  28.068  1.00  0.00    -0.049 A 
ATOM     23  C   UNL A   1      37.373  31.244  30.765  1.00  0.00    -0.053 A 
ATOM     24  H   UNL A   1      35.280  31.352  30.967  1.00  0.00     0.063 H 
ATOM     25  C   UNL A   1      38.183  30.828  28.525  1.00  0.00    -0.053 A 
ATOM     26  H   UNL A   1      36.683  30.652  27.071  1.00  0.00     0.063 H 
ATOM     27  C   UNL A   1      38.432  31.082  29.868  1.00  0.00    -0.014 A 
ATOM     28  H   UNL A   1      37.564  31.365  31.773  1.00  0.00     0.063 H 
ATOM     29  H   UNL A   1      38.961  30.633  27.877  1.00  0.00     0.063 H 
BRANCH  27  30
ATOM     30  C   UNL A   1      39.791  31.042  30.395  1.00  0.00     0.031 A 
ATOM     31  C   UNL A   1      40.323  32.371  30.812  1.00  0.00     0.074 A 
ATOM     32  C   UNL A   1      40.455  29.891  30.627  1.00  0.00     0.049 A 
ATOM     33  N   UNL A   1      41.372  32.989  30.372  1.00  0.00    -0.248 NA
ATOM     34  C   UNL A   1      39.519  33.164  31.757  1.00  0.00    -0.034 C 
ATOM     35  C   UNL A   1      39.944  28.521  30.533  1.00  0.00    -0.036 A 
ATOM     36  N   UNL A   1      41.722  29.707  31.097  1.00  0.00    -0.354 N 
ATOM     37  C   UNL A   1      41.459  34.171  31.107  1.00  0.00     0.074 A 
ATOM     38  C   UNL A   1      40.222  34.294  31.829  1.00  0.00    -0.034 C 
ATOM     39  H   UNL A   1      38.641  32.910  32.239  1.00  0.00     0.065 H 
ATOM     40  C   UNL A   1      40.806  27.677  31.148  1.00  0.00    -0.036 A 
ATOM     41  H   UNL A   1      39.065  28.243  30.070  1.00  0.00     0.065 H 
ATOM     42  C   UNL A   1      41.982  28.423  31.561  1.00  0.00     0.049 A 
ATOM     43  H   UNL A   1      42.396  30.424  31.107  1.00  0.00     0.167 HD
ATOM     44  C   UNL A   1      42.644  34.833  31.240  1.00  0.00     0.037 A 
ATOM     45  H   UNL A   1      39.919  35.142  32.333  1.00  0.00     0.065 H 
ATOM     46  H   UNL A   1      40.652  26.668  31.298  1.00  0.00     0.065 H 
ATOM     47  C   UNL A   1      43.057  28.024  32.289  1.00  0.00     0.037 A 
ATOM     48  C   UNL A   1      43.562  34.461  30.194  1.00  0.00     0.049 A 
ATOM     49  C   UNL A   1      44.118  29.048  32.118  1.00  0.00     0.074 A 
ATOM     50  C   UNL A   1      43.564  34.555  28.816  1.00  0.00    -0.036 A 
ATOM     51  N   UNL A   1      44.563  33.574  30.500  1.00  0.00    -0.354 N 
ATOM     52  N   UNL A   1      44.751  29.257  30.999  1.00  0.00    -0.248 NA
ATOM     53  C   UNL A   1      44.148  30.147  33.071  1.00  0.00    -0.034 C 
ATOM     54  C   UNL A   1      44.208  33.364  28.365  1.00  0.00    -0.036 A 
ATOM     55  H   UNL A   1      43.184  35.321  28.238  1.00  0.00     0.065 H 
ATOM     56  C   UNL A   1      44.610  32.649  29.492  1.00  0.00     0.049 A 
ATOM     57  H   UNL A   1      45.142  33.598  31.297  1.00  0.00     0.167 HD
ATOM     58  C   UNL A   1      44.873  30.634  30.920  1.00  0.00     0.074 A 
ATOM     59  C   UNL A   1      44.554  31.126  32.259  1.00  0.00    -0.034 C 
ATOM     60  H   UNL A   1      43.922  30.166  34.078  1.00  0.00     0.065 H 
ATOM     61  H   UNL A   1      44.350  33.084  27.383  1.00  0.00     0.065 H 
ATOM     62  C   UNL A   1      44.937  31.263  29.710  1.00  0.00     0.037 A 
ATOM     63  H   UNL A   1      44.634  32.114  32.543  1.00  0.00     0.065 H 
BRANCH  44  64
ATOM     64  C   UNL A   1      43.120  35.476  32.529  1.00  0.00     0.064 A 
ATOM     65  C   UNL A   1      42.975  34.755  33.735  1.00  0.00     0.173 A 
ATOM     66  C   UNL A   1      43.377  36.855  32.681  1.00  0.00     0.173 A 
ATOM     67  F   UNL A   1      42.745  33.433  33.719  1.00  0.00    -0.203 F 
ATOM     68  C   UNL A   1      42.943  35.392  34.978  1.00  0.00     0.198 A 
ATOM     69  C   UNL A   1      43.394  37.479  33.928  1.00  0.00     0.198 A 
ATOM     70  F   UNL A   1      43.513  37.682  31.638  1.00  0.00    -0.203 F 
ATOM     71  F   UNL A   1      42.643  34.687  36.078  1.00  0.00    -0.200 F 
ATOM     72  C   UNL A   1      43.134  36.756  35.072  1.00  0.00     0.200 A 
ATOM     73  F   UNL A   1      43.575  38.805  33.996  1.00  0.00    -0.200 F 
ATOM     74  F   UNL A   1      43.021  37.381  36.250  1.00  0.00    -0.200 F 
ENDBRANCH  44  64
BRANCH  47  75
ATOM     75  C   UNL A   1      43.109  27.020  33.381  1.00  0.00     0.064 A 
ATOM     76  C   UNL A   1      42.127  26.981  34.387  1.00  0.00     0.173 A 
ATOM     77  C   UNL A   1      43.959  25.900  33.298  1.00  0.00     0.173 A 
ATOM     78  F   UNL A   1      41.241  27.981  34.503  1.00  0.00    -0.203 F 
ATOM     79  C   UNL A   1      41.993  25.880  35.242  1.00  0.00     0.198 A 
ATOM     80  C   UNL A   1      43.828  24.806  34.154  1.00  0.00     0.198 A 
ATOM     81  F   UNL A   1      44.869  25.800  32.320  1.00  0.00    -0.203 F 
ATOM     82  F   UNL A   1      41.005  25.852  36.148  1.00  0.00    -0.200 F 
ATOM     83  C   UNL A   1      42.837  24.789  35.118  1.00  0.00     0.200 A 
ATOM     84  F   UNL A   1      44.625  23.739  33.996  1.00  0.00    -0.200 F 
ATOM     85  F   UNL A   1      42.670  23.709  35.893  1.00  0.00    -0.200 F 
ENDBRANCH  47  75
BRANCH  62  86
ATOM     86  C   UNL A   1      45.134  30.412  28.489  1.00  0.00     0.064 A 
ATOM     87  C   UNL A   1      46.377  29.896  28.083  1.00  0.00     0.173 A 
ATOM     88  C   UNL A   1      43.998  29.988  27.789  1.00  0.00     0.173 A 
ATOM     89  F   UNL A   1      47.496  30.172  28.764  1.00  0.00    -0.203 F 
ATOM     90  C   UNL A   1      46.478  29.031  26.995  1.00  0.00     0.198 A 
ATOM     91  C   UNL A   1      44.098  29.095  26.726  1.00  0.00     0.198 A 
ATOM     92  F   UNL A   1      42.780  30.402  28.170  1.00  0.00    -0.203 F 
ATOM     93  F   UNL A   1      47.676  28.559  26.620  1.00  0.00    -0.200 F 
ATOM     94  C   UNL A   1      45.338  28.626  26.323  1.00  0.00     0.200 A 
ATOM     95  F   UNL A   1      42.987  28.664  26.114  1.00  0.00    -0.200 F 
ATOM     96  F   UNL A   1      45.428  27.758  25.305  1.00  0.00    -0.200 F 
ENDBRANCH  62  86
ENDBRANCH  27  30
ENDBRANCH  18  20
ENDBRANCH  13  16
ENDBRANCH  10  13
ENDBRANCH   7  10
ENDBRANCH   4   7
ENDBRANCH   1   4
BRANCH   1  97
ATOM     97  C   UNL A   1      32.718  24.001  25.615  1.00  0.00     0.018 C 
ATOM     98  H   UNL A   1      31.870  23.789  26.231  1.00  0.00     0.049 H 
ATOM     99  H   UNL A   1      33.595  23.499  25.967  1.00  0.00     0.049 H 
BRANCH  97 100
ATOM    100  N   UNL A   1      32.446  23.529  24.268  1.00  0.00    -0.352 N 
ATOM    101  C   UNL A   1      33.254  22.809  23.426  1.00  0.00     0.251 C 
ATOM    102  H   UNL A   1      31.558  23.757  23.909  1.00  0.00     0.163 HD
ATOM    103  O   UNL A   1      32.919  22.602  22.258  1.00  0.00    -0.269 OA
BRANCH 101 104
ATOM    104  C   UNL A   1      34.552  22.308  23.915  1.00  0.00     0.039 A 
ATOM    105  C   UNL A   1      35.702  23.067  23.669  1.00  0.00    -0.047 A 
ATOM    106  C   UNL A   1      34.627  21.101  24.620  1.00  0.00    -0.047 A 
ATOM    107  C   UNL A   1      36.924  22.678  24.217  1.00  0.00    -0.036 A 
ATOM    108  H   UNL A   1      35.646  23.914  23.082  1.00  0.00     0.063 H 
ATOM    109  C   UNL A   1      35.853  20.688  25.134  1.00  0.00    -0.036 A 
ATOM    110  H   UNL A   1      33.783  20.525  24.758  1.00  0.00     0.063 H 
ATOM    111  C   UNL A   1      36.991  21.493  24.949  1.00  0.00     0.066 A 
ATOM    112  H   UNL A   1      37.767  23.260  24.083  1.00  0.00     0.065 H 
ATOM    113  H   UNL A   1      35.925  19.795  25.648  1.00  0.00     0.065 H 
BRANCH 111 114
ATOM    114  N   UNL A   1      38.240  21.026  25.389  1.00  0.00    -0.220 N 
ATOM    115  C   UNL A   1      39.227  21.813  25.903  1.00  0.00     0.055 A 
ATOM    116  N   UNL A   1      38.657  19.747  25.340  1.00  0.00    -0.062 NA
ATOM    117  C   UNL A   1      40.290  20.987  26.153  1.00  0.00     0.093 A 
ATOM    118  H   UNL A   1      39.182  22.830  26.070  1.00  0.00     0.086 H 
ATOM    119  N   UNL A   1      39.931  19.723  25.740  1.00  0.00    -0.134 NA
BRANCH 117 120
ATOM    120  C   UNL A   1      41.690  21.336  26.497  1.00  0.00     0.047 C 
ATOM    121  H   UNL A   1      42.229  20.411  26.481  1.00  0.00     0.045 H 
ATOM    122  H   UNL A   1      41.541  21.878  27.407  1.00  0.00     0.045 H 
BRANCH 120 123
ATOM    123  S   UNL A   1      42.704  22.499  25.583  1.00  0.00    -0.081 SA
BRANCH 123 124
ATOM    124  C   UNL A   1      43.641  23.583  26.575  1.00  0.00     0.176 A 
ATOM    125  N   UNL A   1      44.893  23.631  26.212  1.00  0.00    -0.223 NA
ATOM    126  N   UNL A   1      43.179  24.335  27.640  1.00  0.00    -0.255 N 
ATOM    127  C   UNL A   1      45.789  24.356  27.011  1.00  0.00     0.079 A 
ATOM    128  C   UNL A   1      44.077  24.389  28.713  1.00  0.00     0.266 A 
ATOM    129  C   UNL A   1      47.035  24.760  26.535  1.00  0.00    -0.035 A 
ATOM    130  C   UNL A   1      45.482  24.591  28.343  1.00  0.00     0.066 A 
ATOM    131  O   UNL A   1      43.790  24.274  29.902  1.00  0.00    -0.268 OA
ATOM    132  C   UNL A   1      47.973  25.325  27.410  1.00  0.00    -0.060 A 
ATOM    133  H   UNL A   1      47.268  24.641  25.537  1.00  0.00     0.065 H 
ATOM    134  C   UNL A   1      46.425  25.092  29.245  1.00  0.00    -0.047 A 
ATOM    135  C   UNL A   1      47.683  25.453  28.771  1.00  0.00    -0.061 A 
ATOM    136  H   UNL A   1      48.884  25.649  27.047  1.00  0.00     0.062 H 
ATOM    137  H   UNL A   1      46.192  25.192  30.246  1.00  0.00     0.063 H 
ATOM    138  H   UNL A   1      48.398  25.814  29.421  1.00  0.00     0.062 H 
BRANCH 126 139
ATOM    139  C   UNL A   1      41.901  24.999  27.785  1.00  0.00     0.051 A 
ATOM    140  C   UNL A   1      40.766  24.247  28.160  1.00  0.00    -0.038 A 
ATOM    141  C   UNL A   1      41.676  26.355  27.525  1.00  0.00    -0.038 A 
ATOM    142  C   UNL A   1      39.468  24.744  28.025  1.00  0.00    -0.060 A 
ATOM    143  H   UNL A   1      40.901  23.299  28.547  1.00  0.00     0.064 H 
ATOM    144  C   UNL A   1      40.376  26.842  27.318  1.00  0.00    -0.060 A 
ATOM    145  H   UNL A   1      42.476  27.005  27.484  1.00  0.00     0.064 H 
ATOM    146  C   UNL A   1      39.273  26.023  27.532  1.00  0.00    -0.062 A 
ATOM    147  H   UNL A   1      38.659  24.160  28.290  1.00  0.00     0.062 H 
ATOM    148  H   UNL A   1      40.238  27.816  27.007  1.00  0.00     0.062 H 
ATOM    149  H   UNL A   1      38.321  26.364  27.325  1.00  0.00     0.062 H 
ENDBRANCH 126 139
ENDBRANCH 123 124
ENDBRANCH 120 123
ENDBRANCH 117 120
ENDBRANCH 111 114
ENDBRANCH 101 104
ENDBRANCH  97 100
ENDBRANCH   1  97
TORSDOF 18
ENDMDL
