MODEL 1
REMARK VINA RESULT:     -11.8      0.000      0.000
REMARK SMILES C[C@@H](C(=O)NCCCCCCNC(=O)c1ccc(-c2c3nc(c(-c4c(F)c(F)c(F)c(F)c4F)c4ccc([nH]4)c(-c4c(F)c(F)c(F)c(F)c4F)c4nc(c(-c5c(F)c(F)c(F)c(F)c5F)c5ccc2[nH]5)C=C4)C=C3)cc1)c1ccc(C[C@@H]2CCC[C@@H]2O)cc1F
REMARK SMILES IDX 7 1 6 4 5 7 3 8 4 9 2 11 1 13 78 17 79 18 90 19 80 20 89 22
REMARK SMILES IDX 91 23 81 24 82 27 83 30 84 31 87 32 85 34 86 37 88 43 8 45
REMARK SMILES IDX 9 48 10 51 11 54 12 57 13 58 14 60 15 61 16 62 77 63 17 64
REMARK SMILES IDX 76 66 18 68 19 71 20 72 70 73 21 74 75 75 69 76 71 77 22 78
REMARK SMILES IDX 74 79 68 81 67 83 23 85 55 88 35 89 54 90 36 91 39 92 53 93
REMARK SMILES IDX 72 94 37 95 38 97 52 99 73 100 40 103 24 105 25 106 33 107
REMARK SMILES IDX 26 108 27 109 31 110 34 111 28 112 29 113 32 114 30 115
REMARK SMILES IDX 56 116 57 117 65 118 58 119 59 120 63 121 66 122 60 123
REMARK SMILES IDX 61 124 64 125 62 126 41 127 42 128 50 129 43 130 44 131
REMARK SMILES IDX 48 132 51 133 45 134 46 135 49 136 47 137
REMARK H PARENT 7 2 7 3 6 5 6 6 5 10 2 12 1 14 1 15 1 16 79 21 80 25 89 26
REMARK H PARENT 82 28 82 29 83 33 84 35 84 36 87 38 85 39 85 40 86 41 86 42
REMARK H PARENT 88 44 8 46 8 47 9 49 9 50 10 52 10 53 11 55 11 56 12 59 16 65
REMARK H PARENT 77 67 17 69 76 70 75 80 69 82 71 84 74 86 68 87 36 96 39 98
REMARK H PARENT 72 101 37 102 73 104
REMARK Flexibility Score: inf
ROOT
ATOM      1  C   UNL A   1      34.528  25.775  25.541  1.00  0.00    -0.036 C 
ATOM      2  H   UNL A   1      35.280  25.971  24.806  1.00  0.00     0.028 H 
ATOM      3  H   UNL A   1      34.925  25.740  26.534  1.00  0.00     0.028 H 
ENDROOT
BRANCH   1   4
ATOM      4  C   UNL A   1      33.922  24.398  25.255  1.00  0.00     0.017 C 
ATOM      5  H   UNL A   1      33.430  24.421  24.305  1.00  0.00     0.049 H 
ATOM      6  H   UNL A   1      34.705  23.669  25.245  1.00  0.00     0.049 H 
BRANCH   4   7
ATOM      7  N   UNL A   1      32.965  24.047  26.281  1.00  0.00    -0.356 N 
ATOM      8  C   UNL A   1      31.622  23.826  26.189  1.00  0.00     0.227 C 
ATOM      9  O   UNL A   1      31.008  23.705  27.251  1.00  0.00    -0.274 OA
ATOM     10  H   UNL A   1      33.340  23.955  27.185  1.00  0.00     0.163 HD
BRANCH   8  11
ATOM     11  C   UNL A   1      30.967  23.662  24.812  1.00  0.00     0.063 C 
ATOM     12  H   UNL A   1      30.029  23.174  24.970  1.00  0.00     0.045 H 
BRANCH  11  13
ATOM     13  C   UNL A   1      31.758  22.739  23.877  1.00  0.00    -0.049 C 
ATOM     14  H   UNL A   1      32.750  23.120  23.754  1.00  0.00     0.024 H 
ATOM     15  H   UNL A   1      31.273  22.693  22.924  1.00  0.00     0.024 H 
ATOM     16  H   UNL A   1      31.804  21.756  24.300  1.00  0.00     0.024 H 
ENDBRANCH  11  13
BRANCH  11  17
ATOM     17  C   UNL A   1      30.686  25.017  24.177  1.00  0.00    -0.000 A 
ATOM     18  C   UNL A   1      31.290  25.351  22.956  1.00  0.00    -0.055 A 
ATOM     19  C   UNL A   1      29.811  25.944  24.752  1.00  0.00     0.127 A 
ATOM     20  C   UNL A   1      31.083  26.606  22.379  1.00  0.00    -0.059 A 
ATOM     21  H   UNL A   1      31.894  24.663  22.480  1.00  0.00     0.063 H 
ATOM     22  C   UNL A   1      29.623  27.203  24.195  1.00  0.00    -0.023 A 
ATOM     23  F   UNL A   1      29.154  25.653  25.884  1.00  0.00    -0.207 F 
ATOM     24  C   UNL A   1      30.292  27.565  23.021  1.00  0.00    -0.045 A 
ATOM     25  H   UNL A   1      31.518  26.829  21.469  1.00  0.00     0.063 H 
ATOM     26  H   UNL A   1      28.985  27.876  24.650  1.00  0.00     0.066 H 
BRANCH  24  27
ATOM     27  C   UNL A   1      30.178  28.974  22.497  1.00  0.00    -0.022 C 
ATOM     28  H   UNL A   1      30.288  28.930  21.433  1.00  0.00     0.032 H 
ATOM     29  H   UNL A   1      30.940  29.519  23.013  1.00  0.00     0.032 H 
BRANCH  27  30
ATOM     30  C   UNL A   1      28.869  29.742  22.796  1.00  0.00    -0.011 C 
ATOM     31  C   UNL A   1      28.026  30.078  21.560  1.00  0.00    -0.048 C 
ATOM     32  C   UNL A   1      28.985  31.098  23.501  1.00  0.00     0.057 C 
ATOM     33  H   UNL A   1      28.423  29.014  23.440  1.00  0.00     0.033 H 
ATOM     34  C   UNL A   1      28.288  31.550  21.230  1.00  0.00    -0.050 C 
ATOM     35  H   UNL A   1      26.988  29.927  21.770  1.00  0.00     0.027 H 
ATOM     36  H   UNL A   1      28.287  29.448  20.735  1.00  0.00     0.027 H 
ATOM     37  C   UNL A   1      29.117  32.117  22.377  1.00  0.00    -0.027 C 
ATOM     38  H   UNL A   1      28.127  31.290  24.110  1.00  0.00     0.060 H 
ATOM     39  H   UNL A   1      27.362  32.080  21.147  1.00  0.00     0.027 H 
ATOM     40  H   UNL A   1      28.804  31.649  20.298  1.00  0.00     0.027 H 
ATOM     41  H   UNL A   1      28.732  33.067  22.684  1.00  0.00     0.029 H 
ATOM     42  H   UNL A   1      30.136  32.277  22.096  1.00  0.00     0.029 H 
BRANCH  32  43
ATOM     43  O   UNL A   1      30.052  31.158  24.425  1.00  0.00    -0.393 OA
ATOM     44  H   UNL A   1      30.886  31.286  23.947  1.00  0.00     0.210 HD
ENDBRANCH  32  43
ENDBRANCH  27  30
ENDBRANCH  24  27
ENDBRANCH  11  17
ENDBRANCH   8  11
ENDBRANCH   4   7
ENDBRANCH   1   4
BRANCH   1  45
ATOM     45  C   UNL A   1      33.508  26.920  25.507  1.00  0.00    -0.052 C 
ATOM     46  H   UNL A   1      33.498  27.386  26.471  1.00  0.00     0.027 H 
ATOM     47  H   UNL A   1      32.571  26.479  25.238  1.00  0.00     0.027 H 
BRANCH  45  48
ATOM     48  C   UNL A   1      33.786  28.004  24.460  1.00  0.00    -0.052 C 
ATOM     49  H   UNL A   1      33.494  27.625  23.504  1.00  0.00     0.027 H 
ATOM     50  H   UNL A   1      34.831  28.226  24.528  1.00  0.00     0.027 H 
BRANCH  48  51
ATOM     51  C   UNL A   1      33.050  29.326  24.692  1.00  0.00    -0.036 C 
ATOM     52  H   UNL A   1      32.128  29.295  24.150  1.00  0.00     0.028 H 
ATOM     53  H   UNL A   1      33.707  30.102  24.357  1.00  0.00     0.028 H 
BRANCH  51  54
ATOM     54  C   UNL A   1      32.734  29.627  26.153  1.00  0.00     0.018 C 
ATOM     55  H   UNL A   1      33.533  29.260  26.762  1.00  0.00     0.049 H 
ATOM     56  H   UNL A   1      31.809  29.146  26.396  1.00  0.00     0.049 H 
BRANCH  54  57
ATOM     57  N   UNL A   1      32.575  31.052  26.397  1.00  0.00    -0.352 N 
ATOM     58  C   UNL A   1      33.271  31.868  27.249  1.00  0.00     0.251 C 
ATOM     59  H   UNL A   1      31.866  31.493  25.874  1.00  0.00     0.163 HD
ATOM     60  O   UNL A   1      32.879  33.015  27.466  1.00  0.00    -0.269 OA
BRANCH  58  61
ATOM     61  C   UNL A   1      34.484  31.369  27.927  1.00  0.00     0.039 A 
ATOM     62  C   UNL A   1      35.557  32.243  28.120  1.00  0.00    -0.049 A 
ATOM     63  C   UNL A   1      34.574  30.040  28.353  1.00  0.00    -0.049 A 
ATOM     64  C   UNL A   1      36.702  31.798  28.782  1.00  0.00    -0.053 A 
ATOM     65  H   UNL A   1      35.503  33.214  27.774  1.00  0.00     0.063 H 
ATOM     66  C   UNL A   1      35.689  29.616  29.071  1.00  0.00    -0.053 A 
ATOM     67  H   UNL A   1      33.816  29.375  28.135  1.00  0.00     0.063 H 
ATOM     68  C   UNL A   1      36.768  30.488  29.285  1.00  0.00    -0.014 A 
ATOM     69  H   UNL A   1      37.506  32.435  28.903  1.00  0.00     0.063 H 
ATOM     70  H   UNL A   1      35.722  28.656  29.448  1.00  0.00     0.063 H 
BRANCH  68  71
ATOM     71  C   UNL A   1      37.963  30.010  30.023  1.00  0.00     0.031 A 
ATOM     72  C   UNL A   1      38.217  30.474  31.429  1.00  0.00     0.074 A 
ATOM     73  C   UNL A   1      38.846  29.201  29.408  1.00  0.00     0.049 A 
ATOM     74  N   UNL A   1      39.228  30.213  32.219  1.00  0.00    -0.248 NA
ATOM     75  C   UNL A   1      37.212  31.373  32.019  1.00  0.00    -0.034 C 
ATOM     76  C   UNL A   1      38.734  28.716  28.031  1.00  0.00    -0.036 A 
ATOM     77  N   UNL A   1      40.019  28.648  29.860  1.00  0.00    -0.354 N 
ATOM     78  C   UNL A   1      38.990  30.926  33.386  1.00  0.00     0.074 A 
ATOM     79  C   UNL A   1      37.766  31.670  33.185  1.00  0.00    -0.034 C 
ATOM     80  H   UNL A   1      36.312  31.690  31.626  1.00  0.00     0.065 H 
ATOM     81  C   UNL A   1      39.781  27.922  27.758  1.00  0.00    -0.036 A 
ATOM     82  H   UNL A   1      37.972  28.949  27.375  1.00  0.00     0.065 H 
ATOM     83  C   UNL A   1      40.654  27.866  28.927  1.00  0.00     0.049 A 
ATOM     84  H   UNL A   1      40.371  28.798  30.768  1.00  0.00     0.167 HD
ATOM     85  C   UNL A   1      39.714  30.940  34.531  1.00  0.00     0.037 A 
ATOM     86  H   UNL A   1      37.375  32.345  33.862  1.00  0.00     0.065 H 
ATOM     87  H   UNL A   1      39.943  27.430  26.866  1.00  0.00     0.065 H 
ATOM     88  C   UNL A   1      41.812  27.183  29.007  1.00  0.00     0.037 A 
ATOM     89  C   UNL A   1      40.916  30.175  34.738  1.00  0.00     0.049 A 
ATOM     90  C   UNL A   1      42.595  27.211  30.292  1.00  0.00     0.074 A 
ATOM     91  C   UNL A   1      41.689  30.074  35.881  1.00  0.00    -0.036 A 
ATOM     92  N   UNL A   1      41.519  29.377  33.776  1.00  0.00    -0.354 N 
ATOM     93  N   UNL A   1      42.325  27.836  31.412  1.00  0.00    -0.248 NA
ATOM     94  C   UNL A   1      43.840  26.432  30.323  1.00  0.00    -0.034 C 
ATOM     95  C   UNL A   1      42.782  29.246  35.599  1.00  0.00    -0.036 A 
ATOM     96  H   UNL A   1      41.493  30.530  36.786  1.00  0.00     0.065 H 
ATOM     97  C   UNL A   1      42.665  28.796  34.294  1.00  0.00     0.049 A 
ATOM     98  H   UNL A   1      41.182  29.245  32.860  1.00  0.00     0.167 HD
ATOM     99  C   UNL A   1      43.347  27.503  32.290  1.00  0.00     0.074 A 
ATOM    100  C   UNL A   1      44.236  26.610  31.576  1.00  0.00    -0.034 C 
ATOM    101  H   UNL A   1      44.288  25.889  29.569  1.00  0.00     0.065 H 
ATOM    102  H   UNL A   1      43.546  29.012  36.253  1.00  0.00     0.065 H 
ATOM    103  C   UNL A   1      43.532  27.901  33.572  1.00  0.00     0.037 A 
ATOM    104  H   UNL A   1      45.073  26.169  31.989  1.00  0.00     0.065 H 
BRANCH  85 105
ATOM    105  C   UNL A   1      39.221  31.809  35.651  1.00  0.00     0.064 A 
ATOM    106  C   UNL A   1      38.318  31.329  36.612  1.00  0.00     0.173 A 
ATOM    107  C   UNL A   1      39.679  33.129  35.783  1.00  0.00     0.173 A 
ATOM    108  F   UNL A   1      37.841  30.078  36.524  1.00  0.00    -0.203 F 
ATOM    109  C   UNL A   1      37.869  32.147  37.645  1.00  0.00     0.198 A 
ATOM    110  C   UNL A   1      39.250  33.934  36.836  1.00  0.00     0.198 A 
ATOM    111  F   UNL A   1      40.547  33.636  34.896  1.00  0.00    -0.203 F 
ATOM    112  F   UNL A   1      36.967  31.681  38.521  1.00  0.00    -0.200 F 
ATOM    113  C   UNL A   1      38.339  33.445  37.759  1.00  0.00     0.200 A 
ATOM    114  F   UNL A   1      39.715  35.186  36.952  1.00  0.00    -0.200 F 
ATOM    115  F   UNL A   1      37.909  34.230  38.758  1.00  0.00    -0.200 F 
ENDBRANCH  85 105
BRANCH  88 116
ATOM    116  C   UNL A   1      42.283  26.384  27.846  1.00  0.00     0.064 A 
ATOM    117  C   UNL A   1      43.213  26.914  26.941  1.00  0.00     0.173 A 
ATOM    118  C   UNL A   1      41.814  25.084  27.615  1.00  0.00     0.173 A 
ATOM    119  F   UNL A   1      43.674  28.163  27.110  1.00  0.00    -0.203 F 
ATOM    120  C   UNL A   1      43.642  26.181  25.838  1.00  0.00     0.198 A 
ATOM    121  C   UNL A   1      42.263  24.340  26.525  1.00  0.00     0.198 A 
ATOM    122  F   UNL A   1      40.926  24.530  28.454  1.00  0.00    -0.203 F 
ATOM    123  F   UNL A   1      44.499  26.727  24.965  1.00  0.00    -0.200 F 
ATOM    124  C   UNL A   1      43.171  24.893  25.634  1.00  0.00     0.200 A 
ATOM    125  F   UNL A   1      41.816  23.092  26.338  1.00  0.00    -0.200 F 
ATOM    126  F   UNL A   1      43.586  24.186  24.574  1.00  0.00    -0.200 F 
ENDBRANCH  88 116
BRANCH 103 127
ATOM    127  C   UNL A   1      44.722  27.343  34.298  1.00  0.00     0.064 A 
ATOM    128  C   UNL A   1      45.965  27.991  34.280  1.00  0.00     0.173 A 
ATOM    129  C   UNL A   1      44.605  26.163  35.049  1.00  0.00     0.173 A 
ATOM    130  F   UNL A   1      46.132  29.113  33.564  1.00  0.00    -0.203 F 
ATOM    131  C   UNL A   1      47.056  27.464  34.966  1.00  0.00     0.198 A 
ATOM    132  C   UNL A   1      45.689  25.654  35.757  1.00  0.00     0.198 A 
ATOM    133  F   UNL A   1      43.435  25.509  35.103  1.00  0.00    -0.203 F 
ATOM    134  F   UNL A   1      48.248  28.073  34.896  1.00  0.00    -0.200 F 
ATOM    135  C   UNL A   1      46.915  26.301  35.709  1.00  0.00     0.200 A 
ATOM    136  F   UNL A   1      45.549  24.537  36.484  1.00  0.00    -0.200 F 
ATOM    137  F   UNL A   1      47.965  25.797  36.373  1.00  0.00    -0.200 F 
ENDBRANCH 103 127
ENDBRANCH  68  71
ENDBRANCH  58  61
ENDBRANCH  54  57
ENDBRANCH  51  54
ENDBRANCH  48  51
ENDBRANCH  45  48
ENDBRANCH   1  45
TORSDOF 18
ENDMDL
MODEL 2
REMARK VINA RESULT:     -11.8      0.076      1.576
REMARK SMILES C[C@@H](C(=O)NCCCCCCNC(=O)c1ccc(-c2c3nc(c(-c4c(F)c(F)c(F)c(F)c4F)c4ccc([nH]4)c(-c4c(F)c(F)c(F)c(F)c4F)c4nc(c(-c5c(F)c(F)c(F)c(F)c5F)c5ccc2[nH]5)C=C4)C=C3)cc1)c1ccc(C[C@@H]2CCC[C@@H]2O)cc1F
REMARK SMILES IDX 7 1 6 4 5 7 3 8 4 9 2 11 1 13 78 17 79 18 90 19 80 20 89 22
REMARK SMILES IDX 91 23 81 24 82 27 83 30 84 31 87 32 85 34 86 37 88 43 8 45
REMARK SMILES IDX 9 48 10 51 11 54 12 57 13 58 14 60 15 61 16 62 77 63 17 64
REMARK SMILES IDX 76 66 18 68 19 71 20 72 70 73 21 74 75 75 69 76 71 77 22 78
REMARK SMILES IDX 74 79 68 81 67 83 23 85 55 88 35 89 54 90 36 91 39 92 53 93
REMARK SMILES IDX 72 94 37 95 38 97 52 99 73 100 40 103 24 105 25 106 33 107
REMARK SMILES IDX 26 108 27 109 31 110 34 111 28 112 29 113 32 114 30 115
REMARK SMILES IDX 56 116 57 117 65 118 58 119 59 120 63 121 66 122 60 123
REMARK SMILES IDX 61 124 64 125 62 126 41 127 42 128 50 129 43 130 44 131
REMARK SMILES IDX 48 132 51 133 45 134 46 135 49 136 47 137
REMARK H PARENT 7 2 7 3 6 5 6 6 5 10 2 12 1 14 1 15 1 16 79 21 80 25 89 26
REMARK H PARENT 82 28 82 29 83 33 84 35 84 36 87 38 85 39 85 40 86 41 86 42
REMARK H PARENT 88 44 8 46 8 47 9 49 9 50 10 52 10 53 11 55 11 56 12 59 16 65
REMARK H PARENT 77 67 17 69 76 70 75 80 69 82 71 84 74 86 68 87 36 96 39 98
REMARK H PARENT 72 101 37 102 73 104
REMARK Flexibility Score: inf
ROOT
ATOM      1  C   UNL A   1      34.488  25.754  25.713  1.00  0.00    -0.036 C 
ATOM      2  H   UNL A   1      35.276  25.956  25.017  1.00  0.00     0.028 H 
ATOM      3  H   UNL A   1      34.842  25.672  26.719  1.00  0.00     0.028 H 
ENDROOT
BRANCH   1   4
ATOM      4  C   UNL A   1      33.859  24.407  25.351  1.00  0.00     0.017 C 
ATOM      5  H   UNL A   1      33.384  24.485  24.395  1.00  0.00     0.049 H 
ATOM      6  H   UNL A   1      34.627  23.661  25.319  1.00  0.00     0.049 H 
BRANCH   4   7
ATOM      7  N   UNL A   1      32.877  24.027  26.343  1.00  0.00    -0.356 N 
ATOM      8  C   UNL A   1      31.539  23.795  26.209  1.00  0.00     0.227 C 
ATOM      9  O   UNL A   1      30.897  23.649  27.251  1.00  0.00    -0.274 OA
ATOM     10  H   UNL A   1      33.227  23.923  27.256  1.00  0.00     0.163 HD
BRANCH   8  11
ATOM     11  C   UNL A   1      30.926  23.650  24.811  1.00  0.00     0.063 C 
ATOM     12  H   UNL A   1      29.985  23.155  24.934  1.00  0.00     0.045 H 
BRANCH  11  13
ATOM     13  C   UNL A   1      31.747  22.743  23.886  1.00  0.00    -0.049 C 
ATOM     14  H   UNL A   1      32.658  22.467  24.374  1.00  0.00     0.024 H 
ATOM     15  H   UNL A   1      31.973  23.267  22.980  1.00  0.00     0.024 H 
ATOM     16  H   UNL A   1      31.184  21.862  23.657  1.00  0.00     0.024 H 
ENDBRANCH  11  13
BRANCH  11  17
ATOM     17  C   UNL A   1      30.657  25.013  24.189  1.00  0.00    -0.000 A 
ATOM     18  C   UNL A   1      31.253  25.347  22.964  1.00  0.00    -0.055 A 
ATOM     19  C   UNL A   1      29.801  25.948  24.780  1.00  0.00     0.127 A 
ATOM     20  C   UNL A   1      31.058  26.609  22.398  1.00  0.00    -0.059 A 
ATOM     21  H   UNL A   1      31.842  24.654  22.477  1.00  0.00     0.063 H 
ATOM     22  C   UNL A   1      29.626  27.214  24.233  1.00  0.00    -0.023 A 
ATOM     23  F   UNL A   1      29.153  25.658  25.916  1.00  0.00    -0.207 F 
ATOM     24  C   UNL A   1      30.288  27.574  23.055  1.00  0.00    -0.045 A 
ATOM     25  H   UNL A   1      31.487  26.832  21.486  1.00  0.00     0.063 H 
ATOM     26  H   UNL A   1      29.003  27.892  24.700  1.00  0.00     0.066 H 
BRANCH  24  27
ATOM     27  C   UNL A   1      30.189  28.989  22.542  1.00  0.00    -0.022 C 
ATOM     28  H   UNL A   1      30.301  28.952  21.478  1.00  0.00     0.032 H 
ATOM     29  H   UNL A   1      30.954  29.523  23.065  1.00  0.00     0.032 H 
BRANCH  27  30
ATOM     30  C   UNL A   1      28.886  29.767  22.843  1.00  0.00    -0.011 C 
ATOM     31  C   UNL A   1      28.028  30.082  21.612  1.00  0.00    -0.048 C 
ATOM     32  C   UNL A   1      29.015  31.135  23.521  1.00  0.00     0.057 C 
ATOM     33  H   UNL A   1      28.446  29.052  23.507  1.00  0.00     0.033 H 
ATOM     34  C   UNL A   1      28.290  31.547  21.251  1.00  0.00    -0.050 C 
ATOM     35  H   UNL A   1      26.992  29.938  21.839  1.00  0.00     0.027 H 
ATOM     36  H   UNL A   1      28.276  29.436  20.796  1.00  0.00     0.027 H 
ATOM     37  C   UNL A   1      29.135  32.132  22.377  1.00  0.00    -0.027 C 
ATOM     38  H   UNL A   1      28.166  31.341  24.138  1.00  0.00     0.060 H 
ATOM     39  H   UNL A   1      27.364  32.077  21.171  1.00  0.00     0.027 H 
ATOM     40  H   UNL A   1      28.794  31.626  20.311  1.00  0.00     0.027 H 
ATOM     41  H   UNL A   1      28.757  33.089  22.671  1.00  0.00     0.029 H 
ATOM     42  H   UNL A   1      30.151  32.283  22.079  1.00  0.00     0.029 H 
BRANCH  32  43
ATOM     43  O   UNL A   1      30.094  31.209  24.430  1.00  0.00    -0.393 OA
ATOM     44  H   UNL A   1      30.513  30.338  24.505  1.00  0.00     0.210 HD
ENDBRANCH  32  43
ENDBRANCH  27  30
ENDBRANCH  24  27
ENDBRANCH  11  17
ENDBRANCH   8  11
ENDBRANCH   4   7
ENDBRANCH   1   4
BRANCH   1  45
ATOM     45  C   UNL A   1      33.501  26.928  25.680  1.00  0.00    -0.052 C 
ATOM     46  H   UNL A   1      33.641  27.506  26.569  1.00  0.00     0.027 H 
ATOM     47  H   UNL A   1      32.525  26.497  25.603  1.00  0.00     0.027 H 
BRANCH  45  48
ATOM     48  C   UNL A   1      33.649  27.866  24.477  1.00  0.00    -0.052 C 
ATOM     49  H   UNL A   1      33.077  27.463  23.669  1.00  0.00     0.027 H 
ATOM     50  H   UNL A   1      34.698  27.921  24.268  1.00  0.00     0.027 H 
BRANCH  48  51
ATOM     51  C   UNL A   1      33.183  29.303  24.720  1.00  0.00    -0.036 C 
ATOM     52  H   UNL A   1      32.356  29.500  24.071  1.00  0.00     0.028 H 
ATOM     53  H   UNL A   1      34.027  29.933  24.527  1.00  0.00     0.028 H 
BRANCH  51  54
ATOM     54  C   UNL A   1      32.745  29.593  26.152  1.00  0.00     0.018 C 
ATOM     55  H   UNL A   1      33.485  29.211  26.823  1.00  0.00     0.049 H 
ATOM     56  H   UNL A   1      31.798  29.120  26.309  1.00  0.00     0.049 H 
BRANCH  54  57
ATOM     57  N   UNL A   1      32.580  31.017  26.396  1.00  0.00    -0.352 N 
ATOM     58  C   UNL A   1      33.274  31.837  27.246  1.00  0.00     0.251 C 
ATOM     59  H   UNL A   1      31.867  31.454  25.875  1.00  0.00     0.163 HD
ATOM     60  O   UNL A   1      32.878  32.981  27.464  1.00  0.00    -0.269 OA
BRANCH  58  61
ATOM     61  C   UNL A   1      34.492  31.343  27.921  1.00  0.00     0.039 A 
ATOM     62  C   UNL A   1      35.564  32.221  28.106  1.00  0.00    -0.049 A 
ATOM     63  C   UNL A   1      34.588  30.016  28.349  1.00  0.00    -0.049 A 
ATOM     64  C   UNL A   1      36.713  31.782  28.765  1.00  0.00    -0.053 A 
ATOM     65  H   UNL A   1      35.504  33.191  27.758  1.00  0.00     0.063 H 
ATOM     66  C   UNL A   1      35.708  29.597  29.064  1.00  0.00    -0.053 A 
ATOM     67  H   UNL A   1      33.832  29.347  28.137  1.00  0.00     0.063 H 
ATOM     68  C   UNL A   1      36.785  30.474  29.270  1.00  0.00    -0.014 A 
ATOM     69  H   UNL A   1      37.515  32.422  28.880  1.00  0.00     0.063 H 
ATOM     70  H   UNL A   1      35.746  28.638  29.444  1.00  0.00     0.063 H 
BRANCH  68  71
ATOM     71  C   UNL A   1      37.985  30.001  30.005  1.00  0.00     0.031 A 
ATOM     72  C   UNL A   1      38.248  30.477  31.406  1.00  0.00     0.074 A 
ATOM     73  C   UNL A   1      38.864  29.187  29.391  1.00  0.00     0.049 A 
ATOM     74  N   UNL A   1      39.264  30.222  32.191  1.00  0.00    -0.248 NA
ATOM     75  C   UNL A   1      37.247  31.381  31.995  1.00  0.00    -0.034 C 
ATOM     76  C   UNL A   1      38.743  28.692  28.019  1.00  0.00    -0.036 A 
ATOM     77  N   UNL A   1      40.040  28.639  29.840  1.00  0.00    -0.354 N 
ATOM     78  C   UNL A   1      39.034  30.945  33.354  1.00  0.00     0.074 A 
ATOM     79  C   UNL A   1      37.808  31.687  33.155  1.00  0.00    -0.034 C 
ATOM     80  H   UNL A   1      36.344  31.694  31.605  1.00  0.00     0.065 H 
ATOM     81  C   UNL A   1      39.789  27.896  27.745  1.00  0.00    -0.036 A 
ATOM     82  H   UNL A   1      37.977  28.920  27.366  1.00  0.00     0.065 H 
ATOM     83  C   UNL A   1      40.669  27.849  28.909  1.00  0.00     0.049 A 
ATOM     84  H   UNL A   1      40.397  28.796  30.744  1.00  0.00     0.167 HD
ATOM     85  C   UNL A   1      39.764  30.968  34.494  1.00  0.00     0.037 A 
ATOM     86  H   UNL A   1      37.422  32.368  33.828  1.00  0.00     0.065 H 
ATOM     87  H   UNL A   1      39.944  27.396  26.856  1.00  0.00     0.065 H 
ATOM     88  C   UNL A   1      41.827  27.167  28.987  1.00  0.00     0.037 A 
ATOM     89  C   UNL A   1      40.968  30.205  34.699  1.00  0.00     0.049 A 
ATOM     90  C   UNL A   1      42.618  27.206  30.267  1.00  0.00     0.074 A 
ATOM     91  C   UNL A   1      41.749  30.113  35.839  1.00  0.00    -0.036 A 
ATOM     92  N   UNL A   1      41.565  29.399  33.740  1.00  0.00    -0.354 N 
ATOM     93  N   UNL A   1      42.356  27.840  31.383  1.00  0.00    -0.248 NA
ATOM     94  C   UNL A   1      43.864  26.427  30.296  1.00  0.00    -0.034 C 
ATOM     95  C   UNL A   1      42.839  29.283  35.556  1.00  0.00    -0.036 A 
ATOM     96  H   UNL A   1      41.558  30.576  36.741  1.00  0.00     0.065 H 
ATOM     97  C   UNL A   1      42.714  28.822  34.255  1.00  0.00     0.049 A 
ATOM     98  H   UNL A   1      41.222  29.259  32.827  1.00  0.00     0.167 HD
ATOM     99  C   UNL A   1      43.384  27.514  32.257  1.00  0.00     0.074 A 
ATOM    100  C   UNL A   1      44.268  26.615  31.545  1.00  0.00    -0.034 C 
ATOM    101  H   UNL A   1      44.308  25.878  29.544  1.00  0.00     0.065 H 
ATOM    102  H   UNL A   1      43.608  29.055  36.206  1.00  0.00     0.065 H 
ATOM    103  C   UNL A   1      43.577  27.921  33.535  1.00  0.00     0.037 A 
ATOM    104  H   UNL A   1      45.107  26.177  31.956  1.00  0.00     0.065 H 
BRANCH  85 105
ATOM    105  C   UNL A   1      39.279  31.846  35.610  1.00  0.00     0.064 A 
ATOM    106  C   UNL A   1      39.679  33.187  35.719  1.00  0.00     0.173 A 
ATOM    107  C   UNL A   1      38.379  31.351  36.566  1.00  0.00     0.173 A 
ATOM    108  F   UNL A   1      40.547  33.705  34.837  1.00  0.00    -0.203 F 
ATOM    109  C   UNL A   1      39.222  33.989  36.760  1.00  0.00     0.198 A 
ATOM    110  C   UNL A   1      37.900  32.166  37.590  1.00  0.00     0.198 A 
ATOM    111  F   UNL A   1      37.959  30.078  36.506  1.00  0.00    -0.203 F 
ATOM    112  F   UNL A   1      39.659  35.251  36.872  1.00  0.00    -0.200 F 
ATOM    113  C   UNL A   1      38.329  33.480  37.690  1.00  0.00     0.200 A 
ATOM    114  F   UNL A   1      37.028  31.676  38.481  1.00  0.00    -0.200 F 
ATOM    115  F   UNL A   1      37.885  34.256  38.690  1.00  0.00    -0.200 F 
ENDBRANCH  85 105
BRANCH  88 116
ATOM    116  C   UNL A   1      42.291  26.359  27.830  1.00  0.00     0.064 A 
ATOM    117  C   UNL A   1      41.820  25.053  27.632  1.00  0.00     0.173 A 
ATOM    118  C   UNL A   1      43.212  26.869  26.904  1.00  0.00     0.173 A 
ATOM    119  F   UNL A   1      40.954  24.515  28.504  1.00  0.00    -0.203 F 
ATOM    120  C   UNL A   1      42.267  24.280  26.564  1.00  0.00     0.198 A 
ATOM    121  C   UNL A   1      43.639  26.105  25.820  1.00  0.00     0.198 A 
ATOM    122  F   UNL A   1      43.689  28.114  27.046  1.00  0.00    -0.203 F 
ATOM    123  F   UNL A   1      41.835  23.020  26.423  1.00  0.00    -0.200 F 
ATOM    124  C   UNL A   1      43.173  24.809  25.655  1.00  0.00     0.200 A 
ATOM    125  F   UNL A   1      44.503  26.622  24.937  1.00  0.00    -0.200 F 
ATOM    126  F   UNL A   1      43.600  24.067  24.625  1.00  0.00    -0.200 F 
ENDBRANCH  88 116
BRANCH 103 127
ATOM    127  C   UNL A   1      44.771  27.370  34.258  1.00  0.00     0.064 A 
ATOM    128  C   UNL A   1      46.003  28.041  34.264  1.00  0.00     0.173 A 
ATOM    129  C   UNL A   1      44.671  26.172  34.982  1.00  0.00     0.173 A 
ATOM    130  F   UNL A   1      46.154  29.181  33.573  1.00  0.00    -0.203 F 
ATOM    131  C   UNL A   1      47.098  27.519  34.946  1.00  0.00     0.198 A 
ATOM    132  C   UNL A   1      45.759  25.667  35.687  1.00  0.00     0.198 A 
ATOM    133  F   UNL A   1      43.512  25.496  35.013  1.00  0.00    -0.203 F 
ATOM    134  F   UNL A   1      48.279  28.151  34.898  1.00  0.00    -0.200 F 
ATOM    135  C   UNL A   1      46.973  26.337  35.662  1.00  0.00     0.200 A 
ATOM    136  F   UNL A   1      45.634  24.532  36.388  1.00  0.00    -0.200 F 
ATOM    137  F   UNL A   1      48.027  25.838  36.323  1.00  0.00    -0.200 F 
ENDBRANCH 103 127
ENDBRANCH  68  71
ENDBRANCH  58  61
ENDBRANCH  54  57
ENDBRANCH  51  54
ENDBRANCH  48  51
ENDBRANCH  45  48
ENDBRANCH   1  45
TORSDOF 18
ENDMDL
MODEL 3
REMARK VINA RESULT:     -11.7      5.404     10.950
REMARK SMILES C[C@@H](C(=O)NCCCCCCNC(=O)c1ccc(-c2c3nc(c(-c4c(F)c(F)c(F)c(F)c4F)c4ccc([nH]4)c(-c4c(F)c(F)c(F)c(F)c4F)c4nc(c(-c5c(F)c(F)c(F)c(F)c5F)c5ccc2[nH]5)C=C4)C=C3)cc1)c1ccc(C[C@@H]2CCC[C@@H]2O)cc1F
REMARK SMILES IDX 7 1 6 4 5 7 3 8 4 9 2 11 1 13 78 17 79 18 90 19 80 20 89 22
REMARK SMILES IDX 91 23 81 24 82 27 83 30 84 31 87 32 85 34 86 37 88 43 8 45
REMARK SMILES IDX 9 48 10 51 11 54 12 57 13 58 14 60 15 61 16 62 77 63 17 64
REMARK SMILES IDX 76 66 18 68 19 71 20 72 70 73 21 74 75 75 69 76 71 77 22 78
REMARK SMILES IDX 74 79 68 81 67 83 23 85 55 88 35 89 54 90 36 91 39 92 53 93
REMARK SMILES IDX 72 94 37 95 38 97 52 99 73 100 40 103 24 105 25 106 33 107
REMARK SMILES IDX 26 108 27 109 31 110 34 111 28 112 29 113 32 114 30 115
REMARK SMILES IDX 56 116 57 117 65 118 58 119 59 120 63 121 66 122 60 123
REMARK SMILES IDX 61 124 64 125 62 126 41 127 42 128 50 129 43 130 44 131
REMARK SMILES IDX 48 132 51 133 45 134 46 135 49 136 47 137
REMARK H PARENT 7 2 7 3 6 5 6 6 5 10 2 12 1 14 1 15 1 16 79 21 80 25 89 26
REMARK H PARENT 82 28 82 29 83 33 84 35 84 36 87 38 85 39 85 40 86 41 86 42
REMARK H PARENT 88 44 8 46 8 47 9 49 9 50 10 52 10 53 11 55 11 56 12 59 16 65
REMARK H PARENT 77 67 17 69 76 70 75 80 69 82 71 84 74 86 68 87 36 96 39 98
REMARK H PARENT 72 101 37 102 73 104
REMARK Flexibility Score: inf
ROOT
ATOM      1  C   UNL A   1      43.498  24.228  27.884  1.00  0.00    -0.036 C 
ATOM      2  H   UNL A   1      42.966  24.745  27.113  1.00  0.00     0.028 H 
ATOM      3  H   UNL A   1      44.045  24.892  28.520  1.00  0.00     0.028 H 
ENDROOT
BRANCH   1   4
ATOM      4  C   UNL A   1      44.520  23.299  27.225  1.00  0.00     0.017 C 
ATOM      5  H   UNL A   1      44.333  22.292  27.536  1.00  0.00     0.049 H 
ATOM      6  H   UNL A   1      44.427  23.378  26.162  1.00  0.00     0.049 H 
BRANCH   4   7
ATOM      7  N   UNL A   1      45.863  23.675  27.608  1.00  0.00    -0.356 N 
ATOM      8  C   UNL A   1      46.807  24.381  26.921  1.00  0.00     0.227 C 
ATOM      9  O   UNL A   1      47.936  24.419  27.413  1.00  0.00    -0.274 OA
ATOM     10  H   UNL A   1      46.140  23.375  28.504  1.00  0.00     0.163 HD
BRANCH   8  11
ATOM     11  C   UNL A   1      46.415  25.139  25.646  1.00  0.00     0.063 C 
ATOM     12  H   UNL A   1      45.674  24.548  25.149  1.00  0.00     0.045 H 
BRANCH  11  13
ATOM     13  C   UNL A   1      47.571  25.271  24.647  1.00  0.00    -0.049 C 
ATOM     14  H   UNL A   1      48.134  24.361  24.629  1.00  0.00     0.024 H 
ATOM     15  H   UNL A   1      48.209  26.078  24.943  1.00  0.00     0.024 H 
ATOM     16  H   UNL A   1      47.179  25.466  23.670  1.00  0.00     0.024 H 
ENDBRANCH  11  13
BRANCH  11  17
ATOM     17  C   UNL A   1      45.790  26.485  25.982  1.00  0.00    -0.000 A 
ATOM     18  C   UNL A   1      46.554  27.461  26.638  1.00  0.00    -0.055 A 
ATOM     19  C   UNL A   1      44.475  26.807  25.629  1.00  0.00     0.127 A 
ATOM     20  C   UNL A   1      45.986  28.686  26.998  1.00  0.00    -0.059 A 
ATOM     21  H   UNL A   1      47.544  27.272  26.858  1.00  0.00     0.063 H 
ATOM     22  C   UNL A   1      43.900  28.014  26.008  1.00  0.00    -0.023 A 
ATOM     23  F   UNL A   1      43.720  25.938  24.942  1.00  0.00    -0.207 F 
ATOM     24  C   UNL A   1      44.638  28.952  26.736  1.00  0.00    -0.045 A 
ATOM     25  H   UNL A   1      46.568  29.402  27.462  1.00  0.00     0.063 H 
ATOM     26  H   UNL A   1      42.921  28.219  25.750  1.00  0.00     0.066 H 
BRANCH  24  27
ATOM     27  C   UNL A   1      43.966  30.201  27.250  1.00  0.00    -0.022 C 
ATOM     28  H   UNL A   1      43.383  29.922  28.104  1.00  0.00     0.032 H 
ATOM     29  H   UNL A   1      43.408  30.572  26.417  1.00  0.00     0.032 H 
BRANCH  27  30
ATOM     30  C   UNL A   1      44.876  31.377  27.674  1.00  0.00    -0.011 C 
ATOM     31  C   UNL A   1      44.331  32.226  28.829  1.00  0.00    -0.048 C 
ATOM     32  C   UNL A   1      45.215  32.432  26.615  1.00  0.00     0.057 C 
ATOM     33  H   UNL A   1      45.740  30.801  27.929  1.00  0.00     0.033 H 
ATOM     34  C   UNL A   1      43.739  33.494  28.208  1.00  0.00    -0.050 C 
ATOM     35  H   UNL A   1      45.122  32.480  29.503  1.00  0.00     0.027 H 
ATOM     36  H   UNL A   1      43.590  31.688  29.383  1.00  0.00     0.027 H 
ATOM     37  C   UNL A   1      44.114  33.476  26.730  1.00  0.00    -0.027 C 
ATOM     38  H   UNL A   1      46.182  32.856  26.789  1.00  0.00     0.060 H 
ATOM     39  H   UNL A   1      44.148  34.362  28.682  1.00  0.00     0.027 H 
ATOM     40  H   UNL A   1      42.677  33.524  28.335  1.00  0.00     0.027 H 
ATOM     41  H   UNL A   1      44.472  34.436  26.423  1.00  0.00     0.029 H 
ATOM     42  H   UNL A   1      43.276  33.248  26.106  1.00  0.00     0.029 H 
BRANCH  32  43
ATOM     43  O   UNL A   1      45.332  31.898  25.312  1.00  0.00    -0.393 OA
ATOM     44  H   UNL A   1      45.161  32.596  24.661  1.00  0.00     0.210 HD
ENDBRANCH  32  43
ENDBRANCH  27  30
ENDBRANCH  24  27
ENDBRANCH  11  17
ENDBRANCH   8  11
ENDBRANCH   4   7
ENDBRANCH   1   4
BRANCH   1  45
ATOM     45  C   UNL A   1      42.479  23.499  28.770  1.00  0.00    -0.052 C 
ATOM     46  H   UNL A   1      41.520  23.948  28.613  1.00  0.00     0.027 H 
ATOM     47  H   UNL A   1      42.833  23.594  29.775  1.00  0.00     0.027 H 
BRANCH  45  48
ATOM     48  C   UNL A   1      42.347  21.996  28.503  1.00  0.00    -0.052 C 
ATOM     49  H   UNL A   1      42.263  21.497  29.446  1.00  0.00     0.027 H 
ATOM     50  H   UNL A   1      43.218  21.712  27.950  1.00  0.00     0.027 H 
BRANCH  48  51
ATOM     51  C   UNL A   1      41.144  21.597  27.645  1.00  0.00    -0.036 C 
ATOM     52  H   UNL A   1      40.254  21.905  28.153  1.00  0.00     0.028 H 
ATOM     53  H   UNL A   1      41.204  20.537  27.511  1.00  0.00     0.028 H 
BRANCH  51  54
ATOM     54  C   UNL A   1      41.131  22.210  26.249  1.00  0.00     0.018 C 
ATOM     55  H   UNL A   1      41.633  21.547  25.576  1.00  0.00     0.049 H 
ATOM     56  H   UNL A   1      41.625  23.158  26.301  1.00  0.00     0.049 H 
BRANCH  54  57
ATOM     57  N   UNL A   1      39.779  22.437  25.763  1.00  0.00    -0.352 N 
ATOM     58  C   UNL A   1      38.902  23.442  26.079  1.00  0.00     0.251 C 
ATOM     59  H   UNL A   1      39.447  21.775  25.114  1.00  0.00     0.163 HD
ATOM     60  O   UNL A   1      37.729  23.376  25.715  1.00  0.00    -0.269 OA
BRANCH  58  61
ATOM     61  C   UNL A   1      39.358  24.599  26.876  1.00  0.00     0.039 A 
ATOM     62  C   UNL A   1      40.140  25.578  26.258  1.00  0.00    -0.049 A 
ATOM     63  C   UNL A   1      39.034  24.710  28.232  1.00  0.00    -0.049 A 
ATOM     64  C   UNL A   1      40.558  26.693  26.986  1.00  0.00    -0.053 A 
ATOM     65  H   UNL A   1      40.407  25.477  25.265  1.00  0.00     0.063 H 
ATOM     66  C   UNL A   1      39.396  25.853  28.940  1.00  0.00    -0.053 A 
ATOM     67  H   UNL A   1      38.530  23.946  28.707  1.00  0.00     0.063 H 
ATOM     68  C   UNL A   1      40.169  26.851  28.326  1.00  0.00    -0.014 A 
ATOM     69  H   UNL A   1      41.157  27.404  26.538  1.00  0.00     0.063 H 
ATOM     70  H   UNL A   1      39.094  25.967  29.920  1.00  0.00     0.063 H 
BRANCH  68  71
ATOM     71  C   UNL A   1      40.575  28.048  29.105  1.00  0.00     0.031 A 
ATOM     72  C   UNL A   1      41.966  28.147  29.666  1.00  0.00     0.074 A 
ATOM     73  C   UNL A   1      39.676  29.018  29.352  1.00  0.00     0.049 A 
ATOM     74  N   UNL A   1      42.493  29.082  30.415  1.00  0.00    -0.248 NA
ATOM     75  C   UNL A   1      42.879  27.033  29.365  1.00  0.00    -0.034 C 
ATOM     76  C   UNL A   1      38.283  29.017  28.900  1.00  0.00    -0.036 A 
ATOM     77  N   UNL A   1      39.796  30.193  30.053  1.00  0.00    -0.354 N 
ATOM     78  C   UNL A   1      43.788  28.662  30.688  1.00  0.00     0.074 A 
ATOM     79  C   UNL A   1      43.952  27.366  30.066  1.00  0.00    -0.034 C 
ATOM     80  H   UNL A   1      42.724  26.208  28.765  1.00  0.00     0.065 H 
ATOM     81  C   UNL A   1      37.685  30.145  29.316  1.00  0.00    -0.036 A 
ATOM     82  H   UNL A   1      37.833  28.267  28.352  1.00  0.00     0.065 H 
ATOM     83  C   UNL A   1      38.641  30.933  30.089  1.00  0.00     0.049 A 
ATOM     84  H   UNL A   1      40.632  30.477  30.489  1.00  0.00     0.167 HD
ATOM     85  C   UNL A   1      44.760  29.310  31.373  1.00  0.00     0.037 A 
ATOM     86  H   UNL A   1      44.796  26.777  30.159  1.00  0.00     0.065 H 
ATOM     87  H   UNL A   1      36.709  30.412  29.119  1.00  0.00     0.065 H 
ATOM     88  C   UNL A   1      38.382  32.115  30.680  1.00  0.00     0.037 A 
ATOM     89  C   UNL A   1      44.602  30.613  31.965  1.00  0.00     0.049 A 
ATOM     90  C   UNL A   1      39.481  32.816  31.432  1.00  0.00     0.074 A 
ATOM     91  C   UNL A   1      45.544  31.380  32.628  1.00  0.00    -0.036 A 
ATOM     92  N   UNL A   1      43.422  31.343  31.963  1.00  0.00    -0.354 N 
ATOM     93  N   UNL A   1      40.721  32.441  31.627  1.00  0.00    -0.248 NA
ATOM     94  C   UNL A   1      39.143  34.110  32.040  1.00  0.00    -0.034 C 
ATOM     95  C   UNL A   1      44.923  32.557  33.062  1.00  0.00    -0.036 A 
ATOM     96  H   UNL A   1      46.534  31.128  32.776  1.00  0.00     0.065 H 
ATOM     97  C   UNL A   1      43.607  32.543  32.629  1.00  0.00     0.049 A 
ATOM     98  H   UNL A   1      42.578  31.050  31.548  1.00  0.00     0.167 HD
ATOM     99  C   UNL A   1      41.319  33.462  32.351  1.00  0.00     0.074 A 
ATOM    100  C   UNL A   1      40.309  34.480  32.551  1.00  0.00    -0.034 C 
ATOM    101  H   UNL A   1      38.236  34.603  32.063  1.00  0.00     0.065 H 
ATOM    102  H   UNL A   1      45.370  33.308  33.612  1.00  0.00     0.065 H 
ATOM    103  C   UNL A   1      42.592  33.550  32.810  1.00  0.00     0.037 A 
ATOM    104  H   UNL A   1      40.475  35.378  33.031  1.00  0.00     0.065 H 
BRANCH  85 105
ATOM    105  C   UNL A   1      46.084  28.619  31.517  1.00  0.00     0.064 A 
ATOM    106  C   UNL A   1      46.299  27.635  32.495  1.00  0.00     0.173 A 
ATOM    107  C   UNL A   1      47.144  28.920  30.647  1.00  0.00     0.173 A 
ATOM    108  F   UNL A   1      45.322  27.319  33.358  1.00  0.00    -0.203 F 
ATOM    109  C   UNL A   1      47.533  27.003  32.617  1.00  0.00     0.198 A 
ATOM    110  C   UNL A   1      48.368  28.264  30.754  1.00  0.00     0.198 A 
ATOM    111  F   UNL A   1      46.992  29.847  29.690  1.00  0.00    -0.203 F 
ATOM    112  F   UNL A   1      47.729  26.105  33.593  1.00  0.00    -0.200 F 
ATOM    113  C   UNL A   1      48.563  27.313  31.744  1.00  0.00     0.200 A 
ATOM    114  F   UNL A   1      49.360  28.555  29.901  1.00  0.00    -0.200 F 
ATOM    115  F   UNL A   1      49.750  26.699  31.861  1.00  0.00    -0.200 F 
ENDBRANCH  85 105
BRANCH  88 116
ATOM    116  C   UNL A   1      37.035  32.728  30.554  1.00  0.00     0.064 A 
ATOM    117  C   UNL A   1      36.688  33.471  29.417  1.00  0.00     0.173 A 
ATOM    118  C   UNL A   1      36.071  32.589  31.563  1.00  0.00     0.173 A 
ATOM    119  F   UNL A   1      37.585  33.649  28.435  1.00  0.00    -0.203 F 
ATOM    120  C   UNL A   1      35.435  34.069  29.302  1.00  0.00     0.198 A 
ATOM    121  C   UNL A   1      34.808  33.165  31.435  1.00  0.00     0.198 A 
ATOM    122  F   UNL A   1      36.351  31.884  32.668  1.00  0.00    -0.203 F 
ATOM    123  F   UNL A   1      35.145  34.810  28.224  1.00  0.00    -0.200 F 
ATOM    124  C   UNL A   1      34.495  33.911  30.309  1.00  0.00     0.200 A 
ATOM    125  F   UNL A   1      33.898  32.999  32.403  1.00  0.00    -0.200 F 
ATOM    126  F   UNL A   1      33.288  34.482  30.196  1.00  0.00    -0.200 F 
ENDBRANCH  88 116
BRANCH 103 127
ATOM    127  C   UNL A   1      42.973  34.804  33.539  1.00  0.00     0.064 A 
ATOM    128  C   UNL A   1      42.923  34.886  34.938  1.00  0.00     0.173 A 
ATOM    129  C   UNL A   1      43.428  35.926  32.830  1.00  0.00     0.173 A 
ATOM    130  F   UNL A   1      42.480  33.845  35.660  1.00  0.00    -0.203 F 
ATOM    131  C   UNL A   1      43.288  36.055  35.600  1.00  0.00     0.198 A 
ATOM    132  C   UNL A   1      43.820  37.084  33.496  1.00  0.00     0.198 A 
ATOM    133  F   UNL A   1      43.501  35.896  31.491  1.00  0.00    -0.203 F 
ATOM    134  F   UNL A   1      43.186  36.128  36.934  1.00  0.00    -0.200 F 
ATOM    135  C   UNL A   1      43.742  37.150  34.879  1.00  0.00     0.200 A 
ATOM    136  F   UNL A   1      44.270  38.136  32.799  1.00  0.00    -0.200 F 
ATOM    137  F   UNL A   1      44.099  38.273  35.517  1.00  0.00    -0.200 F 
ENDBRANCH 103 127
ENDBRANCH  68  71
ENDBRANCH  58  61
ENDBRANCH  54  57
ENDBRANCH  51  54
ENDBRANCH  48  51
ENDBRANCH  45  48
ENDBRANCH   1  45
TORSDOF 18
ENDMDL
MODEL 4
REMARK VINA RESULT:     -11.6      2.512      8.696
REMARK SMILES C[C@@H](C(=O)NCCCCCCNC(=O)c1ccc(-c2c3nc(c(-c4c(F)c(F)c(F)c(F)c4F)c4ccc([nH]4)c(-c4c(F)c(F)c(F)c(F)c4F)c4nc(c(-c5c(F)c(F)c(F)c(F)c5F)c5ccc2[nH]5)C=C4)C=C3)cc1)c1ccc(C[C@@H]2CCC[C@@H]2O)cc1F
REMARK SMILES IDX 7 1 6 4 5 7 3 8 4 9 2 11 1 13 78 17 79 18 90 19 80 20 89 22
REMARK SMILES IDX 91 23 81 24 82 27 83 30 84 31 87 32 85 34 86 37 88 43 8 45
REMARK SMILES IDX 9 48 10 51 11 54 12 57 13 58 14 60 15 61 16 62 77 63 17 64
REMARK SMILES IDX 76 66 18 68 19 71 20 72 70 73 21 74 75 75 69 76 71 77 22 78
REMARK SMILES IDX 74 79 68 81 67 83 23 85 55 88 35 89 54 90 36 91 39 92 53 93
REMARK SMILES IDX 72 94 37 95 38 97 52 99 73 100 40 103 24 105 25 106 33 107
REMARK SMILES IDX 26 108 27 109 31 110 34 111 28 112 29 113 32 114 30 115
REMARK SMILES IDX 56 116 57 117 65 118 58 119 59 120 63 121 66 122 60 123
REMARK SMILES IDX 61 124 64 125 62 126 41 127 42 128 50 129 43 130 44 131
REMARK SMILES IDX 48 132 51 133 45 134 46 135 49 136 47 137
REMARK H PARENT 7 2 7 3 6 5 6 6 5 10 2 12 1 14 1 15 1 16 79 21 80 25 89 26
REMARK H PARENT 82 28 82 29 83 33 84 35 84 36 87 38 85 39 85 40 86 41 86 42
REMARK H PARENT 88 44 8 46 8 47 9 49 9 50 10 52 10 53 11 55 11 56 12 59 16 65
REMARK H PARENT 77 67 17 69 76 70 75 80 69 82 71 84 74 86 68 87 36 96 39 98
REMARK H PARENT 72 101 37 102 73 104
REMARK Flexibility Score: inf
ROOT
ATOM      1  C   UNL A   1      31.986  28.599  27.366  1.00  0.00    -0.036 C 
ATOM      2  H   UNL A   1      32.793  28.133  27.894  1.00  0.00     0.028 H 
ATOM      3  H   UNL A   1      31.124  28.745  27.982  1.00  0.00     0.028 H 
ENDROOT
BRANCH   1   4
ATOM      4  C   UNL A   1      31.564  27.675  26.221  1.00  0.00     0.017 C 
ATOM      5  H   UNL A   1      30.757  28.127  25.683  1.00  0.00     0.049 H 
ATOM      6  H   UNL A   1      32.400  27.524  25.569  1.00  0.00     0.049 H 
BRANCH   4   7
ATOM      7  N   UNL A   1      31.134  26.395  26.739  1.00  0.00    -0.356 N 
ATOM      8  C   UNL A   1      31.041  25.183  26.119  1.00  0.00     0.227 C 
ATOM      9  O   UNL A   1      30.483  24.282  26.747  1.00  0.00    -0.274 OA
ATOM     10  H   UNL A   1      30.866  26.398  27.686  1.00  0.00     0.163 HD
BRANCH   8  11
ATOM     11  C   UNL A   1      31.685  24.979  24.741  1.00  0.00     0.063 C 
ATOM     12  H   UNL A   1      32.486  25.685  24.666  1.00  0.00     0.045 H 
BRANCH  11  13
ATOM     13  C   UNL A   1      30.738  25.309  23.581  1.00  0.00    -0.049 C 
ATOM     14  H   UNL A   1      30.244  24.417  23.258  1.00  0.00     0.024 H 
ATOM     15  H   UNL A   1      31.298  25.721  22.767  1.00  0.00     0.024 H 
ATOM     16  H   UNL A   1      30.008  26.022  23.907  1.00  0.00     0.024 H 
ENDBRANCH  11  13
BRANCH  11  17
ATOM     17  C   UNL A   1      32.280  23.584  24.618  1.00  0.00    -0.000 A 
ATOM     18  C   UNL A   1      31.689  22.651  23.753  1.00  0.00    -0.055 A 
ATOM     19  C   UNL A   1      33.429  23.198  25.316  1.00  0.00     0.127 A 
ATOM     20  C   UNL A   1      32.190  21.350  23.660  1.00  0.00    -0.059 A 
ATOM     21  H   UNL A   1      30.876  22.928  23.182  1.00  0.00     0.063 H 
ATOM     22  C   UNL A   1      33.915  21.897  25.245  1.00  0.00    -0.023 A 
ATOM     23  F   UNL A   1      34.074  24.068  26.105  1.00  0.00    -0.207 F 
ATOM     24  C   UNL A   1      33.274  20.945  24.446  1.00  0.00    -0.045 A 
ATOM     25  H   UNL A   1      31.757  20.682  23.003  1.00  0.00     0.063 H 
ATOM     26  H   UNL A   1      34.754  21.633  25.785  1.00  0.00     0.066 H 
BRANCH  24  27
ATOM     27  C   UNL A   1      33.733  19.509  24.477  1.00  0.00    -0.022 C 
ATOM     28  H   UNL A   1      34.332  19.383  25.355  1.00  0.00     0.032 H 
ATOM     29  H   UNL A   1      34.247  19.367  23.549  1.00  0.00     0.032 H 
BRANCH  27  30
ATOM     30  C   UNL A   1      32.643  18.412  24.498  1.00  0.00    -0.011 C 
ATOM     31  C   UNL A   1      32.528  17.647  25.822  1.00  0.00    -0.048 C 
ATOM     32  C   UNL A   1      32.750  17.282  23.467  1.00  0.00     0.057 C 
ATOM     33  H   UNL A   1      31.805  19.042  24.288  1.00  0.00     0.033 H 
ATOM     34  C   UNL A   1      33.241  16.306  25.624  1.00  0.00    -0.050 C 
ATOM     35  H   UNL A   1      31.499  17.485  26.065  1.00  0.00     0.027 H 
ATOM     36  H   UNL A   1      32.970  18.201  26.624  1.00  0.00     0.027 H 
ATOM     37  C   UNL A   1      33.591  16.209  24.144  1.00  0.00    -0.027 C 
ATOM     38  H   UNL A   1      31.782  16.915  23.197  1.00  0.00     0.060 H 
ATOM     39  H   UNL A   1      32.595  15.501  25.904  1.00  0.00     0.027 H 
ATOM     40  H   UNL A   1      34.120  16.245  26.232  1.00  0.00     0.027 H 
ATOM     41  H   UNL A   1      33.343  15.240  23.763  1.00  0.00     0.029 H 
ATOM     42  H   UNL A   1      34.637  16.347  23.968  1.00  0.00     0.029 H 
BRANCH  32  43
ATOM     43  O   UNL A   1      33.287  17.703  22.231  1.00  0.00    -0.393 OA
ATOM     44  H   UNL A   1      33.411  16.934  21.654  1.00  0.00     0.210 HD
ENDBRANCH  32  43
ENDBRANCH  27  30
ENDBRANCH  24  27
ENDBRANCH  11  17
ENDBRANCH   8  11
ENDBRANCH   4   7
ENDBRANCH   1   4
BRANCH   1  45
ATOM     45  C   UNL A   1      32.448  29.987  26.904  1.00  0.00    -0.052 C 
ATOM     46  H   UNL A   1      33.307  29.861  26.278  1.00  0.00     0.027 H 
ATOM     47  H   UNL A   1      32.648  30.548  27.793  1.00  0.00     0.027 H 
BRANCH  45  48
ATOM     48  C   UNL A   1      31.404  30.789  26.120  1.00  0.00    -0.052 C 
ATOM     49  H   UNL A   1      30.447  30.340  26.285  1.00  0.00     0.027 H 
ATOM     50  H   UNL A   1      31.713  30.763  25.095  1.00  0.00     0.027 H 
BRANCH  48  51
ATOM     51  C   UNL A   1      31.307  32.267  26.502  1.00  0.00    -0.036 C 
ATOM     52  H   UNL A   1      30.455  32.394  27.136  1.00  0.00     0.028 H 
ATOM     53  H   UNL A   1      31.232  32.815  25.585  1.00  0.00     0.028 H 
BRANCH  51  54
ATOM     54  C   UNL A   1      32.529  32.814  27.233  1.00  0.00     0.018 C 
ATOM     55  H   UNL A   1      33.379  32.741  26.587  1.00  0.00     0.049 H 
ATOM     56  H   UNL A   1      32.668  32.234  28.122  1.00  0.00     0.049 H 
BRANCH  54  57
ATOM     57  N   UNL A   1      32.357  34.203  27.626  1.00  0.00    -0.352 N 
ATOM     58  C   UNL A   1      32.986  34.907  28.619  1.00  0.00     0.251 C 
ATOM     59  H   UNL A   1      31.693  34.710  27.104  1.00  0.00     0.163 HD
ATOM     60  O   UNL A   1      32.583  36.025  28.936  1.00  0.00    -0.269 OA
BRANCH  58  61
ATOM     61  C   UNL A   1      34.140  34.317  29.329  1.00  0.00     0.039 A 
ATOM     62  C   UNL A   1      33.906  33.522  30.454  1.00  0.00    -0.049 A 
ATOM     63  C   UNL A   1      35.448  34.562  28.901  1.00  0.00    -0.049 A 
ATOM     64  C   UNL A   1      34.980  32.934  31.123  1.00  0.00    -0.053 A 
ATOM     65  H   UNL A   1      32.941  33.371  30.789  1.00  0.00     0.063 H 
ATOM     66  C   UNL A   1      36.514  33.922  29.528  1.00  0.00    -0.053 A 
ATOM     67  H   UNL A   1      35.624  35.216  28.123  1.00  0.00     0.063 H 
ATOM     68  C   UNL A   1      36.291  33.110  30.651  1.00  0.00    -0.014 A 
ATOM     69  H   UNL A   1      34.811  32.368  31.970  1.00  0.00     0.063 H 
ATOM     70  H   UNL A   1      37.473  34.047  29.166  1.00  0.00     0.063 H 
BRANCH  68  71
ATOM     71  C   UNL A   1      37.442  32.463  31.328  1.00  0.00     0.031 A 
ATOM     72  C   UNL A   1      38.163  31.322  30.666  1.00  0.00     0.074 A 
ATOM     73  C   UNL A   1      37.803  32.866  32.561  1.00  0.00     0.049 A 
ATOM     74  N   UNL A   1      39.154  30.594  31.117  1.00  0.00    -0.248 NA
ATOM     75  C   UNL A   1      37.692  30.932  29.328  1.00  0.00    -0.034 C 
ATOM     76  C   UNL A   1      37.153  33.932  33.326  1.00  0.00    -0.036 A 
ATOM     77  N   UNL A   1      38.801  32.421  33.392  1.00  0.00    -0.354 N 
ATOM     78  C   UNL A   1      39.411  29.653  30.129  1.00  0.00     0.074 A 
ATOM     79  C   UNL A   1      38.441  29.869  29.077  1.00  0.00    -0.034 C 
ATOM     80  H   UNL A   1      36.967  31.371  28.740  1.00  0.00     0.065 H 
ATOM     81  C   UNL A   1      37.783  34.074  34.504  1.00  0.00    -0.036 A 
ATOM     82  H   UNL A   1      36.341  34.485  33.011  1.00  0.00     0.065 H 
ATOM     83  C   UNL A   1      38.858  33.089  34.590  1.00  0.00     0.049 A 
ATOM     84  H   UNL A   1      39.418  31.692  33.151  1.00  0.00     0.167 HD
ATOM     85  C   UNL A   1      40.382  28.710  30.092  1.00  0.00     0.037 A 
ATOM     86  H   UNL A   1      38.346  29.272  28.240  1.00  0.00     0.065 H 
ATOM     87  H   UNL A   1      37.546  34.766  35.230  1.00  0.00     0.065 H 
ATOM     88  C   UNL A   1      39.685  32.925  35.640  1.00  0.00     0.037 A 
ATOM     89  C   UNL A   1      41.363  28.518  31.127  1.00  0.00     0.049 A 
ATOM     90  C   UNL A   1      40.759  31.873  35.572  1.00  0.00     0.074 A 
ATOM     91  C   UNL A   1      42.425  27.630  31.158  1.00  0.00    -0.036 A 
ATOM     92  N   UNL A   1      41.403  29.228  32.319  1.00  0.00    -0.354 N 
ATOM     93  N   UNL A   1      41.035  31.032  34.604  1.00  0.00    -0.248 NA
ATOM     94  C   UNL A   1      41.641  31.753  36.741  1.00  0.00    -0.034 C 
ATOM     95  C   UNL A   1      43.083  27.776  32.384  1.00  0.00    -0.036 A 
ATOM     96  H   UNL A   1      42.687  26.974  30.405  1.00  0.00     0.065 H 
ATOM     97  C   UNL A   1      42.459  28.785  33.099  1.00  0.00     0.049 A 
ATOM     98  H   UNL A   1      40.772  29.941  32.572  1.00  0.00     0.167 HD
ATOM     99  C   UNL A   1      42.137  30.306  35.033  1.00  0.00     0.074 A 
ATOM    100  C   UNL A   1      42.488  30.814  36.343  1.00  0.00    -0.034 C 
ATOM    101  H   UNL A   1      41.610  32.264  37.636  1.00  0.00     0.065 H 
ATOM    102  H   UNL A   1      43.895  27.223  32.703  1.00  0.00     0.065 H 
ATOM    103  C   UNL A   1      42.800  29.309  34.397  1.00  0.00     0.037 A 
ATOM    104  H   UNL A   1      43.294  30.485  36.897  1.00  0.00     0.065 H 
BRANCH  85 105
ATOM    105  C   UNL A   1      40.433  27.816  28.888  1.00  0.00     0.064 A 
ATOM    106  C   UNL A   1      41.241  28.118  27.781  1.00  0.00     0.173 A 
ATOM    107  C   UNL A   1      39.688  26.627  28.852  1.00  0.00     0.173 A 
ATOM    108  F   UNL A   1      41.963  29.248  27.761  1.00  0.00    -0.203 F 
ATOM    109  C   UNL A   1      41.277  27.279  26.670  1.00  0.00     0.198 A 
ATOM    110  C   UNL A   1      39.751  25.775  27.750  1.00  0.00     0.198 A 
ATOM    111  F   UNL A   1      38.904  26.287  29.885  1.00  0.00    -0.203 F 
ATOM    112  F   UNL A   1      42.017  27.615  25.604  1.00  0.00    -0.200 F 
ATOM    113  C   UNL A   1      40.538  26.107  26.658  1.00  0.00     0.200 A 
ATOM    114  F   UNL A   1      39.044  24.636  27.746  1.00  0.00    -0.200 F 
ATOM    115  F   UNL A   1      40.578  25.298  25.590  1.00  0.00    -0.200 F 
ENDBRANCH  85 105
BRANCH  88 116
ATOM    116  C   UNL A   1      39.553  33.801  36.832  1.00  0.00     0.064 A 
ATOM    117  C   UNL A   1      38.783  33.401  37.934  1.00  0.00     0.173 A 
ATOM    118  C   UNL A   1      40.185  35.050  36.895  1.00  0.00     0.173 A 
ATOM    119  F   UNL A   1      38.142  32.223  37.910  1.00  0.00    -0.203 F 
ATOM    120  C   UNL A   1      38.635  34.227  39.046  1.00  0.00     0.198 A 
ATOM    121  C   UNL A   1      40.058  35.865  38.019  1.00  0.00     0.198 A 
ATOM    122  F   UNL A   1      40.936  35.477  35.869  1.00  0.00    -0.203 F 
ATOM    123  F   UNL A   1      37.859  33.839  40.067  1.00  0.00    -0.200 F 
ATOM    124  C   UNL A   1      39.277  35.455  39.090  1.00  0.00     0.200 A 
ATOM    125  F   UNL A   1      40.690  37.044  38.064  1.00  0.00    -0.200 F 
ATOM    126  F   UNL A   1      39.138  36.248  40.161  1.00  0.00    -0.200 F 
ENDBRANCH  88 116
BRANCH 103 127
ATOM    127  C   UNL A   1      43.994  28.726  35.094  1.00  0.00     0.064 A 
ATOM    128  C   UNL A   1      45.277  29.267  34.933  1.00  0.00     0.173 A 
ATOM    129  C   UNL A   1      43.845  27.634  35.963  1.00  0.00     0.173 A 
ATOM    130  F   UNL A   1      45.475  30.302  34.101  1.00  0.00    -0.203 F 
ATOM    131  C   UNL A   1      46.373  28.719  35.594  1.00  0.00     0.198 A 
ATOM    132  C   UNL A   1      44.936  27.106  36.644  1.00  0.00     0.198 A 
ATOM    133  F   UNL A   1      42.636  27.084  36.157  1.00  0.00    -0.203 F 
ATOM    134  F   UNL A   1      47.598  29.221  35.387  1.00  0.00    -0.200 F 
ATOM    135  C   UNL A   1      46.200  27.644  36.454  1.00  0.00     0.200 A 
ATOM    136  F   UNL A   1      44.766  26.076  37.484  1.00  0.00    -0.200 F 
ATOM    137  F   UNL A   1      47.255  27.121  37.094  1.00  0.00    -0.200 F 
ENDBRANCH 103 127
ENDBRANCH  68  71
ENDBRANCH  58  61
ENDBRANCH  54  57
ENDBRANCH  51  54
ENDBRANCH  48  51
ENDBRANCH  45  48
ENDBRANCH   1  45
TORSDOF 18
ENDMDL
MODEL 5
REMARK VINA RESULT:     -11.6      4.136      8.589
REMARK SMILES C[C@@H](C(=O)NCCCCCCNC(=O)c1ccc(-c2c3nc(c(-c4c(F)c(F)c(F)c(F)c4F)c4ccc([nH]4)c(-c4c(F)c(F)c(F)c(F)c4F)c4nc(c(-c5c(F)c(F)c(F)c(F)c5F)c5ccc2[nH]5)C=C4)C=C3)cc1)c1ccc(C[C@@H]2CCC[C@@H]2O)cc1F
REMARK SMILES IDX 7 1 6 4 5 7 3 8 4 9 2 11 1 13 78 17 79 18 90 19 80 20 89 22
REMARK SMILES IDX 91 23 81 24 82 27 83 30 84 31 87 32 85 34 86 37 88 43 8 45
REMARK SMILES IDX 9 48 10 51 11 54 12 57 13 58 14 60 15 61 16 62 77 63 17 64
REMARK SMILES IDX 76 66 18 68 19 71 20 72 70 73 21 74 75 75 69 76 71 77 22 78
REMARK SMILES IDX 74 79 68 81 67 83 23 85 55 88 35 89 54 90 36 91 39 92 53 93
REMARK SMILES IDX 72 94 37 95 38 97 52 99 73 100 40 103 24 105 25 106 33 107
REMARK SMILES IDX 26 108 27 109 31 110 34 111 28 112 29 113 32 114 30 115
REMARK SMILES IDX 56 116 57 117 65 118 58 119 59 120 63 121 66 122 60 123
REMARK SMILES IDX 61 124 64 125 62 126 41 127 42 128 50 129 43 130 44 131
REMARK SMILES IDX 48 132 51 133 45 134 46 135 49 136 47 137
REMARK H PARENT 7 2 7 3 6 5 6 6 5 10 2 12 1 14 1 15 1 16 79 21 80 25 89 26
REMARK H PARENT 82 28 82 29 83 33 84 35 84 36 87 38 85 39 85 40 86 41 86 42
REMARK H PARENT 88 44 8 46 8 47 9 49 9 50 10 52 10 53 11 55 11 56 12 59 16 65
REMARK H PARENT 77 67 17 69 76 70 75 80 69 82 71 84 74 86 68 87 36 96 39 98
REMARK H PARENT 72 101 37 102 73 104
REMARK Flexibility Score: inf
ROOT
ATOM      1  C   UNL A   1      34.327  22.824  27.429  1.00  0.00    -0.036 C 
ATOM      2  H   UNL A   1      35.384  22.715  27.298  1.00  0.00     0.028 H 
ATOM      3  H   UNL A   1      34.065  23.115  28.424  1.00  0.00     0.028 H 
ENDROOT
BRANCH   1   4
ATOM      4  C   UNL A   1      33.669  21.466  27.173  1.00  0.00     0.017 C 
ATOM      5  H   UNL A   1      33.613  20.923  28.094  1.00  0.00     0.049 H 
ATOM      6  H   UNL A   1      32.685  21.624  26.781  1.00  0.00     0.049 H 
BRANCH   4   7
ATOM      7  N   UNL A   1      34.440  20.704  26.216  1.00  0.00    -0.356 N 
ATOM      8  C   UNL A   1      34.027  19.962  25.148  1.00  0.00     0.227 C 
ATOM      9  O   UNL A   1      34.883  19.273  24.590  1.00  0.00    -0.274 OA
ATOM     10  H   UNL A   1      35.413  20.724  26.357  1.00  0.00     0.163 HD
BRANCH   8  11
ATOM     11  C   UNL A   1      32.579  20.074  24.654  1.00  0.00     0.063 C 
ATOM     12  H   UNL A   1      31.948  19.905  25.502  1.00  0.00     0.045 H 
BRANCH  11  13
ATOM     13  C   UNL A   1      32.205  18.985  23.641  1.00  0.00    -0.049 C 
ATOM     14  H   UNL A   1      32.523  19.283  22.664  1.00  0.00     0.024 H 
ATOM     15  H   UNL A   1      31.143  18.844  23.643  1.00  0.00     0.024 H 
ATOM     16  H   UNL A   1      32.686  18.067  23.909  1.00  0.00     0.024 H 
ENDBRANCH  11  13
BRANCH  11  17
ATOM     17  C   UNL A   1      32.288  21.472  24.129  1.00  0.00    -0.000 A 
ATOM     18  C   UNL A   1      32.973  21.947  23.000  1.00  0.00    -0.055 A 
ATOM     19  C   UNL A   1      31.328  22.305  24.713  1.00  0.00     0.127 A 
ATOM     20  C   UNL A   1      32.756  23.244  22.529  1.00  0.00    -0.059 A 
ATOM     21  H   UNL A   1      33.644  21.331  22.514  1.00  0.00     0.063 H 
ATOM     22  C   UNL A   1      31.129  23.605  24.263  1.00  0.00    -0.023 A 
ATOM     23  F   UNL A   1      30.597  21.880  25.752  1.00  0.00    -0.207 F 
ATOM     24  C   UNL A   1      31.873  24.104  23.189  1.00  0.00    -0.045 A 
ATOM     25  H   UNL A   1      33.253  23.570  21.685  1.00  0.00     0.063 H 
ATOM     26  H   UNL A   1      30.427  24.205  24.724  1.00  0.00     0.066 H 
BRANCH  24  27
ATOM     27  C   UNL A   1      31.738  25.553  22.793  1.00  0.00    -0.022 C 
ATOM     28  H   UNL A   1      30.733  25.852  23.010  1.00  0.00     0.032 H 
ATOM     29  H   UNL A   1      32.010  25.580  21.759  1.00  0.00     0.032 H 
BRANCH  27  30
ATOM     30  C   UNL A   1      32.682  26.570  23.477  1.00  0.00    -0.011 C 
ATOM     31  C   UNL A   1      32.048  27.360  24.628  1.00  0.00    -0.048 C 
ATOM     32  C   UNL A   1      33.288  27.676  22.606  1.00  0.00     0.057 C 
ATOM     33  H   UNL A   1      33.433  25.876  23.790  1.00  0.00     0.033 H 
ATOM     34  C   UNL A   1      31.690  28.742  24.074  1.00  0.00    -0.050 C 
ATOM     35  H   UNL A   1      32.743  27.455  25.436  1.00  0.00     0.027 H 
ATOM     36  H   UNL A   1      31.178  26.861  25.002  1.00  0.00     0.027 H 
ATOM     37  C   UNL A   1      32.291  28.824  22.676  1.00  0.00    -0.027 C 
ATOM     38  H   UNL A   1      34.252  27.966  22.968  1.00  0.00     0.060 H 
ATOM     39  H   UNL A   1      32.103  29.507  24.699  1.00  0.00     0.027 H 
ATOM     40  H   UNL A   1      30.630  28.882  24.046  1.00  0.00     0.027 H 
ATOM     41  H   UNL A   1      32.787  29.762  22.535  1.00  0.00     0.029 H 
ATOM     42  H   UNL A   1      31.544  28.756  21.913  1.00  0.00     0.029 H 
BRANCH  32  43
ATOM     43  O   UNL A   1      33.556  27.261  21.283  1.00  0.00    -0.393 OA
ATOM     44  H   UNL A   1      34.516  27.231  21.142  1.00  0.00     0.210 HD
ENDBRANCH  32  43
ENDBRANCH  27  30
ENDBRANCH  24  27
ENDBRANCH  11  17
ENDBRANCH   8  11
ENDBRANCH   4   7
ENDBRANCH   1   4
BRANCH   1  45
ATOM     45  C   UNL A   1      33.836  23.936  26.493  1.00  0.00    -0.052 C 
ATOM     46  H   UNL A   1      33.468  24.740  27.096  1.00  0.00     0.027 H 
ATOM     47  H   UNL A   1      33.086  23.495  25.870  1.00  0.00     0.027 H 
BRANCH  45  48
ATOM     48  C   UNL A   1      34.899  24.503  25.546  1.00  0.00    -0.052 C 
ATOM     49  H   UNL A   1      35.561  25.117  26.119  1.00  0.00     0.027 H 
ATOM     50  H   UNL A   1      34.370  25.041  24.788  1.00  0.00     0.027 H 
BRANCH  48  51
ATOM     51  C   UNL A   1      35.739  23.451  24.818  1.00  0.00    -0.036 C 
ATOM     52  H   UNL A   1      35.399  23.393  23.805  1.00  0.00     0.028 H 
ATOM     53  H   UNL A   1      35.611  22.534  25.355  1.00  0.00     0.028 H 
BRANCH  51  54
ATOM     54  C   UNL A   1      37.237  23.738  24.801  1.00  0.00     0.018 C 
ATOM     55  H   UNL A   1      37.416  24.666  25.302  1.00  0.00     0.049 H 
ATOM     56  H   UNL A   1      37.552  23.782  23.779  1.00  0.00     0.049 H 
BRANCH  54  57
ATOM     57  N   UNL A   1      38.003  22.692  25.460  1.00  0.00    -0.352 N 
ATOM     58  C   UNL A   1      39.057  22.806  26.327  1.00  0.00     0.251 C 
ATOM     59  H   UNL A   1      37.722  21.770  25.255  1.00  0.00     0.163 HD
ATOM     60  O   UNL A   1      39.708  21.811  26.646  1.00  0.00    -0.269 OA
BRANCH  58  61
ATOM     61  C   UNL A   1      39.432  24.129  26.868  1.00  0.00     0.039 A 
ATOM     62  C   UNL A   1      39.087  24.441  28.186  1.00  0.00    -0.049 A 
ATOM     63  C   UNL A   1      40.100  25.067  26.075  1.00  0.00    -0.049 A 
ATOM     64  C   UNL A   1      39.455  25.675  28.724  1.00  0.00    -0.053 A 
ATOM     65  H   UNL A   1      38.563  23.761  28.759  1.00  0.00     0.063 H 
ATOM     66  C   UNL A   1      40.524  26.270  26.632  1.00  0.00    -0.053 A 
ATOM     67  H   UNL A   1      40.279  24.868  25.078  1.00  0.00     0.063 H 
ATOM     68  C   UNL A   1      40.197  26.590  27.960  1.00  0.00    -0.014 A 
ATOM     69  H   UNL A   1      39.178  25.918  29.689  1.00  0.00     0.063 H 
ATOM     70  H   UNL A   1      41.081  26.930  26.067  1.00  0.00     0.063 H 
BRANCH  68  71
ATOM     71  C   UNL A   1      40.627  27.891  28.528  1.00  0.00     0.031 A 
ATOM     72  C   UNL A   1      42.068  28.116  28.893  1.00  0.00     0.074 A 
ATOM     73  C   UNL A   1      39.713  28.850  28.765  1.00  0.00     0.049 A 
ATOM     74  N   UNL A   1      42.630  29.160  29.448  1.00  0.00    -0.248 NA
ATOM     75  C   UNL A   1      42.998  27.009  28.619  1.00  0.00    -0.034 C 
ATOM     76  C   UNL A   1      38.278  28.737  28.495  1.00  0.00    -0.036 A 
ATOM     77  N   UNL A   1      39.852  30.109  29.294  1.00  0.00    -0.354 N 
ATOM     78  C   UNL A   1      43.969  28.830  29.606  1.00  0.00     0.074 A 
ATOM     79  C   UNL A   1      44.128  27.471  29.133  1.00  0.00    -0.034 C 
ATOM     80  H   UNL A   1      42.817  26.108  28.150  1.00  0.00     0.065 H 
ATOM     81  C   UNL A   1      37.674  29.885  28.840  1.00  0.00    -0.036 A 
ATOM     82  H   UNL A   1      37.807  27.905  28.104  1.00  0.00     0.065 H 
ATOM     83  C   UNL A   1      38.671  30.803  29.383  1.00  0.00     0.049 A 
ATOM     84  H   UNL A   1      40.718  30.479  29.583  1.00  0.00     0.167 HD
ATOM     85  C   UNL A   1      44.979  29.598  30.078  1.00  0.00     0.037 A 
ATOM     86  H   UNL A   1      45.007  26.933  29.191  1.00  0.00     0.065 H 
ATOM     87  H   UNL A   1      36.668  30.086  28.736  1.00  0.00     0.065 H 
ATOM     88  C   UNL A   1      38.421  32.040  29.851  1.00  0.00     0.037 A 
ATOM     89  C   UNL A   1      44.823  30.959  30.519  1.00  0.00     0.049 A 
ATOM     90  C   UNL A   1      39.562  32.875  30.367  1.00  0.00     0.074 A 
ATOM     91  C   UNL A   1      45.794  31.842  30.959  1.00  0.00    -0.036 A 
ATOM     92  N   UNL A   1      43.613  31.636  30.576  1.00  0.00    -0.354 N 
ATOM     93  N   UNL A   1      40.836  32.576  30.449  1.00  0.00    -0.248 NA
ATOM     94  C   UNL A   1      39.230  34.223  30.848  1.00  0.00    -0.034 C 
ATOM     95  C   UNL A   1      45.167  33.040  31.319  1.00  0.00    -0.036 A 
ATOM     96  H   UNL A   1      46.807  31.650  31.012  1.00  0.00     0.065 H 
ATOM     97  C   UNL A   1      43.811  32.919  31.060  1.00  0.00     0.049 A 
ATOM     98  H   UNL A   1      42.743  31.260  30.310  1.00  0.00     0.167 HD
ATOM     99  C   UNL A   1      41.460  33.705  30.961  1.00  0.00     0.074 A 
ATOM    100  C   UNL A   1      40.427  34.700  31.158  1.00  0.00    -0.034 C 
ATOM    101  H   UNL A   1      38.307  34.679  30.924  1.00  0.00     0.065 H 
ATOM    102  H   UNL A   1      45.635  33.872  31.711  1.00  0.00     0.065 H 
ATOM    103  C   UNL A   1      42.772  33.900  31.241  1.00  0.00     0.037 A 
ATOM    104  H   UNL A   1      40.600  35.659  31.499  1.00  0.00     0.065 H 
BRANCH  85 105
ATOM    105  C   UNL A   1      46.347  28.982  30.138  1.00  0.00     0.064 A 
ATOM    106  C   UNL A   1      47.235  29.055  29.054  1.00  0.00     0.173 A 
ATOM    107  C   UNL A   1      46.787  28.338  31.305  1.00  0.00     0.173 A 
ATOM    108  F   UNL A   1      46.858  29.649  27.912  1.00  0.00    -0.203 F 
ATOM    109  C   UNL A   1      48.500  28.478  29.124  1.00  0.00     0.198 A 
ATOM    110  C   UNL A   1      48.066  27.789  31.381  1.00  0.00     0.198 A 
ATOM    111  F   UNL A   1      45.982  28.246  32.373  1.00  0.00    -0.203 F 
ATOM    112  F   UNL A   1      49.310  28.515  28.057  1.00  0.00    -0.200 F 
ATOM    113  C   UNL A   1      48.916  27.852  30.288  1.00  0.00     0.200 A 
ATOM    114  F   UNL A   1      48.471  27.194  32.511  1.00  0.00    -0.200 F 
ATOM    115  F   UNL A   1      50.137  27.301  30.355  1.00  0.00    -0.200 F 
ENDBRANCH  85 105
BRANCH  88 116
ATOM    116  C   UNL A   1      37.037  32.579  29.821  1.00  0.00     0.064 A 
ATOM    117  C   UNL A   1      36.563  33.276  28.701  1.00  0.00     0.173 A 
ATOM    118  C   UNL A   1      36.164  32.414  30.906  1.00  0.00     0.173 A 
ATOM    119  F   UNL A   1      37.369  33.477  27.648  1.00  0.00    -0.203 F 
ATOM    120  C   UNL A   1      35.275  33.805  28.674  1.00  0.00     0.198 A 
ATOM    121  C   UNL A   1      34.867  32.920  30.868  1.00  0.00     0.198 A 
ATOM    122  F   UNL A   1      36.568  31.751  31.999  1.00  0.00    -0.203 F 
ATOM    123  F   UNL A   1      34.862  34.504  27.609  1.00  0.00    -0.200 F 
ATOM    124  C   UNL A   1      34.426  33.622  29.756  1.00  0.00     0.200 A 
ATOM    125  F   UNL A   1      34.045  32.731  31.908  1.00  0.00    -0.200 F 
ATOM    126  F   UNL A   1      33.186  34.127  29.729  1.00  0.00    -0.200 F 
ENDBRANCH  88 116
BRANCH 103 127
ATOM    127  C   UNL A   1      43.169  35.252  31.756  1.00  0.00     0.064 A 
ATOM    128  C   UNL A   1      43.088  35.574  33.119  1.00  0.00     0.173 A 
ATOM    129  C   UNL A   1      43.670  36.226  30.879  1.00  0.00     0.173 A 
ATOM    130  F   UNL A   1      42.600  34.682  33.995  1.00  0.00    -0.203 F 
ATOM    131  C   UNL A   1      43.468  36.830  33.581  1.00  0.00     0.198 A 
ATOM    132  C   UNL A   1      44.077  37.472  31.348  1.00  0.00     0.198 A 
ATOM    133  F   UNL A   1      43.774  35.966  29.567  1.00  0.00    -0.203 F 
ATOM    134  F   UNL A   1      43.337  37.133  34.880  1.00  0.00    -0.200 F 
ATOM    135  C   UNL A   1      43.969  37.775  32.697  1.00  0.00     0.200 A 
ATOM    136  F   UNL A   1      44.571  38.379  30.494  1.00  0.00    -0.200 F 
ATOM    137  F   UNL A   1      44.340  38.983  33.144  1.00  0.00    -0.200 F 
ENDBRANCH 103 127
ENDBRANCH  68  71
ENDBRANCH  58  61
ENDBRANCH  54  57
ENDBRANCH  51  54
ENDBRANCH  48  51
ENDBRANCH  45  48
ENDBRANCH   1  45
TORSDOF 18
ENDMDL
MODEL 6
REMARK VINA RESULT:     -11.6      2.357      5.050
REMARK SMILES C[C@@H](C(=O)NCCCCCCNC(=O)c1ccc(-c2c3nc(c(-c4c(F)c(F)c(F)c(F)c4F)c4ccc([nH]4)c(-c4c(F)c(F)c(F)c(F)c4F)c4nc(c(-c5c(F)c(F)c(F)c(F)c5F)c5ccc2[nH]5)C=C4)C=C3)cc1)c1ccc(C[C@@H]2CCC[C@@H]2O)cc1F
REMARK SMILES IDX 7 1 6 4 5 7 3 8 4 9 2 11 1 13 78 17 79 18 90 19 80 20 89 22
REMARK SMILES IDX 91 23 81 24 82 27 83 30 84 31 87 32 85 34 86 37 88 43 8 45
REMARK SMILES IDX 9 48 10 51 11 54 12 57 13 58 14 60 15 61 16 62 77 63 17 64
REMARK SMILES IDX 76 66 18 68 19 71 20 72 70 73 21 74 75 75 69 76 71 77 22 78
REMARK SMILES IDX 74 79 68 81 67 83 23 85 55 88 35 89 54 90 36 91 39 92 53 93
REMARK SMILES IDX 72 94 37 95 38 97 52 99 73 100 40 103 24 105 25 106 33 107
REMARK SMILES IDX 26 108 27 109 31 110 34 111 28 112 29 113 32 114 30 115
REMARK SMILES IDX 56 116 57 117 65 118 58 119 59 120 63 121 66 122 60 123
REMARK SMILES IDX 61 124 64 125 62 126 41 127 42 128 50 129 43 130 44 131
REMARK SMILES IDX 48 132 51 133 45 134 46 135 49 136 47 137
REMARK H PARENT 7 2 7 3 6 5 6 6 5 10 2 12 1 14 1 15 1 16 79 21 80 25 89 26
REMARK H PARENT 82 28 82 29 83 33 84 35 84 36 87 38 85 39 85 40 86 41 86 42
REMARK H PARENT 88 44 8 46 8 47 9 49 9 50 10 52 10 53 11 55 11 56 12 59 16 65
REMARK H PARENT 77 67 17 69 76 70 75 80 69 82 71 84 74 86 68 87 36 96 39 98
REMARK H PARENT 72 101 37 102 73 104
REMARK Flexibility Score: inf
ROOT
ATOM      1  C   UNL A   1      31.783  28.442  27.585  1.00  0.00    -0.036 C 
ATOM      2  H   UNL A   1      32.413  27.996  28.326  1.00  0.00     0.028 H 
ATOM      3  H   UNL A   1      30.787  28.608  27.940  1.00  0.00     0.028 H 
ENDROOT
BRANCH   1   4
ATOM      4  C   UNL A   1      31.679  27.481  26.399  1.00  0.00     0.017 C 
ATOM      5  H   UNL A   1      31.048  27.912  25.650  1.00  0.00     0.049 H 
ATOM      6  H   UNL A   1      32.658  27.312  26.001  1.00  0.00     0.049 H 
BRANCH   4   7
ATOM      7  N   UNL A   1      31.120  26.216  26.824  1.00  0.00    -0.356 N 
ATOM      8  C   UNL A   1      30.939  25.058  26.126  1.00  0.00     0.227 C 
ATOM      9  O   UNL A   1      30.283  24.175  26.681  1.00  0.00    -0.274 OA
ATOM     10  H   UNL A   1      30.823  26.187  27.761  1.00  0.00     0.163 HD
BRANCH   8  11
ATOM     11  C   UNL A   1      31.606  24.880  24.756  1.00  0.00     0.063 C 
ATOM     12  H   UNL A   1      32.381  25.614  24.690  1.00  0.00     0.045 H 
BRANCH  11  13
ATOM     13  C   UNL A   1      30.660  25.176  23.585  1.00  0.00    -0.049 C 
ATOM     14  H   UNL A   1      30.412  26.217  23.582  1.00  0.00     0.024 H 
ATOM     15  H   UNL A   1      29.766  24.597  23.692  1.00  0.00     0.024 H 
ATOM     16  H   UNL A   1      31.141  24.921  22.664  1.00  0.00     0.024 H 
ENDBRANCH  11  13
BRANCH  11  17
ATOM     17  C   UNL A   1      32.253  23.508  24.638  1.00  0.00    -0.000 A 
ATOM     18  C   UNL A   1      31.775  22.594  23.687  1.00  0.00    -0.055 A 
ATOM     19  C   UNL A   1      33.343  23.126  25.427  1.00  0.00     0.127 A 
ATOM     20  C   UNL A   1      32.324  21.312  23.593  1.00  0.00    -0.059 A 
ATOM     21  H   UNL A   1      31.011  22.870  23.051  1.00  0.00     0.063 H 
ATOM     22  C   UNL A   1      33.874  21.843  25.354  1.00  0.00    -0.023 A 
ATOM     23  F   UNL A   1      33.883  23.981  26.305  1.00  0.00    -0.207 F 
ATOM     24  C   UNL A   1      33.341  20.906  24.463  1.00  0.00    -0.045 A 
ATOM     25  H   UNL A   1      31.975  20.658  22.874  1.00  0.00     0.063 H 
ATOM     26  H   UNL A   1      34.667  21.581  25.961  1.00  0.00     0.066 H 
BRANCH  24  27
ATOM     27  C   UNL A   1      33.841  19.483  24.484  1.00  0.00    -0.022 C 
ATOM     28  H   UNL A   1      34.489  19.384  25.330  1.00  0.00     0.032 H 
ATOM     29  H   UNL A   1      34.307  19.344  23.532  1.00  0.00     0.032 H 
BRANCH  27  30
ATOM     30  C   UNL A   1      32.784  18.358  24.575  1.00  0.00    -0.011 C 
ATOM     31  C   UNL A   1      32.892  17.475  25.825  1.00  0.00    -0.048 C 
ATOM     32  C   UNL A   1      32.741  17.328  23.441  1.00  0.00     0.057 C 
ATOM     33  H   UNL A   1      31.914  18.980  24.558  1.00  0.00     0.033 H 
ATOM     34  C   UNL A   1      33.584  16.179  25.395  1.00  0.00    -0.050 C 
ATOM     35  H   UNL A   1      31.917  17.263  26.211  1.00  0.00     0.027 H 
ATOM     36  H   UNL A   1      33.448  17.969  26.595  1.00  0.00     0.027 H 
ATOM     37  C   UNL A   1      33.695  16.223  23.875  1.00  0.00    -0.027 C 
ATOM     38  H   UNL A   1      31.748  16.958  23.294  1.00  0.00     0.060 H 
ATOM     39  H   UNL A   1      33.001  15.333  25.697  1.00  0.00     0.027 H 
ATOM     40  H   UNL A   1      34.548  16.089  25.848  1.00  0.00     0.027 H 
ATOM     41  H   UNL A   1      33.403  15.285  23.450  1.00  0.00     0.029 H 
ATOM     42  H   UNL A   1      34.697  16.406  23.551  1.00  0.00     0.029 H 
BRANCH  32  43
ATOM     43  O   UNL A   1      33.068  17.872  22.180  1.00  0.00    -0.393 OA
ATOM     44  H   UNL A   1      33.512  18.725  22.301  1.00  0.00     0.210 HD
ENDBRANCH  32  43
ENDBRANCH  27  30
ENDBRANCH  24  27
ENDBRANCH  11  17
ENDBRANCH   8  11
ENDBRANCH   4   7
ENDBRANCH   1   4
BRANCH   1  45
ATOM     45  C   UNL A   1      32.362  29.816  27.220  1.00  0.00    -0.052 C 
ATOM     46  H   UNL A   1      33.314  29.663  26.756  1.00  0.00     0.027 H 
ATOM     47  H   UNL A   1      32.419  30.369  28.134  1.00  0.00     0.027 H 
BRANCH  45  48
ATOM     48  C   UNL A   1      31.499  30.650  26.269  1.00  0.00    -0.052 C 
ATOM     49  H   UNL A   1      30.510  30.243  26.273  1.00  0.00     0.027 H 
ATOM     50  H   UNL A   1      31.974  30.600  25.311  1.00  0.00     0.027 H 
BRANCH  48  51
ATOM     51  C   UNL A   1      31.402  32.136  26.623  1.00  0.00    -0.036 C 
ATOM     52  H   UNL A   1      30.699  32.245  27.421  1.00  0.00     0.028 H 
ATOM     53  H   UNL A   1      31.103  32.643  25.729  1.00  0.00     0.028 H 
BRANCH  51  54
ATOM     54  C   UNL A   1      32.719  32.770  27.060  1.00  0.00     0.018 C 
ATOM     55  H   UNL A   1      33.365  32.845  26.210  1.00  0.00     0.049 H 
ATOM     56  H   UNL A   1      33.148  32.148  27.819  1.00  0.00     0.049 H 
BRANCH  54  57
ATOM     57  N   UNL A   1      32.528  34.096  27.624  1.00  0.00    -0.352 N 
ATOM     58  C   UNL A   1      33.144  34.677  28.701  1.00  0.00     0.251 C 
ATOM     59  H   UNL A   1      31.861  34.658  27.165  1.00  0.00     0.163 HD
ATOM     60  O   UNL A   1      32.726  35.742  29.154  1.00  0.00    -0.269 OA
BRANCH  58  61
ATOM     61  C   UNL A   1      34.300  34.015  29.339  1.00  0.00     0.039 A 
ATOM     62  C   UNL A   1      34.067  33.026  30.299  1.00  0.00    -0.049 A 
ATOM     63  C   UNL A   1      35.609  34.381  29.010  1.00  0.00    -0.049 A 
ATOM     64  C   UNL A   1      35.146  32.370  30.893  1.00  0.00    -0.053 A 
ATOM     65  H   UNL A   1      33.100  32.781  30.565  1.00  0.00     0.063 H 
ATOM     66  C   UNL A   1      36.683  33.681  29.555  1.00  0.00    -0.053 A 
ATOM     67  H   UNL A   1      35.779  35.168  28.365  1.00  0.00     0.063 H 
ATOM     68  C   UNL A   1      36.461  32.675  30.509  1.00  0.00    -0.014 A 
ATOM     69  H   UNL A   1      34.976  31.657  31.621  1.00  0.00     0.063 H 
ATOM     70  H   UNL A   1      37.645  33.903  29.256  1.00  0.00     0.063 H 
BRANCH  68  71
ATOM     71  C   UNL A   1      37.619  31.963  31.105  1.00  0.00     0.031 A 
ATOM     72  C   UNL A   1      38.089  32.313  32.489  1.00  0.00     0.074 A 
ATOM     73  C   UNL A   1      38.278  31.040  30.381  1.00  0.00     0.049 A 
ATOM     74  N   UNL A   1      39.110  31.845  33.161  1.00  0.00    -0.248 NA
ATOM     75  C   UNL A   1      37.324  33.348  33.204  1.00  0.00    -0.034 C 
ATOM     76  C   UNL A   1      37.946  30.643  29.011  1.00  0.00    -0.036 A 
ATOM     77  N   UNL A   1      39.372  30.271  30.693  1.00  0.00    -0.354 N 
ATOM     78  C   UNL A   1      39.120  32.536  34.365  1.00  0.00     0.074 A 
ATOM     79  C   UNL A   1      38.034  33.492  34.313  1.00  0.00    -0.034 C 
ATOM     80  H   UNL A   1      36.461  33.834  32.915  1.00  0.00     0.065 H 
ATOM     81  C   UNL A   1      38.803  29.691  28.609  1.00  0.00    -0.036 A 
ATOM     82  H   UNL A   1      37.177  31.035  28.445  1.00  0.00     0.065 H 
ATOM     83  C   UNL A   1      39.763  29.432  29.679  1.00  0.00     0.049 A 
ATOM     84  H   UNL A   1      39.833  30.317  31.562  1.00  0.00     0.167 HD
ATOM     85  C   UNL A   1      39.943  32.373  35.427  1.00  0.00     0.037 A 
ATOM     86  H   UNL A   1      37.839  34.194  35.044  1.00  0.00     0.065 H 
ATOM     87  H   UNL A   1      38.785  29.218  27.693  1.00  0.00     0.065 H 
ATOM     88  C   UNL A   1      40.781  28.554  29.619  1.00  0.00     0.037 A 
ATOM     89  C   UNL A   1      41.004  31.402  35.488  1.00  0.00     0.049 A 
ATOM     90  C   UNL A   1      41.680  28.388  30.815  1.00  0.00     0.074 A 
ATOM     91  C   UNL A   1      41.856  31.117  36.541  1.00  0.00    -0.036 A 
ATOM     92  N   UNL A   1      41.357  30.553  34.448  1.00  0.00    -0.354 N 
ATOM     93  N   UNL A   1      41.638  29.001  31.973  1.00  0.00    -0.248 NA
ATOM     94  C   UNL A   1      42.763  27.403  30.696  1.00  0.00    -0.034 C 
ATOM     95  C   UNL A   1      42.750  30.124  36.124  1.00  0.00    -0.036 A 
ATOM     96  H   UNL A   1      41.834  31.559  37.473  1.00  0.00     0.065 H 
ATOM     97  C   UNL A   1      42.426  29.758  34.827  1.00  0.00     0.049 A 
ATOM     98  H   UNL A   1      40.913  30.522  33.569  1.00  0.00     0.167 HD
ATOM     99  C   UNL A   1      42.666  28.456  32.730  1.00  0.00     0.074 A 
ATOM    100  C   UNL A   1      43.306  27.453  31.904  1.00  0.00    -0.034 C 
ATOM    101  H   UNL A   1      43.031  26.823  29.885  1.00  0.00     0.065 H 
ATOM    102  H   UNL A   1      43.521  29.731  36.688  1.00  0.00     0.065 H 
ATOM    103  C   UNL A   1      43.044  28.758  33.996  1.00  0.00     0.037 A 
ATOM    104  H   UNL A   1      44.087  26.855  32.216  1.00  0.00     0.065 H 
BRANCH  85 105
ATOM    105  C   UNL A   1      39.726  33.265  36.615  1.00  0.00     0.064 A 
ATOM    106  C   UNL A   1      40.424  34.474  36.764  1.00  0.00     0.173 A 
ATOM    107  C   UNL A   1      38.789  32.922  37.602  1.00  0.00     0.173 A 
ATOM    108  F   UNL A   1      41.339  34.841  35.855  1.00  0.00    -0.203 F 
ATOM    109  C   UNL A   1      40.213  35.290  37.872  1.00  0.00     0.198 A 
ATOM    110  C   UNL A   1      38.560  33.757  38.693  1.00  0.00     0.198 A 
ATOM    111  F   UNL A   1      38.090  31.781  37.505  1.00  0.00    -0.203 F 
ATOM    112  F   UNL A   1      40.929  36.414  38.018  1.00  0.00    -0.200 F 
ATOM    113  C   UNL A   1      39.278  34.935  38.831  1.00  0.00     0.200 A 
ATOM    114  F   UNL A   1      37.647  33.418  39.614  1.00  0.00    -0.200 F 
ATOM    115  F   UNL A   1      39.074  35.725  39.895  1.00  0.00    -0.200 F 
ENDBRANCH  85 105
BRANCH  88 116
ATOM    116  C   UNL A   1      40.986  27.737  28.395  1.00  0.00     0.064 A 
ATOM    117  C   UNL A   1      40.330  26.508  28.236  1.00  0.00     0.173 A 
ATOM    118  C   UNL A   1      41.837  28.161  27.366  1.00  0.00     0.173 A 
ATOM    119  F   UNL A   1      39.522  26.051  29.204  1.00  0.00    -0.203 F 
ATOM    120  C   UNL A   1      40.534  25.725  27.102  1.00  0.00     0.198 A 
ATOM    121  C   UNL A   1      42.021  27.390  26.220  1.00  0.00     0.198 A 
ATOM    122  F   UNL A   1      42.484  29.332  27.468  1.00  0.00    -0.203 F 
ATOM    123  F   UNL A   1      39.929  24.534  26.995  1.00  0.00    -0.200 F 
ATOM    124  C   UNL A   1      41.375  26.169  26.093  1.00  0.00     0.200 A 
ATOM    125  F   UNL A   1      42.823  27.828  25.241  1.00  0.00    -0.200 F 
ATOM    126  F   UNL A   1      41.569  25.418  25.001  1.00  0.00    -0.200 F 
ENDBRANCH  88 116
BRANCH 103 127
ATOM    127  C   UNL A   1      44.181  27.970  34.578  1.00  0.00     0.064 A 
ATOM    128  C   UNL A   1      43.969  26.752  35.240  1.00  0.00     0.173 A 
ATOM    129  C   UNL A   1      45.502  28.423  34.441  1.00  0.00     0.173 A 
ATOM    130  F   UNL A   1      42.723  26.284  35.411  1.00  0.00    -0.203 F 
ATOM    131  C   UNL A   1      45.036  26.029  35.767  1.00  0.00     0.198 A 
ATOM    132  C   UNL A   1      46.568  27.685  34.943  1.00  0.00     0.198 A 
ATOM    133  F   UNL A   1      45.758  29.579  33.810  1.00  0.00    -0.203 F 
ATOM    134  F   UNL A   1      44.807  24.892  36.438  1.00  0.00    -0.200 F 
ATOM    135  C   UNL A   1      46.334  26.492  35.612  1.00  0.00     0.200 A 
ATOM    136  F   UNL A   1      47.823  28.127  34.782  1.00  0.00    -0.200 F 
ATOM    137  F   UNL A   1      47.361  25.794  36.115  1.00  0.00    -0.200 F 
ENDBRANCH 103 127
ENDBRANCH  68  71
ENDBRANCH  58  61
ENDBRANCH  54  57
ENDBRANCH  51  54
ENDBRANCH  48  51
ENDBRANCH  45  48
ENDBRANCH   1  45
TORSDOF 18
ENDMDL
MODEL 7
REMARK VINA RESULT:     -11.5      1.900      7.688
REMARK SMILES C[C@@H](C(=O)NCCCCCCNC(=O)c1ccc(-c2c3nc(c(-c4c(F)c(F)c(F)c(F)c4F)c4ccc([nH]4)c(-c4c(F)c(F)c(F)c(F)c4F)c4nc(c(-c5c(F)c(F)c(F)c(F)c5F)c5ccc2[nH]5)C=C4)C=C3)cc1)c1ccc(C[C@@H]2CCC[C@@H]2O)cc1F
REMARK SMILES IDX 7 1 6 4 5 7 3 8 4 9 2 11 1 13 78 17 79 18 90 19 80 20 89 22
REMARK SMILES IDX 91 23 81 24 82 27 83 30 84 31 87 32 85 34 86 37 88 43 8 45
REMARK SMILES IDX 9 48 10 51 11 54 12 57 13 58 14 60 15 61 16 62 77 63 17 64
REMARK SMILES IDX 76 66 18 68 19 71 20 72 70 73 21 74 75 75 69 76 71 77 22 78
REMARK SMILES IDX 74 79 68 81 67 83 23 85 55 88 35 89 54 90 36 91 39 92 53 93
REMARK SMILES IDX 72 94 37 95 38 97 52 99 73 100 40 103 24 105 25 106 33 107
REMARK SMILES IDX 26 108 27 109 31 110 34 111 28 112 29 113 32 114 30 115
REMARK SMILES IDX 56 116 57 117 65 118 58 119 59 120 63 121 66 122 60 123
REMARK SMILES IDX 61 124 64 125 62 126 41 127 42 128 50 129 43 130 44 131
REMARK SMILES IDX 48 132 51 133 45 134 46 135 49 136 47 137
REMARK H PARENT 7 2 7 3 6 5 6 6 5 10 2 12 1 14 1 15 1 16 79 21 80 25 89 26
REMARK H PARENT 82 28 82 29 83 33 84 35 84 36 87 38 85 39 85 40 86 41 86 42
REMARK H PARENT 88 44 8 46 8 47 9 49 9 50 10 52 10 53 11 55 11 56 12 59 16 65
REMARK H PARENT 77 67 17 69 76 70 75 80 69 82 71 84 74 86 68 87 36 96 39 98
REMARK H PARENT 72 101 37 102 73 104
REMARK Flexibility Score: inf
ROOT
ATOM      1  C   UNL A   1      33.579  29.275  26.627  1.00  0.00    -0.036 C 
ATOM      2  H   UNL A   1      34.500  29.299  26.084  1.00  0.00     0.028 H 
ATOM      3  H   UNL A   1      33.650  29.763  27.576  1.00  0.00     0.028 H 
ENDROOT
BRANCH   1   4
ATOM      4  C   UNL A   1      33.222  27.813  26.904  1.00  0.00     0.017 C 
ATOM      5  H   UNL A   1      33.379  27.602  27.941  1.00  0.00     0.049 H 
ATOM      6  H   UNL A   1      32.195  27.651  26.648  1.00  0.00     0.049 H 
BRANCH   4   7
ATOM      7  N   UNL A   1      34.048  26.933  26.107  1.00  0.00    -0.356 N 
ATOM      8  C   UNL A   1      33.803  25.670  25.654  1.00  0.00     0.227 C 
ATOM      9  O   UNL A   1      34.749  25.076  25.133  1.00  0.00    -0.274 OA
ATOM     10  H   UNL A   1      34.924  27.302  25.854  1.00  0.00     0.163 HD
BRANCH   8  11
ATOM     11  C   UNL A   1      32.385  25.091  25.736  1.00  0.00     0.063 C 
ATOM     12  H   UNL A   1      32.072  25.182  26.755  1.00  0.00     0.045 H 
BRANCH  11  13
ATOM     13  C   UNL A   1      32.330  23.590  25.423  1.00  0.00    -0.049 C 
ATOM     14  H   UNL A   1      31.840  23.077  26.224  1.00  0.00     0.024 H 
ATOM     15  H   UNL A   1      33.325  23.212  25.313  1.00  0.00     0.024 H 
ATOM     16  H   UNL A   1      31.787  23.435  24.514  1.00  0.00     0.024 H 
ENDBRANCH  11  13
BRANCH  11  17
ATOM     17  C   UNL A   1      31.417  25.893  24.878  1.00  0.00    -0.000 A 
ATOM     18  C   UNL A   1      31.884  26.536  23.722  1.00  0.00    -0.055 A 
ATOM     19  C   UNL A   1      30.055  25.989  25.179  1.00  0.00     0.127 A 
ATOM     20  C   UNL A   1      31.023  27.316  22.945  1.00  0.00    -0.059 A 
ATOM     21  H   UNL A   1      32.872  26.433  23.443  1.00  0.00     0.063 H 
ATOM     22  C   UNL A   1      29.202  26.785  24.424  1.00  0.00    -0.023 A 
ATOM     23  F   UNL A   1      29.541  25.341  26.234  1.00  0.00    -0.207 F 
ATOM     24  C   UNL A   1      29.687  27.493  23.319  1.00  0.00    -0.045 A 
ATOM     25  H   UNL A   1      31.377  27.766  22.086  1.00  0.00     0.063 H 
ATOM     26  H   UNL A   1      28.204  26.854  24.679  1.00  0.00     0.066 H 
BRANCH  24  27
ATOM     27  C   UNL A   1      28.782  28.450  22.585  1.00  0.00    -0.022 C 
ATOM     28  H   UNL A   1      27.876  28.530  23.149  1.00  0.00     0.032 H 
ATOM     29  H   UNL A   1      28.677  28.030  21.607  1.00  0.00     0.032 H 
BRANCH  27  30
ATOM     30  C   UNL A   1      29.306  29.885  22.346  1.00  0.00    -0.011 C 
ATOM     31  C   UNL A   1      29.586  30.687  23.623  1.00  0.00    -0.048 C 
ATOM     32  C   UNL A   1      28.421  30.841  21.538  1.00  0.00     0.057 C 
ATOM     33  H   UNL A   1      30.186  29.624  21.798  1.00  0.00     0.033 H 
ATOM     34  C   UNL A   1      28.399  31.634  23.822  1.00  0.00    -0.050 C 
ATOM     35  H   UNL A   1      30.491  31.248  23.515  1.00  0.00     0.027 H 
ATOM     36  H   UNL A   1      29.703  30.038  24.465  1.00  0.00     0.027 H 
ATOM     37  C   UNL A   1      27.536  31.527  22.570  1.00  0.00    -0.027 C 
ATOM     38  H   UNL A   1      29.013  31.546  20.993  1.00  0.00     0.060 H 
ATOM     39  H   UNL A   1      28.746  32.639  23.946  1.00  0.00     0.027 H 
ATOM     40  H   UNL A   1      27.841  31.372  24.696  1.00  0.00     0.027 H 
ATOM     41  H   UNL A   1      27.247  32.499  22.230  1.00  0.00     0.029 H 
ATOM     42  H   UNL A   1      26.632  30.984  22.749  1.00  0.00     0.029 H 
BRANCH  32  43
ATOM     43  O   UNL A   1      27.682  30.194  20.523  1.00  0.00    -0.393 OA
ATOM     44  H   UNL A   1      27.178  29.460  20.909  1.00  0.00     0.210 HD
ENDBRANCH  32  43
ENDBRANCH  27  30
ENDBRANCH  24  27
ENDBRANCH  11  17
ENDBRANCH   8  11
ENDBRANCH   4   7
ENDBRANCH   1   4
BRANCH   1  45
ATOM     45  C   UNL A   1      32.518  30.029  25.815  1.00  0.00    -0.052 C 
ATOM     46  H   UNL A   1      32.068  29.338  25.133  1.00  0.00     0.027 H 
ATOM     47  H   UNL A   1      33.029  30.834  25.329  1.00  0.00     0.027 H 
BRANCH  45  48
ATOM     48  C   UNL A   1      31.402  30.671  26.645  1.00  0.00    -0.052 C 
ATOM     49  H   UNL A   1      31.521  30.358  27.661  1.00  0.00     0.027 H 
ATOM     50  H   UNL A   1      30.480  30.349  26.208  1.00  0.00     0.027 H 
BRANCH  48  51
ATOM     51  C   UNL A   1      31.379  32.201  26.619  1.00  0.00    -0.036 C 
ATOM     52  H   UNL A   1      30.560  32.533  27.223  1.00  0.00     0.028 H 
ATOM     53  H   UNL A   1      31.284  32.486  25.592  1.00  0.00     0.028 H 
BRANCH  51  54
ATOM     54  C   UNL A   1      32.652  32.862  27.137  1.00  0.00     0.018 C 
ATOM     55  H   UNL A   1      33.377  32.877  26.351  1.00  0.00     0.049 H 
ATOM     56  H   UNL A   1      33.000  32.295  27.976  1.00  0.00     0.049 H 
BRANCH  54  57
ATOM     57  N   UNL A   1      32.417  34.226  27.585  1.00  0.00    -0.352 N 
ATOM     58  C   UNL A   1      33.001  34.910  28.618  1.00  0.00     0.251 C 
ATOM     59  H   UNL A   1      31.743  34.728  27.073  1.00  0.00     0.163 HD
ATOM     60  O   UNL A   1      32.548  35.998  28.975  1.00  0.00    -0.269 OA
BRANCH  58  61
ATOM     61  C   UNL A   1      34.165  34.336  29.324  1.00  0.00     0.039 A 
ATOM     62  C   UNL A   1      33.950  33.597  30.490  1.00  0.00    -0.049 A 
ATOM     63  C   UNL A   1      35.465  34.543  28.851  1.00  0.00    -0.049 A 
ATOM     64  C   UNL A   1      35.034  33.024  31.157  1.00  0.00    -0.053 A 
ATOM     65  H   UNL A   1      32.993  33.475  30.857  1.00  0.00     0.063 H 
ATOM     66  C   UNL A   1      36.538  33.916  29.479  1.00  0.00    -0.053 A 
ATOM     67  H   UNL A   1      35.629  35.158  28.039  1.00  0.00     0.063 H 
ATOM     68  C   UNL A   1      36.334  33.159  30.644  1.00  0.00    -0.014 A 
ATOM     69  H   UNL A   1      34.880  32.500  32.033  1.00  0.00     0.063 H 
ATOM     70  H   UNL A   1      37.489  34.009  29.087  1.00  0.00     0.063 H 
BRANCH  68  71
ATOM     71  C   UNL A   1      37.494  32.526  31.320  1.00  0.00     0.031 A 
ATOM     72  C   UNL A   1      38.237  31.404  30.651  1.00  0.00     0.074 A 
ATOM     73  C   UNL A   1      37.844  32.925  32.557  1.00  0.00     0.049 A 
ATOM     74  N   UNL A   1      39.238  30.689  31.099  1.00  0.00    -0.248 NA
ATOM     75  C   UNL A   1      37.777  31.016  29.308  1.00  0.00    -0.034 C 
ATOM     76  C   UNL A   1      37.173  33.974  33.329  1.00  0.00    -0.036 A 
ATOM     77  N   UNL A   1      38.847  32.491  33.388  1.00  0.00    -0.354 N 
ATOM     78  C   UNL A   1      39.515  29.761  30.104  1.00  0.00     0.074 A 
ATOM     79  C   UNL A   1      38.546  29.969  29.050  1.00  0.00    -0.034 C 
ATOM     80  H   UNL A   1      37.046  31.448  28.721  1.00  0.00     0.065 H 
ATOM     81  C   UNL A   1      37.796  34.116  34.509  1.00  0.00    -0.036 A 
ATOM     82  H   UNL A   1      36.352  34.515  33.015  1.00  0.00     0.065 H 
ATOM     83  C   UNL A   1      38.888  33.150  34.591  1.00  0.00     0.049 A 
ATOM     84  H   UNL A   1      39.476  31.775  33.143  1.00  0.00     0.167 HD
ATOM     85  C   UNL A   1      40.503  28.835  30.063  1.00  0.00     0.037 A 
ATOM     86  H   UNL A   1      38.463  29.377  28.208  1.00  0.00     0.065 H 
ATOM     87  H   UNL A   1      37.544  34.799  35.240  1.00  0.00     0.065 H 
ATOM     88  C   UNL A   1      39.714  32.991  35.643  1.00  0.00     0.037 A 
ATOM     89  C   UNL A   1      41.483  28.651  31.100  1.00  0.00     0.049 A 
ATOM     90  C   UNL A   1      40.806  31.958  35.569  1.00  0.00     0.074 A 
ATOM     91  C   UNL A   1      42.560  27.782  31.127  1.00  0.00    -0.036 A 
ATOM     92  N   UNL A   1      41.507  29.352  32.298  1.00  0.00    -0.354 N 
ATOM     93  N   UNL A   1      41.100  31.131  34.596  1.00  0.00    -0.248 NA
ATOM     94  C   UNL A   1      41.686  31.844  36.740  1.00  0.00    -0.034 C 
ATOM     95  C   UNL A   1      43.211  27.929  32.357  1.00  0.00    -0.036 A 
ATOM     96  H   UNL A   1      42.836  27.137  30.369  1.00  0.00     0.065 H 
ATOM     97  C   UNL A   1      42.568  28.921  33.078  1.00  0.00     0.049 A 
ATOM     98  H   UNL A   1      40.863  30.052  32.555  1.00  0.00     0.167 HD
ATOM     99  C   UNL A   1      42.213  30.420  35.022  1.00  0.00     0.074 A 
ATOM    100  C   UNL A   1      42.551  30.923  36.338  1.00  0.00    -0.034 C 
ATOM    101  H   UNL A   1      41.643  32.347  37.640  1.00  0.00     0.065 H 
ATOM    102  H   UNL A   1      44.032  27.388  32.674  1.00  0.00     0.065 H 
ATOM    103  C   UNL A   1      42.895  29.440  34.381  1.00  0.00     0.037 A 
ATOM    104  H   UNL A   1      43.360  30.604  36.892  1.00  0.00     0.065 H 
BRANCH  85 105
ATOM    105  C   UNL A   1      40.573  27.952  28.851  1.00  0.00     0.064 A 
ATOM    106  C   UNL A   1      39.842  26.757  28.769  1.00  0.00     0.173 A 
ATOM    107  C   UNL A   1      41.358  28.318  27.747  1.00  0.00     0.173 A 
ATOM    108  F   UNL A   1      39.086  26.356  29.802  1.00  0.00    -0.203 F 
ATOM    109  C   UNL A   1      39.918  25.946  27.639  1.00  0.00     0.198 A 
ATOM    110  C   UNL A   1      41.407  27.519  26.607  1.00  0.00     0.198 A 
ATOM    111  F   UNL A   1      42.072  29.453  27.770  1.00  0.00    -0.203 F 
ATOM    112  F   UNL A   1      39.251  24.785  27.606  1.00  0.00    -0.200 F 
ATOM    113  C   UNL A   1      40.695  26.331  26.558  1.00  0.00     0.200 A 
ATOM    114  F   UNL A   1      42.149  27.898  25.557  1.00  0.00    -0.200 F 
ATOM    115  F   UNL A   1      40.763  25.551  25.469  1.00  0.00    -0.200 F 
ENDBRANCH  85 105
BRANCH  88 116
ATOM    116  C   UNL A   1      39.563  33.855  36.842  1.00  0.00     0.064 A 
ATOM    117  C   UNL A   1      38.802  33.430  37.940  1.00  0.00     0.173 A 
ATOM    118  C   UNL A   1      40.168  35.117  36.915  1.00  0.00     0.173 A 
ATOM    119  F   UNL A   1      38.187  32.238  37.907  1.00  0.00    -0.203 F 
ATOM    120  C   UNL A   1      38.636  34.243  39.059  1.00  0.00     0.198 A 
ATOM    121  C   UNL A   1      40.023  35.920  38.045  1.00  0.00     0.198 A 
ATOM    122  F   UNL A   1      40.909  35.568  35.892  1.00  0.00    -0.203 F 
ATOM    123  F   UNL A   1      37.868  33.831  40.077  1.00  0.00    -0.200 F 
ATOM    124  C   UNL A   1      39.251  35.485  39.112  1.00  0.00     0.200 A 
ATOM    125  F   UNL A   1      40.629  37.113  38.098  1.00  0.00    -0.200 F 
ATOM    126  F   UNL A   1      39.095  36.266  40.189  1.00  0.00    -0.200 F 
ENDBRANCH  88 116
BRANCH 103 127
ATOM    127  C   UNL A   1      44.097  28.872  35.078  1.00  0.00     0.064 A 
ATOM    128  C   UNL A   1      44.000  27.755  35.920  1.00  0.00     0.173 A 
ATOM    129  C   UNL A   1      45.366  29.433  34.872  1.00  0.00     0.173 A 
ATOM    130  F   UNL A   1      42.806  27.193  36.162  1.00  0.00    -0.203 F 
ATOM    131  C   UNL A   1      45.126  27.237  36.552  1.00  0.00     0.198 A 
ATOM    132  C   UNL A   1      46.495  28.895  35.482  1.00  0.00     0.198 A 
ATOM    133  F   UNL A   1      45.513  30.499  34.070  1.00  0.00    -0.203 F 
ATOM    134  F   UNL A   1      45.004  26.199  37.391  1.00  0.00    -0.200 F 
ATOM    135  C   UNL A   1      46.373  27.802  36.327  1.00  0.00     0.200 A 
ATOM    136  F   UNL A   1      47.700  29.435  35.254  1.00  0.00    -0.200 F 
ATOM    137  F   UNL A   1      47.458  27.299  36.932  1.00  0.00    -0.200 F 
ENDBRANCH 103 127
ENDBRANCH  68  71
ENDBRANCH  58  61
ENDBRANCH  54  57
ENDBRANCH  51  54
ENDBRANCH  48  51
ENDBRANCH  45  48
ENDBRANCH   1  45
TORSDOF 18
ENDMDL
MODEL 8
REMARK VINA RESULT:     -11.5      1.244      7.534
REMARK SMILES C[C@@H](C(=O)NCCCCCCNC(=O)c1ccc(-c2c3nc(c(-c4c(F)c(F)c(F)c(F)c4F)c4ccc([nH]4)c(-c4c(F)c(F)c(F)c(F)c4F)c4nc(c(-c5c(F)c(F)c(F)c(F)c5F)c5ccc2[nH]5)C=C4)C=C3)cc1)c1ccc(C[C@@H]2CCC[C@@H]2O)cc1F
REMARK SMILES IDX 7 1 6 4 5 7 3 8 4 9 2 11 1 13 78 17 79 18 90 19 80 20 89 22
REMARK SMILES IDX 91 23 81 24 82 27 83 30 84 31 87 32 85 34 86 37 88 43 8 45
REMARK SMILES IDX 9 48 10 51 11 54 12 57 13 58 14 60 15 61 16 62 77 63 17 64
REMARK SMILES IDX 76 66 18 68 19 71 20 72 70 73 21 74 75 75 69 76 71 77 22 78
REMARK SMILES IDX 74 79 68 81 67 83 23 85 55 88 35 89 54 90 36 91 39 92 53 93
REMARK SMILES IDX 72 94 37 95 38 97 52 99 73 100 40 103 24 105 25 106 33 107
REMARK SMILES IDX 26 108 27 109 31 110 34 111 28 112 29 113 32 114 30 115
REMARK SMILES IDX 56 116 57 117 65 118 58 119 59 120 63 121 66 122 60 123
REMARK SMILES IDX 61 124 64 125 62 126 41 127 42 128 50 129 43 130 44 131
REMARK SMILES IDX 48 132 51 133 45 134 46 135 49 136 47 137
REMARK H PARENT 7 2 7 3 6 5 6 6 5 10 2 12 1 14 1 15 1 16 79 21 80 25 89 26
REMARK H PARENT 82 28 82 29 83 33 84 35 84 36 87 38 85 39 85 40 86 41 86 42
REMARK H PARENT 88 44 8 46 8 47 9 49 9 50 10 52 10 53 11 55 11 56 12 59 16 65
REMARK H PARENT 77 67 17 69 76 70 75 80 69 82 71 84 74 86 68 87 36 96 39 98
REMARK H PARENT 72 101 37 102 73 104
REMARK Flexibility Score: inf
ROOT
ATOM      1  C   UNL A   1      35.235  24.823  25.454  1.00  0.00    -0.036 C 
ATOM      2  H   UNL A   1      35.865  25.405  24.814  1.00  0.00     0.028 H 
ATOM      3  H   UNL A   1      35.674  24.649  26.414  1.00  0.00     0.028 H 
ENDROOT
BRANCH   1   4
ATOM      4  C   UNL A   1      35.024  23.453  24.806  1.00  0.00     0.017 C 
ATOM      5  H   UNL A   1      35.899  22.855  24.953  1.00  0.00     0.049 H 
ATOM      6  H   UNL A   1      34.177  22.981  25.258  1.00  0.00     0.049 H 
BRANCH   4   7
ATOM      7  N   UNL A   1      34.778  23.599  23.388  1.00  0.00    -0.356 N 
ATOM      8  C   UNL A   1      33.685  23.258  22.646  1.00  0.00     0.227 C 
ATOM      9  O   UNL A   1      33.800  23.338  21.422  1.00  0.00    -0.274 OA
ATOM     10  H   UNL A   1      35.514  24.008  22.878  1.00  0.00     0.163 HD
BRANCH   8  11
ATOM     11  C   UNL A   1      32.375  22.877  23.348  1.00  0.00     0.063 C 
ATOM     12  H   UNL A   1      32.637  22.527  24.325  1.00  0.00     0.045 H 
BRANCH  11  13
ATOM     13  C   UNL A   1      31.652  21.705  22.673  1.00  0.00    -0.049 C 
ATOM     14  H   UNL A   1      30.714  21.537  23.160  1.00  0.00     0.024 H 
ATOM     15  H   UNL A   1      32.254  20.823  22.746  1.00  0.00     0.024 H 
ATOM     16  H   UNL A   1      31.482  21.937  21.642  1.00  0.00     0.024 H 
ENDBRANCH  11  13
BRANCH  11  17
ATOM     17  C   UNL A   1      31.473  24.091  23.515  1.00  0.00    -0.000 A 
ATOM     18  C   UNL A   1      31.423  25.063  22.504  1.00  0.00    -0.055 A 
ATOM     19  C   UNL A   1      30.653  24.264  24.634  1.00  0.00     0.127 A 
ATOM     20  C   UNL A   1      30.637  26.208  22.657  1.00  0.00    -0.059 A 
ATOM     21  H   UNL A   1      31.972  24.931  21.641  1.00  0.00     0.063 H 
ATOM     22  C   UNL A   1      29.890  25.414  24.801  1.00  0.00    -0.023 A 
ATOM     23  F   UNL A   1      30.609  23.335  25.599  1.00  0.00    -0.207 F 
ATOM     24  C   UNL A   1      29.906  26.421  23.830  1.00  0.00    -0.045 A 
ATOM     25  H   UNL A   1      30.595  26.904  21.895  1.00  0.00     0.063 H 
ATOM     26  H   UNL A   1      29.307  25.525  25.646  1.00  0.00     0.066 H 
BRANCH  24  27
ATOM     27  C   UNL A   1      29.176  27.716  24.081  1.00  0.00    -0.022 C 
ATOM     28  H   UNL A   1      29.723  28.253  24.829  1.00  0.00     0.032 H 
ATOM     29  H   UNL A   1      28.187  27.422  24.362  1.00  0.00     0.032 H 
BRANCH  27  30
ATOM     30  C   UNL A   1      28.980  28.668  22.878  1.00  0.00    -0.011 C 
ATOM     31  C   UNL A   1      29.937  29.866  22.845  1.00  0.00    -0.048 C 
ATOM     32  C   UNL A   1      27.608  29.331  22.711  1.00  0.00     0.057 C 
ATOM     33  H   UNL A   1      29.154  27.953  22.103  1.00  0.00     0.033 H 
ATOM     34  C   UNL A   1      29.151  31.077  23.358  1.00  0.00    -0.050 C 
ATOM     35  H   UNL A   1      30.272  30.041  21.844  1.00  0.00     0.027 H 
ATOM     36  H   UNL A   1      30.799  29.684  23.451  1.00  0.00     0.027 H 
ATOM     37  C   UNL A   1      27.700  30.632  23.497  1.00  0.00    -0.027 C 
ATOM     38  H   UNL A   1      27.388  29.507  21.679  1.00  0.00     0.060 H 
ATOM     39  H   UNL A   1      29.224  31.885  22.660  1.00  0.00     0.027 H 
ATOM     40  H   UNL A   1      29.540  31.418  24.294  1.00  0.00     0.027 H 
ATOM     41  H   UNL A   1      27.041  31.368  23.085  1.00  0.00     0.029 H 
ATOM     42  H   UNL A   1      27.415  30.505  24.520  1.00  0.00     0.029 H 
BRANCH  32  43
ATOM     43  O   UNL A   1      26.537  28.511  23.129  1.00  0.00    -0.393 OA
ATOM     44  H   UNL A   1      26.194  28.015  22.369  1.00  0.00     0.210 HD
ENDBRANCH  32  43
ENDBRANCH  27  30
ENDBRANCH  24  27
ENDBRANCH  11  17
ENDBRANCH   8  11
ENDBRANCH   4   7
ENDBRANCH   1   4
BRANCH   1  45
ATOM     45  C   UNL A   1      33.935  25.603  25.692  1.00  0.00    -0.052 C 
ATOM     46  H   UNL A   1      33.975  26.026  26.674  1.00  0.00     0.027 H 
ATOM     47  H   UNL A   1      33.137  24.902  25.564  1.00  0.00     0.027 H 
BRANCH  45  48
ATOM     48  C   UNL A   1      33.670  26.738  24.698  1.00  0.00    -0.052 C 
ATOM     49  H   UNL A   1      33.090  26.345  23.890  1.00  0.00     0.027 H 
ATOM     50  H   UNL A   1      34.630  27.101  24.394  1.00  0.00     0.027 H 
BRANCH  48  51
ATOM     51  C   UNL A   1      32.921  27.940  25.279  1.00  0.00    -0.036 C 
ATOM     52  H   UNL A   1      32.927  27.855  26.345  1.00  0.00     0.028 H 
ATOM     53  H   UNL A   1      31.935  27.914  24.863  1.00  0.00     0.028 H 
BRANCH  51  54
ATOM     54  C   UNL A   1      33.513  29.295  24.906  1.00  0.00     0.018 C 
ATOM     55  H   UNL A   1      33.444  29.422  23.846  1.00  0.00     0.049 H 
ATOM     56  H   UNL A   1      34.532  29.311  25.233  1.00  0.00     0.049 H 
BRANCH  54  57
ATOM     57  N   UNL A   1      32.817  30.395  25.556  1.00  0.00    -0.352 N 
ATOM     58  C   UNL A   1      33.083  30.998  26.757  1.00  0.00     0.251 C 
ATOM     59  H   UNL A   1      32.045  30.756  25.063  1.00  0.00     0.163 HD
ATOM     60  O   UNL A   1      32.278  31.793  27.242  1.00  0.00    -0.269 OA
BRANCH  58  61
ATOM     61  C   UNL A   1      34.329  30.683  27.485  1.00  0.00     0.039 A 
ATOM     62  C   UNL A   1      35.299  31.679  27.625  1.00  0.00    -0.049 A 
ATOM     63  C   UNL A   1      34.552  29.406  28.008  1.00  0.00    -0.049 A 
ATOM     64  C   UNL A   1      36.472  31.410  28.332  1.00  0.00    -0.053 A 
ATOM     65  H   UNL A   1      35.148  32.611  27.208  1.00  0.00     0.063 H 
ATOM     66  C   UNL A   1      35.692  29.157  28.769  1.00  0.00    -0.053 A 
ATOM     67  H   UNL A   1      33.874  28.648  27.831  1.00  0.00     0.063 H 
ATOM     68  C   UNL A   1      36.667  30.154  28.931  1.00  0.00    -0.014 A 
ATOM     69  H   UNL A   1      37.201  32.137  28.415  1.00  0.00     0.063 H 
ATOM     70  H   UNL A   1      35.820  28.236  29.216  1.00  0.00     0.063 H 
BRANCH  68  71
ATOM     71  C   UNL A   1      37.892  29.862  29.716  1.00  0.00     0.031 A 
ATOM     72  C   UNL A   1      38.933  28.926  29.169  1.00  0.00     0.074 A 
ATOM     73  C   UNL A   1      38.040  30.396  30.943  1.00  0.00     0.049 A 
ATOM     74  N   UNL A   1      40.041  28.504  29.724  1.00  0.00    -0.248 NA
ATOM     75  C   UNL A   1      38.682  28.370  27.830  1.00  0.00    -0.034 C 
ATOM     76  C   UNL A   1      37.080  31.284  31.601  1.00  0.00    -0.036 A 
ATOM     77  N   UNL A   1      39.054  30.265  31.860  1.00  0.00    -0.354 N 
ATOM     78  C   UNL A   1      40.608  27.623  28.812  1.00  0.00     0.074 A 
ATOM     79  C   UNL A   1      39.699  27.533  27.690  1.00  0.00    -0.034 C 
ATOM     80  H   UNL A   1      37.915  28.578  27.172  1.00  0.00     0.065 H 
ATOM     81  C   UNL A   1      37.559  31.634  32.805  1.00  0.00    -0.036 A 
ATOM     82  H   UNL A   1      36.178  31.590  31.203  1.00  0.00     0.065 H 
ATOM     83  C   UNL A   1      38.844  30.973  33.017  1.00  0.00     0.049 A 
ATOM     84  H   UNL A   1      39.855  29.714  31.702  1.00  0.00     0.167 HD
ATOM     85  C   UNL A   1      41.791  26.970  28.892  1.00  0.00     0.037 A 
ATOM     86  H   UNL A   1      39.826  26.898  26.886  1.00  0.00     0.065 H 
ATOM     87  H   UNL A   1      37.095  32.269  33.472  1.00  0.00     0.065 H 
ATOM     88  C   UNL A   1      39.602  31.075  34.125  1.00  0.00     0.037 A 
ATOM     89  C   UNL A   1      42.707  27.085  29.997  1.00  0.00     0.049 A 
ATOM     90  C   UNL A   1      40.915  30.341  34.186  1.00  0.00     0.074 A 
ATOM     91  C   UNL A   1      43.957  26.510  30.146  1.00  0.00    -0.036 A 
ATOM     92  N   UNL A   1      42.470  27.828  31.144  1.00  0.00    -0.354 N 
ATOM     93  N   UNL A   1      41.472  29.564  33.290  1.00  0.00    -0.248 NA
ATOM     94  C   UNL A   1      41.706  30.506  35.413  1.00  0.00    -0.034 C 
ATOM     95  C   UNL A   1      44.459  26.874  31.401  1.00  0.00    -0.036 A 
ATOM     96  H   UNL A   1      44.437  25.917  29.452  1.00  0.00     0.065 H 
ATOM     97  C   UNL A   1      43.542  27.712  32.014  1.00  0.00     0.049 A 
ATOM     98  H   UNL A   1      41.658  28.360  31.314  1.00  0.00     0.167 HD
ATOM     99  C   UNL A   1      42.689  29.172  33.829  1.00  0.00     0.074 A 
ATOM    100  C   UNL A   1      42.796  29.808  35.126  1.00  0.00    -0.034 C 
ATOM    101  H   UNL A   1      41.475  31.027  36.273  1.00  0.00     0.065 H 
ATOM    102  H   UNL A   1      45.361  26.569  31.802  1.00  0.00     0.065 H 
ATOM    103  C   UNL A   1      43.635  28.360  33.297  1.00  0.00     0.037 A 
ATOM    104  H   UNL A   1      43.615  29.726  35.748  1.00  0.00     0.065 H 
BRANCH  85 105
ATOM    105  C   UNL A   1      42.165  26.071  27.749  1.00  0.00     0.064 A 
ATOM    106  C   UNL A   1      42.980  26.519  26.698  1.00  0.00     0.173 A 
ATOM    107  C   UNL A   1      41.727  24.738  27.718  1.00  0.00     0.173 A 
ATOM    108  F   UNL A   1      43.415  27.787  26.674  1.00  0.00    -0.203 F 
ATOM    109  C   UNL A   1      43.317  25.674  25.643  1.00  0.00     0.198 A 
ATOM    110  C   UNL A   1      42.091  23.889  26.675  1.00  0.00     0.198 A 
ATOM    111  F   UNL A   1      40.950  24.257  28.700  1.00  0.00    -0.203 F 
ATOM    112  F   UNL A   1      44.054  26.140  24.625  1.00  0.00    -0.200 F 
ATOM    113  C   UNL A   1      42.878  24.360  25.636  1.00  0.00     0.200 A 
ATOM    114  F   UNL A   1      41.676  22.614  26.676  1.00  0.00    -0.200 F 
ATOM    115  F   UNL A   1      43.208  23.547  24.622  1.00  0.00    -0.200 F 
ENDBRANCH  85 105
BRANCH  88 116
ATOM    116  C   UNL A   1      39.157  31.933  35.252  1.00  0.00     0.064 A 
ATOM    117  C   UNL A   1      38.440  31.390  36.328  1.00  0.00     0.173 A 
ATOM    118  C   UNL A   1      39.432  33.308  35.278  1.00  0.00     0.173 A 
ATOM    119  F   UNL A   1      38.135  30.083  36.336  1.00  0.00    -0.203 F 
ATOM    120  C   UNL A   1      37.998  32.192  37.377  1.00  0.00     0.198 A 
ATOM    121  C   UNL A   1      39.012  34.105  36.341  1.00  0.00     0.198 A 
ATOM    122  F   UNL A   1      40.118  33.875  34.275  1.00  0.00    -0.203 F 
ATOM    123  F   UNL A   1      37.278  31.655  38.371  1.00  0.00    -0.200 F 
ATOM    124  C   UNL A   1      38.289  33.548  37.385  1.00  0.00     0.200 A 
ATOM    125  F   UNL A   1      39.307  35.411  36.353  1.00  0.00    -0.200 F 
ATOM    126  F   UNL A   1      37.868  34.319  38.397  1.00  0.00    -0.200 F 
ENDBRANCH  88 116
BRANCH 103 127
ATOM    127  C   UNL A   1      44.883  28.142  34.101  1.00  0.00     0.064 A 
ATOM    128  C   UNL A   1      45.002  27.072  35.000  1.00  0.00     0.173 A 
ATOM    129  C   UNL A   1      45.986  28.994  33.943  1.00  0.00     0.173 A 
ATOM    130  F   UNL A   1      43.969  26.239  35.199  1.00  0.00    -0.203 F 
ATOM    131  C   UNL A   1      46.170  26.880  35.732  1.00  0.00     0.198 A 
ATOM    132  C   UNL A   1      47.163  28.783  34.655  1.00  0.00     0.198 A 
ATOM    133  F   UNL A   1      45.926  30.028  33.090  1.00  0.00    -0.203 F 
ATOM    134  F   UNL A   1      46.244  25.880  36.622  1.00  0.00    -0.200 F 
ATOM    135  C   UNL A   1      47.251  27.731  35.554  1.00  0.00     0.200 A 
ATOM    136  F   UNL A   1      48.211  29.598  34.473  1.00  0.00    -0.200 F 
ATOM    137  F   UNL A   1      48.377  27.541  36.256  1.00  0.00    -0.200 F 
ENDBRANCH 103 127
ENDBRANCH  68  71
ENDBRANCH  58  61
ENDBRANCH  54  57
ENDBRANCH  51  54
ENDBRANCH  48  51
ENDBRANCH  45  48
ENDBRANCH   1  45
TORSDOF 18
ENDMDL
MODEL 9
REMARK VINA RESULT:     -11.5      2.237      4.565
REMARK SMILES C[C@@H](C(=O)NCCCCCCNC(=O)c1ccc(-c2c3nc(c(-c4c(F)c(F)c(F)c(F)c4F)c4ccc([nH]4)c(-c4c(F)c(F)c(F)c(F)c4F)c4nc(c(-c5c(F)c(F)c(F)c(F)c5F)c5ccc2[nH]5)C=C4)C=C3)cc1)c1ccc(C[C@@H]2CCC[C@@H]2O)cc1F
REMARK SMILES IDX 7 1 6 4 5 7 3 8 4 9 2 11 1 13 78 17 79 18 90 19 80 20 89 22
REMARK SMILES IDX 91 23 81 24 82 27 83 30 84 31 87 32 85 34 86 37 88 43 8 45
REMARK SMILES IDX 9 48 10 51 11 54 12 57 13 58 14 60 15 61 16 62 77 63 17 64
REMARK SMILES IDX 76 66 18 68 19 71 20 72 70 73 21 74 75 75 69 76 71 77 22 78
REMARK SMILES IDX 74 79 68 81 67 83 23 85 55 88 35 89 54 90 36 91 39 92 53 93
REMARK SMILES IDX 72 94 37 95 38 97 52 99 73 100 40 103 24 105 25 106 33 107
REMARK SMILES IDX 26 108 27 109 31 110 34 111 28 112 29 113 32 114 30 115
REMARK SMILES IDX 56 116 57 117 65 118 58 119 59 120 63 121 66 122 60 123
REMARK SMILES IDX 61 124 64 125 62 126 41 127 42 128 50 129 43 130 44 131
REMARK SMILES IDX 48 132 51 133 45 134 46 135 49 136 47 137
REMARK H PARENT 7 2 7 3 6 5 6 6 5 10 2 12 1 14 1 15 1 16 79 21 80 25 89 26
REMARK H PARENT 82 28 82 29 83 33 84 35 84 36 87 38 85 39 85 40 86 41 86 42
REMARK H PARENT 88 44 8 46 8 47 9 49 9 50 10 52 10 53 11 55 11 56 12 59 16 65
REMARK H PARENT 77 67 17 69 76 70 75 80 69 82 71 84 74 86 68 87 36 96 39 98
REMARK H PARENT 72 101 37 102 73 104
REMARK Flexibility Score: inf
ROOT
ATOM      1  C   UNL A   1      33.349  28.965  26.551  1.00  0.00    -0.036 C 
ATOM      2  H   UNL A   1      33.790  29.516  25.746  1.00  0.00     0.028 H 
ATOM      3  H   UNL A   1      33.776  29.214  27.499  1.00  0.00     0.028 H 
ENDROOT
BRANCH   1   4
ATOM      4  C   UNL A   1      33.617  27.476  26.319  1.00  0.00     0.017 C 
ATOM      5  H   UNL A   1      34.312  27.364  25.513  1.00  0.00     0.049 H 
ATOM      6  H   UNL A   1      34.022  27.052  27.214  1.00  0.00     0.049 H 
BRANCH   4   7
ATOM      7  N   UNL A   1      32.388  26.789  25.989  1.00  0.00    -0.356 N 
ATOM      8  C   UNL A   1      32.111  25.925  24.970  1.00  0.00     0.227 C 
ATOM      9  O   UNL A   1      30.930  25.610  24.817  1.00  0.00    -0.274 OA
ATOM     10  H   UNL A   1      31.632  26.976  26.591  1.00  0.00     0.163 HD
BRANCH   8  11
ATOM     11  C   UNL A   1      33.257  25.337  24.136  1.00  0.00     0.063 C 
ATOM     12  H   UNL A   1      34.167  25.574  24.647  1.00  0.00     0.045 H 
BRANCH  11  13
ATOM     13  C   UNL A   1      33.385  25.985  22.751  1.00  0.00    -0.049 C 
ATOM     14  H   UNL A   1      32.459  25.885  22.224  1.00  0.00     0.024 H 
ATOM     15  H   UNL A   1      34.164  25.500  22.200  1.00  0.00     0.024 H 
ATOM     16  H   UNL A   1      33.621  27.024  22.863  1.00  0.00     0.024 H 
ENDBRANCH  11  13
BRANCH  11  17
ATOM     17  C   UNL A   1      33.151  23.822  24.053  1.00  0.00    -0.000 A 
ATOM     18  C   UNL A   1      32.677  23.222  22.876  1.00  0.00    -0.055 A 
ATOM     19  C   UNL A   1      33.543  22.987  25.105  1.00  0.00     0.127 A 
ATOM     20  C   UNL A   1      32.527  21.835  22.795  1.00  0.00    -0.059 A 
ATOM     21  H   UNL A   1      32.437  23.811  22.064  1.00  0.00     0.063 H 
ATOM     22  C   UNL A   1      33.371  21.609  25.037  1.00  0.00    -0.023 A 
ATOM     23  F   UNL A   1      34.064  23.501  26.227  1.00  0.00    -0.207 F 
ATOM     24  C   UNL A   1      32.820  21.020  23.894  1.00  0.00    -0.045 A 
ATOM     25  H   UNL A   1      32.197  21.408  21.915  1.00  0.00     0.063 H 
ATOM     26  H   UNL A   1      33.651  21.017  25.835  1.00  0.00     0.066 H 
BRANCH  24  27
ATOM     27  C   UNL A   1      32.521  19.542  23.882  1.00  0.00    -0.022 C 
ATOM     28  H   UNL A   1      32.314  19.265  22.868  1.00  0.00     0.032 H 
ATOM     29  H   UNL A   1      31.706  19.422  24.564  1.00  0.00     0.032 H 
BRANCH  27  30
ATOM     30  C   UNL A   1      33.621  18.589  24.407  1.00  0.00    -0.011 C 
ATOM     31  C   UNL A   1      34.036  17.486  23.425  1.00  0.00    -0.048 C 
ATOM     32  C   UNL A   1      33.327  17.803  25.689  1.00  0.00     0.057 C 
ATOM     33  H   UNL A   1      34.377  19.326  24.575  1.00  0.00     0.033 H 
ATOM     34  C   UNL A   1      33.334  16.202  23.876  1.00  0.00    -0.050 C 
ATOM     35  H   UNL A   1      35.098  17.354  23.448  1.00  0.00     0.027 H 
ATOM     36  H   UNL A   1      33.760  17.741  22.423  1.00  0.00     0.027 H 
ATOM     37  C   UNL A   1      32.679  16.508  25.219  1.00  0.00    -0.027 C 
ATOM     38  H   UNL A   1      34.225  17.618  26.241  1.00  0.00     0.060 H 
ATOM     39  H   UNL A   1      34.047  15.412  23.986  1.00  0.00     0.027 H 
ATOM     40  H   UNL A   1      32.607  15.888  23.157  1.00  0.00     0.027 H 
ATOM     41  H   UNL A   1      32.867  15.718  25.916  1.00  0.00     0.029 H 
ATOM     42  H   UNL A   1      31.616  16.596  25.137  1.00  0.00     0.029 H 
BRANCH  32  43
ATOM     43  O   UNL A   1      32.528  18.514  26.610  1.00  0.00    -0.393 OA
ATOM     44  H   UNL A   1      32.881  18.393  27.506  1.00  0.00     0.210 HD
ENDBRANCH  32  43
ENDBRANCH  27  30
ENDBRANCH  24  27
ENDBRANCH  11  17
ENDBRANCH   8  11
ENDBRANCH   4   7
ENDBRANCH   1   4
BRANCH   1  45
ATOM     45  C   UNL A   1      31.859  29.323  26.623  1.00  0.00    -0.052 C 
ATOM     46  H   UNL A   1      31.621  29.555  27.640  1.00  0.00     0.027 H 
ATOM     47  H   UNL A   1      31.328  28.474  26.246  1.00  0.00     0.027 H 
BRANCH  45  48
ATOM     48  C   UNL A   1      31.435  30.512  25.754  1.00  0.00    -0.052 C 
ATOM     49  H   UNL A   1      30.485  30.284  25.319  1.00  0.00     0.027 H 
ATOM     50  H   UNL A   1      32.212  30.647  25.030  1.00  0.00     0.027 H 
BRANCH  48  51
ATOM     51  C   UNL A   1      31.309  31.842  26.501  1.00  0.00    -0.036 C 
ATOM     52  H   UNL A   1      30.702  31.683  27.367  1.00  0.00     0.028 H 
ATOM     53  H   UNL A   1      30.880  32.539  25.811  1.00  0.00     0.028 H 
BRANCH  51  54
ATOM     54  C   UNL A   1      32.636  32.442  26.954  1.00  0.00     0.018 C 
ATOM     55  H   UNL A   1      33.327  32.409  26.137  1.00  0.00     0.049 H 
ATOM     56  H   UNL A   1      32.990  31.869  27.785  1.00  0.00     0.049 H 
BRANCH  54  57
ATOM     57  N   UNL A   1      32.492  33.822  27.391  1.00  0.00    -0.352 N 
ATOM     58  C   UNL A   1      33.147  34.485  28.395  1.00  0.00     0.251 C 
ATOM     59  H   UNL A   1      31.830  34.355  26.893  1.00  0.00     0.163 HD
ATOM     60  O   UNL A   1      32.767  35.600  28.751  1.00  0.00    -0.269 OA
BRANCH  58  61
ATOM     61  C   UNL A   1      34.300  33.855  29.070  1.00  0.00     0.039 A 
ATOM     62  C   UNL A   1      34.062  32.899  30.061  1.00  0.00    -0.049 A 
ATOM     63  C   UNL A   1      35.610  34.220  28.744  1.00  0.00    -0.049 A 
ATOM     64  C   UNL A   1      35.138  32.273  30.692  1.00  0.00    -0.053 A 
ATOM     65  H   UNL A   1      33.094  32.656  30.325  1.00  0.00     0.063 H 
ATOM     66  C   UNL A   1      36.682  33.548  29.327  1.00  0.00    -0.053 A 
ATOM     67  H   UNL A   1      35.783  34.985  28.074  1.00  0.00     0.063 H 
ATOM     68  C   UNL A   1      36.456  32.575  30.314  1.00  0.00    -0.014 A 
ATOM     69  H   UNL A   1      34.964  31.585  31.443  1.00  0.00     0.063 H 
ATOM     70  H   UNL A   1      37.647  33.766  29.032  1.00  0.00     0.063 H 
BRANCH  68  71
ATOM     71  C   UNL A   1      37.611  31.893  30.949  1.00  0.00     0.031 A 
ATOM     72  C   UNL A   1      38.043  32.276  32.337  1.00  0.00     0.074 A 
ATOM     73  C   UNL A   1      38.303  30.968  30.256  1.00  0.00     0.049 A 
ATOM     74  N   UNL A   1      39.056  31.836  33.041  1.00  0.00    -0.248 NA
ATOM     75  C   UNL A   1      37.244  33.309  33.015  1.00  0.00    -0.034 C 
ATOM     76  C   UNL A   1      38.009  30.543  28.887  1.00  0.00    -0.036 A 
ATOM     77  N   UNL A   1      39.402  30.225  30.607  1.00  0.00    -0.354 N 
ATOM     78  C   UNL A   1      39.026  32.549  34.232  1.00  0.00     0.074 A 
ATOM     79  C   UNL A   1      37.925  33.484  34.137  1.00  0.00    -0.034 C 
ATOM     80  H   UNL A   1      36.380  33.775  32.698  1.00  0.00     0.065 H 
ATOM     81  C   UNL A   1      38.891  29.598  28.522  1.00  0.00    -0.036 A 
ATOM     82  H   UNL A   1      37.247  30.911  28.296  1.00  0.00     0.065 H 
ATOM     83  C   UNL A   1      39.830  29.375  29.618  1.00  0.00     0.049 A 
ATOM     84  H   UNL A   1      39.841  30.294  31.486  1.00  0.00     0.167 HD
ATOM     85  C   UNL A   1      39.827  32.418  35.315  1.00  0.00     0.037 A 
ATOM     86  H   UNL A   1      37.702  34.196  34.851  1.00  0.00     0.065 H 
ATOM     87  H   UNL A   1      38.903  29.109  27.614  1.00  0.00     0.065 H 
ATOM     88  C   UNL A   1      40.865  28.513  29.597  1.00  0.00     0.037 A 
ATOM     89  C   UNL A   1      40.902  31.466  35.418  1.00  0.00     0.049 A 
ATOM     90  C   UNL A   1      41.737  28.384  30.816  1.00  0.00     0.074 A 
ATOM     91  C   UNL A   1      41.733  31.215  36.495  1.00  0.00    -0.036 A 
ATOM     92  N   UNL A   1      41.294  30.607  34.401  1.00  0.00    -0.354 N 
ATOM     93  N   UNL A   1      41.658  29.016  31.962  1.00  0.00    -0.248 NA
ATOM     94  C   UNL A   1      42.839  27.415  30.740  1.00  0.00    -0.034 C 
ATOM     95  C   UNL A   1      42.653  30.230  36.117  1.00  0.00    -0.036 A 
ATOM     96  H   UNL A   1      41.683  31.673  37.418  1.00  0.00     0.065 H 
ATOM     97  C   UNL A   1      42.367  29.837  34.820  1.00  0.00     0.049 A 
ATOM     98  H   UNL A   1      40.871  30.552  33.513  1.00  0.00     0.167 HD
ATOM     99  C   UNL A   1      42.677  28.502  32.752  1.00  0.00     0.074 A 
ATOM    100  C   UNL A   1      43.353  27.496  31.959  1.00  0.00    -0.034 C 
ATOM    101  H   UNL A   1      43.136  26.826  29.946  1.00  0.00     0.065 H 
ATOM    102  H   UNL A   1      43.418  29.861  36.705  1.00  0.00     0.065 H 
ATOM    103  C   UNL A   1      43.021  28.833  34.021  1.00  0.00     0.037 A 
ATOM    104  H   UNL A   1      44.137  26.917  32.299  1.00  0.00     0.065 H 
BRANCH  85 105
ATOM    105  C   UNL A   1      39.567  33.327  36.482  1.00  0.00     0.064 A 
ATOM    106  C   UNL A   1      38.706  32.956  37.526  1.00  0.00     0.173 A 
ATOM    107  C   UNL A   1      40.210  34.571  36.572  1.00  0.00     0.173 A 
ATOM    108  F   UNL A   1      38.058  31.782  37.481  1.00  0.00    -0.203 F 
ATOM    109  C   UNL A   1      38.474  33.810  38.601  1.00  0.00     0.198 A 
ATOM    110  C   UNL A   1      39.998  35.409  37.665  1.00  0.00     0.198 A 
ATOM    111  F   UNL A   1      41.048  34.973  35.606  1.00  0.00    -0.203 F 
ATOM    112  F   UNL A   1      37.607  33.455  39.560  1.00  0.00    -0.200 F 
ATOM    113  C   UNL A   1      39.124  35.031  38.673  1.00  0.00     0.200 A 
ATOM    114  F   UNL A   1      40.637  36.585  37.739  1.00  0.00    -0.200 F 
ATOM    115  F   UNL A   1      38.903  35.850  39.711  1.00  0.00    -0.200 F 
ENDBRANCH  85 105
BRANCH  88 116
ATOM    116  C   UNL A   1      41.111  27.679  28.393  1.00  0.00     0.064 A 
ATOM    117  C   UNL A   1      42.000  28.104  27.395  1.00  0.00     0.173 A 
ATOM    118  C   UNL A   1      40.465  26.448  28.212  1.00  0.00     0.173 A 
ATOM    119  F   UNL A   1      42.625  29.285  27.515  1.00  0.00    -0.203 F 
ATOM    120  C   UNL A   1      42.219  27.339  26.252  1.00  0.00     0.198 A 
ATOM    121  C   UNL A   1      40.705  25.670  27.081  1.00  0.00     0.198 A 
ATOM    122  F   UNL A   1      39.609  25.995  29.139  1.00  0.00    -0.203 F 
ATOM    123  F   UNL A   1      43.040  27.789  25.294  1.00  0.00    -0.200 F 
ATOM    124  C   UNL A   1      41.575  26.120  26.099  1.00  0.00     0.200 A 
ATOM    125  F   UNL A   1      40.092  24.488  26.941  1.00  0.00    -0.200 F 
ATOM    126  F   UNL A   1      41.788  25.382  25.001  1.00  0.00    -0.200 F 
ENDBRANCH  88 116
BRANCH 103 127
ATOM    127  C   UNL A   1      44.156  28.074  34.643  1.00  0.00     0.064 A 
ATOM    128  C   UNL A   1      45.476  28.544  34.583  1.00  0.00     0.173 A 
ATOM    129  C   UNL A   1      43.914  26.880  35.338  1.00  0.00     0.173 A 
ATOM    130  F   UNL A   1      45.761  29.673  33.916  1.00  0.00    -0.203 F 
ATOM    131  C   UNL A   1      46.516  27.832  35.173  1.00  0.00     0.198 A 
ATOM    132  C   UNL A   1      44.952  26.185  35.951  1.00  0.00     0.198 A 
ATOM    133  F   UNL A   1      42.668  26.391  35.430  1.00  0.00    -0.203 F 
ATOM    134  F   UNL A   1      47.777  28.274  35.062  1.00  0.00    -0.200 F 
ATOM    135  C   UNL A   1      46.253  26.657  35.862  1.00  0.00     0.200 A 
ATOM    136  F   UNL A   1      44.694  25.057  36.627  1.00  0.00    -0.200 F 
ATOM    137  F   UNL A   1      47.254  25.975  36.434  1.00  0.00    -0.200 F 
ENDBRANCH 103 127
ENDBRANCH  68  71
ENDBRANCH  58  61
ENDBRANCH  54  57
ENDBRANCH  51  54
ENDBRANCH  48  51
ENDBRANCH  45  48
ENDBRANCH   1  45
TORSDOF 18
ENDMDL
MODEL 10
REMARK VINA RESULT:     -11.5      0.644      7.262
REMARK SMILES C[C@@H](C(=O)NCCCCCCNC(=O)c1ccc(-c2c3nc(c(-c4c(F)c(F)c(F)c(F)c4F)c4ccc([nH]4)c(-c4c(F)c(F)c(F)c(F)c4F)c4nc(c(-c5c(F)c(F)c(F)c(F)c5F)c5ccc2[nH]5)C=C4)C=C3)cc1)c1ccc(C[C@@H]2CCC[C@@H]2O)cc1F
REMARK SMILES IDX 7 1 6 4 5 7 3 8 4 9 2 11 1 13 78 17 79 18 90 19 80 20 89 22
REMARK SMILES IDX 91 23 81 24 82 27 83 30 84 31 87 32 85 34 86 37 88 43 8 45
REMARK SMILES IDX 9 48 10 51 11 54 12 57 13 58 14 60 15 61 16 62 77 63 17 64
REMARK SMILES IDX 76 66 18 68 19 71 20 72 70 73 21 74 75 75 69 76 71 77 22 78
REMARK SMILES IDX 74 79 68 81 67 83 23 85 55 88 35 89 54 90 36 91 39 92 53 93
REMARK SMILES IDX 72 94 37 95 38 97 52 99 73 100 40 103 24 105 25 106 33 107
REMARK SMILES IDX 26 108 27 109 31 110 34 111 28 112 29 113 32 114 30 115
REMARK SMILES IDX 56 116 57 117 65 118 58 119 59 120 63 121 66 122 60 123
REMARK SMILES IDX 61 124 64 125 62 126 41 127 42 128 50 129 43 130 44 131
REMARK SMILES IDX 48 132 51 133 45 134 46 135 49 136 47 137
REMARK H PARENT 7 2 7 3 6 5 6 6 5 10 2 12 1 14 1 15 1 16 79 21 80 25 89 26
REMARK H PARENT 82 28 82 29 83 33 84 35 84 36 87 38 85 39 85 40 86 41 86 42
REMARK H PARENT 88 44 8 46 8 47 9 49 9 50 10 52 10 53 11 55 11 56 12 59 16 65
REMARK H PARENT 77 67 17 69 76 70 75 80 69 82 71 84 74 86 68 87 36 96 39 98
REMARK H PARENT 72 101 37 102 73 104
REMARK Flexibility Score: inf
ROOT
ATOM      1  C   UNL A   1      34.857  24.670  24.601  1.00  0.00    -0.036 C 
ATOM      2  H   UNL A   1      35.474  24.543  23.736  1.00  0.00     0.028 H 
ATOM      3  H   UNL A   1      35.426  24.747  25.503  1.00  0.00     0.028 H 
ENDROOT
BRANCH   1   4
ATOM      4  C   UNL A   1      33.965  23.434  24.741  1.00  0.00     0.017 C 
ATOM      5  H   UNL A   1      33.332  23.356  23.882  1.00  0.00     0.049 H 
ATOM      6  H   UNL A   1      34.585  22.565  24.819  1.00  0.00     0.049 H 
BRANCH   4   7
ATOM      7  N   UNL A   1      33.148  23.535  25.930  1.00  0.00    -0.356 N 
ATOM      8  C   UNL A   1      31.804  23.738  26.056  1.00  0.00     0.227 C 
ATOM      9  O   UNL A   1      31.382  23.953  27.193  1.00  0.00    -0.274 OA
ATOM     10  H   UNL A   1      33.636  23.446  26.779  1.00  0.00     0.163 HD
BRANCH   8  11
ATOM     11  C   UNL A   1      30.895  23.616  24.827  1.00  0.00     0.063 C 
ATOM     12  H   UNL A   1      29.959  23.228  25.171  1.00  0.00     0.045 H 
BRANCH  11  13
ATOM     13  C   UNL A   1      31.408  22.598  23.800  1.00  0.00    -0.049 C 
ATOM     14  H   UNL A   1      32.446  22.408  23.974  1.00  0.00     0.024 H 
ATOM     15  H   UNL A   1      31.277  22.989  22.812  1.00  0.00     0.024 H 
ATOM     16  H   UNL A   1      30.857  21.685  23.897  1.00  0.00     0.024 H 
ENDBRANCH  11  13
BRANCH  11  17
ATOM     17  C   UNL A   1      30.633  24.979  24.203  1.00  0.00    -0.000 A 
ATOM     18  C   UNL A   1      31.223  25.304  22.972  1.00  0.00    -0.055 A 
ATOM     19  C   UNL A   1      29.790  25.923  24.798  1.00  0.00     0.127 A 
ATOM     20  C   UNL A   1      31.034  26.567  22.404  1.00  0.00    -0.059 A 
ATOM     21  H   UNL A   1      31.802  24.604  22.482  1.00  0.00     0.063 H 
ATOM     22  C   UNL A   1      29.621  27.188  24.248  1.00  0.00    -0.023 A 
ATOM     23  F   UNL A   1      29.148  25.642  25.939  1.00  0.00    -0.207 F 
ATOM     24  C   UNL A   1      30.277  27.540  23.064  1.00  0.00    -0.045 A 
ATOM     25  H   UNL A   1      31.458  26.783  21.488  1.00  0.00     0.063 H 
ATOM     26  H   UNL A   1      29.007  27.874  24.718  1.00  0.00     0.066 H 
BRANCH  24  27
ATOM     27  C   UNL A   1      30.186  28.954  22.548  1.00  0.00    -0.022 C 
ATOM     28  H   UNL A   1      30.293  28.913  21.483  1.00  0.00     0.032 H 
ATOM     29  H   UNL A   1      30.958  29.483  23.065  1.00  0.00     0.032 H 
BRANCH  27  30
ATOM     30  C   UNL A   1      28.891  29.742  22.853  1.00  0.00    -0.011 C 
ATOM     31  C   UNL A   1      28.028  30.059  21.625  1.00  0.00    -0.048 C 
ATOM     32  C   UNL A   1      29.034  31.112  23.525  1.00  0.00     0.057 C 
ATOM     33  H   UNL A   1      28.449  29.033  23.521  1.00  0.00     0.033 H 
ATOM     34  C   UNL A   1      28.299  31.521  21.257  1.00  0.00    -0.050 C 
ATOM     35  H   UNL A   1      26.993  29.923  21.858  1.00  0.00     0.027 H 
ATOM     36  H   UNL A   1      28.268  29.409  20.810  1.00  0.00     0.027 H 
ATOM     37  C   UNL A   1      29.154  32.104  22.376  1.00  0.00    -0.027 C 
ATOM     38  H   UNL A   1      28.189  31.327  24.146  1.00  0.00     0.060 H 
ATOM     39  H   UNL A   1      27.377  32.058  21.180  1.00  0.00     0.027 H 
ATOM     40  H   UNL A   1      28.799  31.593  20.314  1.00  0.00     0.027 H 
ATOM     41  H   UNL A   1      28.785  33.065  22.669  1.00  0.00     0.029 H 
ATOM     42  H   UNL A   1      30.170  32.247  22.073  1.00  0.00     0.029 H 
BRANCH  32  43
ATOM     43  O   UNL A   1      30.117  31.182  24.428  1.00  0.00    -0.393 OA
ATOM     44  H   UNL A   1      30.791  30.532  24.174  1.00  0.00     0.210 HD
ENDBRANCH  32  43
ENDBRANCH  27  30
ENDBRANCH  24  27
ENDBRANCH  11  17
ENDBRANCH   8  11
ENDBRANCH   4   7
ENDBRANCH   1   4
BRANCH   1  45
ATOM     45  C   UNL A   1      34.077  25.983  24.451  1.00  0.00    -0.052 C 
ATOM     46  H   UNL A   1      33.132  25.759  23.999  1.00  0.00     0.027 H 
ATOM     47  H   UNL A   1      34.688  26.629  23.857  1.00  0.00     0.027 H 
BRANCH  45  48
ATOM     48  C   UNL A   1      33.810  26.731  25.761  1.00  0.00    -0.052 C 
ATOM     49  H   UNL A   1      34.742  27.108  26.124  1.00  0.00     0.027 H 
ATOM     50  H   UNL A   1      33.352  26.024  26.422  1.00  0.00     0.027 H 
BRANCH  48  51
ATOM     51  C   UNL A   1      32.835  27.905  25.645  1.00  0.00    -0.036 C 
ATOM     52  H   UNL A   1      32.431  28.101  26.616  1.00  0.00     0.028 H 
ATOM     53  H   UNL A   1      32.091  27.613  24.933  1.00  0.00     0.028 H 
BRANCH  51  54
ATOM     54  C   UNL A   1      33.456  29.194  25.118  1.00  0.00     0.018 C 
ATOM     55  H   UNL A   1      33.352  29.217  24.053  1.00  0.00     0.049 H 
ATOM     56  H   UNL A   1      34.487  29.205  25.407  1.00  0.00     0.049 H 
BRANCH  54  57
ATOM     57  N   UNL A   1      32.822  30.377  25.678  1.00  0.00    -0.352 N 
ATOM     58  C   UNL A   1      33.131  31.066  26.821  1.00  0.00     0.251 C 
ATOM     59  H   UNL A   1      32.062  30.732  25.162  1.00  0.00     0.163 HD
ATOM     60  O   UNL A   1      32.371  31.937  27.243  1.00  0.00    -0.269 OA
BRANCH  58  61
ATOM     61  C   UNL A   1      34.370  30.754  27.563  1.00  0.00     0.039 A 
ATOM     62  C   UNL A   1      35.357  31.737  27.673  1.00  0.00    -0.049 A 
ATOM     63  C   UNL A   1      34.569  29.491  28.128  1.00  0.00    -0.049 A 
ATOM     64  C   UNL A   1      36.523  31.471  28.392  1.00  0.00    -0.053 A 
ATOM     65  H   UNL A   1      35.223  32.658  27.224  1.00  0.00     0.063 H 
ATOM     66  C   UNL A   1      35.703  29.248  28.901  1.00  0.00    -0.053 A 
ATOM     67  H   UNL A   1      33.879  28.740  27.974  1.00  0.00     0.063 H 
ATOM     68  C   UNL A   1      36.695  30.233  29.032  1.00  0.00    -0.014 A 
ATOM     69  H   UNL A   1      37.264  32.187  28.453  1.00  0.00     0.063 H 
ATOM     70  H   UNL A   1      35.814  28.340  29.378  1.00  0.00     0.063 H 
BRANCH  68  71
ATOM     71  C   UNL A   1      37.912  29.946  29.830  1.00  0.00     0.031 A 
ATOM     72  C   UNL A   1      38.977  29.037  29.282  1.00  0.00     0.074 A 
ATOM     73  C   UNL A   1      38.034  30.459  31.069  1.00  0.00     0.049 A 
ATOM     74  N   UNL A   1      40.083  28.622  29.845  1.00  0.00    -0.248 NA
ATOM     75  C   UNL A   1      38.755  28.503  27.928  1.00  0.00    -0.034 C 
ATOM     76  C   UNL A   1      37.049  31.318  31.729  1.00  0.00    -0.036 A 
ATOM     77  N   UNL A   1      39.035  30.326  31.998  1.00  0.00    -0.354 N 
ATOM     78  C   UNL A   1      40.679  27.769  28.926  1.00  0.00     0.074 A 
ATOM     79  C   UNL A   1      39.788  27.685  27.788  1.00  0.00    -0.034 C 
ATOM     80  H   UNL A   1      37.994  28.711  27.263  1.00  0.00     0.065 H 
ATOM     81  C   UNL A   1      37.504  31.653  32.946  1.00  0.00    -0.036 A 
ATOM     82  H   UNL A   1      36.148  31.616  31.323  1.00  0.00     0.065 H 
ATOM     83  C   UNL A   1      38.797  31.009  33.165  1.00  0.00     0.049 A 
ATOM     84  H   UNL A   1      39.848  29.792  31.842  1.00  0.00     0.167 HD
ATOM     85  C   UNL A   1      41.871  27.133  29.011  1.00  0.00     0.037 A 
ATOM     86  H   UNL A   1      39.938  27.068  26.974  1.00  0.00     0.065 H 
ATOM     87  H   UNL A   1      37.021  32.268  33.618  1.00  0.00     0.065 H 
ATOM     88  C   UNL A   1      39.536  31.102  34.286  1.00  0.00     0.037 A 
ATOM     89  C   UNL A   1      42.768  27.242  30.132  1.00  0.00     0.049 A 
ATOM     90  C   UNL A   1      40.860  30.388  34.354  1.00  0.00     0.074 A 
ATOM     91  C   UNL A   1      44.025  26.685  30.289  1.00  0.00    -0.036 A 
ATOM     92  N   UNL A   1      42.501  27.960  31.289  1.00  0.00    -0.354 N 
ATOM     93  N   UNL A   1      41.444  29.638  33.452  1.00  0.00    -0.248 NA
ATOM     94  C   UNL A   1      41.630  30.543  35.596  1.00  0.00    -0.034 C 
ATOM     95  C   UNL A   1      44.502  27.033  31.558  1.00  0.00    -0.036 A 
ATOM     96  H   UNL A   1      44.525  26.112  29.591  1.00  0.00     0.065 H 
ATOM     97  C   UNL A   1      43.562  27.844  32.173  1.00  0.00     0.049 A 
ATOM     98  H   UNL A   1      41.679  28.475  31.457  1.00  0.00     0.167 HD
ATOM     99  C   UNL A   1      42.659  29.256  34.002  1.00  0.00     0.074 A 
ATOM    100  C   UNL A   1      42.735  29.868  35.312  1.00  0.00    -0.034 C 
ATOM    101  H   UNL A   1      41.377  31.044  36.462  1.00  0.00     0.065 H 
ATOM    102  H   UNL A   1      45.403  26.735  31.967  1.00  0.00     0.065 H 
ATOM    103  C   UNL A   1      43.626  28.469  33.469  1.00  0.00     0.037 A 
ATOM    104  H   UNL A   1      43.546  29.788  35.945  1.00  0.00     0.065 H 
BRANCH  85 105
ATOM    105  C   UNL A   1      42.276  26.263  27.857  1.00  0.00     0.064 A 
ATOM    106  C   UNL A   1      43.115  26.737  26.837  1.00  0.00     0.173 A 
ATOM    107  C   UNL A   1      41.844  24.929  27.784  1.00  0.00     0.173 A 
ATOM    108  F   UNL A   1      43.545  28.007  26.854  1.00  0.00    -0.203 F 
ATOM    109  C   UNL A   1      43.482  25.919  25.772  1.00  0.00     0.198 A 
ATOM    110  C   UNL A   1      42.238  24.105  26.732  1.00  0.00     0.198 A 
ATOM    111  F   UNL A   1      41.046  24.423  28.736  1.00  0.00    -0.203 F 
ATOM    112  F   UNL A   1      44.242  26.410  24.784  1.00  0.00    -0.200 F 
ATOM    113  C   UNL A   1      43.048  24.603  25.724  1.00  0.00     0.200 A 
ATOM    114  F   UNL A   1      41.828  22.830  26.693  1.00  0.00    -0.200 F 
ATOM    115  F   UNL A   1      43.406  23.815  24.700  1.00  0.00    -0.200 F 
ENDBRANCH  85 105
BRANCH  88 116
ATOM    116  C   UNL A   1      39.060  31.931  35.422  1.00  0.00     0.064 A 
ATOM    117  C   UNL A   1      39.362  33.299  35.488  1.00  0.00     0.173 A 
ATOM    118  C   UNL A   1      38.301  31.379  36.464  1.00  0.00     0.173 A 
ATOM    119  F   UNL A   1      40.103  33.867  34.525  1.00  0.00    -0.203 F 
ATOM    120  C   UNL A   1      38.939  34.079  36.562  1.00  0.00     0.198 A 
ATOM    121  C   UNL A   1      37.856  32.165  37.525  1.00  0.00     0.198 A 
ATOM    122  F   UNL A   1      37.982  30.077  36.446  1.00  0.00    -0.203 F 
ATOM    123  F   UNL A   1      39.278  35.374  36.621  1.00  0.00    -0.200 F 
ATOM    124  C   UNL A   1      38.182  33.513  37.576  1.00  0.00     0.200 A 
ATOM    125  F   UNL A   1      37.114  31.618  38.496  1.00  0.00    -0.200 F 
ATOM    126  F   UNL A   1      37.772  34.263  38.607  1.00  0.00    -0.200 F 
ENDBRANCH  88 116
BRANCH 103 127
ATOM    127  C   UNL A   1      44.865  28.256  34.288  1.00  0.00     0.064 A 
ATOM    128  C   UNL A   1      45.963  29.124  34.202  1.00  0.00     0.173 A 
ATOM    129  C   UNL A   1      44.939  27.188  35.196  1.00  0.00     0.173 A 
ATOM    130  F   UNL A   1      45.947  30.149  33.337  1.00  0.00    -0.203 F 
ATOM    131  C   UNL A   1      47.101  28.916  34.975  1.00  0.00     0.198 A 
ATOM    132  C   UNL A   1      46.067  26.999  35.988  1.00  0.00     0.198 A 
ATOM    133  F   UNL A   1      43.913  26.334  35.321  1.00  0.00    -0.203 F 
ATOM    134  F   UNL A   1      48.158  29.728  34.842  1.00  0.00    -0.200 F 
ATOM    135  C   UNL A   1      47.150  27.858  35.872  1.00  0.00     0.200 A 
ATOM    136  F   UNL A   1      46.108  25.985  36.863  1.00  0.00    -0.200 F 
ATOM    137  F   UNL A   1      48.244  27.662  36.620  1.00  0.00    -0.200 F 
ENDBRANCH 103 127
ENDBRANCH  68  71
ENDBRANCH  58  61
ENDBRANCH  54  57
ENDBRANCH  51  54
ENDBRANCH  48  51
ENDBRANCH  45  48
ENDBRANCH   1  45
TORSDOF 18
ENDMDL
