MODEL 1
REMARK VINA RESULT:     -10.5      0.000      0.000
REMARK SMILES O=C(CCCC[C@@H]1CCSS1)NCCCCCCNC(=O)c1ccc(-c2c3nc(c(-c4c(F)c(F)c(F)c(F)c4F)c4ccc([nH]4)c(-c4c(F)c(F)c(F)c(F)c4F)c4nc(c(-c5c(F)c(F)c(F)c(F)c5F)c5ccc2[nH]5)C=C4)C=C3)cc1
REMARK SMILES IDX 14 1 13 4 12 7 1 8 2 9 3 11 4 14 5 17 6 20 7 23 8 24 11 25
REMARK SMILES IDX 9 27 10 30 15 33 16 36 17 39 18 42 19 45 20 46 21 48 22 49
REMARK SMILES IDX 23 50 84 51 24 52 83 54 25 56 26 59 27 60 77 61 28 62 82 63
REMARK SMILES IDX 76 64 78 65 29 66 81 67 75 69 74 71 30 73 62 76 42 77 61 78
REMARK SMILES IDX 43 79 46 80 60 81 79 82 44 83 45 85 59 87 80 88 47 91 31 93
REMARK SMILES IDX 32 94 40 95 33 96 34 97 38 98 41 99 35 100 36 101 39 102
REMARK SMILES IDX 37 103 63 104 64 105 72 106 65 107 66 108 70 109 73 110
REMARK SMILES IDX 67 111 68 112 71 113 69 114 48 115 49 116 57 117 50 118
REMARK SMILES IDX 51 119 55 120 58 121 52 122 53 123 56 124 54 125
REMARK H PARENT 14 2 14 3 13 5 13 6 12 10 3 12 3 13 4 15 4 16 5 18 5 19 6 21
REMARK H PARENT 6 22 7 26 8 28 8 29 9 31 9 32 15 34 15 35 16 37 16 38 17 40
REMARK H PARENT 17 41 18 43 18 44 19 47 23 53 84 55 24 57 83 58 82 68 76 70
REMARK H PARENT 78 72 81 74 75 75 43 84 46 86 79 89 44 90 80 92
REMARK Flexibility Score: inf
ROOT
ATOM      1  C   UNL A   1      32.014  28.358  26.934  1.00  0.00    -0.036 C 
ATOM      2  H   UNL A   1      32.102  27.923  27.909  1.00  0.00     0.028 H 
ATOM      3  H   UNL A   1      31.050  28.223  26.492  1.00  0.00     0.028 H 
ENDROOT
BRANCH   1   4
ATOM      4  C   UNL A   1      33.008  27.654  26.010  1.00  0.00     0.017 C 
ATOM      5  H   UNL A   1      33.950  28.158  26.063  1.00  0.00     0.049 H 
ATOM      6  H   UNL A   1      33.102  26.638  26.328  1.00  0.00     0.049 H 
BRANCH   4   7
ATOM      7  N   UNL A   1      32.547  27.661  24.639  1.00  0.00    -0.356 N 
ATOM      8  O   UNL A   1      31.643  25.553  24.632  1.00  0.00    -0.275 OA
ATOM      9  C   UNL A   1      31.890  26.606  24.056  1.00  0.00     0.219 C 
ATOM     10  H   UNL A   1      32.715  28.463  24.094  1.00  0.00     0.163 HD
BRANCH   9  11
ATOM     11  C   UNL A   1      31.505  26.853  22.609  1.00  0.00     0.026 C 
ATOM     12  H   UNL A   1      31.130  25.939  22.199  1.00  0.00     0.037 H 
ATOM     13  H   UNL A   1      32.385  27.195  22.106  1.00  0.00     0.037 H 
BRANCH  11  14
ATOM     14  C   UNL A   1      30.439  27.936  22.434  1.00  0.00    -0.044 C 
ATOM     15  H   UNL A   1      30.188  27.977  21.395  1.00  0.00     0.027 H 
ATOM     16  H   UNL A   1      30.881  28.830  22.823  1.00  0.00     0.027 H 
BRANCH  14  17
ATOM     17  C   UNL A   1      29.135  27.755  23.222  1.00  0.00    -0.052 C 
ATOM     18  H   UNL A   1      29.391  27.623  24.252  1.00  0.00     0.027 H 
ATOM     19  H   UNL A   1      28.646  26.910  22.780  1.00  0.00     0.027 H 
BRANCH  17  20
ATOM     20  C   UNL A   1      28.125  28.908  23.132  1.00  0.00    -0.040 C 
ATOM     21  H   UNL A   1      27.706  29.067  24.104  1.00  0.00     0.028 H 
ATOM     22  H   UNL A   1      27.386  28.624  22.413  1.00  0.00     0.028 H 
BRANCH  20  23
ATOM     23  C   UNL A   1      28.743  30.230  22.646  1.00  0.00     0.016 C 
ATOM     24  C   UNL A   1      28.382  31.409  23.562  1.00  0.00    -0.030 C 
ATOM     25  S   UNL A   1      28.116  30.668  20.986  1.00  0.00    -0.091 SA
ATOM     26  H   UNL A   1      29.801  30.071  22.642  1.00  0.00     0.043 H 
ATOM     27  C   UNL A   1      28.770  32.726  22.901  1.00  0.00     0.005 C 
ATOM     28  H   UNL A   1      28.908  31.310  24.488  1.00  0.00     0.029 H 
ATOM     29  H   UNL A   1      27.327  31.404  23.737  1.00  0.00     0.029 H 
ATOM     30  S   UNL A   1      28.043  32.698  21.248  1.00  0.00    -0.094 SA
ATOM     31  H   UNL A   1      29.835  32.808  22.836  1.00  0.00     0.039 H 
ATOM     32  H   UNL A   1      28.418  33.563  23.467  1.00  0.00     0.039 H 
ENDBRANCH  20  23
ENDBRANCH  17  20
ENDBRANCH  14  17
ENDBRANCH  11  14
ENDBRANCH   9  11
ENDBRANCH   4   7
ENDBRANCH   1   4
BRANCH   1  33
ATOM     33  C   UNL A   1      32.210  29.876  27.072  1.00  0.00    -0.052 C 
ATOM     34  H   UNL A   1      33.243  30.092  26.900  1.00  0.00     0.027 H 
ATOM     35  H   UNL A   1      31.873  30.127  28.056  1.00  0.00     0.027 H 
BRANCH  33  36
ATOM     36  C   UNL A   1      31.383  30.738  26.114  1.00  0.00    -0.052 C 
ATOM     37  H   UNL A   1      30.392  30.334  26.080  1.00  0.00     0.027 H 
ATOM     38  H   UNL A   1      31.892  30.705  25.173  1.00  0.00     0.027 H 
BRANCH  36  39
ATOM     39  C   UNL A   1      31.279  32.217  26.487  1.00  0.00    -0.036 C 
ATOM     40  H   UNL A   1      30.450  32.332  27.154  1.00  0.00     0.028 H 
ATOM     41  H   UNL A   1      31.164  32.747  25.565  1.00  0.00     0.028 H 
BRANCH  39  42
ATOM     42  C   UNL A   1      32.512  32.811  27.163  1.00  0.00     0.018 C 
ATOM     43  H   UNL A   1      33.323  32.799  26.464  1.00  0.00     0.049 H 
ATOM     44  H   UNL A   1      32.721  32.216  28.027  1.00  0.00     0.049 H 
BRANCH  42  45
ATOM     45  N   UNL A   1      32.310  34.177  27.615  1.00  0.00    -0.352 N 
ATOM     46  C   UNL A   1      32.985  34.892  28.571  1.00  0.00     0.251 C 
ATOM     47  H   UNL A   1      31.578  34.663  27.168  1.00  0.00     0.163 HD
ATOM     48  O   UNL A   1      32.583  36.007  28.900  1.00  0.00    -0.269 OA
BRANCH  46  49
ATOM     49  C   UNL A   1      34.179  34.323  29.236  1.00  0.00     0.039 A 
ATOM     50  C   UNL A   1      33.992  33.499  30.349  1.00  0.00    -0.049 A 
ATOM     51  C   UNL A   1      35.473  34.607  28.789  1.00  0.00    -0.049 A 
ATOM     52  C   UNL A   1      35.094  32.908  30.972  1.00  0.00    -0.053 A 
ATOM     53  H   UNL A   1      33.041  33.326  30.710  1.00  0.00     0.063 H 
ATOM     54  C   UNL A   1      36.567  33.966  29.370  1.00  0.00    -0.053 A 
ATOM     55  H   UNL A   1      35.618  35.289  28.029  1.00  0.00     0.063 H 
ATOM     56  C   UNL A   1      36.388  33.110  30.466  1.00  0.00    -0.014 A 
ATOM     57  H   UNL A   1      34.956  32.320  31.809  1.00  0.00     0.063 H 
ATOM     58  H   UNL A   1      37.514  34.122  28.990  1.00  0.00     0.063 H 
BRANCH  56  59
ATOM     59  C   UNL A   1      37.552  32.407  31.066  1.00  0.00     0.031 A 
ATOM     60  C   UNL A   1      38.046  32.768  32.439  1.00  0.00     0.074 A 
ATOM     61  C   UNL A   1      38.197  31.468  30.348  1.00  0.00     0.049 A 
ATOM     62  N   UNL A   1      39.040  32.256  33.123  1.00  0.00    -0.248 NA
ATOM     63  C   UNL A   1      37.350  33.866  33.124  1.00  0.00    -0.034 C 
ATOM     64  C   UNL A   1      37.855  31.068  28.981  1.00  0.00    -0.036 A 
ATOM     65  N   UNL A   1      39.273  30.678  30.665  1.00  0.00    -0.354 N 
ATOM     66  C   UNL A   1      39.096  32.975  34.308  1.00  0.00     0.074 A 
ATOM     67  C   UNL A   1      38.067  33.992  34.232  1.00  0.00    -0.034 C 
ATOM     68  H   UNL A   1      36.520  34.400  32.823  1.00  0.00     0.065 H 
ATOM     69  C   UNL A   1      38.679  30.083  28.593  1.00  0.00    -0.036 A 
ATOM     70  H   UNL A   1      37.100  31.478  28.409  1.00  0.00     0.065 H 
ATOM     71  C   UNL A   1      39.624  29.800  29.669  1.00  0.00     0.049 A 
ATOM     72  H   UNL A   1      39.749  30.735  31.525  1.00  0.00     0.167 HD
ATOM     73  C   UNL A   1      39.914  32.792  35.371  1.00  0.00     0.037 A 
ATOM     74  H   UNL A   1      37.914  34.720  34.947  1.00  0.00     0.065 H 
ATOM     75  H   UNL A   1      38.648  29.602  27.681  1.00  0.00     0.065 H 
ATOM     76  C   UNL A   1      40.592  28.866  29.631  1.00  0.00     0.037 A 
ATOM     77  C   UNL A   1      40.918  31.761  35.458  1.00  0.00     0.049 A 
ATOM     78  C   UNL A   1      41.477  28.673  30.831  1.00  0.00     0.074 A 
ATOM     79  C   UNL A   1      41.736  31.438  36.527  1.00  0.00    -0.036 A 
ATOM     80  N   UNL A   1      41.244  30.889  34.429  1.00  0.00    -0.354 N 
ATOM     81  N   UNL A   1      41.460  29.298  31.982  1.00  0.00    -0.248 NA
ATOM     82  C   UNL A   1      42.513  27.636  30.724  1.00  0.00    -0.034 C 
ATOM     83  C   UNL A   1      42.588  30.402  36.130  1.00  0.00    -0.036 A 
ATOM     84  H   UNL A   1      41.720  31.885  37.457  1.00  0.00     0.065 H 
ATOM     85  C   UNL A   1      42.271  30.048  34.829  1.00  0.00     0.049 A 
ATOM     86  H   UNL A   1      40.810  30.870  33.546  1.00  0.00     0.167 HD
ATOM     87  C   UNL A   1      42.463  28.716  32.746  1.00  0.00     0.074 A 
ATOM     88  C   UNL A   1      43.057  27.675  31.933  1.00  0.00    -0.034 C 
ATOM     89  H   UNL A   1      42.753  27.035  29.920  1.00  0.00     0.065 H 
ATOM     90  H   UNL A   1      43.329  29.975  36.708  1.00  0.00     0.065 H 
ATOM     91  C   UNL A   1      42.858  29.020  34.008  1.00  0.00     0.037 A 
ATOM     92  H   UNL A   1      43.807  27.044  32.253  1.00  0.00     0.065 H 
BRANCH  73  93
ATOM     93  C   UNL A   1      39.761  33.731  36.533  1.00  0.00     0.064 A 
ATOM     94  C   UNL A   1      38.897  33.449  37.602  1.00  0.00     0.173 A 
ATOM     95  C   UNL A   1      40.509  34.917  36.591  1.00  0.00     0.173 A 
ATOM     96  F   UNL A   1      38.152  32.333  37.590  1.00  0.00    -0.203 F 
ATOM     97  C   UNL A   1      38.762  34.334  38.668  1.00  0.00     0.198 A 
ATOM     98  C   UNL A   1      40.394  35.786  37.673  1.00  0.00     0.198 A 
ATOM     99  F   UNL A   1      41.355  35.233  35.599  1.00  0.00    -0.203 F 
ATOM    100  F   UNL A   1      37.892  34.068  39.652  1.00  0.00    -0.200 F 
ATOM    101  C   UNL A   1      39.514  35.499  38.706  1.00  0.00     0.200 A 
ATOM    102  F   UNL A   1      41.129  36.906  37.714  1.00  0.00    -0.200 F 
ATOM    103  F   UNL A   1      39.384  36.349  39.734  1.00  0.00    -0.200 F 
ENDBRANCH  73  93
BRANCH  76 104
ATOM    104  C   UNL A   1      40.741  28.004  28.431  1.00  0.00     0.064 A 
ATOM    105  C   UNL A   1      41.547  28.408  27.358  1.00  0.00     0.173 A 
ATOM    106  C   UNL A   1      40.089  26.767  28.331  1.00  0.00     0.173 A 
ATOM    107  F   UNL A   1      42.172  29.594  27.400  1.00  0.00    -0.203 F 
ATOM    108  C   UNL A   1      41.684  27.614  26.222  1.00  0.00     0.198 A 
ATOM    109  C   UNL A   1      40.247  25.962  27.206  1.00  0.00     0.198 A 
ATOM    110  F   UNL A   1      39.310  26.336  29.333  1.00  0.00    -0.203 F 
ATOM    111  F   UNL A   1      42.429  28.042  25.194  1.00  0.00    -0.200 F 
ATOM    112  C   UNL A   1      41.039  26.388  26.149  1.00  0.00     0.200 A 
ATOM    113  F   UNL A   1      39.632  24.774  27.143  1.00  0.00    -0.200 F 
ATOM    114  F   UNL A   1      41.175  25.622  25.059  1.00  0.00    -0.200 F 
ENDBRANCH  76 104
BRANCH  91 115
ATOM    115  C   UNL A   1      43.971  28.197  34.588  1.00  0.00     0.064 A 
ATOM    116  C   UNL A   1      45.309  28.613  34.510  1.00  0.00     0.173 A 
ATOM    117  C   UNL A   1      43.697  26.983  35.235  1.00  0.00     0.173 A 
ATOM    118  F   UNL A   1      45.624  29.757  33.886  1.00  0.00    -0.203 F 
ATOM    119  C   UNL A   1      46.334  27.827  35.030  1.00  0.00     0.198 A 
ATOM    120  C   UNL A   1      44.722  26.214  35.780  1.00  0.00     0.198 A 
ATOM    121  F   UNL A   1      42.435  26.543  35.342  1.00  0.00    -0.203 F 
ATOM    122  F   UNL A   1      47.609  28.216  34.893  1.00  0.00    -0.200 F 
ATOM    123  C   UNL A   1      46.040  26.631  35.669  1.00  0.00     0.200 A 
ATOM    124  F   UNL A   1      44.435  25.064  36.406  1.00  0.00    -0.200 F 
ATOM    125  F   UNL A   1      47.028  25.875  36.166  1.00  0.00    -0.200 F 
ENDBRANCH  91 115
ENDBRANCH  56  59
ENDBRANCH  46  49
ENDBRANCH  42  45
ENDBRANCH  39  42
ENDBRANCH  36  39
ENDBRANCH  33  36
ENDBRANCH   1  33
TORSDOF 17
ENDMDL
MODEL 2
REMARK VINA RESULT:     -10.4      0.915      7.572
REMARK SMILES O=C(CCCC[C@@H]1CCSS1)NCCCCCCNC(=O)c1ccc(-c2c3nc(c(-c4c(F)c(F)c(F)c(F)c4F)c4ccc([nH]4)c(-c4c(F)c(F)c(F)c(F)c4F)c4nc(c(-c5c(F)c(F)c(F)c(F)c5F)c5ccc2[nH]5)C=C4)C=C3)cc1
REMARK SMILES IDX 14 1 13 4 12 7 1 8 2 9 3 11 4 14 5 17 6 20 7 23 8 24 11 25
REMARK SMILES IDX 9 27 10 30 15 33 16 36 17 39 18 42 19 45 20 46 21 48 22 49
REMARK SMILES IDX 23 50 84 51 24 52 83 54 25 56 26 59 27 60 77 61 28 62 82 63
REMARK SMILES IDX 76 64 78 65 29 66 81 67 75 69 74 71 30 73 62 76 42 77 61 78
REMARK SMILES IDX 43 79 46 80 60 81 79 82 44 83 45 85 59 87 80 88 47 91 31 93
REMARK SMILES IDX 32 94 40 95 33 96 34 97 38 98 41 99 35 100 36 101 39 102
REMARK SMILES IDX 37 103 63 104 64 105 72 106 65 107 66 108 70 109 73 110
REMARK SMILES IDX 67 111 68 112 71 113 69 114 48 115 49 116 57 117 50 118
REMARK SMILES IDX 51 119 55 120 58 121 52 122 53 123 56 124 54 125
REMARK H PARENT 14 2 14 3 13 5 13 6 12 10 3 12 3 13 4 15 4 16 5 18 5 19 6 21
REMARK H PARENT 6 22 7 26 8 28 8 29 9 31 9 32 15 34 15 35 16 37 16 38 17 40
REMARK H PARENT 17 41 18 43 18 44 19 47 23 53 84 55 24 57 83 58 82 68 76 70
REMARK H PARENT 78 72 81 74 75 75 43 84 46 86 79 89 44 90 80 92
REMARK Flexibility Score: inf
ROOT
ATOM      1  C   UNL A   1      31.760  28.543  27.439  1.00  0.00    -0.036 C 
ATOM      2  H   UNL A   1      31.929  28.375  28.483  1.00  0.00     0.028 H 
ATOM      3  H   UNL A   1      30.725  28.587  27.175  1.00  0.00     0.028 H 
ENDROOT
BRANCH   1   4
ATOM      4  C   UNL A   1      32.345  27.359  26.669  1.00  0.00     0.017 C 
ATOM      5  H   UNL A   1      33.177  27.698  26.086  1.00  0.00     0.049 H 
ATOM      6  H   UNL A   1      32.654  26.617  27.374  1.00  0.00     0.049 H 
BRANCH   4   7
ATOM      7  N   UNL A   1      31.363  26.768  25.786  1.00  0.00    -0.356 N 
ATOM      8  O   UNL A   1      32.180  27.638  23.827  1.00  0.00    -0.275 OA
ATOM      9  C   UNL A   1      31.363  26.948  24.426  1.00  0.00     0.219 C 
ATOM     10  H   UNL A   1      30.658  26.207  26.183  1.00  0.00     0.163 HD
BRANCH   9  11
ATOM     11  C   UNL A   1      30.234  26.223  23.716  1.00  0.00     0.026 C 
ATOM     12  H   UNL A   1      30.060  25.295  24.218  1.00  0.00     0.037 H 
ATOM     13  H   UNL A   1      30.541  26.086  22.701  1.00  0.00     0.037 H 
BRANCH  11  14
ATOM     14  C   UNL A   1      28.922  27.010  23.686  1.00  0.00    -0.044 C 
ATOM     15  H   UNL A   1      28.465  26.915  24.648  1.00  0.00     0.027 H 
ATOM     16  H   UNL A   1      28.360  26.587  22.879  1.00  0.00     0.027 H 
BRANCH  14  17
ATOM     17  C   UNL A   1      29.024  28.507  23.364  1.00  0.00    -0.052 C 
ATOM     18  H   UNL A   1      30.052  28.733  23.175  1.00  0.00     0.027 H 
ATOM     19  H   UNL A   1      28.613  29.013  24.214  1.00  0.00     0.027 H 
BRANCH  17  20
ATOM     20  C   UNL A   1      28.205  28.997  22.160  1.00  0.00    -0.040 C 
ATOM     21  H   UNL A   1      27.327  28.390  22.079  1.00  0.00     0.028 H 
ATOM     22  H   UNL A   1      28.835  28.917  21.299  1.00  0.00     0.028 H 
BRANCH  20  23
ATOM     23  C   UNL A   1      27.773  30.469  22.268  1.00  0.00     0.016 C 
ATOM     24  C   UNL A   1      28.153  31.277  21.020  1.00  0.00    -0.030 C 
ATOM     25  S   UNL A   1      28.604  31.288  23.674  1.00  0.00    -0.091 SA
ATOM     26  H   UNL A   1      26.710  30.450  22.391  1.00  0.00     0.043 H 
ATOM     27  C   UNL A   1      27.966  32.767  21.280  1.00  0.00     0.005 C 
ATOM     28  H   UNL A   1      27.529  30.980  20.203  1.00  0.00     0.029 H 
ATOM     29  H   UNL A   1      29.180  31.091  20.782  1.00  0.00     0.029 H 
ATOM     30  S   UNL A   1      28.850  33.129  22.813  1.00  0.00    -0.094 SA
ATOM     31  H   UNL A   1      26.926  32.996  21.389  1.00  0.00     0.039 H 
ATOM     32  H   UNL A   1      28.339  33.353  20.466  1.00  0.00     0.039 H 
ENDBRANCH  20  23
ENDBRANCH  17  20
ENDBRANCH  14  17
ENDBRANCH  11  14
ENDBRANCH   9  11
ENDBRANCH   4   7
ENDBRANCH   1   4
BRANCH   1  33
ATOM     33  C   UNL A   1      32.351  29.915  27.077  1.00  0.00    -0.052 C 
ATOM     34  H   UNL A   1      33.301  29.753  26.614  1.00  0.00     0.027 H 
ATOM     35  H   UNL A   1      32.404  30.462  27.995  1.00  0.00     0.027 H 
BRANCH  33  36
ATOM     36  C   UNL A   1      31.504  30.769  26.130  1.00  0.00    -0.052 C 
ATOM     37  H   UNL A   1      30.524  30.339  26.085  1.00  0.00     0.027 H 
ATOM     38  H   UNL A   1      32.017  30.766  25.191  1.00  0.00     0.027 H 
BRANCH  36  39
ATOM     39  C   UNL A   1      31.357  32.238  26.527  1.00  0.00    -0.036 C 
ATOM     40  H   UNL A   1      30.506  32.323  27.170  1.00  0.00     0.028 H 
ATOM     41  H   UNL A   1      31.260  32.783  25.611  1.00  0.00     0.028 H 
BRANCH  39  42
ATOM     42  C   UNL A   1      32.557  32.844  27.251  1.00  0.00     0.018 C 
ATOM     43  H   UNL A   1      33.404  32.804  26.599  1.00  0.00     0.049 H 
ATOM     44  H   UNL A   1      32.712  32.276  28.144  1.00  0.00     0.049 H 
BRANCH  42  45
ATOM     45  N   UNL A   1      32.342  34.226  27.647  1.00  0.00    -0.352 N 
ATOM     46  C   UNL A   1      32.982  34.972  28.604  1.00  0.00     0.251 C 
ATOM     47  H   UNL A   1      31.631  34.698  27.155  1.00  0.00     0.163 HD
ATOM     48  O   UNL A   1      32.571  36.098  28.879  1.00  0.00    -0.269 OA
BRANCH  46  49
ATOM     49  C   UNL A   1      34.146  34.423  29.335  1.00  0.00     0.039 A 
ATOM     50  C   UNL A   1      33.925  33.793  30.564  1.00  0.00    -0.049 A 
ATOM     51  C   UNL A   1      35.447  34.537  28.836  1.00  0.00    -0.049 A 
ATOM     52  C   UNL A   1      34.995  33.224  31.258  1.00  0.00    -0.053 A 
ATOM     53  H   UNL A   1      32.972  33.749  30.958  1.00  0.00     0.063 H 
ATOM     54  C   UNL A   1      36.505  33.913  29.496  1.00  0.00    -0.053 A 
ATOM     55  H   UNL A   1      35.624  35.083  27.979  1.00  0.00     0.063 H 
ATOM     56  C   UNL A   1      36.289  33.249  30.713  1.00  0.00    -0.014 A 
ATOM     57  H   UNL A   1      34.834  32.782  32.176  1.00  0.00     0.063 H 
ATOM     58  H   UNL A   1      37.452  33.938  29.087  1.00  0.00     0.063 H 
BRANCH  56  59
ATOM     59  C   UNL A   1      37.412  32.560  31.400  1.00  0.00     0.031 A 
ATOM     60  C   UNL A   1      38.129  31.414  30.743  1.00  0.00     0.074 A 
ATOM     61  C   UNL A   1      37.758  32.941  32.644  1.00  0.00     0.049 A 
ATOM     62  N   UNL A   1      39.136  30.702  31.189  1.00  0.00    -0.248 NA
ATOM     63  C   UNL A   1      37.636  30.994  29.424  1.00  0.00    -0.034 C 
ATOM     64  C   UNL A   1      37.102  33.999  33.415  1.00  0.00    -0.036 A 
ATOM     65  N   UNL A   1      38.746  32.485  33.480  1.00  0.00    -0.354 N 
ATOM     66  C   UNL A   1      39.386  29.746  30.214  1.00  0.00     0.074 A 
ATOM     67  C   UNL A   1      38.396  29.937  29.174  1.00  0.00    -0.034 C 
ATOM     68  H   UNL A   1      36.894  31.412  28.842  1.00  0.00     0.065 H 
ATOM     69  C   UNL A   1      37.729  34.137  34.593  1.00  0.00    -0.036 A 
ATOM     70  H   UNL A   1      36.288  34.551  33.102  1.00  0.00     0.065 H 
ATOM     71  C   UNL A   1      38.811  33.160  34.674  1.00  0.00     0.049 A 
ATOM     72  H   UNL A   1      39.351  31.745  33.246  1.00  0.00     0.167 HD
ATOM     73  C   UNL A   1      40.363  28.809  30.179  1.00  0.00     0.037 A 
ATOM     74  H   UNL A   1      38.296  29.328  28.348  1.00  0.00     0.065 H 
ATOM     75  H   UNL A   1      37.485  34.823  35.325  1.00  0.00     0.065 H 
ATOM     76  C   UNL A   1      39.655  33.015  35.713  1.00  0.00     0.037 A 
ATOM     77  C   UNL A   1      41.365  28.639  31.200  1.00  0.00     0.049 A 
ATOM     78  C   UNL A   1      40.740  31.977  35.641  1.00  0.00     0.074 A 
ATOM     79  C   UNL A   1      42.449  27.778  31.214  1.00  0.00    -0.036 A 
ATOM     80  N   UNL A   1      41.401  29.343  32.396  1.00  0.00    -0.354 N 
ATOM     81  N   UNL A   1      41.024  31.141  34.674  1.00  0.00    -0.248 NA
ATOM     82  C   UNL A   1      41.627  31.872  36.808  1.00  0.00    -0.034 C 
ATOM     83  C   UNL A   1      43.113  27.927  32.436  1.00  0.00    -0.036 A 
ATOM     84  H   UNL A   1      42.720  27.137  30.453  1.00  0.00     0.065 H 
ATOM     85  C   UNL A   1      42.471  28.914  33.166  1.00  0.00     0.049 A 
ATOM     86  H   UNL A   1      40.761  30.043  32.658  1.00  0.00     0.167 HD
ATOM     87  C   UNL A   1      42.135  30.426  35.102  1.00  0.00     0.074 A 
ATOM     88  C   UNL A   1      42.484  30.942  36.410  1.00  0.00    -0.034 C 
ATOM     89  H   UNL A   1      41.593  32.387  37.702  1.00  0.00     0.065 H 
ATOM     90  H   UNL A   1      43.941  27.393  32.743  1.00  0.00     0.065 H 
ATOM     91  C   UNL A   1      42.804  29.431  34.469  1.00  0.00     0.037 A 
ATOM     92  H   UNL A   1      43.297  30.626  36.961  1.00  0.00     0.065 H 
BRANCH  73  93
ATOM     93  C   UNL A   1      40.396  27.888  28.993  1.00  0.00     0.064 A 
ATOM     94  C   UNL A   1      39.668  26.688  28.969  1.00  0.00     0.173 A 
ATOM     95  C   UNL A   1      41.146  28.222  27.855  1.00  0.00     0.173 A 
ATOM     96  F   UNL A   1      38.944  26.318  30.036  1.00  0.00    -0.203 F 
ATOM     97  C   UNL A   1      39.716  25.842  27.865  1.00  0.00     0.198 A 
ATOM     98  C   UNL A   1      41.168  27.388  26.740  1.00  0.00     0.198 A 
ATOM     99  F   UNL A   1      41.856  29.360  27.822  1.00  0.00    -0.203 F 
ATOM    100  F   UNL A   1      39.054  24.678  27.886  1.00  0.00    -0.200 F 
ATOM    101  C   UNL A   1      40.460  26.194  26.749  1.00  0.00     0.200 A 
ATOM    102  F   UNL A   1      41.879  27.734  25.658  1.00  0.00    -0.200 F 
ATOM    103  F   UNL A   1      40.504  25.380  25.686  1.00  0.00    -0.200 F 
ENDBRANCH  73  93
BRANCH  76 104
ATOM    104  C   UNL A   1      39.538  33.913  36.890  1.00  0.00     0.064 A 
ATOM    105  C   UNL A   1      38.807  33.517  38.019  1.00  0.00     0.173 A 
ATOM    106  C   UNL A   1      40.151  35.173  36.915  1.00  0.00     0.173 A 
ATOM    107  F   UNL A   1      38.185  32.329  38.031  1.00  0.00    -0.203 F 
ATOM    108  C   UNL A   1      38.680  34.356  39.124  1.00  0.00     0.198 A 
ATOM    109  C   UNL A   1      40.045  36.000  38.031  1.00  0.00     0.198 A 
ATOM    110  F   UNL A   1      40.864  35.594  35.861  1.00  0.00    -0.203 F 
ATOM    111  F   UNL A   1      37.943  33.970  40.174  1.00  0.00    -0.200 F 
ATOM    112  C   UNL A   1      39.305  35.595  39.132  1.00  0.00     0.200 A 
ATOM    113  F   UNL A   1      40.659  37.191  38.040  1.00  0.00    -0.200 F 
ATOM    114  F   UNL A   1      39.188  36.398  40.197  1.00  0.00    -0.200 F 
ENDBRANCH  76 104
BRANCH  91 115
ATOM    115  C   UNL A   1      43.994  28.853  35.179  1.00  0.00     0.064 A 
ATOM    116  C   UNL A   1      45.286  29.364  34.984  1.00  0.00     0.173 A 
ATOM    117  C   UNL A   1      43.839  27.780  36.070  1.00  0.00     0.173 A 
ATOM    118  F   UNL A   1      45.488  30.378  34.129  1.00  0.00    -0.203 F 
ATOM    119  C   UNL A   1      46.383  28.801  35.629  1.00  0.00     0.198 A 
ATOM    120  C   UNL A   1      44.935  27.239  36.736  1.00  0.00     0.198 A 
ATOM    121  F   UNL A   1      42.625  27.258  36.296  1.00  0.00    -0.203 F 
ATOM    122  F   UNL A   1      47.615  29.268  35.383  1.00  0.00    -0.200 F 
ATOM    123  C   UNL A   1      46.207  27.742  36.508  1.00  0.00     0.200 A 
ATOM    124  F   UNL A   1      44.762  26.223  37.593  1.00  0.00    -0.200 F 
ATOM    125  F   UNL A   1      47.265  27.200  37.126  1.00  0.00    -0.200 F 
ENDBRANCH  91 115
ENDBRANCH  56  59
ENDBRANCH  46  49
ENDBRANCH  42  45
ENDBRANCH  39  42
ENDBRANCH  36  39
ENDBRANCH  33  36
ENDBRANCH   1  33
TORSDOF 17
ENDMDL
MODEL 3
REMARK VINA RESULT:     -10.2      1.904      3.145
REMARK SMILES O=C(CCCC[C@@H]1CCSS1)NCCCCCCNC(=O)c1ccc(-c2c3nc(c(-c4c(F)c(F)c(F)c(F)c4F)c4ccc([nH]4)c(-c4c(F)c(F)c(F)c(F)c4F)c4nc(c(-c5c(F)c(F)c(F)c(F)c5F)c5ccc2[nH]5)C=C4)C=C3)cc1
REMARK SMILES IDX 14 1 13 4 12 7 1 8 2 9 3 11 4 14 5 17 6 20 7 23 8 24 11 25
REMARK SMILES IDX 9 27 10 30 15 33 16 36 17 39 18 42 19 45 20 46 21 48 22 49
REMARK SMILES IDX 23 50 84 51 24 52 83 54 25 56 26 59 27 60 77 61 28 62 82 63
REMARK SMILES IDX 76 64 78 65 29 66 81 67 75 69 74 71 30 73 62 76 42 77 61 78
REMARK SMILES IDX 43 79 46 80 60 81 79 82 44 83 45 85 59 87 80 88 47 91 31 93
REMARK SMILES IDX 32 94 40 95 33 96 34 97 38 98 41 99 35 100 36 101 39 102
REMARK SMILES IDX 37 103 63 104 64 105 72 106 65 107 66 108 70 109 73 110
REMARK SMILES IDX 67 111 68 112 71 113 69 114 48 115 49 116 57 117 50 118
REMARK SMILES IDX 51 119 55 120 58 121 52 122 53 123 56 124 54 125
REMARK H PARENT 14 2 14 3 13 5 13 6 12 10 3 12 3 13 4 15 4 16 5 18 5 19 6 21
REMARK H PARENT 6 22 7 26 8 28 8 29 9 31 9 32 15 34 15 35 16 37 16 38 17 40
REMARK H PARENT 17 41 18 43 18 44 19 47 23 53 84 55 24 57 83 58 82 68 76 70
REMARK H PARENT 78 72 81 74 75 75 43 84 46 86 79 89 44 90 80 92
REMARK Flexibility Score: inf
ROOT
ATOM      1  C   UNL A   1      34.462  32.290  29.262  1.00  0.00    -0.036 C 
ATOM      2  H   UNL A   1      35.194  31.968  29.974  1.00  0.00     0.028 H 
ATOM      3  H   UNL A   1      33.457  32.065  29.552  1.00  0.00     0.028 H 
ENDROOT
BRANCH   1   4
ATOM      4  C   UNL A   1      34.706  31.533  27.956  1.00  0.00     0.017 C 
ATOM      5  H   UNL A   1      34.442  32.164  27.133  1.00  0.00     0.049 H 
ATOM      6  H   UNL A   1      35.740  31.263  27.911  1.00  0.00     0.049 H 
BRANCH   4   7
ATOM      7  N   UNL A   1      33.916  30.323  27.893  1.00  0.00    -0.356 N 
ATOM      8  O   UNL A   1      32.142  31.202  26.735  1.00  0.00    -0.275 OA
ATOM      9  C   UNL A   1      32.692  30.250  27.276  1.00  0.00     0.219 C 
ATOM     10  H   UNL A   1      34.275  29.509  28.315  1.00  0.00     0.163 HD
BRANCH   9  11
ATOM     11  C   UNL A   1      32.060  28.872  27.339  1.00  0.00     0.026 C 
ATOM     12  H   UNL A   1      31.128  28.904  26.814  1.00  0.00     0.037 H 
ATOM     13  H   UNL A   1      31.936  28.632  28.374  1.00  0.00     0.037 H 
BRANCH  11  14
ATOM     14  C   UNL A   1      32.926  27.771  26.725  1.00  0.00    -0.044 C 
ATOM     15  H   UNL A   1      32.847  26.909  27.354  1.00  0.00     0.027 H 
ATOM     16  H   UNL A   1      33.908  28.190  26.660  1.00  0.00     0.027 H 
BRANCH  14  17
ATOM     17  C   UNL A   1      32.578  27.336  25.295  1.00  0.00    -0.052 C 
ATOM     18  H   UNL A   1      33.177  26.482  25.057  1.00  0.00     0.027 H 
ATOM     19  H   UNL A   1      32.769  28.191  24.680  1.00  0.00     0.027 H 
BRANCH  17  20
ATOM     20  C   UNL A   1      31.109  26.966  25.039  1.00  0.00    -0.040 C 
ATOM     21  H   UNL A   1      30.531  27.275  25.885  1.00  0.00     0.028 H 
ATOM     22  H   UNL A   1      31.074  25.907  24.888  1.00  0.00     0.028 H 
BRANCH  20  23
ATOM     23  C   UNL A   1      30.520  27.622  23.780  1.00  0.00     0.016 C 
ATOM     24  C   UNL A   1      30.589  29.155  23.840  1.00  0.00    -0.030 C 
ATOM     25  S   UNL A   1      28.751  27.202  23.597  1.00  0.00    -0.091 SA
ATOM     26  H   UNL A   1      31.102  27.255  22.961  1.00  0.00     0.043 H 
ATOM     27  C   UNL A   1      29.751  29.763  22.722  1.00  0.00     0.005 C 
ATOM     28  H   UNL A   1      31.606  29.467  23.731  1.00  0.00     0.029 H 
ATOM     29  H   UNL A   1      30.204  29.485  24.783  1.00  0.00     0.029 H 
ATOM     30  S   UNL A   1      28.120  28.994  22.833  1.00  0.00    -0.094 SA
ATOM     31  H   UNL A   1      30.195  29.555  21.772  1.00  0.00     0.039 H 
ATOM     32  H   UNL A   1      29.688  30.828  22.819  1.00  0.00     0.039 H 
ENDBRANCH  20  23
ENDBRANCH  17  20
ENDBRANCH  14  17
ENDBRANCH  11  14
ENDBRANCH   9  11
ENDBRANCH   4   7
ENDBRANCH   1   4
BRANCH   1  33
ATOM     33  C   UNL A   1      34.543  33.821  29.156  1.00  0.00    -0.052 C 
ATOM     34  H   UNL A   1      35.307  34.062  28.449  1.00  0.00     0.027 H 
ATOM     35  H   UNL A   1      34.742  34.173  30.147  1.00  0.00     0.027 H 
BRANCH  33  36
ATOM     36  C   UNL A   1      33.254  34.520  28.716  1.00  0.00    -0.052 C 
ATOM     37  H   UNL A   1      32.467  34.204  29.368  1.00  0.00     0.027 H 
ATOM     38  H   UNL A   1      33.102  34.242  27.693  1.00  0.00     0.027 H 
BRANCH  36  39
ATOM     39  C   UNL A   1      33.299  36.049  28.736  1.00  0.00    -0.036 C 
ATOM     40  H   UNL A   1      32.377  36.412  28.332  1.00  0.00     0.028 H 
ATOM     41  H   UNL A   1      34.158  36.326  28.161  1.00  0.00     0.028 H 
BRANCH  39  42
ATOM     42  C   UNL A   1      33.492  36.681  30.112  1.00  0.00     0.018 C 
ATOM     43  H   UNL A   1      33.511  37.745  29.999  1.00  0.00     0.049 H 
ATOM     44  H   UNL A   1      34.411  36.305  30.511  1.00  0.00     0.049 H 
BRANCH  42  45
ATOM     45  N   UNL A   1      32.438  36.333  31.050  1.00  0.00    -0.352 N 
ATOM     46  C   UNL A   1      32.476  35.501  32.140  1.00  0.00     0.251 C 
ATOM     47  H   UNL A   1      31.565  36.757  30.877  1.00  0.00     0.163 HD
ATOM     48  O   UNL A   1      31.437  35.236  32.744  1.00  0.00    -0.269 OA
BRANCH  46  49
ATOM     49  C   UNL A   1      33.750  34.891  32.581  1.00  0.00     0.039 A 
ATOM     50  C   UNL A   1      33.737  33.564  33.020  1.00  0.00    -0.049 A 
ATOM     51  C   UNL A   1      34.947  35.614  32.583  1.00  0.00    -0.049 A 
ATOM     52  C   UNL A   1      34.930  32.943  33.399  1.00  0.00    -0.053 A 
ATOM     53  H   UNL A   1      32.847  33.043  33.064  1.00  0.00     0.063 H 
ATOM     54  C   UNL A   1      36.146  34.975  32.899  1.00  0.00    -0.053 A 
ATOM     55  H   UNL A   1      34.943  36.618  32.350  1.00  0.00     0.063 H 
ATOM     56  C   UNL A   1      36.150  33.634  33.309  1.00  0.00    -0.014 A 
ATOM     57  H   UNL A   1      34.914  31.972  33.747  1.00  0.00     0.063 H 
ATOM     58  H   UNL A   1      37.037  35.492  32.829  1.00  0.00     0.063 H 
BRANCH  56  59
ATOM     59  C   UNL A   1      37.431  32.948  33.617  1.00  0.00     0.031 A 
ATOM     60  C   UNL A   1      38.171  33.237  34.893  1.00  0.00     0.074 A 
ATOM     61  C   UNL A   1      37.954  32.092  32.719  1.00  0.00     0.049 A 
ATOM     62  N   UNL A   1      39.296  32.726  35.332  1.00  0.00    -0.248 NA
ATOM     63  C   UNL A   1      37.586  34.250  35.782  1.00  0.00    -0.034 C 
ATOM     64  C   UNL A   1      37.365  31.771  31.417  1.00  0.00    -0.036 A 
ATOM     65  N   UNL A   1      39.097  31.334  32.762  1.00  0.00    -0.354 N 
ATOM     66  C   UNL A   1      39.557  33.364  36.537  1.00  0.00     0.074 A 
ATOM     67  C   UNL A   1      38.501  34.334  36.738  1.00  0.00    -0.034 C 
ATOM     68  H   UNL A   1      36.695  34.763  35.688  1.00  0.00     0.065 H 
ATOM     69  C   UNL A   1      38.130  30.855  30.803  1.00  0.00    -0.036 A 
ATOM     70  H   UNL A   1      36.500  32.183  31.034  1.00  0.00     0.065 H 
ATOM     71  C   UNL A   1      39.277  30.545  31.652  1.00  0.00     0.049 A 
ATOM     72  H   UNL A   1      39.730  31.355  33.516  1.00  0.00     0.167 HD
ATOM     73  C   UNL A   1      40.574  33.148  37.405  1.00  0.00     0.037 A 
ATOM     74  H   UNL A   1      38.466  35.002  37.523  1.00  0.00     0.065 H 
ATOM     75  H   UNL A   1      37.939  30.437  29.879  1.00  0.00     0.065 H 
ATOM     76  C   UNL A   1      40.250  29.663  31.358  1.00  0.00     0.037 A 
ATOM     77  C   UNL A   1      41.609  32.163  37.218  1.00  0.00     0.049 A 
ATOM     78  C   UNL A   1      41.358  29.431  32.347  1.00  0.00     0.074 A 
ATOM     79  C   UNL A   1      42.630  31.807  38.082  1.00  0.00    -0.036 A 
ATOM     80  N   UNL A   1      41.757  31.380  36.082  1.00  0.00    -0.354 N 
ATOM     81  N   UNL A   1      41.545  29.973  33.524  1.00  0.00    -0.248 NA
ATOM     82  C   UNL A   1      42.387  28.455  31.963  1.00  0.00    -0.034 C 
ATOM     83  C   UNL A   1      43.423  30.843  37.450  1.00  0.00    -0.036 A 
ATOM     84  H   UNL A   1      42.781  32.187  39.029  1.00  0.00     0.065 H 
ATOM     85  C   UNL A   1      42.871  30.564  36.211  1.00  0.00     0.049 A 
ATOM     86  H   UNL A   1      41.160  31.401  35.300  1.00  0.00     0.167 HD
ATOM     87  C   UNL A   1      42.697  29.389  34.034  1.00  0.00     0.074 A 
ATOM     88  C   UNL A   1      43.155  28.436  33.044  1.00  0.00    -0.034 C 
ATOM     89  H   UNL A   1      42.486  27.922  31.084  1.00  0.00     0.065 H 
ATOM     90  H   UNL A   1      44.276  30.413  37.841  1.00  0.00     0.065 H 
ATOM     91  C   UNL A   1      43.320  29.624  35.216  1.00  0.00     0.037 A 
ATOM     92  H   UNL A   1      43.974  27.821  33.165  1.00  0.00     0.065 H 
BRANCH  73  93
ATOM     93  C   UNL A   1      40.619  33.997  38.643  1.00  0.00     0.064 A 
ATOM     94  C   UNL A   1      39.936  33.632  39.814  1.00  0.00     0.173 A 
ATOM     95  C   UNL A   1      41.377  35.178  38.668  1.00  0.00     0.173 A 
ATOM     96  F   UNL A   1      39.189  32.518  39.839  1.00  0.00    -0.203 F 
ATOM     97  C   UNL A   1      39.983  34.434  40.950  1.00  0.00     0.198 A 
ATOM     98  C   UNL A   1      41.446  35.962  39.816  1.00  0.00     0.198 A 
ATOM     99  F   UNL A   1      42.055  35.570  37.578  1.00  0.00    -0.203 F 
ATOM    100  F   UNL A   1      39.281  34.092  42.040  1.00  0.00    -0.200 F 
ATOM    101  C   UNL A   1      40.742  35.595  40.954  1.00  0.00     0.200 A 
ATOM    102  F   UNL A   1      42.188  37.078  39.822  1.00  0.00    -0.200 F 
ATOM    103  F   UNL A   1      40.788  36.365  42.050  1.00  0.00    -0.200 F 
ENDBRANCH  73  93
BRANCH  76 104
ATOM    104  C   UNL A   1      40.190  28.894  30.089  1.00  0.00     0.064 A 
ATOM    105  C   UNL A   1      39.539  27.653  30.037  1.00  0.00     0.173 A 
ATOM    106  C   UNL A   1      40.773  29.378  28.910  1.00  0.00     0.173 A 
ATOM    107  F   UNL A   1      38.987  27.141  31.147  1.00  0.00    -0.203 F 
ATOM    108  C   UNL A   1      39.488  26.916  28.856  1.00  0.00     0.198 A 
ATOM    109  C   UNL A   1      40.698  28.652  27.723  1.00  0.00     0.198 A 
ATOM    110  F   UNL A   1      41.402  30.561  28.908  1.00  0.00    -0.203 F 
ATOM    111  F   UNL A   1      38.894  25.715  28.843  1.00  0.00    -0.200 F 
ATOM    112  C   UNL A   1      40.062  27.419  27.698  1.00  0.00     0.200 A 
ATOM    113  F   UNL A   1      41.244  29.145  26.603  1.00  0.00    -0.200 F 
ATOM    114  F   UNL A   1      40.007  26.714  26.561  1.00  0.00    -0.200 F 
ENDBRANCH  76 104
BRANCH  91 115
ATOM    115  C   UNL A   1      44.552  28.817  35.506  1.00  0.00     0.064 A 
ATOM    116  C   UNL A   1      45.830  29.275  35.150  1.00  0.00     0.173 A 
ATOM    117  C   UNL A   1      44.455  27.577  36.155  1.00  0.00     0.173 A 
ATOM    118  F   UNL A   1      45.974  30.446  34.513  1.00  0.00    -0.203 F 
ATOM    119  C   UNL A   1      46.962  28.504  35.403  1.00  0.00     0.198 A 
ATOM    120  C   UNL A   1      45.592  26.823  36.432  1.00  0.00     0.198 A 
ATOM    121  F   UNL A   1      43.258  27.097  36.521  1.00  0.00    -0.203 F 
ATOM    122  F   UNL A   1      48.165  28.934  35.001  1.00  0.00    -0.200 F 
ATOM    123  C   UNL A   1      46.843  27.282  36.047  1.00  0.00     0.200 A 
ATOM    124  F   UNL A   1      45.476  25.647  37.065  1.00  0.00    -0.200 F 
ATOM    125  F   UNL A   1      47.933  26.541  36.287  1.00  0.00    -0.200 F 
ENDBRANCH  91 115
ENDBRANCH  56  59
ENDBRANCH  46  49
ENDBRANCH  42  45
ENDBRANCH  39  42
ENDBRANCH  36  39
ENDBRANCH  33  36
ENDBRANCH   1  33
TORSDOF 17
ENDMDL
MODEL 4
REMARK VINA RESULT:     -10.2      1.958      8.108
REMARK SMILES O=C(CCCC[C@@H]1CCSS1)NCCCCCCNC(=O)c1ccc(-c2c3nc(c(-c4c(F)c(F)c(F)c(F)c4F)c4ccc([nH]4)c(-c4c(F)c(F)c(F)c(F)c4F)c4nc(c(-c5c(F)c(F)c(F)c(F)c5F)c5ccc2[nH]5)C=C4)C=C3)cc1
REMARK SMILES IDX 14 1 13 4 12 7 1 8 2 9 3 11 4 14 5 17 6 20 7 23 8 24 11 25
REMARK SMILES IDX 9 27 10 30 15 33 16 36 17 39 18 42 19 45 20 46 21 48 22 49
REMARK SMILES IDX 23 50 84 51 24 52 83 54 25 56 26 59 27 60 77 61 28 62 82 63
REMARK SMILES IDX 76 64 78 65 29 66 81 67 75 69 74 71 30 73 62 76 42 77 61 78
REMARK SMILES IDX 43 79 46 80 60 81 79 82 44 83 45 85 59 87 80 88 47 91 31 93
REMARK SMILES IDX 32 94 40 95 33 96 34 97 38 98 41 99 35 100 36 101 39 102
REMARK SMILES IDX 37 103 63 104 64 105 72 106 65 107 66 108 70 109 73 110
REMARK SMILES IDX 67 111 68 112 71 113 69 114 48 115 49 116 57 117 50 118
REMARK SMILES IDX 51 119 55 120 58 121 52 122 53 123 56 124 54 125
REMARK H PARENT 14 2 14 3 13 5 13 6 12 10 3 12 3 13 4 15 4 16 5 18 5 19 6 21
REMARK H PARENT 6 22 7 26 8 28 8 29 9 31 9 32 15 34 15 35 16 37 16 38 17 40
REMARK H PARENT 17 41 18 43 18 44 19 47 23 53 84 55 24 57 83 58 82 68 76 70
REMARK H PARENT 78 72 81 74 75 75 43 84 46 86 79 89 44 90 80 92
REMARK Flexibility Score: inf
ROOT
ATOM      1  C   UNL A   1      34.750  32.419  29.192  1.00  0.00    -0.036 C 
ATOM      2  H   UNL A   1      35.248  31.983  30.034  1.00  0.00     0.028 H 
ATOM      3  H   UNL A   1      33.700  32.557  29.342  1.00  0.00     0.028 H 
ENDROOT
BRANCH   1   4
ATOM      4  C   UNL A   1      34.888  31.459  28.011  1.00  0.00     0.017 C 
ATOM      5  H   UNL A   1      35.088  32.024  27.124  1.00  0.00     0.049 H 
ATOM      6  H   UNL A   1      35.690  30.783  28.217  1.00  0.00     0.049 H 
BRANCH   4   7
ATOM      7  N   UNL A   1      33.681  30.687  27.815  1.00  0.00    -0.356 N 
ATOM      8  O   UNL A   1      34.671  28.844  26.876  1.00  0.00    -0.275 OA
ATOM      9  C   UNL A   1      33.668  29.429  27.267  1.00  0.00     0.219 C 
ATOM     10  H   UNL A   1      32.823  31.085  28.089  1.00  0.00     0.163 HD
BRANCH   9  11
ATOM     11  C   UNL A   1      32.280  28.822  27.169  1.00  0.00     0.026 C 
ATOM     12  H   UNL A   1      31.590  29.598  26.916  1.00  0.00     0.037 H 
ATOM     13  H   UNL A   1      32.066  28.379  28.119  1.00  0.00     0.037 H 
BRANCH  11  14
ATOM     14  C   UNL A   1      32.168  27.713  26.122  1.00  0.00    -0.044 C 
ATOM     15  H   UNL A   1      31.819  26.833  26.619  1.00  0.00     0.027 H 
ATOM     16  H   UNL A   1      33.148  27.628  25.697  1.00  0.00     0.027 H 
BRANCH  14  17
ATOM     17  C   UNL A   1      31.235  27.978  24.933  1.00  0.00    -0.052 C 
ATOM     18  H   UNL A   1      30.252  27.660  25.211  1.00  0.00     0.027 H 
ATOM     19  H   UNL A   1      31.655  27.436  24.110  1.00  0.00     0.027 H 
BRANCH  17  20
ATOM     20  C   UNL A   1      31.141  29.436  24.459  1.00  0.00    -0.040 C 
ATOM     21  H   UNL A   1      32.099  29.731  24.083  1.00  0.00     0.028 H 
ATOM     22  H   UNL A   1      30.838  30.021  25.302  1.00  0.00     0.028 H 
BRANCH  20  23
ATOM     23  C   UNL A   1      30.094  29.658  23.355  1.00  0.00     0.016 C 
ATOM     24  C   UNL A   1      29.153  30.828  23.675  1.00  0.00    -0.030 C 
ATOM     25  S   UNL A   1      29.026  28.186  23.169  1.00  0.00    -0.091 SA
ATOM     26  H   UNL A   1      30.651  29.860  22.464  1.00  0.00     0.043 H 
ATOM     27  C   UNL A   1      27.973  30.833  22.711  1.00  0.00     0.005 C 
ATOM     28  H   UNL A   1      29.690  31.748  23.583  1.00  0.00     0.029 H 
ATOM     29  H   UNL A   1      28.787  30.717  24.675  1.00  0.00     0.029 H 
ATOM     30  S   UNL A   1      27.278  29.167  22.749  1.00  0.00    -0.094 SA
ATOM     31  H   UNL A   1      28.304  31.075  21.723  1.00  0.00     0.039 H 
ATOM     32  H   UNL A   1      27.246  31.566  22.992  1.00  0.00     0.039 H 
ENDBRANCH  20  23
ENDBRANCH  17  20
ENDBRANCH  14  17
ENDBRANCH  11  14
ENDBRANCH   9  11
ENDBRANCH   4   7
ENDBRANCH   1   4
BRANCH   1  33
ATOM     33  C   UNL A   1      35.336  33.822  28.968  1.00  0.00    -0.052 C 
ATOM     34  H   UNL A   1      36.275  33.711  28.468  1.00  0.00     0.027 H 
ATOM     35  H   UNL A   1      35.411  34.267  29.939  1.00  0.00     0.027 H 
BRANCH  33  36
ATOM     36  C   UNL A   1      34.470  34.774  28.139  1.00  0.00    -0.052 C 
ATOM     37  H   UNL A   1      34.220  34.279  27.223  1.00  0.00     0.027 H 
ATOM     38  H   UNL A   1      35.054  35.660  28.002  1.00  0.00     0.027 H 
BRANCH  36  39
ATOM     39  C   UNL A   1      33.169  35.223  28.804  1.00  0.00    -0.036 C 
ATOM     40  H   UNL A   1      32.808  34.414  29.404  1.00  0.00     0.028 H 
ATOM     41  H   UNL A   1      32.508  35.494  28.007  1.00  0.00     0.028 H 
BRANCH  39  42
ATOM     42  C   UNL A   1      33.280  36.457  29.696  1.00  0.00     0.018 C 
ATOM     43  H   UNL A   1      33.058  37.324  29.109  1.00  0.00     0.049 H 
ATOM     44  H   UNL A   1      34.277  36.482  30.084  1.00  0.00     0.049 H 
BRANCH  42  45
ATOM     45  N   UNL A   1      32.374  36.421  30.831  1.00  0.00    -0.352 N 
ATOM     46  C   UNL A   1      32.485  35.746  32.020  1.00  0.00     0.251 C 
ATOM     47  H   UNL A   1      31.557  36.964  30.733  1.00  0.00     0.163 HD
ATOM     48  O   UNL A   1      31.546  35.745  32.814  1.00  0.00    -0.269 OA
BRANCH  46  49
ATOM     49  C   UNL A   1      33.715  34.988  32.345  1.00  0.00     0.039 A 
ATOM     50  C   UNL A   1      34.950  35.625  32.191  1.00  0.00    -0.049 A 
ATOM     51  C   UNL A   1      33.665  33.660  32.779  1.00  0.00    -0.049 A 
ATOM     52  C   UNL A   1      36.127  34.955  32.532  1.00  0.00    -0.053 A 
ATOM     53  H   UNL A   1      34.992  36.589  31.825  1.00  0.00     0.063 H 
ATOM     54  C   UNL A   1      34.834  33.014  33.182  1.00  0.00    -0.053 A 
ATOM     55  H   UNL A   1      32.764  33.159  32.803  1.00  0.00     0.063 H 
ATOM     56  C   UNL A   1      36.076  33.655  33.063  1.00  0.00    -0.014 A 
ATOM     57  H   UNL A   1      37.039  35.417  32.394  1.00  0.00     0.063 H 
ATOM     58  H   UNL A   1      34.785  32.059  33.570  1.00  0.00     0.063 H 
BRANCH  56  59
ATOM     59  C   UNL A   1      37.316  32.976  33.519  1.00  0.00     0.031 A 
ATOM     60  C   UNL A   1      38.004  31.963  32.647  1.00  0.00     0.074 A 
ATOM     61  C   UNL A   1      37.801  33.241  34.747  1.00  0.00     0.049 A 
ATOM     62  N   UNL A   1      39.098  31.279  32.876  1.00  0.00    -0.248 NA
ATOM     63  C   UNL A   1      37.366  31.657  31.358  1.00  0.00    -0.034 C 
ATOM     64  C   UNL A   1      37.194  34.158  35.713  1.00  0.00    -0.036 A 
ATOM     65  N   UNL A   1      38.914  32.766  35.393  1.00  0.00    -0.354 N 
ATOM     66  C   UNL A   1      39.270  30.456  31.772  1.00  0.00     0.074 A 
ATOM     67  C   UNL A   1      38.144  30.690  30.893  1.00  0.00    -0.034 C 
ATOM     68  H   UNL A   1      36.531  32.084  30.928  1.00  0.00     0.065 H 
ATOM     69  C   UNL A   1      37.962  34.209  36.813  1.00  0.00    -0.036 A 
ATOM     70  H   UNL A   1      36.316  34.682  35.571  1.00  0.00     0.065 H 
ATOM     71  C   UNL A   1      39.098  33.308  36.642  1.00  0.00     0.049 A 
ATOM     72  H   UNL A   1      39.523  32.100  35.000  1.00  0.00     0.167 HD
ATOM     73  C   UNL A   1      40.285  29.600  31.505  1.00  0.00     0.037 A 
ATOM     74  H   UNL A   1      37.970  30.171  30.019  1.00  0.00     0.065 H 
ATOM     75  H   UNL A   1      37.778  34.791  37.645  1.00  0.00     0.065 H 
ATOM     76  C   UNL A   1      40.077  33.109  37.543  1.00  0.00     0.037 A 
ATOM     77  C   UNL A   1      41.421  29.390  32.366  1.00  0.00     0.049 A 
ATOM     78  C   UNL A   1      41.200  32.164  37.215  1.00  0.00     0.074 A 
ATOM     79  C   UNL A   1      42.544  28.611  32.143  1.00  0.00    -0.036 A 
ATOM     80  N   UNL A   1      41.574  29.958  33.623  1.00  0.00    -0.354 N 
ATOM     81  N   UNL A   1      41.401  31.462  36.128  1.00  0.00    -0.248 NA
ATOM     82  C   UNL A   1      42.237  31.994  38.242  1.00  0.00    -0.034 C 
ATOM     83  C   UNL A   1      43.353  28.671  33.282  1.00  0.00    -0.036 A 
ATOM     84  H   UNL A   1      42.748  28.078  31.284  1.00  0.00     0.065 H 
ATOM     85  C   UNL A   1      42.758  29.523  34.199  1.00  0.00     0.049 A 
ATOM     86  H   UNL A   1      40.936  30.578  34.044  1.00  0.00     0.167 HD
ATOM     87  C   UNL A   1      42.596  30.785  36.327  1.00  0.00     0.074 A 
ATOM     88  C   UNL A   1      43.085  31.177  37.633  1.00  0.00    -0.034 C 
ATOM     89  H   UNL A   1      42.292  32.403  39.188  1.00  0.00     0.065 H 
ATOM     90  H   UNL A   1      44.243  28.165  33.418  1.00  0.00     0.065 H 
ATOM     91  C   UNL A   1      43.231  29.915  35.502  1.00  0.00     0.037 A 
ATOM     92  H   UNL A   1      43.980  30.860  38.038  1.00  0.00     0.065 H 
BRANCH  73  93
ATOM     93  C   UNL A   1      40.214  28.820  30.223  1.00  0.00     0.064 A 
ATOM     94  C   UNL A   1      39.549  27.587  30.146  1.00  0.00     0.173 A 
ATOM     95  C   UNL A   1      40.796  29.326  29.051  1.00  0.00     0.173 A 
ATOM     96  F   UNL A   1      38.985  27.055  31.241  1.00  0.00    -0.203 F 
ATOM     97  C   UNL A   1      39.499  26.873  28.952  1.00  0.00     0.198 A 
ATOM     98  C   UNL A   1      40.717  28.624  27.850  1.00  0.00     0.198 A 
ATOM     99  F   UNL A   1      41.438  30.504  29.067  1.00  0.00    -0.203 F 
ATOM    100  F   UNL A   1      38.903  25.673  28.914  1.00  0.00    -0.200 F 
ATOM    101  C   UNL A   1      40.077  27.394  27.804  1.00  0.00     0.200 A 
ATOM    102  F   UNL A   1      41.267  29.133  26.739  1.00  0.00    -0.200 F 
ATOM    103  F   UNL A   1      40.026  26.707  26.654  1.00  0.00    -0.200 F 
ENDBRANCH  73  93
BRANCH  76 104
ATOM    104  C   UNL A   1      40.067  33.861  38.824  1.00  0.00     0.064 A 
ATOM    105  C   UNL A   1      39.327  33.393  39.919  1.00  0.00     0.173 A 
ATOM    106  C   UNL A   1      40.791  35.050  38.982  1.00  0.00     0.173 A 
ATOM    107  F   UNL A   1      38.601  32.271  39.806  1.00  0.00    -0.203 F 
ATOM    108  C   UNL A   1      39.299  34.096  41.121  1.00  0.00     0.198 A 
ATOM    109  C   UNL A   1      40.784  35.738  40.193  1.00  0.00     0.198 A 
ATOM    110  F   UNL A   1      41.517  35.535  37.965  1.00  0.00    -0.203 F 
ATOM    111  F   UNL A   1      38.553  33.649  42.140  1.00  0.00    -0.200 F 
ATOM    112  C   UNL A   1      40.033  35.266  41.260  1.00  0.00     0.200 A 
ATOM    113  F   UNL A   1      41.502  36.862  40.328  1.00  0.00    -0.200 F 
ATOM    114  F   UNL A   1      40.011  35.939  42.417  1.00  0.00    -0.200 F 
ENDBRANCH  76 104
BRANCH  91 115
ATOM    115  C   UNL A   1      44.534  29.348  35.985  1.00  0.00     0.064 A 
ATOM    116  C   UNL A   1      44.589  28.145  36.705  1.00  0.00     0.173 A 
ATOM    117  C   UNL A   1      45.741  30.010  35.718  1.00  0.00     0.173 A 
ATOM    118  F   UNL A   1      43.460  27.483  37.001  1.00  0.00    -0.203 F 
ATOM    119  C   UNL A   1      45.802  27.644  37.169  1.00  0.00     0.198 A 
ATOM    120  C   UNL A   1      46.956  29.490  36.158  1.00  0.00     0.198 A 
ATOM    121  F   UNL A   1      45.744  31.160  35.029  1.00  0.00    -0.203 F 
ATOM    122  F   UNL A   1      45.825  26.524  37.905  1.00  0.00    -0.200 F 
ATOM    123  C   UNL A   1      46.985  28.314  36.892  1.00  0.00     0.200 A 
ATOM    124  F   UNL A   1      48.098  30.133  35.880  1.00  0.00    -0.200 F 
ATOM    125  F   UNL A   1      48.151  27.831  37.342  1.00  0.00    -0.200 F 
ENDBRANCH  91 115
ENDBRANCH  56  59
ENDBRANCH  46  49
ENDBRANCH  42  45
ENDBRANCH  39  42
ENDBRANCH  36  39
ENDBRANCH  33  36
ENDBRANCH   1  33
TORSDOF 17
ENDMDL
MODEL 5
REMARK VINA RESULT:     -10.1      5.824     10.752
REMARK SMILES O=C(CCCC[C@@H]1CCSS1)NCCCCCCNC(=O)c1ccc(-c2c3nc(c(-c4c(F)c(F)c(F)c(F)c4F)c4ccc([nH]4)c(-c4c(F)c(F)c(F)c(F)c4F)c4nc(c(-c5c(F)c(F)c(F)c(F)c5F)c5ccc2[nH]5)C=C4)C=C3)cc1
REMARK SMILES IDX 14 1 13 4 12 7 1 8 2 9 3 11 4 14 5 17 6 20 7 23 8 24 11 25
REMARK SMILES IDX 9 27 10 30 15 33 16 36 17 39 18 42 19 45 20 46 21 48 22 49
REMARK SMILES IDX 23 50 84 51 24 52 83 54 25 56 26 59 27 60 77 61 28 62 82 63
REMARK SMILES IDX 76 64 78 65 29 66 81 67 75 69 74 71 30 73 62 76 42 77 61 78
REMARK SMILES IDX 43 79 46 80 60 81 79 82 44 83 45 85 59 87 80 88 47 91 31 93
REMARK SMILES IDX 32 94 40 95 33 96 34 97 38 98 41 99 35 100 36 101 39 102
REMARK SMILES IDX 37 103 63 104 64 105 72 106 65 107 66 108 70 109 73 110
REMARK SMILES IDX 67 111 68 112 71 113 69 114 48 115 49 116 57 117 50 118
REMARK SMILES IDX 51 119 55 120 58 121 52 122 53 123 56 124 54 125
REMARK H PARENT 14 2 14 3 13 5 13 6 12 10 3 12 3 13 4 15 4 16 5 18 5 19 6 21
REMARK H PARENT 6 22 7 26 8 28 8 29 9 31 9 32 15 34 15 35 16 37 16 38 17 40
REMARK H PARENT 17 41 18 43 18 44 19 47 23 53 84 55 24 57 83 58 82 68 76 70
REMARK H PARENT 78 72 81 74 75 75 43 84 46 86 79 89 44 90 80 92
REMARK Flexibility Score: inf
ROOT
ATOM      1  C   UNL A   1      44.780  23.754  27.997  1.00  0.00    -0.036 C 
ATOM      2  H   UNL A   1      45.099  24.166  28.933  1.00  0.00     0.028 H 
ATOM      3  H   UNL A   1      44.993  22.711  27.895  1.00  0.00     0.028 H 
ENDROOT
BRANCH   1   4
ATOM      4  C   UNL A   1      45.556  24.456  26.882  1.00  0.00     0.017 C 
ATOM      5  H   UNL A   1      46.602  24.275  27.017  1.00  0.00     0.049 H 
ATOM      6  H   UNL A   1      45.223  24.069  25.943  1.00  0.00     0.049 H 
BRANCH   4   7
ATOM      7  N   UNL A   1      45.321  25.883  26.895  1.00  0.00    -0.356 N 
ATOM      8  O   UNL A   1      45.858  26.280  24.701  1.00  0.00    -0.275 OA
ATOM      9  C   UNL A   1      45.483  26.687  25.795  1.00  0.00     0.219 C 
ATOM     10  H   UNL A   1      45.029  26.301  27.738  1.00  0.00     0.163 HD
BRANCH   9  11
ATOM     11  C   UNL A   1      45.172  28.149  26.057  1.00  0.00     0.026 C 
ATOM     12  H   UNL A   1      45.606  28.733  25.272  1.00  0.00     0.037 H 
ATOM     13  H   UNL A   1      45.580  28.388  27.016  1.00  0.00     0.037 H 
BRANCH  11  14
ATOM     14  C   UNL A   1      43.674  28.456  26.119  1.00  0.00    -0.044 C 
ATOM     15  H   UNL A   1      43.192  27.623  26.583  1.00  0.00     0.027 H 
ATOM     16  H   UNL A   1      43.383  28.634  25.104  1.00  0.00     0.027 H 
BRANCH  14  17
ATOM     17  C   UNL A   1      43.260  29.720  26.884  1.00  0.00    -0.052 C 
ATOM     18  H   UNL A   1      42.689  29.415  27.736  1.00  0.00     0.027 H 
ATOM     19  H   UNL A   1      42.715  30.317  26.182  1.00  0.00     0.027 H 
BRANCH  17  20
ATOM     20  C   UNL A   1      44.406  30.614  27.383  1.00  0.00    -0.040 C 
ATOM     21  H   UNL A   1      45.255  30.458  26.751  1.00  0.00     0.028 H 
ATOM     22  H   UNL A   1      44.599  30.340  28.399  1.00  0.00     0.028 H 
BRANCH  20  23
ATOM     23  C   UNL A   1      44.063  32.113  27.376  1.00  0.00     0.016 C 
ATOM     24  C   UNL A   1      44.419  32.782  26.041  1.00  0.00    -0.030 C 
ATOM     25  S   UNL A   1      45.016  33.002  28.657  1.00  0.00    -0.091 SA
ATOM     26  H   UNL A   1      43.009  32.171  27.553  1.00  0.00     0.043 H 
ATOM     27  C   UNL A   1      44.331  34.298  26.172  1.00  0.00     0.005 C 
ATOM     28  H   UNL A   1      43.736  32.452  25.287  1.00  0.00     0.029 H 
ATOM     29  H   UNL A   1      45.419  32.513  25.771  1.00  0.00     0.029 H 
ATOM     30  S   UNL A   1      45.317  34.741  27.618  1.00  0.00    -0.094 SA
ATOM     31  H   UNL A   1      43.313  34.599  26.310  1.00  0.00     0.039 H 
ATOM     32  H   UNL A   1      44.691  34.786  25.290  1.00  0.00     0.039 H 
ENDBRANCH  20  23
ENDBRANCH  17  20
ENDBRANCH  14  17
ENDBRANCH  11  14
ENDBRANCH   9  11
ENDBRANCH   4   7
ENDBRANCH   1   4
BRANCH   1  33
ATOM     33  C   UNL A   1      43.252  23.887  27.915  1.00  0.00    -0.052 C 
ATOM     34  H   UNL A   1      42.964  23.762  26.892  1.00  0.00     0.027 H 
ATOM     35  H   UNL A   1      43.020  24.851  28.316  1.00  0.00     0.027 H 
BRANCH  33  36
ATOM     36  C   UNL A   1      42.457  22.883  28.754  1.00  0.00    -0.052 C 
ATOM     37  H   UNL A   1      41.796  23.435  29.390  1.00  0.00     0.027 H 
ATOM     38  H   UNL A   1      43.182  22.304  29.287  1.00  0.00     0.027 H 
BRANCH  36  39
ATOM     39  C   UNL A   1      41.619  21.881  27.957  1.00  0.00    -0.036 C 
ATOM     40  H   UNL A   1      40.629  21.882  28.363  1.00  0.00     0.028 H 
ATOM     41  H   UNL A   1      42.120  20.940  28.049  1.00  0.00     0.028 H 
BRANCH  39  42
ATOM     42  C   UNL A   1      41.515  22.159  26.460  1.00  0.00     0.018 C 
ATOM     43  H   UNL A   1      42.040  21.389  25.933  1.00  0.00     0.049 H 
ATOM     44  H   UNL A   1      41.939  23.125  26.283  1.00  0.00     0.049 H 
BRANCH  42  45
ATOM     45  N   UNL A   1      40.142  22.193  25.983  1.00  0.00    -0.352 N 
ATOM     46  C   UNL A   1      39.173  23.144  26.176  1.00  0.00     0.251 C 
ATOM     47  H   UNL A   1      39.867  21.418  25.440  1.00  0.00     0.163 HD
ATOM     48  O   UNL A   1      38.023  22.933  25.790  1.00  0.00    -0.269 OA
BRANCH  46  49
ATOM     49  C   UNL A   1      39.486  24.412  26.872  1.00  0.00     0.039 A 
ATOM     50  C   UNL A   1      39.056  24.569  28.194  1.00  0.00    -0.049 A 
ATOM     51  C   UNL A   1      40.178  25.447  26.237  1.00  0.00    -0.049 A 
ATOM     52  C   UNL A   1      39.374  25.734  28.896  1.00  0.00    -0.053 A 
ATOM     53  H   UNL A   1      38.504  23.826  28.650  1.00  0.00     0.063 H 
ATOM     54  C   UNL A   1      40.552  26.581  26.958  1.00  0.00    -0.053 A 
ATOM     55  H   UNL A   1      40.412  25.371  25.235  1.00  0.00     0.063 H 
ATOM     56  C   UNL A   1      40.155  26.735  28.294  1.00  0.00    -0.014 A 
ATOM     57  H   UNL A   1      39.034  25.860  29.862  1.00  0.00     0.063 H 
ATOM     58  H   UNL A   1      41.125  27.311  26.506  1.00  0.00     0.063 H 
BRANCH  56  59
ATOM     59  C   UNL A   1      40.578  27.931  29.068  1.00  0.00     0.031 A 
ATOM     60  C   UNL A   1      41.982  28.052  29.590  1.00  0.00     0.074 A 
ATOM     61  C   UNL A   1      39.676  28.893  29.341  1.00  0.00     0.049 A 
ATOM     62  N   UNL A   1      42.530  29.026  30.275  1.00  0.00    -0.248 NA
ATOM     63  C   UNL A   1      42.884  26.921  29.332  1.00  0.00    -0.034 C 
ATOM     64  C   UNL A   1      38.267  28.866  28.944  1.00  0.00    -0.036 A 
ATOM     65  N   UNL A   1      39.809  30.081  30.016  1.00  0.00    -0.354 N 
ATOM     66  C   UNL A   1      43.830  28.620  30.540  1.00  0.00     0.074 A 
ATOM     67  C   UNL A   1      43.978  27.291  29.983  1.00  0.00    -0.034 C 
ATOM     68  H   UNL A   1      42.713  26.063  28.785  1.00  0.00     0.065 H 
ATOM     69  C   UNL A   1      37.676  30.001  29.348  1.00  0.00    -0.036 A 
ATOM     70  H   UNL A   1      37.804  28.098  28.435  1.00  0.00     0.065 H 
ATOM     71  C   UNL A   1      38.653  30.822  30.057  1.00  0.00     0.049 A 
ATOM     72  H   UNL A   1      40.652  30.374  30.432  1.00  0.00     0.167 HD
ATOM     73  C   UNL A   1      44.817  29.301  31.170  1.00  0.00     0.037 A 
ATOM     74  H   UNL A   1      44.823  26.710  30.083  1.00  0.00     0.065 H 
ATOM     75  H   UNL A   1      36.688  30.252  29.184  1.00  0.00     0.065 H 
ATOM     76  C   UNL A   1      38.412  32.031  30.595  1.00  0.00     0.037 A 
ATOM     77  C   UNL A   1      44.679  30.635  31.697  1.00  0.00     0.049 A 
ATOM     78  C   UNL A   1      39.530  32.772  31.276  1.00  0.00     0.074 A 
ATOM     79  C   UNL A   1      45.644  31.442  32.273  1.00  0.00    -0.036 A 
ATOM     80  N   UNL A   1      43.493  31.355  31.718  1.00  0.00    -0.354 N 
ATOM     81  N   UNL A   1      40.779  32.417  31.438  1.00  0.00    -0.248 NA
ATOM     82  C   UNL A   1      39.199  34.087  31.841  1.00  0.00    -0.034 C 
ATOM     83  C   UNL A   1      45.034  32.632  32.684  1.00  0.00    -0.036 A 
ATOM     84  H   UNL A   1      46.643  31.206  32.380  1.00  0.00     0.065 H 
ATOM     85  C   UNL A   1      43.697  32.586  32.324  1.00  0.00     0.049 A 
ATOM     86  H   UNL A   1      42.634  31.040  31.357  1.00  0.00     0.167 HD
ATOM     87  C   UNL A   1      41.392  33.472  32.102  1.00  0.00     0.074 A 
ATOM     88  C   UNL A   1      40.378  34.488  32.294  1.00  0.00    -0.034 C 
ATOM     89  H   UNL A   1      38.288  34.572  31.875  1.00  0.00     0.065 H 
ATOM     90  H   UNL A   1      45.500  33.411  33.174  1.00  0.00     0.065 H 
ATOM     91  C   UNL A   1      42.678  33.586  32.515  1.00  0.00     0.037 A 
ATOM     92  H   UNL A   1      40.552  35.408  32.728  1.00  0.00     0.065 H 
BRANCH  73  93
ATOM     93  C   UNL A   1      46.142  28.611  31.327  1.00  0.00     0.064 A 
ATOM     94  C   UNL A   1      46.446  27.845  32.463  1.00  0.00     0.173 A 
ATOM     95  C   UNL A   1      47.111  28.696  30.316  1.00  0.00     0.173 A 
ATOM     96  F   UNL A   1      45.557  27.741  33.463  1.00  0.00    -0.203 F 
ATOM     97  C   UNL A   1      47.681  27.218  32.596  1.00  0.00     0.198 A 
ATOM     98  C   UNL A   1      48.335  28.043  30.438  1.00  0.00     0.198 A 
ATOM     99  F   UNL A   1      46.871  29.409  29.205  1.00  0.00    -0.203 F 
ATOM    100  F   UNL A   1      47.968  26.535  33.713  1.00  0.00    -0.200 F 
ATOM    101  C   UNL A   1      48.623  27.312  31.582  1.00  0.00     0.200 A 
ATOM    102  F   UNL A   1      49.240  28.125  29.453  1.00  0.00    -0.200 F 
ATOM    103  F   UNL A   1      49.811  26.706  31.710  1.00  0.00    -0.200 F 
ENDBRANCH  73  93
BRANCH  76 104
ATOM    104  C   UNL A   1      37.064  32.642  30.465  1.00  0.00     0.064 A 
ATOM    105  C   UNL A   1      36.744  33.434  29.354  1.00  0.00     0.173 A 
ATOM    106  C   UNL A   1      36.074  32.448  31.438  1.00  0.00     0.173 A 
ATOM    107  F   UNL A   1      37.668  33.666  28.409  1.00  0.00    -0.203 F 
ATOM    108  C   UNL A   1      35.488  34.023  29.227  1.00  0.00     0.198 A 
ATOM    109  C   UNL A   1      34.810  33.015  31.298  1.00  0.00     0.198 A 
ATOM    110  F   UNL A   1      36.332  31.695  32.517  1.00  0.00    -0.203 F 
ATOM    111  F   UNL A   1      35.221  34.807  28.175  1.00  0.00    -0.200 F 
ATOM    112  C   UNL A   1      34.519  33.808  30.197  1.00  0.00     0.200 A 
ATOM    113  F   UNL A   1      33.873  32.797  32.230  1.00  0.00    -0.200 F 
ATOM    114  F   UNL A   1      33.309  34.369  30.073  1.00  0.00    -0.200 F 
ENDBRANCH  76 104
BRANCH  91 115
ATOM    115  C   UNL A   1      43.061  34.867  33.198  1.00  0.00     0.064 A 
ATOM    116  C   UNL A   1      43.021  34.996  34.595  1.00  0.00     0.173 A 
ATOM    117  C   UNL A   1      43.480  35.976  32.448  1.00  0.00     0.173 A 
ATOM    118  F   UNL A   1      42.610  33.969  35.355  1.00  0.00    -0.203 F 
ATOM    119  C   UNL A   1      43.354  36.198  35.213  1.00  0.00     0.198 A 
ATOM    120  C   UNL A   1      43.841  37.167  33.072  1.00  0.00     0.198 A 
ATOM    121  F   UNL A   1      43.542  35.905  31.111  1.00  0.00    -0.203 F 
ATOM    122  F   UNL A   1      43.251  36.315  36.544  1.00  0.00    -0.200 F 
ATOM    123  C   UNL A   1      43.768  37.281  34.452  1.00  0.00     0.200 A 
ATOM    124  F   UNL A   1      44.251  38.210  32.336  1.00  0.00    -0.200 F 
ATOM    125  F   UNL A   1      44.085  38.438  35.049  1.00  0.00    -0.200 F 
ENDBRANCH  91 115
ENDBRANCH  56  59
ENDBRANCH  46  49
ENDBRANCH  42  45
ENDBRANCH  39  42
ENDBRANCH  36  39
ENDBRANCH  33  36
ENDBRANCH   1  33
TORSDOF 17
ENDMDL
MODEL 6
REMARK VINA RESULT:     -10.1      6.145     11.582
REMARK SMILES O=C(CCCC[C@@H]1CCSS1)NCCCCCCNC(=O)c1ccc(-c2c3nc(c(-c4c(F)c(F)c(F)c(F)c4F)c4ccc([nH]4)c(-c4c(F)c(F)c(F)c(F)c4F)c4nc(c(-c5c(F)c(F)c(F)c(F)c5F)c5ccc2[nH]5)C=C4)C=C3)cc1
REMARK SMILES IDX 14 1 13 4 12 7 1 8 2 9 3 11 4 14 5 17 6 20 7 23 8 24 11 25
REMARK SMILES IDX 9 27 10 30 15 33 16 36 17 39 18 42 19 45 20 46 21 48 22 49
REMARK SMILES IDX 23 50 84 51 24 52 83 54 25 56 26 59 27 60 77 61 28 62 82 63
REMARK SMILES IDX 76 64 78 65 29 66 81 67 75 69 74 71 30 73 62 76 42 77 61 78
REMARK SMILES IDX 43 79 46 80 60 81 79 82 44 83 45 85 59 87 80 88 47 91 31 93
REMARK SMILES IDX 32 94 40 95 33 96 34 97 38 98 41 99 35 100 36 101 39 102
REMARK SMILES IDX 37 103 63 104 64 105 72 106 65 107 66 108 70 109 73 110
REMARK SMILES IDX 67 111 68 112 71 113 69 114 48 115 49 116 57 117 50 118
REMARK SMILES IDX 51 119 55 120 58 121 52 122 53 123 56 124 54 125
REMARK H PARENT 14 2 14 3 13 5 13 6 12 10 3 12 3 13 4 15 4 16 5 18 5 19 6 21
REMARK H PARENT 6 22 7 26 8 28 8 29 9 31 9 32 15 34 15 35 16 37 16 38 17 40
REMARK H PARENT 17 41 18 43 18 44 19 47 23 53 84 55 24 57 83 58 82 68 76 70
REMARK H PARENT 78 72 81 74 75 75 43 84 46 86 79 89 44 90 80 92
REMARK Flexibility Score: inf
ROOT
ATOM      1  C   UNL A   1      43.813  18.972  24.865  1.00  0.00    -0.036 C 
ATOM      2  H   UNL A   1      44.200  18.056  24.468  1.00  0.00     0.028 H 
ATOM      3  H   UNL A   1      43.114  19.457  24.218  1.00  0.00     0.028 H 
ENDROOT
BRANCH   1   4
ATOM      4  C   UNL A   1      44.981  19.945  25.032  1.00  0.00     0.017 C 
ATOM      5  H   UNL A   1      45.754  19.468  25.598  1.00  0.00     0.049 H 
ATOM      6  H   UNL A   1      45.335  20.217  24.061  1.00  0.00     0.049 H 
BRANCH   4   7
ATOM      7  N   UNL A   1      44.570  21.149  25.721  1.00  0.00    -0.356 N 
ATOM      8  O   UNL A   1      44.128  22.407  23.854  1.00  0.00    -0.275 OA
ATOM      9  C   UNL A   1      44.165  22.289  25.074  1.00  0.00     0.219 C 
ATOM     10  H   UNL A   1      44.581  21.150  26.705  1.00  0.00     0.163 HD
BRANCH   9  11
ATOM     11  C   UNL A   1      43.779  23.417  26.013  1.00  0.00     0.026 C 
ATOM     12  H   UNL A   1      42.714  23.423  26.114  1.00  0.00     0.037 H 
ATOM     13  H   UNL A   1      44.152  24.323  25.583  1.00  0.00     0.037 H 
BRANCH  11  14
ATOM     14  C   UNL A   1      44.398  23.295  27.406  1.00  0.00    -0.044 C 
ATOM     15  H   UNL A   1      44.276  22.282  27.727  1.00  0.00     0.027 H 
ATOM     16  H   UNL A   1      43.885  24.020  28.005  1.00  0.00     0.027 H 
BRANCH  14  17
ATOM     17  C   UNL A   1      45.886  23.648  27.534  1.00  0.00    -0.052 C 
ATOM     18  H   UNL A   1      46.421  23.080  26.803  1.00  0.00     0.027 H 
ATOM     19  H   UNL A   1      46.150  23.420  28.546  1.00  0.00     0.027 H 
BRANCH  17  20
ATOM     20  C   UNL A   1      46.248  25.128  27.338  1.00  0.00    -0.040 C 
ATOM     21  H   UNL A   1      47.125  25.340  27.914  1.00  0.00     0.028 H 
ATOM     22  H   UNL A   1      45.405  25.703  27.656  1.00  0.00     0.028 H 
BRANCH  20  23
ATOM     23  C   UNL A   1      46.526  25.503  25.873  1.00  0.00     0.016 C 
ATOM     24  C   UNL A   1      47.992  25.895  25.643  1.00  0.00    -0.030 C 
ATOM     25  S   UNL A   1      45.531  26.954  25.375  1.00  0.00    -0.091 SA
ATOM     26  H   UNL A   1      46.277  24.635  25.298  1.00  0.00     0.043 H 
ATOM     27  C   UNL A   1      48.160  26.524  24.265  1.00  0.00     0.005 C 
ATOM     28  H   UNL A   1      48.606  25.021  25.710  1.00  0.00     0.029 H 
ATOM     29  H   UNL A   1      48.285  26.605  26.388  1.00  0.00     0.029 H 
ATOM     30  S   UNL A   1      46.917  27.830  24.149  1.00  0.00    -0.094 SA
ATOM     31  H   UNL A   1      48.000  25.791  23.502  1.00  0.00     0.039 H 
ATOM     32  H   UNL A   1      49.148  26.913  24.133  1.00  0.00     0.039 H 
ENDBRANCH  20  23
ENDBRANCH  17  20
ENDBRANCH  14  17
ENDBRANCH  11  14
ENDBRANCH   9  11
ENDBRANCH   4   7
ENDBRANCH   1   4
BRANCH   1  33
ATOM     33  C   UNL A   1      43.045  18.645  26.154  1.00  0.00    -0.052 C 
ATOM     34  H   UNL A   1      43.623  18.997  26.982  1.00  0.00     0.027 H 
ATOM     35  H   UNL A   1      42.899  17.584  26.148  1.00  0.00     0.027 H 
BRANCH  33  36
ATOM     36  C   UNL A   1      41.646  19.258  26.262  1.00  0.00    -0.052 C 
ATOM     37  H   UNL A   1      40.935  18.458  26.275  1.00  0.00     0.027 H 
ATOM     38  H   UNL A   1      41.543  19.910  25.420  1.00  0.00     0.027 H 
BRANCH  36  39
ATOM     39  C   UNL A   1      41.404  20.124  27.499  1.00  0.00    -0.036 C 
ATOM     40  H   UNL A   1      42.312  20.154  28.064  1.00  0.00     0.028 H 
ATOM     41  H   UNL A   1      40.588  19.670  28.022  1.00  0.00     0.028 H 
BRANCH  39  42
ATOM     42  C   UNL A   1      40.976  21.562  27.219  1.00  0.00     0.018 C 
ATOM     43  H   UNL A   1      41.749  22.045  26.658  1.00  0.00     0.049 H 
ATOM     44  H   UNL A   1      40.812  22.037  28.163  1.00  0.00     0.049 H 
BRANCH  42  45
ATOM     45  N   UNL A   1      39.734  21.649  26.468  1.00  0.00    -0.352 N 
ATOM     46  C   UNL A   1      38.904  22.723  26.271  1.00  0.00     0.251 C 
ATOM     47  H   UNL A   1      39.446  20.812  26.035  1.00  0.00     0.163 HD
ATOM     48  O   UNL A   1      37.825  22.566  25.700  1.00  0.00    -0.269 OA
BRANCH  46  49
ATOM     49  C   UNL A   1      39.277  24.067  26.766  1.00  0.00     0.039 A 
ATOM     50  C   UNL A   1      38.903  24.426  28.065  1.00  0.00    -0.049 A 
ATOM     51  C   UNL A   1      39.971  24.978  25.964  1.00  0.00    -0.049 A 
ATOM     52  C   UNL A   1      39.279  25.669  28.580  1.00  0.00    -0.053 A 
ATOM     53  H   UNL A   1      38.349  23.774  28.642  1.00  0.00     0.063 H 
ATOM     54  C   UNL A   1      40.402  26.191  26.501  1.00  0.00    -0.053 A 
ATOM     55  H   UNL A   1      40.165  24.752  24.977  1.00  0.00     0.063 H 
ATOM     56  C   UNL A   1      40.061  26.548  27.814  1.00  0.00    -0.014 A 
ATOM     57  H   UNL A   1      38.980  25.942  29.529  1.00  0.00     0.063 H 
ATOM     58  H   UNL A   1      40.976  26.830  25.928  1.00  0.00     0.063 H 
BRANCH  56  59
ATOM     59  C   UNL A   1      40.545  27.828  28.392  1.00  0.00     0.031 A 
ATOM     60  C   UNL A   1      42.006  28.041  28.674  1.00  0.00     0.074 A 
ATOM     61  C   UNL A   1      39.655  28.788  28.707  1.00  0.00     0.049 A 
ATOM     62  N   UNL A   1      42.609  29.096  29.168  1.00  0.00    -0.248 NA
ATOM     63  C   UNL A   1      42.906  26.915  28.391  1.00  0.00    -0.034 C 
ATOM     64  C   UNL A   1      38.205  28.682  28.538  1.00  0.00    -0.036 A 
ATOM     65  N   UNL A   1      39.837  30.042  29.233  1.00  0.00    -0.354 N 
ATOM     66  C   UNL A   1      43.951  28.755  29.265  1.00  0.00     0.074 A 
ATOM     67  C   UNL A   1      44.069  27.380  28.825  1.00  0.00    -0.034 C 
ATOM     68  H   UNL A   1      42.691  26.001  27.964  1.00  0.00     0.065 H 
ATOM     69  C   UNL A   1      37.633  29.835  28.917  1.00  0.00    -0.036 A 
ATOM     70  H   UNL A   1      37.703  27.852  28.185  1.00  0.00     0.065 H 
ATOM     71  C   UNL A   1      38.671  30.752  29.381  1.00  0.00     0.049 A 
ATOM     72  H   UNL A   1      40.720  30.400  29.482  1.00  0.00     0.167 HD
ATOM     73  C   UNL A   1      44.992  29.523  29.664  1.00  0.00     0.037 A 
ATOM     74  H   UNL A   1      44.944  26.835  28.848  1.00  0.00     0.065 H 
ATOM     75  H   UNL A   1      36.622  30.041  28.885  1.00  0.00     0.065 H 
ATOM     76  C   UNL A   1      38.462  32.003  29.829  1.00  0.00     0.037 A 
ATOM     77  C   UNL A   1      44.878  30.900  30.074  1.00  0.00     0.049 A 
ATOM     78  C   UNL A   1      39.638  32.840  30.252  1.00  0.00     0.074 A 
ATOM     79  C   UNL A   1      45.884  31.789  30.411  1.00  0.00    -0.036 A 
ATOM     80  N   UNL A   1      43.679  31.587  30.209  1.00  0.00    -0.354 N 
ATOM     81  N   UNL A   1      40.912  32.539  30.252  1.00  0.00    -0.248 NA
ATOM     82  C   UNL A   1      39.340  34.197  30.730  1.00  0.00    -0.034 C 
ATOM     83  C   UNL A   1      45.293  32.998  30.794  1.00  0.00    -0.036 A 
ATOM     84  H   UNL A   1      46.897  31.593  30.383  1.00  0.00     0.065 H 
ATOM     85  C   UNL A   1      43.920  32.878  30.653  1.00  0.00     0.049 A 
ATOM     86  H   UNL A   1      42.789  31.212  30.018  1.00  0.00     0.167 HD
ATOM     87  C   UNL A   1      41.572  33.673  30.706  1.00  0.00     0.074 A 
ATOM     88  C   UNL A   1      40.556  34.675  30.953  1.00  0.00    -0.034 C 
ATOM     89  H   UNL A   1      38.425  34.658  30.858  1.00  0.00     0.065 H 
ATOM     90  H   UNL A   1      45.794  33.836  31.127  1.00  0.00     0.065 H 
ATOM     91  C   UNL A   1      42.900  33.865  30.901  1.00  0.00     0.037 A 
ATOM     92  H   UNL A   1      40.755  35.639  31.264  1.00  0.00     0.065 H 
BRANCH  73  93
ATOM     93  C   UNL A   1      46.354  28.890  29.680  1.00  0.00     0.064 A 
ATOM     94  C   UNL A   1      47.182  28.893  28.547  1.00  0.00     0.173 A 
ATOM     95  C   UNL A   1      46.848  28.296  30.851  1.00  0.00     0.173 A 
ATOM     96  F   UNL A   1      46.753  29.439  27.399  1.00  0.00    -0.203 F 
ATOM     97  C   UNL A   1      48.439  28.296  28.576  1.00  0.00     0.198 A 
ATOM     98  C   UNL A   1      48.118  27.725  30.886  1.00  0.00     0.198 A 
ATOM     99  F   UNL A   1      46.100  28.272  31.965  1.00  0.00    -0.203 F 
ATOM    100  F   UNL A   1      49.191  28.265  27.467  1.00  0.00    -0.200 F 
ATOM    101  C   UNL A   1      48.909  27.717  29.746  1.00  0.00     0.200 A 
ATOM    102  F   UNL A   1      48.575  27.177  32.020  1.00  0.00    -0.200 F 
ATOM    103  F   UNL A   1      50.120  27.145  29.774  1.00  0.00    -0.200 F 
ENDBRANCH  73  93
BRANCH  76 104
ATOM    104  C   UNL A   1      37.085  32.560  29.852  1.00  0.00     0.064 A 
ATOM    105  C   UNL A   1      36.582  33.262  28.748  1.00  0.00     0.173 A 
ATOM    106  C   UNL A   1      36.249  32.403  30.965  1.00  0.00     0.173 A 
ATOM    107  F   UNL A   1      37.355  33.456  27.669  1.00  0.00    -0.203 F 
ATOM    108  C   UNL A   1      35.297  33.800  28.762  1.00  0.00     0.198 A 
ATOM    109  C   UNL A   1      34.955  32.918  30.968  1.00  0.00     0.198 A 
ATOM    110  F   UNL A   1      36.684  31.736  32.043  1.00  0.00    -0.203 F 
ATOM    111  F   UNL A   1      34.854  34.500  27.709  1.00  0.00    -0.200 F 
ATOM    112  C   UNL A   1      34.482  33.622  29.870  1.00  0.00     0.200 A 
ATOM    113  F   UNL A   1      34.166  32.736  32.036  1.00  0.00    -0.200 F 
ATOM    114  F   UNL A   1      33.244  34.134  29.882  1.00  0.00    -0.200 F 
ENDBRANCH  76 104
BRANCH  91 115
ATOM    115  C   UNL A   1      43.327  35.219  31.388  1.00  0.00     0.064 A 
ATOM    116  C   UNL A   1      43.354  35.534  32.755  1.00  0.00     0.173 A 
ATOM    117  C   UNL A   1      43.720  36.211  30.478  1.00  0.00     0.173 A 
ATOM    118  F   UNL A   1      42.971  34.624  33.664  1.00  0.00    -0.203 F 
ATOM    119  C   UNL A   1      43.727  36.802  33.190  1.00  0.00     0.198 A 
ATOM    120  C   UNL A   1      44.121  37.470  30.919  1.00  0.00     0.198 A 
ATOM    121  F   UNL A   1      43.717  35.961  29.160  1.00  0.00    -0.203 F 
ATOM    122  F   UNL A   1      43.689  37.098  34.497  1.00  0.00    -0.200 F 
ATOM    123  C   UNL A   1      44.114  37.768  32.273  1.00  0.00     0.200 A 
ATOM    124  F   UNL A   1      44.505  38.398  30.031  1.00  0.00    -0.200 F 
ATOM    125  F   UNL A   1      44.470  38.989  32.694  1.00  0.00    -0.200 F 
ENDBRANCH  91 115
ENDBRANCH  56  59
ENDBRANCH  46  49
ENDBRANCH  42  45
ENDBRANCH  39  42
ENDBRANCH  36  39
ENDBRANCH  33  36
ENDBRANCH   1  33
TORSDOF 17
ENDMDL
MODEL 7
REMARK VINA RESULT:     -10.1      2.314      8.091
REMARK SMILES O=C(CCCC[C@@H]1CCSS1)NCCCCCCNC(=O)c1ccc(-c2c3nc(c(-c4c(F)c(F)c(F)c(F)c4F)c4ccc([nH]4)c(-c4c(F)c(F)c(F)c(F)c4F)c4nc(c(-c5c(F)c(F)c(F)c(F)c5F)c5ccc2[nH]5)C=C4)C=C3)cc1
REMARK SMILES IDX 14 1 13 4 12 7 1 8 2 9 3 11 4 14 5 17 6 20 7 23 8 24 11 25
REMARK SMILES IDX 9 27 10 30 15 33 16 36 17 39 18 42 19 45 20 46 21 48 22 49
REMARK SMILES IDX 23 50 84 51 24 52 83 54 25 56 26 59 27 60 77 61 28 62 82 63
REMARK SMILES IDX 76 64 78 65 29 66 81 67 75 69 74 71 30 73 62 76 42 77 61 78
REMARK SMILES IDX 43 79 46 80 60 81 79 82 44 83 45 85 59 87 80 88 47 91 31 93
REMARK SMILES IDX 32 94 40 95 33 96 34 97 38 98 41 99 35 100 36 101 39 102
REMARK SMILES IDX 37 103 63 104 64 105 72 106 65 107 66 108 70 109 73 110
REMARK SMILES IDX 67 111 68 112 71 113 69 114 48 115 49 116 57 117 50 118
REMARK SMILES IDX 51 119 55 120 58 121 52 122 53 123 56 124 54 125
REMARK H PARENT 14 2 14 3 13 5 13 6 12 10 3 12 3 13 4 15 4 16 5 18 5 19 6 21
REMARK H PARENT 6 22 7 26 8 28 8 29 9 31 9 32 15 34 15 35 16 37 16 38 17 40
REMARK H PARENT 17 41 18 43 18 44 19 47 23 53 84 55 24 57 83 58 82 68 76 70
REMARK H PARENT 78 72 81 74 75 75 43 84 46 86 79 89 44 90 80 92
REMARK Flexibility Score: inf
ROOT
ATOM      1  C   UNL A   1      33.066  28.589  27.234  1.00  0.00    -0.036 C 
ATOM      2  H   UNL A   1      33.831  28.448  27.970  1.00  0.00     0.028 H 
ATOM      3  H   UNL A   1      32.089  28.323  27.577  1.00  0.00     0.028 H 
ENDROOT
BRANCH   1   4
ATOM      4  C   UNL A   1      33.368  27.665  26.054  1.00  0.00     0.017 C 
ATOM      5  H   UNL A   1      34.036  28.163  25.383  1.00  0.00     0.049 H 
ATOM      6  H   UNL A   1      33.810  26.768  26.433  1.00  0.00     0.049 H 
BRANCH   4   7
ATOM      7  N   UNL A   1      32.161  27.311  25.340  1.00  0.00    -0.356 N 
ATOM      8  O   UNL A   1      31.394  25.749  26.835  1.00  0.00    -0.275 OA
ATOM      9  C   UNL A   1      31.259  26.381  25.793  1.00  0.00     0.219 C 
ATOM     10  H   UNL A   1      31.977  27.760  24.484  1.00  0.00     0.163 HD
BRANCH   9  11
ATOM     11  C   UNL A   1      30.070  26.186  24.871  1.00  0.00     0.026 C 
ATOM     12  H   UNL A   1      29.708  27.149  24.578  1.00  0.00     0.037 H 
ATOM     13  H   UNL A   1      29.341  25.624  25.416  1.00  0.00     0.037 H 
BRANCH  11  14
ATOM     14  C   UNL A   1      30.398  25.387  23.608  1.00  0.00    -0.044 C 
ATOM     15  H   UNL A   1      31.200  25.887  23.108  1.00  0.00     0.027 H 
ATOM     16  H   UNL A   1      29.481  25.347  23.056  1.00  0.00     0.027 H 
BRANCH  14  17
ATOM     17  C   UNL A   1      30.813  23.923  23.806  1.00  0.00    -0.052 C 
ATOM     18  H   UNL A   1      30.255  23.328  23.113  1.00  0.00     0.027 H 
ATOM     19  H   UNL A   1      30.613  23.703  24.834  1.00  0.00     0.027 H 
BRANCH  17  20
ATOM     20  C   UNL A   1      32.303  23.609  23.601  1.00  0.00    -0.040 C 
ATOM     21  H   UNL A   1      32.792  24.500  23.264  1.00  0.00     0.028 H 
ATOM     22  H   UNL A   1      32.362  22.818  22.883  1.00  0.00     0.028 H 
BRANCH  20  23
ATOM     23  C   UNL A   1      33.009  23.117  24.875  1.00  0.00     0.016 C 
ATOM     24  C   UNL A   1      34.156  24.046  25.297  1.00  0.00    -0.030 C 
ATOM     25  S   UNL A   1      33.761  21.474  24.607  1.00  0.00    -0.091 SA
ATOM     26  H   UNL A   1      32.253  23.090  25.633  1.00  0.00     0.043 H 
ATOM     27  C   UNL A   1      34.998  23.384  26.380  1.00  0.00     0.005 C 
ATOM     28  H   UNL A   1      33.749  24.961  25.674  1.00  0.00     0.029 H 
ATOM     29  H   UNL A   1      34.775  24.245  24.446  1.00  0.00     0.029 H 
ATOM     30  S   UNL A   1      35.434  21.747  25.755  1.00  0.00    -0.094 SA
ATOM     31  H   UNL A   1      34.434  23.297  27.286  1.00  0.00     0.039 H 
ATOM     32  H   UNL A   1      35.871  23.963  26.602  1.00  0.00     0.039 H 
ENDBRANCH  20  23
ENDBRANCH  17  20
ENDBRANCH  14  17
ENDBRANCH  11  14
ENDBRANCH   9  11
ENDBRANCH   4   7
ENDBRANCH   1   4
BRANCH   1  33
ATOM     33  C   UNL A   1      33.005  30.086  26.894  1.00  0.00    -0.052 C 
ATOM     34  H   UNL A   1      33.641  30.259  26.051  1.00  0.00     0.027 H 
ATOM     35  H   UNL A   1      33.312  30.601  27.781  1.00  0.00     0.027 H 
BRANCH  33  36
ATOM     36  C   UNL A   1      31.615  30.630  26.555  1.00  0.00    -0.052 C 
ATOM     37  H   UNL A   1      30.900  30.103  27.153  1.00  0.00     0.027 H 
ATOM     38  H   UNL A   1      31.488  30.481  25.503  1.00  0.00     0.027 H 
BRANCH  36  39
ATOM     39  C   UNL A   1      31.420  32.127  26.796  1.00  0.00    -0.036 C 
ATOM     40  H   UNL A   1      30.716  32.245  27.593  1.00  0.00     0.028 H 
ATOM     41  H   UNL A   1      31.087  32.535  25.865  1.00  0.00     0.028 H 
BRANCH  39  42
ATOM     42  C   UNL A   1      32.683  32.901  27.166  1.00  0.00     0.018 C 
ATOM     43  H   UNL A   1      33.313  32.958  26.303  1.00  0.00     0.049 H 
ATOM     44  H   UNL A   1      33.154  32.378  27.972  1.00  0.00     0.049 H 
BRANCH  42  45
ATOM     45  N   UNL A   1      32.407  34.252  27.628  1.00  0.00    -0.352 N 
ATOM     46  C   UNL A   1      32.987  34.964  28.646  1.00  0.00     0.251 C 
ATOM     47  H   UNL A   1      31.697  34.726  27.136  1.00  0.00     0.163 HD
ATOM     48  O   UNL A   1      32.528  36.060  28.965  1.00  0.00    -0.269 OA
BRANCH  46  49
ATOM     49  C   UNL A   1      34.144  34.415  29.388  1.00  0.00     0.039 A 
ATOM     50  C   UNL A   1      33.908  33.767  30.605  1.00  0.00    -0.049 A 
ATOM     51  C   UNL A   1      35.451  34.547  28.911  1.00  0.00    -0.049 A 
ATOM     52  C   UNL A   1      34.972  33.197  31.308  1.00  0.00    -0.053 A 
ATOM     53  H   UNL A   1      32.950  33.710  30.982  1.00  0.00     0.063 H 
ATOM     54  C   UNL A   1      36.504  33.921  29.580  1.00  0.00    -0.053 A 
ATOM     55  H   UNL A   1      35.638  35.105  28.064  1.00  0.00     0.063 H 
ATOM     56  C   UNL A   1      36.274  33.240  30.784  1.00  0.00    -0.014 A 
ATOM     57  H   UNL A   1      34.799  32.741  32.218  1.00  0.00     0.063 H 
ATOM     58  H   UNL A   1      37.457  33.960  29.186  1.00  0.00     0.063 H 
BRANCH  56  59
ATOM     59  C   UNL A   1      37.392  32.551  31.480  1.00  0.00     0.031 A 
ATOM     60  C   UNL A   1      38.111  31.401  30.830  1.00  0.00     0.074 A 
ATOM     61  C   UNL A   1      37.730  32.934  32.725  1.00  0.00     0.049 A 
ATOM     62  N   UNL A   1      39.113  30.689  31.284  1.00  0.00    -0.248 NA
ATOM     63  C   UNL A   1      37.626  30.979  29.509  1.00  0.00    -0.034 C 
ATOM     64  C   UNL A   1      37.071  33.995  33.489  1.00  0.00    -0.036 A 
ATOM     65  N   UNL A   1      38.712  32.479  33.568  1.00  0.00    -0.354 N 
ATOM     66  C   UNL A   1      39.368  29.730  30.313  1.00  0.00     0.074 A 
ATOM     67  C   UNL A   1      38.385  29.920  29.266  1.00  0.00    -0.034 C 
ATOM     68  H   UNL A   1      36.887  31.398  28.922  1.00  0.00     0.065 H 
ATOM     69  C   UNL A   1      37.691  34.135  34.671  1.00  0.00    -0.036 A 
ATOM     70  H   UNL A   1      36.260  34.547  33.169  1.00  0.00     0.065 H 
ATOM     71  C   UNL A   1      38.770  33.156  34.761  1.00  0.00     0.049 A 
ATOM     72  H   UNL A   1      39.317  31.736  33.340  1.00  0.00     0.167 HD
ATOM     73  C   UNL A   1      40.343  28.792  30.287  1.00  0.00     0.037 A 
ATOM     74  H   UNL A   1      38.289  29.309  28.441  1.00  0.00     0.065 H 
ATOM     75  H   UNL A   1      37.443  34.823  35.399  1.00  0.00     0.065 H 
ATOM     76  C   UNL A   1      39.607  33.013  35.806  1.00  0.00     0.037 A 
ATOM     77  C   UNL A   1      41.339  28.623  31.314  1.00  0.00     0.049 A 
ATOM     78  C   UNL A   1      40.692  31.973  35.744  1.00  0.00     0.074 A 
ATOM     79  C   UNL A   1      42.421  27.760  31.337  1.00  0.00    -0.036 A 
ATOM     80  N   UNL A   1      41.368  29.329  32.509  1.00  0.00    -0.354 N 
ATOM     81  N   UNL A   1      40.980  31.134  34.781  1.00  0.00    -0.248 NA
ATOM     82  C   UNL A   1      41.571  31.869  36.916  1.00  0.00    -0.034 C 
ATOM     83  C   UNL A   1      43.078  27.911  32.564  1.00  0.00    -0.036 A 
ATOM     84  H   UNL A   1      42.696  27.116  30.580  1.00  0.00     0.065 H 
ATOM     85  C   UNL A   1      42.432  28.900  33.287  1.00  0.00     0.049 A 
ATOM     86  H   UNL A   1      40.727  30.031  32.765  1.00  0.00     0.167 HD
ATOM     87  C   UNL A   1      42.087  30.418  35.217  1.00  0.00     0.074 A 
ATOM     88  C   UNL A   1      42.429  30.937  36.526  1.00  0.00    -0.034 C 
ATOM     89  H   UNL A   1      41.532  32.386  37.809  1.00  0.00     0.065 H 
ATOM     90  H   UNL A   1      43.903  27.376  32.877  1.00  0.00     0.065 H 
ATOM     91  C   UNL A   1      42.758  29.420  34.591  1.00  0.00     0.037 A 
ATOM     92  H   UNL A   1      43.237  30.620  37.083  1.00  0.00     0.065 H 
BRANCH  73  93
ATOM     93  C   UNL A   1      40.383  27.868  29.103  1.00  0.00     0.064 A 
ATOM     94  C   UNL A   1      39.643  26.675  29.073  1.00  0.00     0.173 A 
ATOM     95  C   UNL A   1      41.150  28.192  27.974  1.00  0.00     0.173 A 
ATOM     96  F   UNL A   1      38.902  26.315  30.131  1.00  0.00    -0.203 F 
ATOM     97  C   UNL A   1      39.697  25.826  27.971  1.00  0.00     0.198 A 
ATOM     98  C   UNL A   1      41.178  27.355  26.861  1.00  0.00     0.198 A 
ATOM     99  F   UNL A   1      41.871  29.323  27.948  1.00  0.00    -0.203 F 
ATOM    100  F   UNL A   1      39.023  24.668  27.986  1.00  0.00    -0.200 F 
ATOM    101  C   UNL A   1      40.459  26.168  26.864  1.00  0.00     0.200 A 
ATOM    102  F   UNL A   1      41.906  27.692  25.788  1.00  0.00    -0.200 F 
ATOM    103  F   UNL A   1      40.508  25.352  25.803  1.00  0.00    -0.200 F 
ENDBRANCH  73  93
BRANCH  76 104
ATOM    104  C   UNL A   1      39.485  33.913  36.980  1.00  0.00     0.064 A 
ATOM    105  C   UNL A   1      38.757  33.516  38.111  1.00  0.00     0.173 A 
ATOM    106  C   UNL A   1      40.089  35.178  37.001  1.00  0.00     0.173 A 
ATOM    107  F   UNL A   1      38.144  32.324  38.127  1.00  0.00    -0.203 F 
ATOM    108  C   UNL A   1      38.625  34.357  39.213  1.00  0.00     0.198 A 
ATOM    109  C   UNL A   1      39.977  36.008  38.114  1.00  0.00     0.198 A 
ATOM    110  F   UNL A   1      40.798  35.600  35.945  1.00  0.00    -0.203 F 
ATOM    111  F   UNL A   1      37.891  33.969  40.265  1.00  0.00    -0.200 F 
ATOM    112  C   UNL A   1      39.240  35.601  39.217  1.00  0.00     0.200 A 
ATOM    113  F   UNL A   1      40.582  37.203  38.119  1.00  0.00    -0.200 F 
ATOM    114  F   UNL A   1      39.118  36.407  40.279  1.00  0.00    -0.200 F 
ENDBRANCH  76 104
BRANCH  91 115
ATOM    115  C   UNL A   1      43.942  28.842  35.310  1.00  0.00     0.064 A 
ATOM    116  C   UNL A   1      45.241  29.325  35.093  1.00  0.00     0.173 A 
ATOM    117  C   UNL A   1      43.775  27.797  36.230  1.00  0.00     0.173 A 
ATOM    118  F   UNL A   1      45.455  30.312  34.210  1.00  0.00    -0.203 F 
ATOM    119  C   UNL A   1      46.333  28.762  35.748  1.00  0.00     0.198 A 
ATOM    120  C   UNL A   1      44.866  27.256  36.905  1.00  0.00     0.198 A 
ATOM    121  F   UNL A   1      42.554  27.301  36.478  1.00  0.00    -0.203 F 
ATOM    122  F   UNL A   1      47.571  29.201  35.481  1.00  0.00    -0.200 F 
ATOM    123  C   UNL A   1      46.145  27.731  36.656  1.00  0.00     0.200 A 
ATOM    124  F   UNL A   1      44.681  26.266  37.791  1.00  0.00    -0.200 F 
ATOM    125  F   UNL A   1      47.198  27.188  37.283  1.00  0.00    -0.200 F 
ENDBRANCH  91 115
ENDBRANCH  56  59
ENDBRANCH  46  49
ENDBRANCH  42  45
ENDBRANCH  39  42
ENDBRANCH  36  39
ENDBRANCH  33  36
ENDBRANCH   1  33
TORSDOF 17
ENDMDL
MODEL 8
REMARK VINA RESULT:     -10.1      5.732     10.931
REMARK SMILES O=C(CCCC[C@@H]1CCSS1)NCCCCCCNC(=O)c1ccc(-c2c3nc(c(-c4c(F)c(F)c(F)c(F)c4F)c4ccc([nH]4)c(-c4c(F)c(F)c(F)c(F)c4F)c4nc(c(-c5c(F)c(F)c(F)c(F)c5F)c5ccc2[nH]5)C=C4)C=C3)cc1
REMARK SMILES IDX 14 1 13 4 12 7 1 8 2 9 3 11 4 14 5 17 6 20 7 23 8 24 11 25
REMARK SMILES IDX 9 27 10 30 15 33 16 36 17 39 18 42 19 45 20 46 21 48 22 49
REMARK SMILES IDX 23 50 84 51 24 52 83 54 25 56 26 59 27 60 77 61 28 62 82 63
REMARK SMILES IDX 76 64 78 65 29 66 81 67 75 69 74 71 30 73 62 76 42 77 61 78
REMARK SMILES IDX 43 79 46 80 60 81 79 82 44 83 45 85 59 87 80 88 47 91 31 93
REMARK SMILES IDX 32 94 40 95 33 96 34 97 38 98 41 99 35 100 36 101 39 102
REMARK SMILES IDX 37 103 63 104 64 105 72 106 65 107 66 108 70 109 73 110
REMARK SMILES IDX 67 111 68 112 71 113 69 114 48 115 49 116 57 117 50 118
REMARK SMILES IDX 51 119 55 120 58 121 52 122 53 123 56 124 54 125
REMARK H PARENT 14 2 14 3 13 5 13 6 12 10 3 12 3 13 4 15 4 16 5 18 5 19 6 21
REMARK H PARENT 6 22 7 26 8 28 8 29 9 31 9 32 15 34 15 35 16 37 16 38 17 40
REMARK H PARENT 17 41 18 43 18 44 19 47 23 53 84 55 24 57 83 58 82 68 76 70
REMARK H PARENT 78 72 81 74 75 75 43 84 46 86 79 89 44 90 80 92
REMARK Flexibility Score: inf
ROOT
ATOM      1  C   UNL A   1      43.866  19.086  24.918  1.00  0.00    -0.036 C 
ATOM      2  H   UNL A   1      44.333  18.154  24.669  1.00  0.00     0.028 H 
ATOM      3  H   UNL A   1      43.196  19.443  24.164  1.00  0.00     0.028 H 
ENDROOT
BRANCH   1   4
ATOM      4  C   UNL A   1      44.962  20.144  25.048  1.00  0.00     0.017 C 
ATOM      5  H   UNL A   1      45.780  19.733  25.600  1.00  0.00     0.049 H 
ATOM      6  H   UNL A   1      45.273  20.430  24.065  1.00  0.00     0.049 H 
BRANCH   4   7
ATOM      7  N   UNL A   1      44.477  21.323  25.732  1.00  0.00    -0.356 N 
ATOM      8  O   UNL A   1      43.827  22.488  23.866  1.00  0.00    -0.275 OA
ATOM      9  C   UNL A   1      43.937  22.405  25.084  1.00  0.00     0.219 C 
ATOM     10  H   UNL A   1      44.538  21.350  26.715  1.00  0.00     0.163 HD
BRANCH   9  11
ATOM     11  C   UNL A   1      43.497  23.517  26.019  1.00  0.00     0.026 C 
ATOM     12  H   UNL A   1      44.026  23.410  26.943  1.00  0.00     0.037 H 
ATOM     13  H   UNL A   1      42.439  23.421  26.142  1.00  0.00     0.037 H 
BRANCH  11  14
ATOM     14  C   UNL A   1      43.758  24.920  25.470  1.00  0.00    -0.044 C 
ATOM     15  H   UNL A   1      42.809  25.380  25.293  1.00  0.00     0.027 H 
ATOM     16  H   UNL A   1      44.355  24.772  24.594  1.00  0.00     0.027 H 
BRANCH  14  17
ATOM     17  C   UNL A   1      44.576  25.868  26.358  1.00  0.00    -0.052 C 
ATOM     18  H   UNL A   1      45.446  25.338  26.687  1.00  0.00     0.027 H 
ATOM     19  H   UNL A   1      43.917  26.162  27.149  1.00  0.00     0.027 H 
BRANCH  17  20
ATOM     20  C   UNL A   1      45.042  27.176  25.702  1.00  0.00    -0.040 C 
ATOM     21  H   UNL A   1      44.340  27.439  24.939  1.00  0.00     0.028 H 
ATOM     22  H   UNL A   1      46.021  26.999  25.309  1.00  0.00     0.028 H 
BRANCH  20  23
ATOM     23  C   UNL A   1      45.156  28.351  26.687  1.00  0.00     0.016 C 
ATOM     24  C   UNL A   1      43.838  29.129  26.814  1.00  0.00    -0.030 C 
ATOM     25  S   UNL A   1      46.403  29.559  26.115  1.00  0.00    -0.091 SA
ATOM     26  H   UNL A   1      45.425  27.917  27.627  1.00  0.00     0.043 H 
ATOM     27  C   UNL A   1      44.068  30.434  27.567  1.00  0.00     0.005 C 
ATOM     28  H   UNL A   1      43.127  28.533  27.347  1.00  0.00     0.029 H 
ATOM     29  H   UNL A   1      43.468  29.352  25.835  1.00  0.00     0.029 H 
ATOM     30  S   UNL A   1      45.449  31.258  26.746  1.00  0.00    -0.094 SA
ATOM     31  H   UNL A   1      44.311  30.233  28.590  1.00  0.00     0.039 H 
ATOM     32  H   UNL A   1      43.190  31.045  27.562  1.00  0.00     0.039 H 
ENDBRANCH  20  23
ENDBRANCH  17  20
ENDBRANCH  14  17
ENDBRANCH  11  14
ENDBRANCH   9  11
ENDBRANCH   4   7
ENDBRANCH   1   4
BRANCH   1  33
ATOM     33  C   UNL A   1      43.014  18.868  26.178  1.00  0.00    -0.052 C 
ATOM     34  H   UNL A   1      43.534  19.299  27.006  1.00  0.00     0.027 H 
ATOM     35  H   UNL A   1      42.874  17.810  26.257  1.00  0.00     0.027 H 
BRANCH  33  36
ATOM     36  C   UNL A   1      41.608  19.474  26.136  1.00  0.00    -0.052 C 
ATOM     37  H   UNL A   1      40.916  18.687  25.917  1.00  0.00     0.027 H 
ATOM     38  H   UNL A   1      41.639  20.239  25.388  1.00  0.00     0.027 H 
BRANCH  36  39
ATOM     39  C   UNL A   1      41.153  20.160  27.424  1.00  0.00    -0.036 C 
ATOM     40  H   UNL A   1      41.943  20.076  28.141  1.00  0.00     0.028 H 
ATOM     41  H   UNL A   1      40.251  19.664  27.720  1.00  0.00     0.028 H 
BRANCH  39  42
ATOM     42  C   UNL A   1      40.795  21.638  27.289  1.00  0.00     0.018 C 
ATOM     43  H   UNL A   1      41.662  22.170  26.957  1.00  0.00     0.049 H 
ATOM     44  H   UNL A   1      40.461  21.975  28.248  1.00  0.00     0.049 H 
BRANCH  42  45
ATOM     45  N   UNL A   1      39.715  21.876  26.345  1.00  0.00    -0.352 N 
ATOM     46  C   UNL A   1      38.978  23.012  26.127  1.00  0.00     0.251 C 
ATOM     47  H   UNL A   1      39.477  21.107  25.776  1.00  0.00     0.163 HD
ATOM     48  O   UNL A   1      38.016  22.981  25.361  1.00  0.00    -0.269 OA
BRANCH  46  49
ATOM     49  C   UNL A   1      39.308  24.273  26.830  1.00  0.00     0.039 A 
ATOM     50  C   UNL A   1      38.835  24.453  28.133  1.00  0.00    -0.049 A 
ATOM     51  C   UNL A   1      40.059  25.280  26.216  1.00  0.00    -0.049 A 
ATOM     52  C   UNL A   1      39.166  25.611  28.841  1.00  0.00    -0.053 A 
ATOM     53  H   UNL A   1      38.240  23.732  28.571  1.00  0.00     0.063 H 
ATOM     54  C   UNL A   1      40.444  26.405  26.945  1.00  0.00    -0.053 A 
ATOM     55  H   UNL A   1      40.328  25.190  25.224  1.00  0.00     0.063 H 
ATOM     56  C   UNL A   1      40.003  26.581  28.265  1.00  0.00    -0.014 A 
ATOM     57  H   UNL A   1      38.795  25.753  29.793  1.00  0.00     0.063 H 
ATOM     58  H   UNL A   1      41.058  27.112  26.511  1.00  0.00     0.063 H 
BRANCH  56  59
ATOM     59  C   UNL A   1      40.438  27.766  29.049  1.00  0.00     0.031 A 
ATOM     60  C   UNL A   1      41.832  27.853  29.602  1.00  0.00     0.074 A 
ATOM     61  C   UNL A   1      39.554  28.750  29.302  1.00  0.00     0.049 A 
ATOM     62  N   UNL A   1      42.388  28.813  30.300  1.00  0.00    -0.248 NA
ATOM     63  C   UNL A   1      42.712  26.700  29.364  1.00  0.00    -0.034 C 
ATOM     64  C   UNL A   1      38.154  28.757  28.873  1.00  0.00    -0.036 A 
ATOM     65  N   UNL A   1      39.700  29.934  29.979  1.00  0.00    -0.354 N 
ATOM     66  C   UNL A   1      43.672  28.376  30.593  1.00  0.00     0.074 A 
ATOM     67  C   UNL A   1      43.799  27.043  30.040  1.00  0.00    -0.034 C 
ATOM     68  H   UNL A   1      42.532  25.846  28.813  1.00  0.00     0.065 H 
ATOM     69  C   UNL A   1      37.581  29.906  29.264  1.00  0.00    -0.036 A 
ATOM     70  H   UNL A   1      37.684  28.000  28.353  1.00  0.00     0.065 H 
ATOM     71  C   UNL A   1      38.562  30.703  29.994  1.00  0.00     0.049 A 
ATOM     72  H   UNL A   1      40.540  30.206  30.414  1.00  0.00     0.167 HD
ATOM     73  C   UNL A   1      44.661  29.032  31.246  1.00  0.00     0.037 A 
ATOM     74  H   UNL A   1      44.628  26.441  30.159  1.00  0.00     0.065 H 
ATOM     75  H   UNL A   1      36.604  30.182  29.077  1.00  0.00     0.065 H 
ATOM     76  C   UNL A   1      38.339  31.918  30.527  1.00  0.00     0.037 A 
ATOM     77  C   UNL A   1      44.543  30.369  31.770  1.00  0.00     0.049 A 
ATOM     78  C   UNL A   1      39.459  32.631  31.233  1.00  0.00     0.074 A 
ATOM     79  C   UNL A   1      45.515  31.152  32.368  1.00  0.00    -0.036 A 
ATOM     80  N   UNL A   1      43.375  31.118  31.765  1.00  0.00    -0.354 N 
ATOM     81  N   UNL A   1      40.695  32.246  31.424  1.00  0.00    -0.248 NA
ATOM     82  C   UNL A   1      39.147  33.954  31.791  1.00  0.00    -0.034 C 
ATOM     83  C   UNL A   1      44.925  32.357  32.766  1.00  0.00    -0.036 A 
ATOM     84  H   UNL A   1      46.505  30.892  32.498  1.00  0.00     0.065 H 
ATOM     85  C   UNL A   1      43.595  32.343  32.376  1.00  0.00     0.049 A 
ATOM     86  H   UNL A   1      42.516  30.824  31.384  1.00  0.00     0.167 HD
ATOM     87  C   UNL A   1      41.318  33.286  32.101  1.00  0.00     0.074 A 
ATOM     88  C   UNL A   1      40.325  34.327  32.271  1.00  0.00    -0.034 C 
ATOM     89  H   UNL A   1      38.248  34.462  31.805  1.00  0.00     0.065 H 
ATOM     90  H   UNL A   1      45.399  33.125  33.267  1.00  0.00     0.065 H 
ATOM     91  C   UNL A   1      42.597  33.369  32.544  1.00  0.00     0.037 A 
ATOM     92  H   UNL A   1      40.512  35.241  32.710  1.00  0.00     0.065 H 
BRANCH  73  93
ATOM     93  C   UNL A   1      45.964  28.310  31.433  1.00  0.00     0.064 A 
ATOM     94  C   UNL A   1      47.024  28.452  30.523  1.00  0.00     0.173 A 
ATOM     95  C   UNL A   1      46.166  27.486  32.550  1.00  0.00     0.173 A 
ATOM     96  F   UNL A   1      46.878  29.220  29.433  1.00  0.00    -0.203 F 
ATOM     97  C   UNL A   1      48.223  27.770  30.707  1.00  0.00     0.198 A 
ATOM     98  C   UNL A   1      47.378  26.828  32.748  1.00  0.00     0.198 A 
ATOM     99  F   UNL A   1      45.189  27.320  33.455  1.00  0.00    -0.203 F 
ATOM    100  F   UNL A   1      49.201  27.880  29.798  1.00  0.00    -0.200 F 
ATOM    101  C   UNL A   1      48.403  26.964  31.822  1.00  0.00     0.200 A 
ATOM    102  F   UNL A   1      47.554  26.059  33.830  1.00  0.00    -0.200 F 
ATOM    103  F   UNL A   1      49.558  26.310  31.999  1.00  0.00    -0.200 F 
ENDBRANCH  73  93
BRANCH  76 104
ATOM    104  C   UNL A   1      37.010  32.562  30.367  1.00  0.00     0.064 A 
ATOM    105  C   UNL A   1      36.035  32.444  31.368  1.00  0.00     0.173 A 
ATOM    106  C   UNL A   1      36.688  33.305  29.224  1.00  0.00     0.173 A 
ATOM    107  F   UNL A   1      36.291  31.723  32.470  1.00  0.00    -0.203 F 
ATOM    108  C   UNL A   1      34.781  33.032  31.224  1.00  0.00     0.198 A 
ATOM    109  C   UNL A   1      35.442  33.915  29.092  1.00  0.00     0.198 A 
ATOM    110  F   UNL A   1      37.588  33.450  28.241  1.00  0.00    -0.203 F 
ATOM    111  F   UNL A   1      33.853  32.871  32.177  1.00  0.00    -0.200 F 
ATOM    112  C   UNL A   1      34.487  33.773  30.088  1.00  0.00     0.200 A 
ATOM    113  F   UNL A   1      35.165  34.639  27.999  1.00  0.00    -0.200 F 
ATOM    114  F   UNL A   1      33.283  34.344  29.952  1.00  0.00    -0.200 F 
ENDBRANCH  76 104
BRANCH  91 115
ATOM    115  C   UNL A   1      42.996  34.640  33.236  1.00  0.00     0.064 A 
ATOM    116  C   UNL A   1      42.872  34.790  34.626  1.00  0.00     0.173 A 
ATOM    117  C   UNL A   1      43.514  35.717  32.503  1.00  0.00     0.173 A 
ATOM    118  F   UNL A   1      42.366  33.794  35.369  1.00  0.00    -0.203 F 
ATOM    119  C   UNL A   1      43.222  35.984  35.251  1.00  0.00     0.198 A 
ATOM    120  C   UNL A   1      43.890  36.900  33.135  1.00  0.00     0.198 A 
ATOM    121  F   UNL A   1      43.657  35.624  31.173  1.00  0.00    -0.203 F 
ATOM    122  F   UNL A   1      43.040  36.125  36.571  1.00  0.00    -0.200 F 
ATOM    123  C   UNL A   1      43.734  37.036  34.506  1.00  0.00     0.200 A 
ATOM    124  F   UNL A   1      44.395  37.911  32.415  1.00  0.00    -0.200 F 
ATOM    125  F   UNL A   1      44.067  38.185  35.109  1.00  0.00    -0.200 F 
ENDBRANCH  91 115
ENDBRANCH  56  59
ENDBRANCH  46  49
ENDBRANCH  42  45
ENDBRANCH  39  42
ENDBRANCH  36  39
ENDBRANCH  33  36
ENDBRANCH   1  33
TORSDOF 17
ENDMDL
MODEL 9
REMARK VINA RESULT:     -10.0      6.837     12.325
REMARK SMILES O=C(CCCC[C@@H]1CCSS1)NCCCCCCNC(=O)c1ccc(-c2c3nc(c(-c4c(F)c(F)c(F)c(F)c4F)c4ccc([nH]4)c(-c4c(F)c(F)c(F)c(F)c4F)c4nc(c(-c5c(F)c(F)c(F)c(F)c5F)c5ccc2[nH]5)C=C4)C=C3)cc1
REMARK SMILES IDX 14 1 13 4 12 7 1 8 2 9 3 11 4 14 5 17 6 20 7 23 8 24 11 25
REMARK SMILES IDX 9 27 10 30 15 33 16 36 17 39 18 42 19 45 20 46 21 48 22 49
REMARK SMILES IDX 23 50 84 51 24 52 83 54 25 56 26 59 27 60 77 61 28 62 82 63
REMARK SMILES IDX 76 64 78 65 29 66 81 67 75 69 74 71 30 73 62 76 42 77 61 78
REMARK SMILES IDX 43 79 46 80 60 81 79 82 44 83 45 85 59 87 80 88 47 91 31 93
REMARK SMILES IDX 32 94 40 95 33 96 34 97 38 98 41 99 35 100 36 101 39 102
REMARK SMILES IDX 37 103 63 104 64 105 72 106 65 107 66 108 70 109 73 110
REMARK SMILES IDX 67 111 68 112 71 113 69 114 48 115 49 116 57 117 50 118
REMARK SMILES IDX 51 119 55 120 58 121 52 122 53 123 56 124 54 125
REMARK H PARENT 14 2 14 3 13 5 13 6 12 10 3 12 3 13 4 15 4 16 5 18 5 19 6 21
REMARK H PARENT 6 22 7 26 8 28 8 29 9 31 9 32 15 34 15 35 16 37 16 38 17 40
REMARK H PARENT 17 41 18 43 18 44 19 47 23 53 84 55 24 57 83 58 82 68 76 70
REMARK H PARENT 78 72 81 74 75 75 43 84 46 86 79 89 44 90 80 92
REMARK Flexibility Score: inf
ROOT
ATOM      1  C   UNL A   1      40.885  21.956  27.574  1.00  0.00    -0.036 C 
ATOM      2  H   UNL A   1      40.518  21.842  28.574  1.00  0.00     0.028 H 
ATOM      3  H   UNL A   1      41.867  22.377  27.524  1.00  0.00     0.028 H 
ENDROOT
BRANCH   1   4
ATOM      4  C   UNL A   1      39.966  22.934  26.841  1.00  0.00     0.017 C 
ATOM      5  H   UNL A   1      39.393  23.480  27.561  1.00  0.00     0.049 H 
ATOM      6  H   UNL A   1      40.572  23.594  26.258  1.00  0.00     0.049 H 
BRANCH   4   7
ATOM      7  N   UNL A   1      39.062  22.240  25.950  1.00  0.00    -0.356 N 
ATOM      8  O   UNL A   1      37.272  23.651  26.207  1.00  0.00    -0.275 OA
ATOM      9  C   UNL A   1      37.781  22.660  25.695  1.00  0.00     0.219 C 
ATOM     10  H   UNL A   1      39.383  21.424  25.503  1.00  0.00     0.163 HD
BRANCH   9  11
ATOM     11  C   UNL A   1      37.030  21.769  24.723  1.00  0.00     0.026 C 
ATOM     12  H   UNL A   1      37.697  21.006  24.380  1.00  0.00     0.037 H 
ATOM     13  H   UNL A   1      36.685  22.395  23.927  1.00  0.00     0.037 H 
BRANCH  11  14
ATOM     14  C   UNL A   1      35.798  21.098  25.331  1.00  0.00    -0.044 C 
ATOM     15  H   UNL A   1      35.704  21.446  26.338  1.00  0.00     0.027 H 
ATOM     16  H   UNL A   1      35.975  20.046  25.236  1.00  0.00     0.027 H 
BRANCH  14  17
ATOM     17  C   UNL A   1      34.458  21.346  24.626  1.00  0.00    -0.052 C 
ATOM     18  H   UNL A   1      33.704  21.446  25.379  1.00  0.00     0.027 H 
ATOM     19  H   UNL A   1      34.317  20.509  23.973  1.00  0.00     0.027 H 
BRANCH  17  20
ATOM     20  C   UNL A   1      34.388  22.587  23.724  1.00  0.00    -0.040 C 
ATOM     21  H   UNL A   1      34.101  22.275  22.741  1.00  0.00     0.028 H 
ATOM     22  H   UNL A   1      35.357  23.041  23.739  1.00  0.00     0.028 H 
BRANCH  20  23
ATOM     23  C   UNL A   1      33.385  23.646  24.212  1.00  0.00     0.016 C 
ATOM     24  C   UNL A   1      34.014  24.619  25.219  1.00  0.00    -0.030 C 
ATOM     25  S   UNL A   1      31.981  22.859  25.077  1.00  0.00    -0.091 SA
ATOM     26  H   UNL A   1      33.068  24.171  23.335  1.00  0.00     0.043 H 
ATOM     27  C   UNL A   1      32.931  25.461  25.883  1.00  0.00     0.005 C 
ATOM     28  H   UNL A   1      34.700  25.262  24.709  1.00  0.00     0.029 H 
ATOM     29  H   UNL A   1      34.529  24.058  25.971  1.00  0.00     0.029 H 
ATOM     30  S   UNL A   1      31.693  24.301  26.501  1.00  0.00    -0.094 SA
ATOM     31  H   UNL A   1      32.492  26.128  25.170  1.00  0.00     0.039 H 
ATOM     32  H   UNL A   1      33.335  26.060  26.674  1.00  0.00     0.039 H 
ENDBRANCH  20  23
ENDBRANCH  17  20
ENDBRANCH  14  17
ENDBRANCH  11  14
ENDBRANCH   9  11
ENDBRANCH   4   7
ENDBRANCH   1   4
BRANCH   1  33
ATOM     33  C   UNL A   1      40.988  20.558  26.945  1.00  0.00    -0.052 C 
ATOM     34  H   UNL A   1      41.355  20.671  25.947  1.00  0.00     0.027 H 
ATOM     35  H   UNL A   1      40.005  20.139  26.999  1.00  0.00     0.027 H 
BRANCH  33  36
ATOM     36  C   UNL A   1      41.903  19.571  27.675  1.00  0.00    -0.052 C 
ATOM     37  H   UNL A   1      41.292  18.954  28.299  1.00  0.00     0.027 H 
ATOM     38  H   UNL A   1      42.606  20.168  28.218  1.00  0.00     0.027 H 
BRANCH  36  39
ATOM     39  C   UNL A   1      42.733  18.657  26.773  1.00  0.00    -0.036 C 
ATOM     40  H   UNL A   1      42.351  17.662  26.870  1.00  0.00     0.028 H 
ATOM     41  H   UNL A   1      43.747  18.762  27.099  1.00  0.00     0.028 H 
BRANCH  39  42
ATOM     42  C   UNL A   1      42.729  19.020  25.290  1.00  0.00     0.018 C 
ATOM     43  H   UNL A   1      42.549  20.070  25.196  1.00  0.00     0.049 H 
ATOM     44  H   UNL A   1      41.962  18.440  24.821  1.00  0.00     0.049 H 
BRANCH  42  45
ATOM     45  N   UNL A   1      43.982  18.702  24.624  1.00  0.00    -0.352 N 
ATOM     46  C   UNL A   1      45.040  19.518  24.317  1.00  0.00     0.251 C 
ATOM     47  H   UNL A   1      44.086  17.760  24.354  1.00  0.00     0.163 HD
ATOM     48  O   UNL A   1      45.969  19.085  23.635  1.00  0.00    -0.269 OA
BRANCH  46  49
ATOM     49  C   UNL A   1      45.064  20.927  24.769  1.00  0.00     0.039 A 
ATOM     50  C   UNL A   1      45.284  21.188  26.125  1.00  0.00    -0.049 A 
ATOM     51  C   UNL A   1      44.856  21.987  23.881  1.00  0.00    -0.049 A 
ATOM     52  C   UNL A   1      45.358  22.507  26.578  1.00  0.00    -0.053 A 
ATOM     53  H   UNL A   1      45.391  20.406  26.791  1.00  0.00     0.063 H 
ATOM     54  C   UNL A   1      44.995  23.303  24.322  1.00  0.00    -0.053 A 
ATOM     55  H   UNL A   1      44.600  21.795  22.901  1.00  0.00     0.063 H 
ATOM     56  C   UNL A   1      45.249  23.576  25.674  1.00  0.00    -0.014 A 
ATOM     57  H   UNL A   1      45.495  22.697  27.583  1.00  0.00     0.063 H 
ATOM     58  H   UNL A   1      44.912  24.081  23.648  1.00  0.00     0.063 H 
BRANCH  56  59
ATOM     59  C   UNL A   1      45.425  24.977  26.135  1.00  0.00     0.031 A 
ATOM     60  C   UNL A   1      46.768  25.647  26.066  1.00  0.00     0.074 A 
ATOM     61  C   UNL A   1      44.375  25.635  26.662  1.00  0.00     0.049 A 
ATOM     62  N   UNL A   1      47.105  26.865  26.415  1.00  0.00    -0.248 NA
ATOM     63  C   UNL A   1      47.887  24.837  25.565  1.00  0.00    -0.034 C 
ATOM     64  C   UNL A   1      43.033  25.077  26.840  1.00  0.00    -0.036 A 
ATOM     65  N   UNL A   1      44.268  26.916  27.144  1.00  0.00    -0.354 N 
ATOM     66  C   UNL A   1      48.471  26.961  26.188  1.00  0.00     0.074 A 
ATOM     67  C   UNL A   1      48.912  25.664  25.717  1.00  0.00    -0.034 C 
ATOM     68  H   UNL A   1      47.878  23.875  25.192  1.00  0.00     0.065 H 
ATOM     69  C   UNL A   1      42.230  26.020  27.356  1.00  0.00    -0.036 A 
ATOM     70  H   UNL A   1      42.750  24.112  26.606  1.00  0.00     0.065 H 
ATOM     71  C   UNL A   1      43.004  27.239  27.571  1.00  0.00     0.049 A 
ATOM     72  H   UNL A   1      45.026  27.542  27.181  1.00  0.00     0.167 HD
ATOM     73  C   UNL A   1      49.280  28.036  26.338  1.00  0.00     0.037 A 
ATOM     74  H   UNL A   1      49.895  25.417  25.527  1.00  0.00     0.065 H 
ATOM     75  H   UNL A   1      41.226  25.903  27.566  1.00  0.00     0.065 H 
ATOM     76  C   UNL A   1      42.521  28.392  28.070  1.00  0.00     0.037 A 
ATOM     77  C   UNL A   1      48.836  29.335  26.778  1.00  0.00     0.049 A 
ATOM     78  C   UNL A   1      43.438  29.575  28.212  1.00  0.00     0.074 A 
ATOM     79  C   UNL A   1      49.561  30.510  26.877  1.00  0.00    -0.036 A 
ATOM     80  N   UNL A   1      47.546  29.626  27.200  1.00  0.00    -0.354 N 
ATOM     81  N   UNL A   1      44.707  29.681  27.907  1.00  0.00    -0.248 NA
ATOM     82  C   UNL A   1      42.846  30.803  28.762  1.00  0.00    -0.034 C 
ATOM     83  C   UNL A   1      48.724  31.500  27.402  1.00  0.00    -0.036 A 
ATOM     84  H   UNL A   1      50.549  30.634  26.609  1.00  0.00     0.065 H 
ATOM     85  C   UNL A   1      47.464  30.955  27.588  1.00  0.00     0.049 A 
ATOM     86  H   UNL A   1      46.800  28.984  27.221  1.00  0.00     0.167 HD
ATOM     87  C   UNL A   1      45.062  30.990  28.204  1.00  0.00     0.074 A 
ATOM     88  C   UNL A   1      43.868  31.645  28.696  1.00  0.00    -0.034 C 
ATOM     89  H   UNL A   1      41.887  30.967  29.108  1.00  0.00     0.065 H 
ATOM     90  H   UNL A   1      48.998  32.471  27.616  1.00  0.00     0.065 H 
ATOM     91  C   UNL A   1      46.271  31.594  28.082  1.00  0.00     0.037 A 
ATOM     92  H   UNL A   1      43.819  32.641  28.961  1.00  0.00     0.065 H 
BRANCH  73  93
ATOM     93  C   UNL A   1      50.738  27.855  26.024  1.00  0.00     0.064 A 
ATOM     94  C   UNL A   1      51.230  27.964  24.714  1.00  0.00     0.173 A 
ATOM     95  C   UNL A   1      51.659  27.596  27.050  1.00  0.00     0.173 A 
ATOM     96  F   UNL A   1      50.389  28.201  23.695  1.00  0.00    -0.203 F 
ATOM     97  C   UNL A   1      52.583  27.787  24.439  1.00  0.00     0.198 A 
ATOM     98  C   UNL A   1      53.016  27.448  26.776  1.00  0.00     0.198 A 
ATOM     99  F   UNL A   1      51.243  27.489  28.321  1.00  0.00    -0.203 F 
ATOM    100  F   UNL A   1      53.021  27.843  23.174  1.00  0.00    -0.200 F 
ATOM    101  C   UNL A   1      53.476  27.535  25.470  1.00  0.00     0.200 A 
ATOM    102  F   UNL A   1      53.880  27.216  27.774  1.00  0.00    -0.200 F 
ATOM    103  F   UNL A   1      54.779  27.366  25.204  1.00  0.00    -0.200 F 
ENDBRANCH  73  93
BRANCH  76 104
ATOM    104  C   UNL A   1      41.082  28.499  28.424  1.00  0.00     0.064 A 
ATOM    105  C   UNL A   1      40.633  28.133  29.700  1.00  0.00     0.173 A 
ATOM    106  C   UNL A   1      40.134  28.967  27.505  1.00  0.00     0.173 A 
ATOM    107  F   UNL A   1      41.502  27.658  30.605  1.00  0.00    -0.203 F 
ATOM    108  C   UNL A   1      39.284  28.216  30.040  1.00  0.00     0.198 A 
ATOM    109  C   UNL A   1      38.789  29.075  27.854  1.00  0.00     0.198 A 
ATOM    110  F   UNL A   1      40.516  29.333  26.273  1.00  0.00    -0.203 F 
ATOM    111  F   UNL A   1      38.875  27.823  31.253  1.00  0.00    -0.200 F 
ATOM    112  C   UNL A   1      38.364  28.693  29.118  1.00  0.00     0.200 A 
ATOM    113  F   UNL A   1      37.904  29.546  26.965  1.00  0.00    -0.200 F 
ATOM    114  F   UNL A   1      37.068  28.779  29.446  1.00  0.00    -0.200 F 
ENDBRANCH  76 104
BRANCH  91 115
ATOM    115  C   UNL A   1      46.349  33.042  28.469  1.00  0.00     0.064 A 
ATOM    116  C   UNL A   1      46.685  33.437  29.773  1.00  0.00     0.173 A 
ATOM    117  C   UNL A   1      46.094  34.046  27.523  1.00  0.00     0.173 A 
ATOM    118  F   UNL A   1      46.921  32.514  30.717  1.00  0.00    -0.203 F 
ATOM    119  C   UNL A   1      46.728  34.783  30.124  1.00  0.00     0.198 A 
ATOM    120  C   UNL A   1      46.167  35.392  27.871  1.00  0.00     0.198 A 
ATOM    121  F   UNL A   1      45.774  33.722  26.262  1.00  0.00    -0.203 F 
ATOM    122  F   UNL A   1      46.994  35.135  31.389  1.00  0.00    -0.200 F 
ATOM    123  C   UNL A   1      46.474  35.760  29.172  1.00  0.00     0.200 A 
ATOM    124  F   UNL A   1      45.932  36.335  26.947  1.00  0.00    -0.200 F 
ATOM    125  F   UNL A   1      46.514  37.055  29.512  1.00  0.00    -0.200 F 
ENDBRANCH  91 115
ENDBRANCH  56  59
ENDBRANCH  46  49
ENDBRANCH  42  45
ENDBRANCH  39  42
ENDBRANCH  36  39
ENDBRANCH  33  36
ENDBRANCH   1  33
TORSDOF 17
ENDMDL
MODEL 10
REMARK VINA RESULT:     -10.0      6.608     12.049
REMARK SMILES O=C(CCCC[C@@H]1CCSS1)NCCCCCCNC(=O)c1ccc(-c2c3nc(c(-c4c(F)c(F)c(F)c(F)c4F)c4ccc([nH]4)c(-c4c(F)c(F)c(F)c(F)c4F)c4nc(c(-c5c(F)c(F)c(F)c(F)c5F)c5ccc2[nH]5)C=C4)C=C3)cc1
REMARK SMILES IDX 14 1 13 4 12 7 1 8 2 9 3 11 4 14 5 17 6 20 7 23 8 24 11 25
REMARK SMILES IDX 9 27 10 30 15 33 16 36 17 39 18 42 19 45 20 46 21 48 22 49
REMARK SMILES IDX 23 50 84 51 24 52 83 54 25 56 26 59 27 60 77 61 28 62 82 63
REMARK SMILES IDX 76 64 78 65 29 66 81 67 75 69 74 71 30 73 62 76 42 77 61 78
REMARK SMILES IDX 43 79 46 80 60 81 79 82 44 83 45 85 59 87 80 88 47 91 31 93
REMARK SMILES IDX 32 94 40 95 33 96 34 97 38 98 41 99 35 100 36 101 39 102
REMARK SMILES IDX 37 103 63 104 64 105 72 106 65 107 66 108 70 109 73 110
REMARK SMILES IDX 67 111 68 112 71 113 69 114 48 115 49 116 57 117 50 118
REMARK SMILES IDX 51 119 55 120 58 121 52 122 53 123 56 124 54 125
REMARK H PARENT 14 2 14 3 13 5 13 6 12 10 3 12 3 13 4 15 4 16 5 18 5 19 6 21
REMARK H PARENT 6 22 7 26 8 28 8 29 9 31 9 32 15 34 15 35 16 37 16 38 17 40
REMARK H PARENT 17 41 18 43 18 44 19 47 23 53 84 55 24 57 83 58 82 68 76 70
REMARK H PARENT 78 72 81 74 75 75 43 84 46 86 79 89 44 90 80 92
REMARK Flexibility Score: inf
ROOT
ATOM      1  C   UNL A   1      39.988  22.585  26.703  1.00  0.00    -0.036 C 
ATOM      2  H   UNL A   1      39.715  22.806  27.715  1.00  0.00     0.028 H 
ATOM      3  H   UNL A   1      40.085  23.453  26.087  1.00  0.00     0.028 H 
ENDROOT
BRANCH   1   4
ATOM      4  C   UNL A   1      38.869  21.747  26.084  1.00  0.00     0.017 C 
ATOM      5  H   UNL A   1      39.288  20.850  25.678  1.00  0.00     0.049 H 
ATOM      6  H   UNL A   1      38.155  21.520  26.847  1.00  0.00     0.049 H 
BRANCH   4   7
ATOM      7  N   UNL A   1      38.193  22.470  25.028  1.00  0.00    -0.356 N 
ATOM      8  O   UNL A   1      36.517  20.946  24.669  1.00  0.00    -0.275 OA
ATOM      9  C   UNL A   1      37.059  22.013  24.405  1.00  0.00     0.219 C 
ATOM     10  H   UNL A   1      38.567  23.334  24.741  1.00  0.00     0.163 HD
BRANCH   9  11
ATOM     11  C   UNL A   1      36.534  22.950  23.333  1.00  0.00     0.026 C 
ATOM     12  H   UNL A   1      36.418  22.394  22.426  1.00  0.00     0.037 H 
ATOM     13  H   UNL A   1      37.245  23.743  23.237  1.00  0.00     0.037 H 
BRANCH  11  14
ATOM     14  C   UNL A   1      35.191  23.593  23.683  1.00  0.00    -0.044 C 
ATOM     15  H   UNL A   1      34.482  22.804  23.826  1.00  0.00     0.027 H 
ATOM     16  H   UNL A   1      34.972  24.248  22.865  1.00  0.00     0.027 H 
BRANCH  14  17
ATOM     17  C   UNL A   1      35.156  24.483  24.933  1.00  0.00    -0.052 C 
ATOM     18  H   UNL A   1      36.015  25.120  24.905  1.00  0.00     0.027 H 
ATOM     19  H   UNL A   1      35.136  23.809  25.765  1.00  0.00     0.027 H 
BRANCH  17  20
ATOM     20  C   UNL A   1      33.915  25.373  25.094  1.00  0.00    -0.040 C 
ATOM     21  H   UNL A   1      33.424  25.443  24.146  1.00  0.00     0.028 H 
ATOM     22  H   UNL A   1      34.254  26.324  25.448  1.00  0.00     0.028 H 
BRANCH  20  23
ATOM     23  C   UNL A   1      32.907  24.841  26.126  1.00  0.00     0.016 C 
ATOM     24  C   UNL A   1      33.271  23.434  26.620  1.00  0.00    -0.030 C 
ATOM     25  S   UNL A   1      31.239  24.703  25.392  1.00  0.00    -0.091 SA
ATOM     26  H   UNL A   1      32.927  25.538  26.938  1.00  0.00     0.043 H 
ATOM     27  C   UNL A   1      32.114  22.838  27.412  1.00  0.00     0.005 C 
ATOM     28  H   UNL A   1      34.136  23.493  27.247  1.00  0.00     0.029 H 
ATOM     29  H   UNL A   1      33.475  22.809  25.775  1.00  0.00     0.029 H 
ATOM     30  S   UNL A   1      30.647  23.005  26.371  1.00  0.00    -0.094 SA
ATOM     31  H   UNL A   1      31.980  23.371  28.330  1.00  0.00     0.039 H 
ATOM     32  H   UNL A   1      32.301  21.814  27.662  1.00  0.00     0.039 H 
ENDBRANCH  20  23
ENDBRANCH  17  20
ENDBRANCH  14  17
ENDBRANCH  11  14
ENDBRANCH   9  11
ENDBRANCH   4   7
ENDBRANCH   1   4
BRANCH   1  33
ATOM     33  C   UNL A   1      41.372  21.918  26.720  1.00  0.00    -0.052 C 
ATOM     34  H   UNL A   1      42.004  22.485  27.369  1.00  0.00     0.027 H 
ATOM     35  H   UNL A   1      41.701  21.900  25.701  1.00  0.00     0.027 H 
BRANCH  33  36
ATOM     36  C   UNL A   1      41.397  20.461  27.192  1.00  0.00    -0.052 C 
ATOM     37  H   UNL A   1      40.423  20.218  27.563  1.00  0.00     0.027 H 
ATOM     38  H   UNL A   1      42.165  20.405  27.935  1.00  0.00     0.027 H 
BRANCH  36  39
ATOM     39  C   UNL A   1      41.767  19.432  26.124  1.00  0.00    -0.036 C 
ATOM     40  H   UNL A   1      41.798  19.933  25.179  1.00  0.00     0.028 H 
ATOM     41  H   UNL A   1      41.020  18.668  26.180  1.00  0.00     0.028 H 
BRANCH  39  42
ATOM     42  C   UNL A   1      43.106  18.728  26.327  1.00  0.00     0.018 C 
ATOM     43  H   UNL A   1      42.920  17.745  26.708  1.00  0.00     0.049 H 
ATOM     44  H   UNL A   1      43.678  19.320  27.010  1.00  0.00     0.049 H 
BRANCH  42  45
ATOM     45  N   UNL A   1      43.878  18.611  25.101  1.00  0.00    -0.352 N 
ATOM     46  C   UNL A   1      44.516  19.583  24.373  1.00  0.00     0.251 C 
ATOM     47  H   UNL A   1      43.956  17.698  24.740  1.00  0.00     0.163 HD
ATOM     48  O   UNL A   1      45.021  19.302  23.287  1.00  0.00    -0.269 OA
BRANCH  46  49
ATOM     49  C   UNL A   1      44.578  20.977  24.866  1.00  0.00     0.039 A 
ATOM     50  C   UNL A   1      45.168  21.218  26.111  1.00  0.00    -0.049 A 
ATOM     51  C   UNL A   1      44.049  22.041  24.129  1.00  0.00    -0.049 A 
ATOM     52  C   UNL A   1      45.284  22.527  26.586  1.00  0.00    -0.053 A 
ATOM     53  H   UNL A   1      45.516  20.431  26.679  1.00  0.00     0.063 H 
ATOM     54  C   UNL A   1      44.224  23.352  24.572  1.00  0.00    -0.053 A 
ATOM     55  H   UNL A   1      43.531  21.855  23.257  1.00  0.00     0.063 H 
ATOM     56  C   UNL A   1      44.844  23.608  25.804  1.00  0.00    -0.014 A 
ATOM     57  H   UNL A   1      45.696  22.701  27.516  1.00  0.00     0.063 H 
ATOM     58  H   UNL A   1      43.896  24.138  23.990  1.00  0.00     0.063 H 
BRANCH  56  59
ATOM     59  C   UNL A   1      45.054  25.006  26.261  1.00  0.00     0.031 A 
ATOM     60  C   UNL A   1      46.404  25.657  26.150  1.00  0.00     0.074 A 
ATOM     61  C   UNL A   1      44.030  25.678  26.821  1.00  0.00     0.049 A 
ATOM     62  N   UNL A   1      46.768  26.870  26.489  1.00  0.00    -0.248 NA
ATOM     63  C   UNL A   1      47.495  24.832  25.613  1.00  0.00    -0.034 C 
ATOM     64  C   UNL A   1      42.687  25.138  27.041  1.00  0.00    -0.036 A 
ATOM     65  N   UNL A   1      43.957  26.959  27.307  1.00  0.00    -0.354 N 
ATOM     66  C   UNL A   1      48.128  26.947  26.219  1.00  0.00     0.074 A 
ATOM     67  C   UNL A   1      48.535  25.645  25.733  1.00  0.00    -0.034 C 
ATOM     68  H   UNL A   1      47.461  23.871  25.239  1.00  0.00     0.065 H 
ATOM     69  C   UNL A   1      41.914  26.092  27.583  1.00  0.00    -0.036 A 
ATOM     70  H   UNL A   1      42.383  24.178  26.816  1.00  0.00     0.065 H 
ATOM     71  C   UNL A   1      42.711  27.299  27.775  1.00  0.00     0.049 A 
ATOM     72  H   UNL A   1      44.725  27.575  27.321  1.00  0.00     0.167 HD
ATOM     73  C   UNL A   1      48.956  28.011  26.344  1.00  0.00     0.037 A 
ATOM     74  H   UNL A   1      49.508  25.384  25.512  1.00  0.00     0.065 H 
ATOM     75  H   UNL A   1      40.916  25.988  27.824  1.00  0.00     0.065 H 
ATOM     76  C   UNL A   1      42.260  28.458  28.290  1.00  0.00     0.037 A 
ATOM     77  C   UNL A   1      48.544  29.315  26.799  1.00  0.00     0.049 A 
ATOM     78  C   UNL A   1      43.198  29.628  28.404  1.00  0.00     0.074 A 
ATOM     79  C   UNL A   1      49.288  30.479  26.876  1.00  0.00    -0.036 A 
ATOM     80  N   UNL A   1      47.273  29.623  27.262  1.00  0.00    -0.354 N 
ATOM     81  N   UNL A   1      44.458  29.717  28.059  1.00  0.00    -0.248 NA
ATOM     82  C   UNL A   1      42.641  30.863  28.973  1.00  0.00    -0.034 C 
ATOM     83  C   UNL A   1      48.482  31.480  27.429  1.00  0.00    -0.036 A 
ATOM     84  H   UNL A   1      50.270  30.590  26.577  1.00  0.00     0.065 H 
ATOM     85  C   UNL A   1      47.221  30.952  27.654  1.00  0.00     0.049 A 
ATOM     86  H   UNL A   1      46.519  28.992  27.306  1.00  0.00     0.167 HD
ATOM     87  C   UNL A   1      44.841  31.020  28.346  1.00  0.00     0.074 A 
ATOM     88  C   UNL A   1      43.672  31.691  28.876  1.00  0.00    -0.034 C 
ATOM     89  H   UNL A   1      41.696  31.040  29.349  1.00  0.00     0.065 H 
ATOM     90  H   UNL A   1      48.777  32.447  27.635  1.00  0.00     0.065 H 
ATOM     91  C   UNL A   1      46.053  31.607  28.186  1.00  0.00     0.037 A 
ATOM     92  H   UNL A   1      43.645  32.688  29.143  1.00  0.00     0.065 H 
BRANCH  73  93
ATOM     93  C   UNL A   1      50.400  27.810  25.984  1.00  0.00     0.064 A 
ATOM     94  C   UNL A   1      51.370  27.520  26.956  1.00  0.00     0.173 A 
ATOM     95  C   UNL A   1      50.815  27.882  24.646  1.00  0.00     0.173 A 
ATOM     96  F   UNL A   1      51.027  27.451  28.252  1.00  0.00    -0.203 F 
ATOM     97  C   UNL A   1      52.706  27.344  26.606  1.00  0.00     0.198 A 
ATOM     98  C   UNL A   1      52.147  27.675  24.295  1.00  0.00     0.198 A 
ATOM     99  F   UNL A   1      49.928  28.149  23.675  1.00  0.00    -0.203 F 
ATOM    100  F   UNL A   1      53.623  27.120  27.558  1.00  0.00    -0.200 F 
ATOM    101  C   UNL A   1      53.093  27.415  25.277  1.00  0.00     0.200 A 
ATOM    102  F   UNL A   1      52.519  27.733  23.009  1.00  0.00    -0.200 F 
ATOM    103  F   UNL A   1      54.379  27.243  24.941  1.00  0.00    -0.200 F 
ENDBRANCH  73  93
BRANCH  76 104
ATOM    104  C   UNL A   1      40.835  28.584  28.689  1.00  0.00     0.064 A 
ATOM    105  C   UNL A   1      39.871  29.010  27.765  1.00  0.00     0.173 A 
ATOM    106  C   UNL A   1      40.409  28.283  29.989  1.00  0.00     0.173 A 
ATOM    107  F   UNL A   1      40.237  29.331  26.515  1.00  0.00    -0.203 F 
ATOM    108  C   UNL A   1      38.534  29.144  28.131  1.00  0.00     0.198 A 
ATOM    109  C   UNL A   1      39.067  28.393  30.347  1.00  0.00     0.198 A 
ATOM    110  F   UNL A   1      41.293  27.869  30.907  1.00  0.00    -0.203 F 
ATOM    111  F   UNL A   1      37.639  29.590  27.239  1.00  0.00    -0.200 F 
ATOM    112  C   UNL A   1      38.131  28.829  29.420  1.00  0.00     0.200 A 
ATOM    113  F   UNL A   1      38.679  28.077  31.590  1.00  0.00    -0.200 F 
ATOM    114  F   UNL A   1      36.845  28.953  29.771  1.00  0.00    -0.200 F 
ENDBRANCH  76 104
BRANCH  91 115
ATOM    115  C   UNL A   1      46.164  33.054  28.571  1.00  0.00     0.064 A 
ATOM    116  C   UNL A   1      45.897  34.081  27.654  1.00  0.00     0.173 A 
ATOM    117  C   UNL A   1      46.535  33.416  29.875  1.00  0.00     0.173 A 
ATOM    118  F   UNL A   1      45.556  33.785  26.391  1.00  0.00    -0.203 F 
ATOM    119  C   UNL A   1      46.030  35.418  28.018  1.00  0.00     0.198 A 
ATOM    120  C   UNL A   1      46.637  34.755  30.243  1.00  0.00     0.198 A 
ATOM    121  F   UNL A   1      46.796  32.474  30.792  1.00  0.00    -0.203 F 
ATOM    122  F   UNL A   1      45.826  36.381  27.109  1.00  0.00    -0.200 F 
ATOM    123  C   UNL A   1      46.395  35.754  29.313  1.00  0.00     0.200 A 
ATOM    124  F   UNL A   1      46.980  35.078  31.499  1.00  0.00    -0.200 F 
ATOM    125  F   UNL A   1      46.524  37.042  29.661  1.00  0.00    -0.200 F 
ENDBRANCH  91 115
ENDBRANCH  56  59
ENDBRANCH  46  49
ENDBRANCH  42  45
ENDBRANCH  39  42
ENDBRANCH  36  39
ENDBRANCH  33  36
ENDBRANCH   1  33
TORSDOF 17
ENDMDL
