MODEL 1
REMARK VINA RESULT:     -13.3      0.000      0.000
REMARK SMILES CCc1cc(C(=O)c2[nH]c3cc(Cl)ccc3c2CC(=O)NCCCCCCNC(=O)c2ccc(-c3c4nc(c(-c5c(F)c(F)c(F)c(F)c5F)c5ccc([nH]5)c(-c5c(F)c(F)c(F)c(F)c5F)c5nc(c(-c6c(F)c(F)c(F)c(F)c6F)c6ccc3[nH]6)C=C5)C=C4)cc2)ncc1Cl
REMARK SMILES IDX 23 1 22 4 21 7 19 8 20 9 18 11 17 14 8 15 9 16 10 17 16 19
REMARK SMILES IDX 11 20 15 21 12 22 14 24 13 26 6 28 7 29 5 30 3 31 4 32 96 33
REMARK SMILES IDX 95 35 97 36 94 37 2 39 1 42 24 46 25 49 26 52 27 55 28 58
REMARK SMILES IDX 29 59 30 61 31 62 32 63 93 64 33 65 92 67 34 69 35 72 36 73
REMARK SMILES IDX 86 74 37 75 91 76 85 77 87 78 38 79 90 80 84 82 83 84 39 86
REMARK SMILES IDX 71 89 51 90 70 91 52 92 55 93 69 94 88 95 53 96 54 98 68 100
REMARK SMILES IDX 89 101 56 104 40 106 41 107 49 108 42 109 43 110 47 111
REMARK SMILES IDX 50 112 44 113 45 114 48 115 46 116 72 117 73 118 81 119
REMARK SMILES IDX 74 120 75 121 79 122 82 123 76 124 77 125 80 126 78 127
REMARK SMILES IDX 57 128 58 129 66 130 59 131 60 132 64 133 67 134 61 135
REMARK SMILES IDX 62 136 65 137 63 138
REMARK H PARENT 23 2 23 3 22 5 22 6 21 10 18 12 18 13 9 18 11 23 15 25 14 27
REMARK H PARENT 4 34 95 38 2 40 2 41 1 43 1 44 1 45 24 47 24 48 25 50 25 51
REMARK H PARENT 26 53 26 54 27 56 27 57 28 60 32 66 93 68 33 70 92 71 91 81
REMARK H PARENT 85 83 87 85 90 87 84 88 52 97 55 99 88 102 53 103 89 105
REMARK Flexibility Score: inf
ROOT
ATOM      1  C   UNL A   1      31.868  28.593  27.367  1.00  0.00    -0.036 C 
ATOM      2  H   UNL A   1      32.558  28.200  28.084  1.00  0.00     0.028 H 
ATOM      3  H   UNL A   1      30.897  28.785  27.771  1.00  0.00     0.028 H 
ENDROOT
BRANCH   1   4
ATOM      4  C   UNL A   1      31.675  27.545  26.271  1.00  0.00     0.017 C 
ATOM      5  H   UNL A   1      30.985  27.929  25.547  1.00  0.00     0.049 H 
ATOM      6  H   UNL A   1      32.633  27.349  25.838  1.00  0.00     0.049 H 
BRANCH   4   7
ATOM      7  N   UNL A   1      31.159  26.291  26.781  1.00  0.00    -0.356 N 
ATOM      8  C   UNL A   1      31.629  25.022  26.602  1.00  0.00     0.224 C 
ATOM      9  O   UNL A   1      31.085  24.104  27.220  1.00  0.00    -0.275 OA
ATOM     10  H   UNL A   1      30.352  26.365  27.340  1.00  0.00     0.163 HD
BRANCH   8  11
ATOM     11  C   UNL A   1      32.861  24.759  25.750  1.00  0.00     0.055 C 
ATOM     12  H   UNL A   1      33.324  25.700  25.537  1.00  0.00     0.042 H 
ATOM     13  H   UNL A   1      33.484  24.100  26.317  1.00  0.00     0.042 H 
BRANCH  11  14
ATOM     14  C   UNL A   1      32.592  24.066  24.444  1.00  0.00    -0.002 A 
ATOM     15  C   UNL A   1      32.315  24.654  23.213  1.00  0.00     0.093 A 
ATOM     16  N   UNL A   1      32.244  23.646  22.281  1.00  0.00    -0.351 N 
ATOM     17  C   UNL A   1      32.297  22.418  22.891  1.00  0.00     0.048 A 
ATOM     18  H   UNL A   1      32.167  23.786  21.310  1.00  0.00     0.167 HD
ATOM     19  C   UNL A   1      32.513  22.646  24.249  1.00  0.00     0.004 A 
ATOM     20  C   UNL A   1      32.182  21.135  22.342  1.00  0.00    -0.019 A 
ATOM     21  C   UNL A   1      32.616  21.529  25.107  1.00  0.00    -0.051 A 
ATOM     22  C   UNL A   1      32.283  20.051  23.217  1.00  0.00     0.043 A 
ATOM     23  H   UNL A   1      32.027  20.997  21.331  1.00  0.00     0.066 H 
ATOM     24  C   UNL A   1      32.496  20.237  24.579  1.00  0.00    -0.043 A 
ATOM     25  H   UNL A   1      32.778  21.663  26.117  1.00  0.00     0.063 H 
ATOM     26  Cl  UNL A   1      32.142  18.452  22.593  1.00  0.00    -0.084 Cl
ATOM     27  H   UNL A   1      32.568  19.419  25.204  1.00  0.00     0.064 H 
BRANCH  15  28
ATOM     28  C   UNL A   1      32.186  26.056  22.860  1.00  0.00     0.227 C 
ATOM     29  O   UNL A   1      33.144  26.686  22.420  1.00  0.00    -0.285 OA
BRANCH  28  30
ATOM     30  C   UNL A   1      30.822  26.697  22.978  1.00  0.00     0.113 A 
ATOM     31  C   UNL A   1      29.295  28.570  22.693  1.00  0.00    -0.026 A 
ATOM     32  C   UNL A   1      30.564  27.988  22.507  1.00  0.00    -0.028 A 
ATOM     33  C   UNL A   1      28.313  27.802  23.328  1.00  0.00     0.062 A 
ATOM     34  H   UNL A   1      31.307  28.516  22.022  1.00  0.00     0.065 H 
ATOM     35  C   UNL A   1      28.650  26.523  23.757  1.00  0.00     0.047 A 
ATOM     36  Cl  UNL A   1      26.711  28.367  23.610  1.00  0.00    -0.082 Cl
ATOM     37  N   UNL A   1      29.874  25.963  23.610  1.00  0.00    -0.251 NA
ATOM     38  H   UNL A   1      27.917  25.962  24.219  1.00  0.00     0.086 H 
BRANCH  31  39
ATOM     39  C   UNL A   1      29.076  29.996  22.236  1.00  0.00    -0.029 C 
ATOM     40  H   UNL A   1      29.904  30.287  21.624  1.00  0.00     0.031 H 
ATOM     41  H   UNL A   1      28.151  30.019  21.698  1.00  0.00     0.031 H 
BRANCH  39  42
ATOM     42  C   UNL A   1      28.955  30.982  23.390  1.00  0.00    -0.061 C 
ATOM     43  H   UNL A   1      29.276  30.511  24.296  1.00  0.00     0.023 H 
ATOM     44  H   UNL A   1      27.937  31.292  23.489  1.00  0.00     0.023 H 
ATOM     45  H   UNL A   1      29.571  31.835  23.196  1.00  0.00     0.023 H 
ENDBRANCH  39  42
ENDBRANCH  31  39
ENDBRANCH  28  30
ENDBRANCH  15  28
ENDBRANCH  11  14
ENDBRANCH   8  11
ENDBRANCH   4   7
ENDBRANCH   1   4
BRANCH   1  46
ATOM     46  C   UNL A   1      32.405  29.946  26.883  1.00  0.00    -0.052 C 
ATOM     47  H   UNL A   1      33.248  29.757  26.252  1.00  0.00     0.027 H 
ATOM     48  H   UNL A   1      32.636  30.498  27.771  1.00  0.00     0.027 H 
BRANCH  46  49
ATOM     49  C   UNL A   1      31.420  30.821  26.100  1.00  0.00    -0.052 C 
ATOM     50  H   UNL A   1      30.448  30.385  26.197  1.00  0.00     0.027 H 
ATOM     51  H   UNL A   1      31.793  30.845  25.097  1.00  0.00     0.027 H 
BRANCH  49  52
ATOM     52  C   UNL A   1      31.322  32.286  26.538  1.00  0.00    -0.036 C 
ATOM     53  H   UNL A   1      30.501  32.372  27.217  1.00  0.00     0.028 H 
ATOM     54  H   UNL A   1      31.204  32.851  25.636  1.00  0.00     0.028 H 
BRANCH  52  55
ATOM     55  C   UNL A   1      32.561  32.860  27.226  1.00  0.00     0.018 C 
ATOM     56  H   UNL A   1      33.376  32.848  26.531  1.00  0.00     0.049 H 
ATOM     57  H   UNL A   1      32.763  32.254  28.085  1.00  0.00     0.049 H 
BRANCH  55  58
ATOM     58  N   UNL A   1      32.367  34.223  27.688  1.00  0.00    -0.352 N 
ATOM     59  C   UNL A   1      33.030  34.919  28.669  1.00  0.00     0.251 C 
ATOM     60  H   UNL A   1      31.653  34.723  27.230  1.00  0.00     0.163 HD
ATOM     61  O   UNL A   1      32.633  36.032  29.004  1.00  0.00    -0.269 OA
BRANCH  59  62
ATOM     62  C   UNL A   1      34.210  34.337  29.350  1.00  0.00     0.039 A 
ATOM     63  C   UNL A   1      34.012  33.653  30.556  1.00  0.00    -0.049 A 
ATOM     64  C   UNL A   1      35.507  34.513  28.855  1.00  0.00    -0.049 A 
ATOM     65  C   UNL A   1      35.101  33.103  31.238  1.00  0.00    -0.053 A 
ATOM     66  H   UNL A   1      33.060  33.556  30.941  1.00  0.00     0.063 H 
ATOM     67  C   UNL A   1      36.592  33.941  29.524  1.00  0.00    -0.053 A 
ATOM     68  H   UNL A   1      35.661  35.064  27.996  1.00  0.00     0.063 H 
ATOM     69  C   UNL A   1      36.397  33.231  30.718  1.00  0.00    -0.014 A 
ATOM     70  H   UNL A   1      34.950  32.600  32.126  1.00  0.00     0.063 H 
ATOM     71  H   UNL A   1      37.543  34.043  29.138  1.00  0.00     0.063 H 
BRANCH  69  72
ATOM     72  C   UNL A   1      37.557  32.620  31.411  1.00  0.00     0.031 A 
ATOM     73  C   UNL A   1      38.304  31.481  30.783  1.00  0.00     0.074 A 
ATOM     74  C   UNL A   1      37.904  33.056  32.635  1.00  0.00     0.049 A 
ATOM     75  N   UNL A   1      39.281  30.762  31.278  1.00  0.00    -0.248 NA
ATOM     76  C   UNL A   1      37.891  31.088  29.428  1.00  0.00    -0.034 C 
ATOM     77  C   UNL A   1      37.245  34.138  33.366  1.00  0.00    -0.036 A 
ATOM     78  N   UNL A   1      38.892  32.628  33.486  1.00  0.00    -0.354 N 
ATOM     79  C   UNL A   1      39.578  29.812  30.311  1.00  0.00     0.074 A 
ATOM     80  C   UNL A   1      38.682  30.049  29.197  1.00  0.00    -0.034 C 
ATOM     81  H   UNL A   1      37.174  31.510  28.817  1.00  0.00     0.065 H 
ATOM     82  C   UNL A   1      37.844  34.288  34.559  1.00  0.00    -0.036 A 
ATOM     83  H   UNL A   1      36.448  34.695  33.021  1.00  0.00     0.065 H 
ATOM     84  C   UNL A   1      38.917  33.304  34.680  1.00  0.00     0.049 A 
ATOM     85  H   UNL A   1      39.523  31.907  33.262  1.00  0.00     0.167 HD
ATOM     86  C   UNL A   1      40.509  28.830  30.350  1.00  0.00     0.037 A 
ATOM     87  H   UNL A   1      38.663  29.482  28.334  1.00  0.00     0.065 H 
ATOM     88  H   UNL A   1      37.589  34.987  35.274  1.00  0.00     0.065 H 
ATOM     89  C   UNL A   1      39.708  33.140  35.756  1.00  0.00     0.037 A 
ATOM     90  C   UNL A   1      41.430  28.612  31.433  1.00  0.00     0.049 A 
ATOM     91  C   UNL A   1      40.771  32.081  35.751  1.00  0.00     0.074 A 
ATOM     92  C   UNL A   1      42.444  27.673  31.530  1.00  0.00    -0.036 A 
ATOM     93  N   UNL A   1      41.455  29.350  32.605  1.00  0.00    -0.354 N 
ATOM     94  N   UNL A   1      41.054  31.204  34.823  1.00  0.00    -0.248 NA
ATOM     95  C   UNL A   1      41.622  31.989  36.948  1.00  0.00    -0.034 C 
ATOM     96  C   UNL A   1      43.077  27.837  32.768  1.00  0.00    -0.036 A 
ATOM     97  H   UNL A   1      42.691  26.973  30.812  1.00  0.00     0.065 H 
ATOM     98  C   UNL A   1      42.462  28.884  33.435  1.00  0.00     0.049 A 
ATOM     99  H   UNL A   1      40.847  30.094  32.817  1.00  0.00     0.167 HD
ATOM    100  C   UNL A   1      42.116  30.459  35.315  1.00  0.00     0.074 A 
ATOM    101  C   UNL A   1      42.433  30.992  36.624  1.00  0.00    -0.034 C 
ATOM    102  H   UNL A   1      41.595  32.554  37.811  1.00  0.00     0.065 H 
ATOM    103  H   UNL A   1      43.865  27.273  33.124  1.00  0.00     0.065 H 
ATOM    104  C   UNL A   1      42.765  29.424  34.732  1.00  0.00     0.037 A 
ATOM    105  H   UNL A   1      43.192  30.639  37.227  1.00  0.00     0.065 H 
BRANCH  86 106
ATOM    106  C   UNL A   1      40.569  27.901  29.182  1.00  0.00     0.064 A 
ATOM    107  C   UNL A   1      41.457  28.119  28.122  1.00  0.00     0.173 A 
ATOM    108  C   UNL A   1      39.751  26.763  29.141  1.00  0.00     0.173 A 
ATOM    109  F   UNL A   1      42.249  29.202  28.116  1.00  0.00    -0.203 F 
ATOM    110  C   UNL A   1      41.518  27.231  27.051  1.00  0.00     0.198 A 
ATOM    111  C   UNL A   1      39.821  25.872  28.074  1.00  0.00     0.198 A 
ATOM    112  F   UNL A   1      38.884  26.518  30.135  1.00  0.00    -0.203 F 
ATOM    113  F   UNL A   1      42.360  27.465  26.036  1.00  0.00    -0.200 F 
ATOM    114  C   UNL A   1      40.703  26.108  27.030  1.00  0.00     0.200 A 
ATOM    115  F   UNL A   1      39.033  24.789  28.054  1.00  0.00    -0.200 F 
ATOM    116  F   UNL A   1      40.764  25.255  25.998  1.00  0.00    -0.200 F 
ENDBRANCH  86 106
BRANCH  89 117
ATOM    117  C   UNL A   1      39.520  34.016  36.935  1.00  0.00     0.064 A 
ATOM    118  C   UNL A   1      38.763  33.585  38.032  1.00  0.00     0.173 A 
ATOM    119  C   UNL A   1      40.106  35.287  36.991  1.00  0.00     0.173 A 
ATOM    120  F   UNL A   1      38.172  32.383  38.006  1.00  0.00    -0.203 F 
ATOM    121  C   UNL A   1      38.598  34.401  39.148  1.00  0.00     0.198 A 
ATOM    122  C   UNL A   1      39.947  36.097  38.111  1.00  0.00     0.198 A 
ATOM    123  F   UNL A   1      40.835  35.735  35.959  1.00  0.00    -0.203 F 
ATOM    124  F   UNL A   1      37.857  33.977  40.181  1.00  0.00    -0.200 F 
ATOM    125  C   UNL A   1      39.192  35.654  39.189  1.00  0.00     0.200 A 
ATOM    126  F   UNL A   1      40.523  37.306  38.150  1.00  0.00    -0.200 F 
ATOM    127  F   UNL A   1      39.034  36.438  40.264  1.00  0.00    -0.200 F 
ENDBRANCH  89 117
BRANCH 104 128
ATOM    128  C   UNL A   1      43.888  28.806  35.503  1.00  0.00     0.064 A 
ATOM    129  C   UNL A   1      45.208  29.245  35.333  1.00  0.00     0.173 A 
ATOM    130  C   UNL A   1      43.638  27.792  36.438  1.00  0.00     0.173 A 
ATOM    131  F   UNL A   1      45.490  30.203  34.437  1.00  0.00    -0.203 F 
ATOM    132  C   UNL A   1      46.244  28.684  36.073  1.00  0.00     0.198 A 
ATOM    133  C   UNL A   1      44.677  27.239  37.181  1.00  0.00     0.198 A 
ATOM    134  F   UNL A   1      42.390  27.339  36.626  1.00  0.00    -0.203 F 
ATOM    135  F   UNL A   1      47.503  29.104  35.885  1.00  0.00    -0.200 F 
ATOM    136  C   UNL A   1      45.978  27.684  36.998  1.00  0.00     0.200 A 
ATOM    137  F   UNL A   1      44.420  26.270  38.072  1.00  0.00    -0.200 F 
ATOM    138  F   UNL A   1      46.978  27.143  37.706  1.00  0.00    -0.200 F 
ENDBRANCH 104 128
ENDBRANCH  69  72
ENDBRANCH  59  62
ENDBRANCH  55  58
ENDBRANCH  52  55
ENDBRANCH  49  52
ENDBRANCH  46  49
ENDBRANCH   1  46
TORSDOF 18
ENDMDL
MODEL 2
REMARK VINA RESULT:     -12.7      5.418     11.116
REMARK SMILES CCc1cc(C(=O)c2[nH]c3cc(Cl)ccc3c2CC(=O)NCCCCCCNC(=O)c2ccc(-c3c4nc(c(-c5c(F)c(F)c(F)c(F)c5F)c5ccc([nH]5)c(-c5c(F)c(F)c(F)c(F)c5F)c5nc(c(-c6c(F)c(F)c(F)c(F)c6F)c6ccc3[nH]6)C=C5)C=C4)cc2)ncc1Cl
REMARK SMILES IDX 23 1 22 4 21 7 19 8 20 9 18 11 17 14 8 15 9 16 10 17 16 19
REMARK SMILES IDX 11 20 15 21 12 22 14 24 13 26 6 28 7 29 5 30 3 31 4 32 96 33
REMARK SMILES IDX 95 35 97 36 94 37 2 39 1 42 24 46 25 49 26 52 27 55 28 58
REMARK SMILES IDX 29 59 30 61 31 62 32 63 93 64 33 65 92 67 34 69 35 72 36 73
REMARK SMILES IDX 86 74 37 75 91 76 85 77 87 78 38 79 90 80 84 82 83 84 39 86
REMARK SMILES IDX 71 89 51 90 70 91 52 92 55 93 69 94 88 95 53 96 54 98 68 100
REMARK SMILES IDX 89 101 56 104 40 106 41 107 49 108 42 109 43 110 47 111
REMARK SMILES IDX 50 112 44 113 45 114 48 115 46 116 72 117 73 118 81 119
REMARK SMILES IDX 74 120 75 121 79 122 82 123 76 124 77 125 80 126 78 127
REMARK SMILES IDX 57 128 58 129 66 130 59 131 60 132 64 133 67 134 61 135
REMARK SMILES IDX 62 136 65 137 63 138
REMARK H PARENT 23 2 23 3 22 5 22 6 21 10 18 12 18 13 9 18 11 23 15 25 14 27
REMARK H PARENT 4 34 95 38 2 40 2 41 1 43 1 44 1 45 24 47 24 48 25 50 25 51
REMARK H PARENT 26 53 26 54 27 56 27 57 28 60 32 66 93 68 33 70 92 71 91 81
REMARK H PARENT 85 83 87 85 90 87 84 88 52 97 55 99 88 102 53 103 89 105
REMARK Flexibility Score: inf
ROOT
ATOM      1  C   UNL A   1      37.001  22.671  25.708  1.00  0.00    -0.036 C 
ATOM      2  H   UNL A   1      36.531  22.154  26.519  1.00  0.00     0.028 H 
ATOM      3  H   UNL A   1      37.979  23.034  25.943  1.00  0.00     0.028 H 
ENDROOT
BRANCH   1   4
ATOM      4  C   UNL A   1      36.157  23.902  25.378  1.00  0.00     0.017 C 
ATOM      5  H   UNL A   1      35.376  23.987  26.106  1.00  0.00     0.049 H 
ATOM      6  H   UNL A   1      36.805  24.753  25.393  1.00  0.00     0.049 H 
BRANCH   4   7
ATOM      7  N   UNL A   1      35.556  23.832  24.061  1.00  0.00    -0.356 N 
ATOM      8  C   UNL A   1      34.519  24.552  23.540  1.00  0.00     0.224 C 
ATOM      9  O   UNL A   1      34.238  24.393  22.350  1.00  0.00    -0.275 OA
ATOM     10  H   UNL A   1      35.955  23.169  23.453  1.00  0.00     0.163 HD
BRANCH   8  11
ATOM     11  C   UNL A   1      33.801  25.601  24.374  1.00  0.00     0.055 C 
ATOM     12  H   UNL A   1      34.212  25.578  25.362  1.00  0.00     0.042 H 
ATOM     13  H   UNL A   1      33.952  26.536  23.876  1.00  0.00     0.042 H 
BRANCH  11  14
ATOM     14  C   UNL A   1      32.314  25.416  24.483  1.00  0.00    -0.002 A 
ATOM     15  C   UNL A   1      31.633  24.319  25.002  1.00  0.00     0.093 A 
ATOM     16  N   UNL A   1      30.293  24.627  24.999  1.00  0.00    -0.351 N 
ATOM     17  C   UNL A   1      30.070  25.812  24.344  1.00  0.00     0.048 A 
ATOM     18  H   UNL A   1      29.590  24.074  25.411  1.00  0.00     0.167 HD
ATOM     19  C   UNL A   1      31.318  26.332  24.005  1.00  0.00     0.004 A 
ATOM     20  C   UNL A   1      28.866  26.459  24.040  1.00  0.00    -0.019 A 
ATOM     21  C   UNL A   1      31.365  27.566  23.321  1.00  0.00    -0.051 A 
ATOM     22  C   UNL A   1      28.946  27.677  23.359  1.00  0.00     0.043 A 
ATOM     23  H   UNL A   1      27.956  26.053  24.308  1.00  0.00     0.066 H 
ATOM     24  C   UNL A   1      30.172  28.227  23.001  1.00  0.00    -0.043 A 
ATOM     25  H   UNL A   1      32.273  27.980  23.058  1.00  0.00     0.063 H 
ATOM     26  Cl  UNL A   1      27.493  28.510  22.956  1.00  0.00    -0.084 Cl
ATOM     27  H   UNL A   1      30.203  29.128  22.499  1.00  0.00     0.064 H 
BRANCH  15  28
ATOM     28  C   UNL A   1      32.146  23.074  25.542  1.00  0.00     0.227 C 
ATOM     29  O   UNL A   1      32.499  22.994  26.716  1.00  0.00    -0.285 OA
BRANCH  28  30
ATOM     30  C   UNL A   1      32.165  21.860  24.640  1.00  0.00     0.113 A 
ATOM     31  C   UNL A   1      32.539  19.490  24.232  1.00  0.00    -0.026 A 
ATOM     32  C   UNL A   1      32.472  20.583  25.119  1.00  0.00    -0.028 A 
ATOM     33  C   UNL A   1      32.257  19.729  22.883  1.00  0.00     0.062 A 
ATOM     34  H   UNL A   1      32.652  20.441  26.125  1.00  0.00     0.065 H 
ATOM     35  C   UNL A   1      31.950  21.028  22.491  1.00  0.00     0.047 A 
ATOM     36  Cl  UNL A   1      32.278  18.494  21.682  1.00  0.00    -0.082 Cl
ATOM     37  N   UNL A   1      31.912  22.092  23.329  1.00  0.00    -0.251 NA
ATOM     38  H   UNL A   1      31.738  21.193  21.495  1.00  0.00     0.086 H 
BRANCH  31  39
ATOM     39  C   UNL A   1      32.947  18.139  24.775  1.00  0.00    -0.029 C 
ATOM     40  H   UNL A   1      32.870  18.164  25.843  1.00  0.00     0.031 H 
ATOM     41  H   UNL A   1      32.291  17.411  24.343  1.00  0.00     0.031 H 
BRANCH  39  42
ATOM     42  C   UNL A   1      34.370  17.748  24.400  1.00  0.00    -0.061 C 
ATOM     43  H   UNL A   1      34.567  16.751  24.737  1.00  0.00     0.023 H 
ATOM     44  H   UNL A   1      35.059  18.423  24.862  1.00  0.00     0.023 H 
ATOM     45  H   UNL A   1      34.484  17.793  23.337  1.00  0.00     0.023 H 
ENDBRANCH  39  42
ENDBRANCH  31  39
ENDBRANCH  28  30
ENDBRANCH  15  28
ENDBRANCH  11  14
ENDBRANCH   8  11
ENDBRANCH   4   7
ENDBRANCH   1   4
BRANCH   1  46
ATOM     46  C   UNL A   1      37.180  21.678  24.553  1.00  0.00    -0.052 C 
ATOM     47  H   UNL A   1      38.202  21.723  24.238  1.00  0.00     0.027 H 
ATOM     48  H   UNL A   1      36.477  21.978  23.803  1.00  0.00     0.027 H 
BRANCH  46  49
ATOM     49  C   UNL A   1      36.849  20.215  24.865  1.00  0.00    -0.052 C 
ATOM     50  H   UNL A   1      36.243  19.840  24.067  1.00  0.00     0.027 H 
ATOM     51  H   UNL A   1      36.364  20.227  25.818  1.00  0.00     0.027 H 
BRANCH  49  52
ATOM     52  C   UNL A   1      38.047  19.272  25.024  1.00  0.00    -0.036 C 
ATOM     53  H   UNL A   1      38.387  19.004  24.046  1.00  0.00     0.028 H 
ATOM     54  H   UNL A   1      37.691  18.446  25.604  1.00  0.00     0.028 H 
BRANCH  52  55
ATOM     55  C   UNL A   1      39.241  19.835  25.797  1.00  0.00     0.018 C 
ATOM     56  H   UNL A   1      38.930  20.048  26.798  1.00  0.00     0.049 H 
ATOM     57  H   UNL A   1      39.568  20.717  25.286  1.00  0.00     0.049 H 
BRANCH  55  58
ATOM     58  N   UNL A   1      40.363  18.916  25.845  1.00  0.00    -0.352 N 
ATOM     59  C   UNL A   1      41.696  19.170  26.060  1.00  0.00     0.251 C 
ATOM     60  H   UNL A   1      40.136  17.968  25.702  1.00  0.00     0.163 HD
ATOM     61  O   UNL A   1      42.519  18.267  25.937  1.00  0.00    -0.269 OA
BRANCH  59  62
ATOM     62  C   UNL A   1      42.164  20.529  26.418  1.00  0.00     0.039 A 
ATOM     63  C   UNL A   1      42.615  21.369  25.392  1.00  0.00    -0.049 A 
ATOM     64  C   UNL A   1      42.226  20.961  27.747  1.00  0.00    -0.049 A 
ATOM     65  C   UNL A   1      43.078  22.654  25.688  1.00  0.00    -0.053 A 
ATOM     66  H   UNL A   1      42.604  21.038  24.415  1.00  0.00     0.063 H 
ATOM     67  C   UNL A   1      42.666  22.254  28.041  1.00  0.00    -0.053 A 
ATOM     68  H   UNL A   1      41.947  20.324  28.509  1.00  0.00     0.063 H 
ATOM     69  C   UNL A   1      43.093  23.109  27.014  1.00  0.00    -0.014 A 
ATOM     70  H   UNL A   1      43.410  23.269  24.929  1.00  0.00     0.063 H 
ATOM     71  H   UNL A   1      42.679  22.580  29.019  1.00  0.00     0.063 H 
BRANCH  69  72
ATOM     72  C   UNL A   1      43.547  24.482  27.340  1.00  0.00     0.031 A 
ATOM     73  C   UNL A   1      42.589  25.485  27.911  1.00  0.00     0.074 A 
ATOM     74  C   UNL A   1      44.815  24.845  27.070  1.00  0.00     0.049 A 
ATOM     75  N   UNL A   1      42.779  26.756  28.171  1.00  0.00    -0.248 NA
ATOM     76  C   UNL A   1      41.234  25.003  28.216  1.00  0.00    -0.034 C 
ATOM     77  C   UNL A   1      45.838  23.974  26.493  1.00  0.00    -0.036 A 
ATOM     78  N   UNL A   1      45.451  26.051  27.233  1.00  0.00    -0.354 N 
ATOM     79  C   UNL A   1      41.563  27.231  28.638  1.00  0.00     0.074 A 
ATOM     80  C   UNL A   1      40.641  26.114  28.633  1.00  0.00    -0.034 C 
ATOM     81  H   UNL A   1      40.846  24.050  28.128  1.00  0.00     0.065 H 
ATOM     82  C   UNL A   1      46.975  24.674  26.346  1.00  0.00    -0.036 A 
ATOM     83  H   UNL A   1      45.708  22.983  26.240  1.00  0.00     0.065 H 
ATOM     84  C   UNL A   1      46.754  26.044  26.804  1.00  0.00     0.049 A 
ATOM     85  H   UNL A   1      45.014  26.843  27.621  1.00  0.00     0.167 HD
ATOM     86  C   UNL A   1      41.243  28.487  29.032  1.00  0.00     0.037 A 
ATOM     87  H   UNL A   1      39.650  26.174  28.917  1.00  0.00     0.065 H 
ATOM     88  H   UNL A   1      47.863  24.305  25.971  1.00  0.00     0.065 H 
ATOM     89  C   UNL A   1      47.664  27.035  26.772  1.00  0.00     0.037 A 
ATOM     90  C   UNL A   1      42.161  29.594  29.080  1.00  0.00     0.049 A 
ATOM     91  C   UNL A   1      47.300  28.403  27.267  1.00  0.00     0.074 A 
ATOM     92  C   UNL A   1      41.933  30.887  29.519  1.00  0.00    -0.036 A 
ATOM     93  N   UNL A   1      43.486  29.534  28.683  1.00  0.00    -0.354 N 
ATOM     94  N   UNL A   1      46.153  28.835  27.726  1.00  0.00    -0.248 NA
ATOM     95  C   UNL A   1      48.360  29.423  27.238  1.00  0.00    -0.034 C 
ATOM     96  C   UNL A   1      43.121  31.614  29.377  1.00  0.00    -0.036 A 
ATOM     97  H   UNL A   1      41.040  31.252  29.888  1.00  0.00     0.065 H 
ATOM     98  C   UNL A   1      44.088  30.769  28.860  1.00  0.00     0.049 A 
ATOM     99  H   UNL A   1      43.934  28.732  28.326  1.00  0.00     0.167 HD
ATOM    100  C   UNL A   1      46.350  30.170  28.045  1.00  0.00     0.074 A 
ATOM    101  C   UNL A   1      47.730  30.479  27.735  1.00  0.00    -0.034 C 
ATOM    102  H   UNL A   1      49.338  29.338  26.917  1.00  0.00     0.065 H 
ATOM    103  H   UNL A   1      43.253  32.610  29.615  1.00  0.00     0.065 H 
ATOM    104  C   UNL A   1      45.462  31.059  28.547  1.00  0.00     0.037 A 
ATOM    105  H   UNL A   1      48.167  31.402  27.880  1.00  0.00     0.065 H 
BRANCH  86 106
ATOM    106  C   UNL A   1      39.826  28.735  29.433  1.00  0.00     0.064 A 
ATOM    107  C   UNL A   1      39.402  28.563  30.757  1.00  0.00     0.173 A 
ATOM    108  C   UNL A   1      38.891  29.180  28.488  1.00  0.00     0.173 A 
ATOM    109  F   UNL A   1      40.262  28.127  31.689  1.00  0.00    -0.203 F 
ATOM    110  C   UNL A   1      38.083  28.821  31.120  1.00  0.00     0.198 A 
ATOM    111  C   UNL A   1      37.576  29.446  28.856  1.00  0.00     0.198 A 
ATOM    112  F   UNL A   1      39.254  29.354  27.208  1.00  0.00    -0.203 F 
ATOM    113  F   UNL A   1      37.690  28.633  32.387  1.00  0.00    -0.200 F 
ATOM    114  C   UNL A   1      37.172  29.264  30.171  1.00  0.00     0.200 A 
ATOM    115  F   UNL A   1      36.697  29.873  27.940  1.00  0.00    -0.200 F 
ATOM    116  F   UNL A   1      35.903  29.512  30.524  1.00  0.00    -0.200 F 
ENDBRANCH  86 106
BRANCH  89 117
ATOM    117  C   UNL A   1      49.021  26.757  26.249  1.00  0.00     0.064 A 
ATOM    118  C   UNL A   1      50.005  26.198  27.073  1.00  0.00     0.173 A 
ATOM    119  C   UNL A   1      49.349  27.031  24.915  1.00  0.00     0.173 A 
ATOM    120  F   UNL A   1      49.733  25.941  28.359  1.00  0.00    -0.203 F 
ATOM    121  C   UNL A   1      51.277  25.923  26.579  1.00  0.00     0.198 A 
ATOM    122  C   UNL A   1      50.618  26.746  24.419  1.00  0.00     0.198 A 
ATOM    123  F   UNL A   1      48.435  27.570  24.095  1.00  0.00    -0.203 F 
ATOM    124  F   UNL A   1      52.210  25.402  27.387  1.00  0.00    -0.200 F 
ATOM    125  C   UNL A   1      51.582  26.193  25.252  1.00  0.00     0.200 A 
ATOM    126  F   UNL A   1      50.910  27.006  23.138  1.00  0.00    -0.200 F 
ATOM    127  F   UNL A   1      52.806  25.925  24.776  1.00  0.00    -0.200 F 
ENDBRANCH  89 117
BRANCH 104 128
ATOM    128  C   UNL A   1      45.957  32.447  28.799  1.00  0.00     0.064 A 
ATOM    129  C   UNL A   1      46.531  32.797  30.029  1.00  0.00     0.173 A 
ATOM    130  C   UNL A   1      45.888  33.423  27.795  1.00  0.00     0.173 A 
ATOM    131  F   UNL A   1      46.602  31.896  31.020  1.00  0.00    -0.203 F 
ATOM    132  C   UNL A   1      47.015  34.083  30.247  1.00  0.00     0.198 A 
ATOM    133  C   UNL A   1      46.381  34.707  28.016  1.00  0.00     0.198 A 
ATOM    134  F   UNL A   1      45.341  33.131  26.606  1.00  0.00    -0.203 F 
ATOM    135  F   UNL A   1      47.545  34.404  31.436  1.00  0.00    -0.200 F 
ATOM    136  C   UNL A   1      46.943  35.035  29.241  1.00  0.00     0.200 A 
ATOM    137  F   UNL A   1      46.307  35.627  27.044  1.00  0.00    -0.200 F 
ATOM    138  F   UNL A   1      47.407  36.274  29.455  1.00  0.00    -0.200 F 
ENDBRANCH 104 128
ENDBRANCH  69  72
ENDBRANCH  59  62
ENDBRANCH  55  58
ENDBRANCH  52  55
ENDBRANCH  49  52
ENDBRANCH  46  49
ENDBRANCH   1  46
TORSDOF 18
ENDMDL
MODEL 3
REMARK VINA RESULT:     -12.7      1.308      2.675
REMARK SMILES CCc1cc(C(=O)c2[nH]c3cc(Cl)ccc3c2CC(=O)NCCCCCCNC(=O)c2ccc(-c3c4nc(c(-c5c(F)c(F)c(F)c(F)c5F)c5ccc([nH]5)c(-c5c(F)c(F)c(F)c(F)c5F)c5nc(c(-c6c(F)c(F)c(F)c(F)c6F)c6ccc3[nH]6)C=C5)C=C4)cc2)ncc1Cl
REMARK SMILES IDX 23 1 22 4 21 7 19 8 20 9 18 11 17 14 8 15 9 16 10 17 16 19
REMARK SMILES IDX 11 20 15 21 12 22 14 24 13 26 6 28 7 29 5 30 3 31 4 32 96 33
REMARK SMILES IDX 95 35 97 36 94 37 2 39 1 42 24 46 25 49 26 52 27 55 28 58
REMARK SMILES IDX 29 59 30 61 31 62 32 63 93 64 33 65 92 67 34 69 35 72 36 73
REMARK SMILES IDX 86 74 37 75 91 76 85 77 87 78 38 79 90 80 84 82 83 84 39 86
REMARK SMILES IDX 71 89 51 90 70 91 52 92 55 93 69 94 88 95 53 96 54 98 68 100
REMARK SMILES IDX 89 101 56 104 40 106 41 107 49 108 42 109 43 110 47 111
REMARK SMILES IDX 50 112 44 113 45 114 48 115 46 116 72 117 73 118 81 119
REMARK SMILES IDX 74 120 75 121 79 122 82 123 76 124 77 125 80 126 78 127
REMARK SMILES IDX 57 128 58 129 66 130 59 131 60 132 64 133 67 134 61 135
REMARK SMILES IDX 62 136 65 137 63 138
REMARK H PARENT 23 2 23 3 22 5 22 6 21 10 18 12 18 13 9 18 11 23 15 25 14 27
REMARK H PARENT 4 34 95 38 2 40 2 41 1 43 1 44 1 45 24 47 24 48 25 50 25 51
REMARK H PARENT 26 53 26 54 27 56 27 57 28 60 32 66 93 68 33 70 92 71 91 81
REMARK H PARENT 85 83 87 85 90 87 84 88 52 97 55 99 88 102 53 103 89 105
REMARK Flexibility Score: inf
ROOT
ATOM      1  C   UNL A   1      33.284  28.343  25.709  1.00  0.00    -0.036 C 
ATOM      2  H   UNL A   1      33.102  28.377  24.654  1.00  0.00     0.028 H 
ATOM      3  H   UNL A   1      34.180  28.847  26.003  1.00  0.00     0.028 H 
ENDROOT
BRANCH   1   4
ATOM      4  C   UNL A   1      33.467  26.879  26.111  1.00  0.00     0.017 C 
ATOM      5  H   UNL A   1      33.958  26.844  27.061  1.00  0.00     0.049 H 
ATOM      6  H   UNL A   1      32.497  26.430  26.150  1.00  0.00     0.049 H 
BRANCH   4   7
ATOM      7  N   UNL A   1      34.257  26.131  25.154  1.00  0.00    -0.356 N 
ATOM      8  C   UNL A   1      34.597  24.808  25.153  1.00  0.00     0.224 C 
ATOM      9  O   UNL A   1      35.200  24.360  24.176  1.00  0.00    -0.275 OA
ATOM     10  H   UNL A   1      34.598  26.653  24.392  1.00  0.00     0.163 HD
BRANCH   8  11
ATOM     11  C   UNL A   1      34.149  23.887  26.278  1.00  0.00     0.055 C 
ATOM     12  H   UNL A   1      35.023  23.522  26.776  1.00  0.00     0.042 H 
ATOM     13  H   UNL A   1      33.515  24.473  26.910  1.00  0.00     0.042 H 
BRANCH  11  14
ATOM     14  C   UNL A   1      33.332  22.704  25.840  1.00  0.00    -0.002 A 
ATOM     15  C   UNL A   1      31.945  22.604  25.788  1.00  0.00     0.093 A 
ATOM     16  N   UNL A   1      31.641  21.386  25.228  1.00  0.00    -0.351 N 
ATOM     17  C   UNL A   1      32.774  20.627  25.073  1.00  0.00     0.048 A 
ATOM     18  H   UNL A   1      30.734  21.097  24.973  1.00  0.00     0.167 HD
ATOM     19  C   UNL A   1      33.854  21.425  25.449  1.00  0.00     0.004 A 
ATOM     20  C   UNL A   1      32.920  19.311  24.619  1.00  0.00    -0.019 A 
ATOM     21  C   UNL A   1      35.151  20.874  25.372  1.00  0.00    -0.051 A 
ATOM     22  C   UNL A   1      34.216  18.793  24.558  1.00  0.00     0.043 A 
ATOM     23  H   UNL A   1      32.103  18.746  24.342  1.00  0.00     0.066 H 
ATOM     24  C   UNL A   1      35.319  19.556  24.928  1.00  0.00    -0.043 A 
ATOM     25  H   UNL A   1      35.972  21.438  25.641  1.00  0.00     0.063 H 
ATOM     26  Cl  UNL A   1      34.449  17.176  24.013  1.00  0.00    -0.084 Cl
ATOM     27  H   UNL A   1      36.266  19.149  24.873  1.00  0.00     0.064 H 
BRANCH  15  28
ATOM     28  C   UNL A   1      30.928  23.571  26.154  1.00  0.00     0.227 C 
ATOM     29  O   UNL A   1      30.342  23.494  27.231  1.00  0.00    -0.285 OA
BRANCH  28  30
ATOM     30  C   UNL A   1      30.662  24.719  25.205  1.00  0.00     0.113 A 
ATOM     31  C   UNL A   1      30.985  25.879  23.091  1.00  0.00    -0.026 A 
ATOM     32  C   UNL A   1      31.209  24.761  23.919  1.00  0.00    -0.028 A 
ATOM     33  C   UNL A   1      30.180  26.909  23.589  1.00  0.00     0.062 A 
ATOM     34  H   UNL A   1      31.778  23.972  23.577  1.00  0.00     0.065 H 
ATOM     35  C   UNL A   1      29.667  26.782  24.876  1.00  0.00     0.047 A 
ATOM     36  Cl  UNL A   1      29.800  28.328  22.691  1.00  0.00    -0.082 Cl
ATOM     37  N   UNL A   1      29.899  25.727  25.693  1.00  0.00    -0.251 NA
ATOM     38  H   UNL A   1      29.070  27.544  25.233  1.00  0.00     0.086 H 
BRANCH  31  39
ATOM     39  C   UNL A   1      31.654  25.922  21.735  1.00  0.00    -0.029 C 
ATOM     40  H   UNL A   1      31.554  24.961  21.275  1.00  0.00     0.031 H 
ATOM     41  H   UNL A   1      31.172  26.691  21.167  1.00  0.00     0.031 H 
BRANCH  39  42
ATOM     42  C   UNL A   1      33.134  26.272  21.809  1.00  0.00    -0.061 C 
ATOM     43  H   UNL A   1      33.699  25.553  21.252  1.00  0.00     0.023 H 
ATOM     44  H   UNL A   1      33.453  26.263  22.829  1.00  0.00     0.023 H 
ATOM     45  H   UNL A   1      33.292  27.245  21.393  1.00  0.00     0.023 H 
ENDBRANCH  39  42
ENDBRANCH  31  39
ENDBRANCH  28  30
ENDBRANCH  15  28
ENDBRANCH  11  14
ENDBRANCH   8  11
ENDBRANCH   4   7
ENDBRANCH   1   4
BRANCH   1  46
ATOM     46  C   UNL A   1      32.132  29.070  26.413  1.00  0.00    -0.052 C 
ATOM     47  H   UNL A   1      32.486  29.392  27.371  1.00  0.00     0.027 H 
ATOM     48  H   UNL A   1      31.330  28.364  26.457  1.00  0.00     0.027 H 
BRANCH  46  49
ATOM     49  C   UNL A   1      31.565  30.295  25.688  1.00  0.00    -0.052 C 
ATOM     50  H   UNL A   1      30.610  30.024  25.289  1.00  0.00     0.027 H 
ATOM     51  H   UNL A   1      32.293  30.553  24.948  1.00  0.00     0.027 H 
BRANCH  49  52
ATOM     52  C   UNL A   1      31.376  31.556  26.538  1.00  0.00    -0.036 C 
ATOM     53  H   UNL A   1      30.902  31.267  27.453  1.00  0.00     0.028 H 
ATOM     54  H   UNL A   1      30.796  32.226  25.938  1.00  0.00     0.028 H 
BRANCH  52  55
ATOM     55  C   UNL A   1      32.653  32.318  26.892  1.00  0.00     0.018 C 
ATOM     56  H   UNL A   1      33.268  32.381  26.019  1.00  0.00     0.049 H 
ATOM     57  H   UNL A   1      33.139  31.784  27.682  1.00  0.00     0.049 H 
BRANCH  55  58
ATOM     58  N   UNL A   1      32.390  33.663  27.371  1.00  0.00    -0.352 N 
ATOM     59  C   UNL A   1      33.026  34.384  28.352  1.00  0.00     0.251 C 
ATOM     60  H   UNL A   1      31.644  34.128  26.927  1.00  0.00     0.163 HD
ATOM     61  O   UNL A   1      32.573  35.470  28.705  1.00  0.00    -0.269 OA
BRANCH  59  62
ATOM     62  C   UNL A   1      34.244  33.861  29.014  1.00  0.00     0.039 A 
ATOM     63  C   UNL A   1      34.095  32.890  30.012  1.00  0.00    -0.049 A 
ATOM     64  C   UNL A   1      35.516  34.359  28.713  1.00  0.00    -0.049 A 
ATOM     65  C   UNL A   1      35.218  32.382  30.671  1.00  0.00    -0.053 A 
ATOM     66  H   UNL A   1      33.153  32.550  30.260  1.00  0.00     0.063 H 
ATOM     67  C   UNL A   1      36.641  33.833  29.354  1.00  0.00    -0.053 A 
ATOM     68  H   UNL A   1      35.624  35.114  28.018  1.00  0.00     0.063 H 
ATOM     69  C   UNL A   1      36.499  32.840  30.335  1.00  0.00    -0.014 A 
ATOM     70  H   UNL A   1      35.102  31.667  31.406  1.00  0.00     0.063 H 
ATOM     71  H   UNL A   1      37.580  34.178  29.105  1.00  0.00     0.063 H 
BRANCH  69  72
ATOM     72  C   UNL A   1      37.702  32.284  30.999  1.00  0.00     0.031 A 
ATOM     73  C   UNL A   1      38.515  31.214  30.330  1.00  0.00     0.074 A 
ATOM     74  C   UNL A   1      38.034  32.703  32.234  1.00  0.00     0.049 A 
ATOM     75  N   UNL A   1      39.541  30.544  30.794  1.00  0.00    -0.248 NA
ATOM     76  C   UNL A   1      38.114  30.839  28.967  1.00  0.00    -0.034 C 
ATOM     77  C   UNL A   1      37.315  33.717  33.004  1.00  0.00    -0.036 A 
ATOM     78  N   UNL A   1      39.055  32.313  33.064  1.00  0.00    -0.354 N 
ATOM     79  C   UNL A   1      39.887  29.646  29.796  1.00  0.00     0.074 A 
ATOM     80  C   UNL A   1      38.967  29.860  28.696  1.00  0.00    -0.034 C 
ATOM     81  H   UNL A   1      37.365  31.233  28.375  1.00  0.00     0.065 H 
ATOM     82  C   UNL A   1      37.914  33.868  34.196  1.00  0.00    -0.036 A 
ATOM     83  H   UNL A   1      36.480  34.233  32.683  1.00  0.00     0.065 H 
ATOM     84  C   UNL A   1      39.049  32.951  34.278  1.00  0.00     0.049 A 
ATOM     85  H   UNL A   1      39.729  31.640  32.811  1.00  0.00     0.167 HD
ATOM     86  C   UNL A   1      40.879  28.725  29.796  1.00  0.00     0.037 A 
ATOM     87  H   UNL A   1      38.975  29.320  27.817  1.00  0.00     0.065 H 
ATOM     88  H   UNL A   1      37.622  34.526  34.935  1.00  0.00     0.065 H 
ATOM     89  C   UNL A   1      39.859  32.804  35.342  1.00  0.00     0.037 A 
ATOM     90  C   UNL A   1      41.823  28.532  30.864  1.00  0.00     0.049 A 
ATOM     91  C   UNL A   1      40.987  31.816  35.295  1.00  0.00     0.074 A 
ATOM     92  C   UNL A   1      42.895  27.657  30.924  1.00  0.00    -0.036 A 
ATOM     93  N   UNL A   1      41.813  29.233  32.059  1.00  0.00    -0.354 N 
ATOM     94  N   UNL A   1      41.316  30.988  34.337  1.00  0.00    -0.248 NA
ATOM     95  C   UNL A   1      41.854  31.742  36.481  1.00  0.00    -0.034 C 
ATOM     96  C   UNL A   1      43.528  27.822  32.161  1.00  0.00    -0.036 A 
ATOM     97  H   UNL A   1      43.179  26.997  30.182  1.00  0.00     0.065 H 
ATOM     98  C   UNL A   1      42.855  28.807  32.866  1.00  0.00     0.049 A 
ATOM     99  H   UNL A   1      41.160  29.930  32.299  1.00  0.00     0.167 HD
ATOM    100  C   UNL A   1      42.428  30.298  34.798  1.00  0.00     0.074 A 
ATOM    101  C   UNL A   1      42.723  30.808  36.120  1.00  0.00    -0.034 C 
ATOM    102  H   UNL A   1      41.800  32.276  37.363  1.00  0.00     0.065 H 
ATOM    103  H   UNL A   1      44.354  27.299  32.493  1.00  0.00     0.065 H 
ATOM    104  C   UNL A   1      43.136  29.325  34.177  1.00  0.00     0.037 A 
ATOM    105  H   UNL A   1      43.509  30.487  36.706  1.00  0.00     0.065 H 
BRANCH  86 106
ATOM    106  C   UNL A   1      40.986  27.838  28.599  1.00  0.00     0.064 A 
ATOM    107  C   UNL A   1      40.236  26.659  28.495  1.00  0.00     0.173 A 
ATOM    108  C   UNL A   1      41.824  28.190  27.531  1.00  0.00     0.173 A 
ATOM    109  F   UNL A   1      39.432  26.280  29.499  1.00  0.00    -0.203 F 
ATOM    110  C   UNL A   1      40.330  25.855  27.362  1.00  0.00     0.198 A 
ATOM    111  C   UNL A   1      41.907  27.389  26.396  1.00  0.00     0.198 A 
ATOM    112  F   UNL A   1      42.561  29.309  27.591  1.00  0.00    -0.203 F 
ATOM    113  F   UNL A   1      39.620  24.721  27.287  1.00  0.00    -0.200 F 
ATOM    114  C   UNL A   1      41.162  26.222  26.313  1.00  0.00     0.200 A 
ATOM    115  F   UNL A   1      42.711  27.743  25.384  1.00  0.00    -0.200 F 
ATOM    116  F   UNL A   1      41.249  25.446  25.224  1.00  0.00    -0.200 F 
ENDBRANCH  86 106
BRANCH  89 117
ATOM    117  C   UNL A   1      39.628  33.629  36.550  1.00  0.00     0.064 A 
ATOM    118  C   UNL A   1      40.193  34.905  36.664  1.00  0.00     0.173 A 
ATOM    119  C   UNL A   1      38.826  33.162  37.599  1.00  0.00     0.173 A 
ATOM    120  F   UNL A   1      40.981  35.377  35.689  1.00  0.00    -0.203 F 
ATOM    121  C   UNL A   1      39.964  35.688  37.793  1.00  0.00     0.198 A 
ATOM    122  C   UNL A   1      38.590  33.950  38.722  1.00  0.00     0.198 A 
ATOM    123  F   UNL A   1      38.270  31.944  37.527  1.00  0.00    -0.203 F 
ATOM    124  F   UNL A   1      40.527  36.900  37.890  1.00  0.00    -0.200 F 
ATOM    125  C   UNL A   1      39.161  35.212  38.819  1.00  0.00     0.200 A 
ATOM    126  F   UNL A   1      37.813  33.489  39.711  1.00  0.00    -0.200 F 
ATOM    127  F   UNL A   1      38.939  35.966  39.903  1.00  0.00    -0.200 F 
ENDBRANCH  89 117
BRANCH 104 128
ATOM    128  C   UNL A   1      44.303  28.756  34.919  1.00  0.00     0.064 A 
ATOM    129  C   UNL A   1      44.154  27.635  35.747  1.00  0.00     0.173 A 
ATOM    130  C   UNL A   1      45.581  29.312  34.775  1.00  0.00     0.173 A 
ATOM    131  F   UNL A   1      42.944  27.082  35.923  1.00  0.00    -0.203 F 
ATOM    132  C   UNL A   1      45.249  27.094  36.413  1.00  0.00     0.198 A 
ATOM    133  C   UNL A   1      46.675  28.762  35.438  1.00  0.00     0.198 A 
ATOM    134  F   UNL A   1      45.766  30.389  33.996  1.00  0.00    -0.203 F 
ATOM    135  F   UNL A   1      45.085  26.032  37.216  1.00  0.00    -0.200 F 
ATOM    136  C   UNL A   1      46.508  27.654  36.256  1.00  0.00     0.200 A 
ATOM    137  F   UNL A   1      47.891  29.307  35.289  1.00  0.00    -0.200 F 
ATOM    138  F   UNL A   1      47.560  27.133  36.901  1.00  0.00    -0.200 F 
ENDBRANCH 104 128
ENDBRANCH  69  72
ENDBRANCH  59  62
ENDBRANCH  55  58
ENDBRANCH  52  55
ENDBRANCH  49  52
ENDBRANCH  46  49
ENDBRANCH   1  46
TORSDOF 18
ENDMDL
MODEL 4
REMARK VINA RESULT:     -12.7      5.419     11.001
REMARK SMILES CCc1cc(C(=O)c2[nH]c3cc(Cl)ccc3c2CC(=O)NCCCCCCNC(=O)c2ccc(-c3c4nc(c(-c5c(F)c(F)c(F)c(F)c5F)c5ccc([nH]5)c(-c5c(F)c(F)c(F)c(F)c5F)c5nc(c(-c6c(F)c(F)c(F)c(F)c6F)c6ccc3[nH]6)C=C5)C=C4)cc2)ncc1Cl
REMARK SMILES IDX 23 1 22 4 21 7 19 8 20 9 18 11 17 14 8 15 9 16 10 17 16 19
REMARK SMILES IDX 11 20 15 21 12 22 14 24 13 26 6 28 7 29 5 30 3 31 4 32 96 33
REMARK SMILES IDX 95 35 97 36 94 37 2 39 1 42 24 46 25 49 26 52 27 55 28 58
REMARK SMILES IDX 29 59 30 61 31 62 32 63 93 64 33 65 92 67 34 69 35 72 36 73
REMARK SMILES IDX 86 74 37 75 91 76 85 77 87 78 38 79 90 80 84 82 83 84 39 86
REMARK SMILES IDX 71 89 51 90 70 91 52 92 55 93 69 94 88 95 53 96 54 98 68 100
REMARK SMILES IDX 89 101 56 104 40 106 41 107 49 108 42 109 43 110 47 111
REMARK SMILES IDX 50 112 44 113 45 114 48 115 46 116 72 117 73 118 81 119
REMARK SMILES IDX 74 120 75 121 79 122 82 123 76 124 77 125 80 126 78 127
REMARK SMILES IDX 57 128 58 129 66 130 59 131 60 132 64 133 67 134 61 135
REMARK SMILES IDX 62 136 65 137 63 138
REMARK H PARENT 23 2 23 3 22 5 22 6 21 10 18 12 18 13 9 18 11 23 15 25 14 27
REMARK H PARENT 4 34 95 38 2 40 2 41 1 43 1 44 1 45 24 47 24 48 25 50 25 51
REMARK H PARENT 26 53 26 54 27 56 27 57 28 60 32 66 93 68 33 70 92 71 91 81
REMARK H PARENT 85 83 87 85 90 87 84 88 52 97 55 99 88 102 53 103 89 105
REMARK Flexibility Score: inf
ROOT
ATOM      1  C   UNL A   1      37.526  23.744  25.562  1.00  0.00    -0.036 C 
ATOM      2  H   UNL A   1      37.948  24.420  26.276  1.00  0.00     0.028 H 
ATOM      3  H   UNL A   1      37.729  24.013  24.548  1.00  0.00     0.028 H 
ENDROOT
BRANCH   1   4
ATOM      4  C   UNL A   1      36.005  23.780  25.717  1.00  0.00     0.017 C 
ATOM      5  H   UNL A   1      35.683  22.856  26.151  1.00  0.00     0.049 H 
ATOM      6  H   UNL A   1      35.763  24.615  26.342  1.00  0.00     0.049 H 
BRANCH   4   7
ATOM      7  N   UNL A   1      35.319  23.964  24.455  1.00  0.00    -0.356 N 
ATOM      8  C   UNL A   1      34.209  24.707  24.170  1.00  0.00     0.224 C 
ATOM      9  O   UNL A   1      33.854  24.799  22.993  1.00  0.00    -0.275 OA
ATOM     10  H   UNL A   1      35.711  23.484  23.690  1.00  0.00     0.163 HD
BRANCH   8  11
ATOM     11  C   UNL A   1      33.492  25.489  25.260  1.00  0.00     0.055 C 
ATOM     12  H   UNL A   1      33.676  25.000  26.194  1.00  0.00     0.042 H 
ATOM     13  H   UNL A   1      33.881  26.484  25.220  1.00  0.00     0.042 H 
BRANCH  11  14
ATOM     14  C   UNL A   1      32.005  25.609  25.080  1.00  0.00    -0.002 A 
ATOM     15  C   UNL A   1      31.019  24.772  25.594  1.00  0.00     0.093 A 
ATOM     16  N   UNL A   1      29.802  25.321  25.268  1.00  0.00    -0.351 N 
ATOM     17  C   UNL A   1      29.963  26.388  24.420  1.00  0.00     0.048 A 
ATOM     18  H   UNL A   1      28.933  24.994  25.598  1.00  0.00     0.167 HD
ATOM     19  C   UNL A   1      31.335  26.594  24.281  1.00  0.00     0.004 A 
ATOM     20  C   UNL A   1      29.003  27.185  23.784  1.00  0.00    -0.019 A 
ATOM     21  C   UNL A   1      31.771  27.653  23.455  1.00  0.00    -0.051 A 
ATOM     22  C   UNL A   1      29.467  28.221  22.970  1.00  0.00     0.043 A 
ATOM     23  H   UNL A   1      27.994  27.012  23.910  1.00  0.00     0.066 H 
ATOM     24  C   UNL A   1      30.828  28.457  22.803  1.00  0.00    -0.043 A 
ATOM     25  H   UNL A   1      32.779  27.834  23.332  1.00  0.00     0.063 H 
ATOM     26  Cl  UNL A   1      28.327  29.225  22.159  1.00  0.00    -0.084 Cl
ATOM     27  H   UNL A   1      31.144  29.230  22.196  1.00  0.00     0.064 H 
BRANCH  15  28
ATOM     28  C   UNL A   1      31.144  23.572  26.400  1.00  0.00     0.227 C 
ATOM     29  O   UNL A   1      30.514  23.446  27.447  1.00  0.00    -0.285 OA
BRANCH  28  30
ATOM     30  C   UNL A   1      32.013  22.450  25.876  1.00  0.00     0.113 A 
ATOM     31  C   UNL A   1      32.576  20.762  24.216  1.00  0.00    -0.026 A 
ATOM     32  C   UNL A   1      31.779  21.845  24.637  1.00  0.00    -0.028 A 
ATOM     33  C   UNL A   1      33.611  20.348  25.061  1.00  0.00     0.062 A 
ATOM     34  H   UNL A   1      31.021  22.194  24.030  1.00  0.00     0.065 H 
ATOM     35  C   UNL A   1      33.781  21.010  26.272  1.00  0.00     0.047 A 
ATOM     36  Cl  UNL A   1      34.680  19.053  24.677  1.00  0.00    -0.082 Cl
ATOM     37  N   UNL A   1      33.004  22.033  26.702  1.00  0.00    -0.251 NA
ATOM     38  H   UNL A   1      34.551  20.701  26.886  1.00  0.00     0.086 H 
BRANCH  31  39
ATOM     39  C   UNL A   1      32.246  20.087  22.903  1.00  0.00    -0.029 C 
ATOM     40  H   UNL A   1      33.094  19.512  22.594  1.00  0.00     0.031 H 
ATOM     41  H   UNL A   1      31.384  19.474  23.069  1.00  0.00     0.031 H 
BRANCH  39  42
ATOM     42  C   UNL A   1      31.897  21.071  21.795  1.00  0.00    -0.061 C 
ATOM     43  H   UNL A   1      31.059  20.702  21.240  1.00  0.00     0.023 H 
ATOM     44  H   UNL A   1      32.736  21.184  21.141  1.00  0.00     0.023 H 
ATOM     45  H   UNL A   1      31.649  22.019  22.225  1.00  0.00     0.023 H 
ENDBRANCH  39  42
ENDBRANCH  31  39
ENDBRANCH  28  30
ENDBRANCH  15  28
ENDBRANCH  11  14
ENDBRANCH   8  11
ENDBRANCH   4   7
ENDBRANCH   1   4
BRANCH   1  46
ATOM     46  C   UNL A   1      38.167  22.367  25.776  1.00  0.00    -0.052 C 
ATOM     47  H   UNL A   1      37.972  22.068  26.786  1.00  0.00     0.027 H 
ATOM     48  H   UNL A   1      39.205  22.494  25.549  1.00  0.00     0.027 H 
BRANCH  46  49
ATOM     49  C   UNL A   1      37.678  21.245  24.854  1.00  0.00    -0.052 C 
ATOM     50  H   UNL A   1      37.754  21.596  23.846  1.00  0.00     0.027 H 
ATOM     51  H   UNL A   1      36.679  21.029  25.170  1.00  0.00     0.027 H 
BRANCH  49  52
ATOM     52  C   UNL A   1      38.437  19.917  24.946  1.00  0.00    -0.036 C 
ATOM     53  H   UNL A   1      39.093  19.854  24.105  1.00  0.00     0.028 H 
ATOM     54  H   UNL A   1      37.685  19.155  24.971  1.00  0.00     0.028 H 
BRANCH  52  55
ATOM     55  C   UNL A   1      39.273  19.713  26.210  1.00  0.00     0.018 C 
ATOM     56  H   UNL A   1      38.659  19.254  26.957  1.00  0.00     0.049 H 
ATOM     57  H   UNL A   1      39.624  20.675  26.522  1.00  0.00     0.049 H 
BRANCH  55  58
ATOM     58  N   UNL A   1      40.436  18.874  25.986  1.00  0.00    -0.352 N 
ATOM     59  C   UNL A   1      41.765  19.213  25.937  1.00  0.00     0.251 C 
ATOM     60  H   UNL A   1      40.243  17.918  25.847  1.00  0.00     0.163 HD
ATOM     61  O   UNL A   1      42.600  18.374  25.607  1.00  0.00    -0.269 OA
BRANCH  59  62
ATOM     62  C   UNL A   1      42.213  20.589  26.256  1.00  0.00     0.039 A 
ATOM     63  C   UNL A   1      42.427  20.925  27.599  1.00  0.00    -0.049 A 
ATOM     64  C   UNL A   1      42.359  21.564  25.264  1.00  0.00    -0.049 A 
ATOM     65  C   UNL A   1      42.835  22.216  27.944  1.00  0.00    -0.053 A 
ATOM     66  H   UNL A   1      42.283  20.216  28.335  1.00  0.00     0.063 H 
ATOM     67  C   UNL A   1      42.791  22.848  25.606  1.00  0.00    -0.053 A 
ATOM     68  H   UNL A   1      42.148  21.335  24.280  1.00  0.00     0.063 H 
ATOM     69  C   UNL A   1      43.034  23.182  26.947  1.00  0.00    -0.014 A 
ATOM     70  H   UNL A   1      42.991  22.459  28.934  1.00  0.00     0.063 H 
ATOM     71  H   UNL A   1      42.931  23.555  24.868  1.00  0.00     0.063 H 
BRANCH  69  72
ATOM     72  C   UNL A   1      43.503  24.545  27.293  1.00  0.00     0.031 A 
ATOM     73  C   UNL A   1      42.550  25.556  27.860  1.00  0.00     0.074 A 
ATOM     74  C   UNL A   1      44.779  24.892  27.046  1.00  0.00     0.049 A 
ATOM     75  N   UNL A   1      42.755  26.821  28.136  1.00  0.00    -0.248 NA
ATOM     76  C   UNL A   1      41.185  25.090  28.140  1.00  0.00    -0.034 C 
ATOM     77  C   UNL A   1      45.798  24.013  26.475  1.00  0.00    -0.036 A 
ATOM     78  N   UNL A   1      45.430  26.087  27.229  1.00  0.00    -0.354 N 
ATOM     79  C   UNL A   1      41.539  27.310  28.589  1.00  0.00     0.074 A 
ATOM     80  C   UNL A   1      40.601  26.206  28.560  1.00  0.00    -0.034 C 
ATOM     81  H   UNL A   1      40.785  24.144  28.038  1.00  0.00     0.065 H 
ATOM     82  C   UNL A   1      46.947  24.698  26.351  1.00  0.00    -0.036 A 
ATOM     83  H   UNL A   1      45.658  23.026  26.210  1.00  0.00     0.065 H 
ATOM     84  C   UNL A   1      46.739  26.065  26.819  1.00  0.00     0.049 A 
ATOM     85  H   UNL A   1      44.999  26.882  27.619  1.00  0.00     0.167 HD
ATOM     86  C   UNL A   1      41.232  28.566  28.991  1.00  0.00     0.037 A 
ATOM     87  H   UNL A   1      39.608  26.278  28.830  1.00  0.00     0.065 H 
ATOM     88  H   UNL A   1      47.835  24.319  25.986  1.00  0.00     0.065 H 
ATOM     89  C   UNL A   1      47.663  27.043  26.811  1.00  0.00     0.037 A 
ATOM     90  C   UNL A   1      42.164  29.658  29.064  1.00  0.00     0.049 A 
ATOM     91  C   UNL A   1      47.312  28.412  27.315  1.00  0.00     0.074 A 
ATOM     92  C   UNL A   1      41.948  30.951  29.513  1.00  0.00    -0.036 A 
ATOM     93  N   UNL A   1      43.494  29.583  28.686  1.00  0.00    -0.354 N 
ATOM     94  N   UNL A   1      46.165  28.856  27.761  1.00  0.00    -0.248 NA
ATOM     95  C   UNL A   1      48.387  29.416  27.312  1.00  0.00    -0.034 C 
ATOM     96  C   UNL A   1      43.149  31.662  29.396  1.00  0.00    -0.036 A 
ATOM     97  H   UNL A   1      41.056  31.325  29.873  1.00  0.00     0.065 H 
ATOM     98  C   UNL A   1      44.111  30.808  28.884  1.00  0.00     0.049 A 
ATOM     99  H   UNL A   1      43.936  28.779  28.328  1.00  0.00     0.167 HD
ATOM    100  C   UNL A   1      46.376  30.185  28.097  1.00  0.00     0.074 A 
ATOM    101  C   UNL A   1      47.765  30.476  27.809  1.00  0.00    -0.034 C 
ATOM    102  H   UNL A   1      49.368  29.320  27.004  1.00  0.00     0.065 H 
ATOM    103  H   UNL A   1      43.291  32.653  29.646  1.00  0.00     0.065 H 
ATOM    104  C   UNL A   1      45.493  31.082  28.595  1.00  0.00     0.037 A 
ATOM    105  H   UNL A   1      48.213  31.392  27.970  1.00  0.00     0.065 H 
BRANCH  86 106
ATOM    106  C   UNL A   1      39.812  28.830  29.375  1.00  0.00     0.064 A 
ATOM    107  C   UNL A   1      38.877  29.286  28.437  1.00  0.00     0.173 A 
ATOM    108  C   UNL A   1      39.378  28.592  30.686  1.00  0.00     0.173 A 
ATOM    109  F   UNL A   1      39.254  29.538  27.175  1.00  0.00    -0.203 F 
ATOM    110  C   UNL A   1      37.552  29.506  28.804  1.00  0.00     0.198 A 
ATOM    111  C   UNL A   1      38.050  28.803  31.047  1.00  0.00     0.198 A 
ATOM    112  F   UNL A   1      40.242  28.157  31.615  1.00  0.00    -0.203 F 
ATOM    113  F   UNL A   1      36.675  29.961  27.899  1.00  0.00    -0.200 F 
ATOM    114  C   UNL A   1      37.139  29.261  30.106  1.00  0.00     0.200 A 
ATOM    115  F   UNL A   1      37.653  28.567  32.304  1.00  0.00    -0.200 F 
ATOM    116  F   UNL A   1      35.863  29.473  30.457  1.00  0.00    -0.200 F 
ENDBRANCH  86 106
BRANCH  89 117
ATOM    117  C   UNL A   1      49.024  26.751  26.305  1.00  0.00     0.064 A 
ATOM    118  C   UNL A   1      49.363  27.015  24.972  1.00  0.00     0.173 A 
ATOM    119  C   UNL A   1      50.008  26.219  27.147  1.00  0.00     0.173 A 
ATOM    120  F   UNL A   1      48.442  27.506  24.132  1.00  0.00    -0.203 F 
ATOM    121  C   UNL A   1      50.646  26.756  24.497  1.00  0.00     0.198 A 
ATOM    122  C   UNL A   1      51.293  25.969  26.674  1.00  0.00     0.198 A 
ATOM    123  F   UNL A   1      49.721  25.949  28.429  1.00  0.00    -0.203 F 
ATOM    124  F   UNL A   1      50.946  27.001  23.215  1.00  0.00    -0.200 F 
ATOM    125  C   UNL A   1      51.611  26.236  25.349  1.00  0.00     0.200 A 
ATOM    126  F   UNL A   1      52.224  25.469  27.497  1.00  0.00    -0.200 F 
ATOM    127  F   UNL A   1      52.846  25.989  24.892  1.00  0.00    -0.200 F 
ENDBRANCH  89 117
BRANCH 104 128
ATOM    128  C   UNL A   1      46.005  32.460  28.867  1.00  0.00     0.064 A 
ATOM    129  C   UNL A   1      45.938  33.461  27.889  1.00  0.00     0.173 A 
ATOM    130  C   UNL A   1      46.534  32.790  30.122  1.00  0.00     0.173 A 
ATOM    131  F   UNL A   1      45.452  33.182  26.670  1.00  0.00    -0.203 F 
ATOM    132  C   UNL A   1      46.391  34.749  28.158  1.00  0.00     0.198 A 
ATOM    133  C   UNL A   1      46.980  34.081  30.390  1.00  0.00     0.198 A 
ATOM    134  F   UNL A   1      46.622  31.859  31.085  1.00  0.00    -0.203 F 
ATOM    135  F   UNL A   1      46.336  35.689  27.204  1.00  0.00    -0.200 F 
ATOM    136  C   UNL A   1      46.908  35.059  29.407  1.00  0.00     0.200 A 
ATOM    137  F   UNL A   1      47.483  34.379  31.596  1.00  0.00    -0.200 F 
ATOM    138  F   UNL A   1      47.347  36.299  29.663  1.00  0.00    -0.200 F 
ENDBRANCH 104 128
ENDBRANCH  69  72
ENDBRANCH  59  62
ENDBRANCH  55  58
ENDBRANCH  52  55
ENDBRANCH  49  52
ENDBRANCH  46  49
ENDBRANCH   1  46
TORSDOF 18
ENDMDL
MODEL 5
REMARK VINA RESULT:     -12.6      1.638      7.335
REMARK SMILES CCc1cc(C(=O)c2[nH]c3cc(Cl)ccc3c2CC(=O)NCCCCCCNC(=O)c2ccc(-c3c4nc(c(-c5c(F)c(F)c(F)c(F)c5F)c5ccc([nH]5)c(-c5c(F)c(F)c(F)c(F)c5F)c5nc(c(-c6c(F)c(F)c(F)c(F)c6F)c6ccc3[nH]6)C=C5)C=C4)cc2)ncc1Cl
REMARK SMILES IDX 23 1 22 4 21 7 19 8 20 9 18 11 17 14 8 15 9 16 10 17 16 19
REMARK SMILES IDX 11 20 15 21 12 22 14 24 13 26 6 28 7 29 5 30 3 31 4 32 96 33
REMARK SMILES IDX 95 35 97 36 94 37 2 39 1 42 24 46 25 49 26 52 27 55 28 58
REMARK SMILES IDX 29 59 30 61 31 62 32 63 93 64 33 65 92 67 34 69 35 72 36 73
REMARK SMILES IDX 86 74 37 75 91 76 85 77 87 78 38 79 90 80 84 82 83 84 39 86
REMARK SMILES IDX 71 89 51 90 70 91 52 92 55 93 69 94 88 95 53 96 54 98 68 100
REMARK SMILES IDX 89 101 56 104 40 106 41 107 49 108 42 109 43 110 47 111
REMARK SMILES IDX 50 112 44 113 45 114 48 115 46 116 72 117 73 118 81 119
REMARK SMILES IDX 74 120 75 121 79 122 82 123 76 124 77 125 80 126 78 127
REMARK SMILES IDX 57 128 58 129 66 130 59 131 60 132 64 133 67 134 61 135
REMARK SMILES IDX 62 136 65 137 63 138
REMARK H PARENT 23 2 23 3 22 5 22 6 21 10 18 12 18 13 9 18 11 23 15 25 14 27
REMARK H PARENT 4 34 95 38 2 40 2 41 1 43 1 44 1 45 24 47 24 48 25 50 25 51
REMARK H PARENT 26 53 26 54 27 56 27 57 28 60 32 66 93 68 33 70 92 71 91 81
REMARK H PARENT 85 83 87 85 90 87 84 88 52 97 55 99 88 102 53 103 89 105
REMARK Flexibility Score: inf
ROOT
ATOM      1  C   UNL A   1      33.610  31.639  27.693  1.00  0.00    -0.036 C 
ATOM      2  H   UNL A   1      32.851  31.708  28.444  1.00  0.00     0.028 H 
ATOM      3  H   UNL A   1      33.259  31.875  26.710  1.00  0.00     0.028 H 
ENDROOT
BRANCH   1   4
ATOM      4  C   UNL A   1      34.092  30.189  27.637  1.00  0.00     0.017 C 
ATOM      5  H   UNL A   1      34.709  30.067  26.771  1.00  0.00     0.049 H 
ATOM      6  H   UNL A   1      34.634  29.994  28.539  1.00  0.00     0.049 H 
BRANCH   4   7
ATOM      7  N   UNL A   1      33.001  29.240  27.566  1.00  0.00    -0.356 N 
ATOM      8  C   UNL A   1      32.896  28.089  26.838  1.00  0.00     0.224 C 
ATOM      9  O   UNL A   1      31.906  27.375  27.010  1.00  0.00    -0.275 OA
ATOM     10  H   UNL A   1      32.220  29.454  28.126  1.00  0.00     0.163 HD
BRANCH   8  11
ATOM     11  C   UNL A   1      34.023  27.643  25.919  1.00  0.00     0.055 C 
ATOM     12  H   UNL A   1      34.354  28.495  25.362  1.00  0.00     0.042 H 
ATOM     13  H   UNL A   1      34.781  27.231  26.551  1.00  0.00     0.042 H 
BRANCH  11  14
ATOM     14  C   UNL A   1      33.655  26.562  24.942  1.00  0.00    -0.002 A 
ATOM     15  C   UNL A   1      32.950  26.700  23.750  1.00  0.00     0.093 A 
ATOM     16  N   UNL A   1      32.939  25.472  23.133  1.00  0.00    -0.351 N 
ATOM     17  C   UNL A   1      33.461  24.510  23.960  1.00  0.00     0.048 A 
ATOM     18  H   UNL A   1      32.601  25.305  22.223  1.00  0.00     0.167 HD
ATOM     19  C   UNL A   1      33.919  25.160  25.105  1.00  0.00     0.004 A 
ATOM     20  C   UNL A   1      33.573  23.126  23.774  1.00  0.00    -0.019 A 
ATOM     21  C   UNL A   1      34.517  24.384  26.122  1.00  0.00    -0.051 A 
ATOM     22  C   UNL A   1      34.165  22.385  24.800  1.00  0.00     0.043 A 
ATOM     23  H   UNL A   1      33.230  22.672  22.913  1.00  0.00     0.066 H 
ATOM     24  C   UNL A   1      34.631  22.998  25.958  1.00  0.00    -0.043 A 
ATOM     25  H   UNL A   1      34.867  24.835  26.981  1.00  0.00     0.063 H 
ATOM     26  Cl  UNL A   1      34.318  20.679  24.622  1.00  0.00    -0.084 Cl
ATOM     27  H   UNL A   1      35.065  22.427  26.701  1.00  0.00     0.064 H 
BRANCH  15  28
ATOM     28  C   UNL A   1      32.368  27.884  23.145  1.00  0.00     0.227 C 
ATOM     29  O   UNL A   1      33.074  28.715  22.579  1.00  0.00    -0.285 OA
BRANCH  28  30
ATOM     30  C   UNL A   1      30.863  28.027  23.165  1.00  0.00     0.113 A 
ATOM     31  C   UNL A   1      28.819  29.290  22.783  1.00  0.00    -0.026 A 
ATOM     32  C   UNL A   1      30.219  29.173  22.688  1.00  0.00    -0.028 A 
ATOM     33  C   UNL A   1      28.111  28.217  23.335  1.00  0.00     0.062 A 
ATOM     34  H   UNL A   1      30.772  29.934  22.265  1.00  0.00     0.065 H 
ATOM     35  C   UNL A   1      28.828  27.110  23.777  1.00  0.00     0.047 A 
ATOM     36  Cl  UNL A   1      26.397  28.203  23.501  1.00  0.00    -0.082 Cl
ATOM     37  N   UNL A   1      30.177  26.997  23.718  1.00  0.00    -0.251 NA
ATOM     38  H   UNL A   1      28.297  26.321  24.178  1.00  0.00     0.086 H 
BRANCH  31  39
ATOM     39  C   UNL A   1      28.165  30.575  22.323  1.00  0.00    -0.029 C 
ATOM     40  H   UNL A   1      28.810  31.049  21.613  1.00  0.00     0.031 H 
ATOM     41  H   UNL A   1      27.219  30.315  21.895  1.00  0.00     0.031 H 
BRANCH  39  42
ATOM     42  C   UNL A   1      27.897  31.550  23.461  1.00  0.00    -0.061 C 
ATOM     43  H   UNL A   1      28.828  31.898  23.860  1.00  0.00     0.023 H 
ATOM     44  H   UNL A   1      27.342  31.057  24.231  1.00  0.00     0.023 H 
ATOM     45  H   UNL A   1      27.335  32.383  23.093  1.00  0.00     0.023 H 
ENDBRANCH  39  42
ENDBRANCH  31  39
ENDBRANCH  28  30
ENDBRANCH  15  28
ENDBRANCH  11  14
ENDBRANCH   8  11
ENDBRANCH   4   7
ENDBRANCH   1   4
BRANCH   1  46
ATOM     46  C   UNL A   1      34.695  32.672  28.018  1.00  0.00    -0.052 C 
ATOM     47  H   UNL A   1      34.920  33.206  27.118  1.00  0.00     0.027 H 
ATOM     48  H   UNL A   1      35.518  32.112  28.412  1.00  0.00     0.027 H 
BRANCH  46  49
ATOM     49  C   UNL A   1      34.344  33.702  29.097  1.00  0.00    -0.052 C 
ATOM     50  H   UNL A   1      35.203  34.320  29.250  1.00  0.00     0.027 H 
ATOM     51  H   UNL A   1      34.054  33.131  29.955  1.00  0.00     0.027 H 
BRANCH  49  52
ATOM     52  C   UNL A   1      33.155  34.620  28.792  1.00  0.00    -0.036 C 
ATOM     53  H   UNL A   1      32.284  34.190  29.239  1.00  0.00     0.028 H 
ATOM     54  H   UNL A   1      33.109  34.689  27.725  1.00  0.00     0.028 H 
BRANCH  52  55
ATOM     55  C   UNL A   1      33.278  36.059  29.295  1.00  0.00     0.018 C 
ATOM     56  H   UNL A   1      32.980  36.723  28.510  1.00  0.00     0.049 H 
ATOM     57  H   UNL A   1      34.298  36.215  29.580  1.00  0.00     0.049 H 
BRANCH  55  58
ATOM     58  N   UNL A   1      32.453  36.319  30.460  1.00  0.00    -0.352 N 
ATOM     59  C   UNL A   1      32.605  35.890  31.756  1.00  0.00     0.251 C 
ATOM     60  H   UNL A   1      31.666  36.889  30.299  1.00  0.00     0.163 HD
ATOM     61  O   UNL A   1      31.725  36.114  32.583  1.00  0.00    -0.269 OA
BRANCH  59  62
ATOM     62  C   UNL A   1      33.811  35.136  32.172  1.00  0.00     0.039 A 
ATOM     63  C   UNL A   1      33.642  33.846  32.692  1.00  0.00    -0.049 A 
ATOM     64  C   UNL A   1      35.088  35.702  32.119  1.00  0.00    -0.049 A 
ATOM     65  C   UNL A   1      34.752  33.107  33.110  1.00  0.00    -0.053 A 
ATOM     66  H   UNL A   1      32.696  33.442  32.766  1.00  0.00     0.063 H 
ATOM     67  C   UNL A   1      36.200  34.953  32.513  1.00  0.00    -0.053 A 
ATOM     68  H   UNL A   1      35.209  36.672  31.788  1.00  0.00     0.063 H 
ATOM     69  C   UNL A   1      36.040  33.651  33.009  1.00  0.00    -0.014 A 
ATOM     70  H   UNL A   1      34.623  32.158  33.492  1.00  0.00     0.063 H 
ATOM     71  H   UNL A   1      37.145  35.362  32.440  1.00  0.00     0.063 H 
BRANCH  69  72
ATOM     72  C   UNL A   1      37.231  32.865  33.413  1.00  0.00     0.031 A 
ATOM     73  C   UNL A   1      37.917  33.140  34.717  1.00  0.00     0.074 A 
ATOM     74  C   UNL A   1      37.729  31.936  32.576  1.00  0.00     0.049 A 
ATOM     75  N   UNL A   1      39.021  32.621  35.196  1.00  0.00    -0.248 NA
ATOM     76  C   UNL A   1      37.290  34.140  35.594  1.00  0.00    -0.034 C 
ATOM     77  C   UNL A   1      37.171  31.590  31.269  1.00  0.00    -0.036 A 
ATOM     78  N   UNL A   1      38.830  31.125  32.698  1.00  0.00    -0.354 N 
ATOM     79  C   UNL A   1      39.239  33.252  36.411  1.00  0.00     0.074 A 
ATOM     80  C   UNL A   1      38.151  34.189  36.603  1.00  0.00    -0.034 C 
ATOM     81  H   UNL A   1      36.412  34.665  35.460  1.00  0.00     0.065 H 
ATOM     82  C   UNL A   1      37.935  30.638  30.706  1.00  0.00    -0.036 A 
ATOM     83  H   UNL A   1      36.328  32.009  30.847  1.00  0.00     0.065 H 
ATOM     84  C   UNL A   1      39.041  30.322  31.606  1.00  0.00     0.049 A 
ATOM     85  H   UNL A   1      39.411  31.120  33.492  1.00  0.00     0.167 HD
ATOM     86  C   UNL A   1      40.256  33.071  37.286  1.00  0.00     0.037 A 
ATOM     87  H   UNL A   1      38.057  34.815  37.419  1.00  0.00     0.065 H 
ATOM     88  H   UNL A   1      37.767  30.201  29.787  1.00  0.00     0.065 H 
ATOM     89  C   UNL A   1      40.023  29.437  31.355  1.00  0.00     0.037 A 
ATOM     90  C   UNL A   1      41.319  32.115  37.126  1.00  0.00     0.049 A 
ATOM     91  C   UNL A   1      41.108  29.213  32.366  1.00  0.00     0.074 A 
ATOM     92  C   UNL A   1      42.361  31.827  37.992  1.00  0.00    -0.036 A 
ATOM     93  N   UNL A   1      41.471  31.284  36.028  1.00  0.00    -0.354 N 
ATOM     94  N   UNL A   1      41.291  29.802  33.521  1.00  0.00    -0.248 NA
ATOM     95  C   UNL A   1      42.124  28.202  32.037  1.00  0.00    -0.034 C 
ATOM     96  C   UNL A   1      43.150  30.827  37.412  1.00  0.00    -0.036 A 
ATOM     97  H   UNL A   1      42.526  32.273  38.909  1.00  0.00     0.065 H 
ATOM     98  C   UNL A   1      42.592  30.487  36.190  1.00  0.00     0.049 A 
ATOM     99  H   UNL A   1      40.871  31.264  35.247  1.00  0.00     0.167 HD
ATOM    100  C   UNL A   1      42.436  29.233  34.060  1.00  0.00     0.074 A 
ATOM    101  C   UNL A   1      42.903  28.246  33.110  1.00  0.00    -0.034 C 
ATOM    102  H   UNL A   1      42.208  27.613  31.194  1.00  0.00     0.065 H 
ATOM    103  H   UNL A   1      44.003  30.414  37.823  1.00  0.00     0.065 H 
ATOM    104  C   UNL A   1      43.044  29.510  35.237  1.00  0.00     0.037 A 
ATOM    105  H   UNL A   1      43.736  27.653  33.248  1.00  0.00     0.065 H 
BRANCH  86 106
ATOM    106  C   UNL A   1      40.274  33.941  38.500  1.00  0.00     0.064 A 
ATOM    107  C   UNL A   1      40.973  35.155  38.517  1.00  0.00     0.173 A 
ATOM    108  C   UNL A   1      39.558  33.570  39.647  1.00  0.00     0.173 A 
ATOM    109  F   UNL A   1      41.681  35.541  37.445  1.00  0.00    -0.203 F 
ATOM    110  C   UNL A   1      40.961  35.966  39.649  1.00  0.00     0.198 A 
ATOM    111  C   UNL A   1      39.540  34.388  40.772  1.00  0.00     0.198 A 
ATOM    112  F   UNL A   1      38.877  32.414  39.674  1.00  0.00    -0.203 F 
ATOM    113  F   UNL A   1      41.650  37.115  39.654  1.00  0.00    -0.200 F 
ATOM    114  C   UNL A   1      40.243  35.584  40.773  1.00  0.00     0.200 A 
ATOM    115  F   UNL A   1      38.847  34.018  41.858  1.00  0.00    -0.200 F 
ATOM    116  F   UNL A   1      40.232  36.368  41.861  1.00  0.00    -0.200 F 
ENDBRANCH  86 106
BRANCH  89 117
ATOM    117  C   UNL A   1      40.018  28.690  30.076  1.00  0.00     0.064 A 
ATOM    118  C   UNL A   1      40.615  29.230  28.930  1.00  0.00     0.173 A 
ATOM    119  C   UNL A   1      39.431  27.422  29.985  1.00  0.00     0.173 A 
ATOM    120  F   UNL A   1      41.169  30.449  28.975  1.00  0.00    -0.203 F 
ATOM    121  C   UNL A   1      40.624  28.523  27.731  1.00  0.00     0.198 A 
ATOM    122  C   UNL A   1      39.449  26.712  28.787  1.00  0.00     0.198 A 
ATOM    123  F   UNL A   1      38.846  26.873  31.059  1.00  0.00    -0.203 F 
ATOM    124  F   UNL A   1      41.187  29.062  26.641  1.00  0.00    -0.200 F 
ATOM    125  C   UNL A   1      40.044  27.263  27.660  1.00  0.00     0.200 A 
ATOM    126  F   UNL A   1      38.891  25.496  28.722  1.00  0.00    -0.200 F 
ATOM    127  F   UNL A   1      40.055  26.583  26.507  1.00  0.00    -0.200 F 
ENDBRANCH  89 117
BRANCH 104 128
ATOM    128  C   UNL A   1      44.276  28.730  35.566  1.00  0.00     0.064 A 
ATOM    129  C   UNL A   1      44.199  27.522  36.272  1.00  0.00     0.173 A 
ATOM    130  C   UNL A   1      45.536  29.174  35.144  1.00  0.00     0.173 A 
ATOM    131  F   UNL A   1      43.013  27.070  36.706  1.00  0.00    -0.203 F 
ATOM    132  C   UNL A   1      45.347  26.787  36.551  1.00  0.00     0.198 A 
ATOM    133  C   UNL A   1      46.682  28.432  35.418  1.00  0.00     0.198 A 
ATOM    134  F   UNL A   1      45.655  30.328  34.470  1.00  0.00    -0.203 F 
ATOM    135  F   UNL A   1      45.256  25.643  37.244  1.00  0.00    -0.200 F 
ATOM    136  C   UNL A   1      46.586  27.240  36.122  1.00  0.00     0.200 A 
ATOM    137  F   UNL A   1      47.879  28.873  35.007  1.00  0.00    -0.200 F 
ATOM    138  F   UNL A   1      47.690  26.533  36.395  1.00  0.00    -0.200 F 
ENDBRANCH 104 128
ENDBRANCH  69  72
ENDBRANCH  59  62
ENDBRANCH  55  58
ENDBRANCH  52  55
ENDBRANCH  49  52
ENDBRANCH  46  49
ENDBRANCH   1  46
TORSDOF 18
ENDMDL
MODEL 6
REMARK VINA RESULT:     -12.6      3.869      8.101
REMARK SMILES CCc1cc(C(=O)c2[nH]c3cc(Cl)ccc3c2CC(=O)NCCCCCCNC(=O)c2ccc(-c3c4nc(c(-c5c(F)c(F)c(F)c(F)c5F)c5ccc([nH]5)c(-c5c(F)c(F)c(F)c(F)c5F)c5nc(c(-c6c(F)c(F)c(F)c(F)c6F)c6ccc3[nH]6)C=C5)C=C4)cc2)ncc1Cl
REMARK SMILES IDX 23 1 22 4 21 7 19 8 20 9 18 11 17 14 8 15 9 16 10 17 16 19
REMARK SMILES IDX 11 20 15 21 12 22 14 24 13 26 6 28 7 29 5 30 3 31 4 32 96 33
REMARK SMILES IDX 95 35 97 36 94 37 2 39 1 42 24 46 25 49 26 52 27 55 28 58
REMARK SMILES IDX 29 59 30 61 31 62 32 63 93 64 33 65 92 67 34 69 35 72 36 73
REMARK SMILES IDX 86 74 37 75 91 76 85 77 87 78 38 79 90 80 84 82 83 84 39 86
REMARK SMILES IDX 71 89 51 90 70 91 52 92 55 93 69 94 88 95 53 96 54 98 68 100
REMARK SMILES IDX 89 101 56 104 40 106 41 107 49 108 42 109 43 110 47 111
REMARK SMILES IDX 50 112 44 113 45 114 48 115 46 116 72 117 73 118 81 119
REMARK SMILES IDX 74 120 75 121 79 122 82 123 76 124 77 125 80 126 78 127
REMARK SMILES IDX 57 128 58 129 66 130 59 131 60 132 64 133 67 134 61 135
REMARK SMILES IDX 62 136 65 137 63 138
REMARK H PARENT 23 2 23 3 22 5 22 6 21 10 18 12 18 13 9 18 11 23 15 25 14 27
REMARK H PARENT 4 34 95 38 2 40 2 41 1 43 1 44 1 45 24 47 24 48 25 50 25 51
REMARK H PARENT 26 53 26 54 27 56 27 57 28 60 32 66 93 68 33 70 92 71 91 81
REMARK H PARENT 85 83 87 85 90 87 84 88 52 97 55 99 88 102 53 103 89 105
REMARK Flexibility Score: inf
ROOT
ATOM      1  C   UNL A   1      33.224  26.299  23.001  1.00  0.00    -0.036 C 
ATOM      2  H   UNL A   1      32.920  26.610  23.979  1.00  0.00     0.028 H 
ATOM      3  H   UNL A   1      33.788  27.039  22.475  1.00  0.00     0.028 H 
ENDROOT
BRANCH   1   4
ATOM      4  C   UNL A   1      31.966  26.049  22.169  1.00  0.00     0.017 C 
ATOM      5  H   UNL A   1      32.260  25.783  21.175  1.00  0.00     0.049 H 
ATOM      6  H   UNL A   1      31.416  25.263  22.642  1.00  0.00     0.049 H 
BRANCH   4   7
ATOM      7  N   UNL A   1      31.102  27.210  22.102  1.00  0.00    -0.356 N 
ATOM      8  C   UNL A   1      30.110  27.605  22.954  1.00  0.00     0.224 C 
ATOM      9  O   UNL A   1      29.565  28.693  22.752  1.00  0.00    -0.275 OA
ATOM     10  H   UNL A   1      31.252  27.801  21.329  1.00  0.00     0.163 HD
BRANCH   8  11
ATOM     11  C   UNL A   1      29.762  26.779  24.182  1.00  0.00     0.055 C 
ATOM     12  H   UNL A   1      28.817  27.116  24.552  1.00  0.00     0.042 H 
ATOM     13  H   UNL A   1      29.752  25.758  23.864  1.00  0.00     0.042 H 
BRANCH  11  14
ATOM     14  C   UNL A   1      30.759  26.861  25.304  1.00  0.00    -0.002 A 
ATOM     15  C   UNL A   1      31.108  25.857  26.203  1.00  0.00     0.093 A 
ATOM     16  N   UNL A   1      32.131  26.342  26.984  1.00  0.00    -0.351 N 
ATOM     17  C   UNL A   1      32.339  27.675  26.737  1.00  0.00     0.048 A 
ATOM     18  H   UNL A   1      32.644  25.805  27.631  1.00  0.00     0.167 HD
ATOM     19  C   UNL A   1      31.493  28.033  25.689  1.00  0.00     0.004 A 
ATOM     20  C   UNL A   1      33.216  28.577  27.351  1.00  0.00    -0.019 A 
ATOM     21  C   UNL A   1      31.521  29.369  25.233  1.00  0.00    -0.051 A 
ATOM     22  C   UNL A   1      33.218  29.893  26.880  1.00  0.00     0.043 A 
ATOM     23  H   UNL A   1      33.836  28.283  28.122  1.00  0.00     0.066 H 
ATOM     24  C   UNL A   1      32.386  30.290  25.838  1.00  0.00    -0.043 A 
ATOM     25  H   UNL A   1      30.909  29.666  24.457  1.00  0.00     0.063 H 
ATOM     26  Cl  UNL A   1      34.273  31.043  27.607  1.00  0.00    -0.084 Cl
ATOM     27  H   UNL A   1      32.407  31.268  25.509  1.00  0.00     0.064 H 
BRANCH  15  28
ATOM     28  C   UNL A   1      30.608  24.501  26.324  1.00  0.00     0.227 C 
ATOM     29  O   UNL A   1      29.484  24.280  26.765  1.00  0.00    -0.285 OA
BRANCH  28  30
ATOM     30  C   UNL A   1      31.482  23.372  25.822  1.00  0.00     0.113 A 
ATOM     31  C   UNL A   1      32.233  21.845  24.083  1.00  0.00    -0.026 A 
ATOM     32  C   UNL A   1      31.447  22.940  24.493  1.00  0.00    -0.028 A 
ATOM     33  C   UNL A   1      33.058  21.242  25.038  1.00  0.00     0.062 A 
ATOM     34  H   UNL A   1      30.844  23.425  23.811  1.00  0.00     0.065 H 
ATOM     35  C   UNL A   1      33.040  21.740  26.337  1.00  0.00     0.047 A 
ATOM     36  Cl  UNL A   1      34.089  19.908  24.687  1.00  0.00    -0.082 Cl
ATOM     37  N   UNL A   1      32.268  22.773  26.750  1.00  0.00    -0.251 NA
ATOM     38  H   UNL A   1      33.656  21.293  27.033  1.00  0.00     0.086 H 
BRANCH  31  39
ATOM     39  C   UNL A   1      32.113  21.360  22.655  1.00  0.00    -0.029 C 
ATOM     40  H   UNL A   1      32.659  20.445  22.560  1.00  0.00     0.031 H 
ATOM     41  H   UNL A   1      31.071  21.229  22.450  1.00  0.00     0.031 H 
BRANCH  39  42
ATOM     42  C   UNL A   1      32.655  22.355  21.638  1.00  0.00    -0.061 C 
ATOM     43  H   UNL A   1      33.631  22.676  21.937  1.00  0.00     0.023 H 
ATOM     44  H   UNL A   1      32.003  23.201  21.584  1.00  0.00     0.023 H 
ATOM     45  H   UNL A   1      32.713  21.888  20.677  1.00  0.00     0.023 H 
ENDBRANCH  39  42
ENDBRANCH  31  39
ENDBRANCH  28  30
ENDBRANCH  15  28
ENDBRANCH  11  14
ENDBRANCH   8  11
ENDBRANCH   4   7
ENDBRANCH   1   4
BRANCH   1  46
ATOM     46  C   UNL A   1      34.151  25.087  23.157  1.00  0.00    -0.052 C 
ATOM     47  H   UNL A   1      35.004  25.244  22.530  1.00  0.00     0.027 H 
ATOM     48  H   UNL A   1      33.560  24.236  22.887  1.00  0.00     0.027 H 
BRANCH  46  49
ATOM     49  C   UNL A   1      34.657  24.803  24.575  1.00  0.00    -0.052 C 
ATOM     50  H   UNL A   1      33.817  24.512  25.169  1.00  0.00     0.027 H 
ATOM     51  H   UNL A   1      35.132  25.706  24.896  1.00  0.00     0.027 H 
BRANCH  49  52
ATOM     52  C   UNL A   1      35.723  23.709  24.705  1.00  0.00    -0.036 C 
ATOM     53  H   UNL A   1      36.409  23.820  23.892  1.00  0.00     0.028 H 
ATOM     54  H   UNL A   1      35.188  22.781  24.701  1.00  0.00     0.028 H 
BRANCH  52  55
ATOM     55  C   UNL A   1      36.530  23.715  26.003  1.00  0.00     0.018 C 
ATOM     56  H   UNL A   1      35.881  23.449  26.811  1.00  0.00     0.049 H 
ATOM     57  H   UNL A   1      36.934  24.699  26.127  1.00  0.00     0.049 H 
BRANCH  55  58
ATOM     58  N   UNL A   1      37.644  22.785  25.978  1.00  0.00    -0.352 N 
ATOM     59  C   UNL A   1      38.962  22.986  26.307  1.00  0.00     0.251 C 
ATOM     60  H   UNL A   1      37.422  21.873  25.679  1.00  0.00     0.163 HD
ATOM     61  O   UNL A   1      39.787  22.100  26.097  1.00  0.00    -0.269 OA
BRANCH  59  62
ATOM     62  C   UNL A   1      39.413  24.269  26.894  1.00  0.00     0.039 A 
ATOM     63  C   UNL A   1      39.134  24.519  28.243  1.00  0.00    -0.049 A 
ATOM     64  C   UNL A   1      40.045  25.249  26.122  1.00  0.00    -0.049 A 
ATOM     65  C   UNL A   1      39.529  25.723  28.831  1.00  0.00    -0.053 A 
ATOM     66  H   UNL A   1      38.635  23.811  28.804  1.00  0.00     0.063 H 
ATOM     67  C   UNL A   1      40.463  26.443  26.716  1.00  0.00    -0.053 A 
ATOM     68  H   UNL A   1      40.203  25.090  25.114  1.00  0.00     0.063 H 
ATOM     69  C   UNL A   1      40.210  26.687  28.074  1.00  0.00    -0.014 A 
ATOM     70  H   UNL A   1      39.321  25.903  29.825  1.00  0.00     0.063 H 
ATOM     71  H   UNL A   1      40.960  27.150  26.151  1.00  0.00     0.063 H 
BRANCH  69  72
ATOM     72  C   UNL A   1      40.669  27.954  28.693  1.00  0.00     0.031 A 
ATOM     73  C   UNL A   1      42.101  28.124  29.106  1.00  0.00     0.074 A 
ATOM     74  C   UNL A   1      39.781  28.935  28.935  1.00  0.00     0.049 A 
ATOM     75  N   UNL A   1      42.664  29.120  29.744  1.00  0.00    -0.248 NA
ATOM     76  C   UNL A   1      43.018  27.025  28.771  1.00  0.00    -0.034 C 
ATOM     77  C   UNL A   1      38.357  28.887  28.605  1.00  0.00    -0.036 A 
ATOM     78  N   UNL A   1      39.947  30.161  29.531  1.00  0.00    -0.354 N 
ATOM     79  C   UNL A   1      43.991  28.755  29.917  1.00  0.00     0.074 A 
ATOM     80  C   UNL A   1      44.153  27.449  29.311  1.00  0.00    -0.034 C 
ATOM     81  H   UNL A   1      42.829  26.152  28.253  1.00  0.00     0.065 H 
ATOM     82  C   UNL A   1      37.776  30.030  29.006  1.00  0.00    -0.036 A 
ATOM     83  H   UNL A   1      37.876  28.101  28.141  1.00  0.00     0.065 H 
ATOM     84  C   UNL A   1      38.784  30.881  29.633  1.00  0.00     0.049 A 
ATOM     85  H   UNL A   1      40.816  30.491  29.852  1.00  0.00     0.167 HD
ATOM     86  C   UNL A   1      44.983  29.445  30.528  1.00  0.00     0.037 A 
ATOM     87  H   UNL A   1      45.038  26.917  29.301  1.00  0.00     0.065 H 
ATOM     88  H   UNL A   1      36.779  30.269  28.890  1.00  0.00     0.065 H 
ATOM     89  C   UNL A   1      38.555  32.088  30.182  1.00  0.00     0.037 A 
ATOM     90  C   UNL A   1      44.844  30.759  31.096  1.00  0.00     0.049 A 
ATOM     91  C   UNL A   1      39.683  32.857  30.802  1.00  0.00     0.074 A 
ATOM     92  C   UNL A   1      45.813  31.553  31.687  1.00  0.00    -0.036 A 
ATOM     93  N   UNL A   1      43.660  31.476  31.136  1.00  0.00    -0.354 N 
ATOM     94  N   UNL A   1      40.938  32.510  30.941  1.00  0.00    -0.248 NA
ATOM     95  C   UNL A   1      39.362  34.186  31.346  1.00  0.00    -0.034 C 
ATOM     96  C   UNL A   1      45.211  32.750  32.093  1.00  0.00    -0.036 A 
ATOM     97  H   UNL A   1      46.808  31.305  31.805  1.00  0.00     0.065 H 
ATOM     98  C   UNL A   1      43.871  32.702  31.747  1.00  0.00     0.049 A 
ATOM     99  H   UNL A   1      42.796  31.161  30.784  1.00  0.00     0.167 HD
ATOM    100  C   UNL A   1      41.558  33.574  31.580  1.00  0.00     0.074 A 
ATOM    101  C   UNL A   1      40.544  34.584  31.797  1.00  0.00    -0.034 C 
ATOM    102  H   UNL A   1      38.456  34.679  31.368  1.00  0.00     0.065 H 
ATOM    103  H   UNL A   1      45.684  33.533  32.572  1.00  0.00     0.065 H 
ATOM    104  C   UNL A   1      42.853  33.696  31.954  1.00  0.00     0.037 A 
ATOM    105  H   UNL A   1      40.718  35.496  32.246  1.00  0.00     0.065 H 
BRANCH  86 106
ATOM    106  C   UNL A   1      46.316  28.778  30.626  1.00  0.00     0.064 A 
ATOM    107  C   UNL A   1      47.292  28.950  29.636  1.00  0.00     0.173 A 
ATOM    108  C   UNL A   1      46.630  27.984  31.738  1.00  0.00     0.173 A 
ATOM    109  F   UNL A   1      47.028  29.691  28.550  1.00  0.00    -0.203 F 
ATOM    110  C   UNL A   1      48.539  28.341  29.753  1.00  0.00     0.198 A 
ATOM    111  C   UNL A   1      47.880  27.384  31.857  1.00  0.00     0.198 A 
ATOM    112  F   UNL A   1      45.723  27.791  32.708  1.00  0.00    -0.203 F 
ATOM    113  F   UNL A   1      49.454  28.501  28.788  1.00  0.00    -0.200 F 
ATOM    114  C   UNL A   1      48.833  27.562  30.864  1.00  0.00     0.200 A 
ATOM    115  F   UNL A   1      48.163  26.632  32.929  1.00  0.00    -0.200 F 
ATOM    116  F   UNL A   1      50.034  26.976  30.974  1.00  0.00    -0.200 F 
ENDBRANCH  86 106
BRANCH  89 117
ATOM    117  C   UNL A   1      37.183  32.646  30.161  1.00  0.00     0.064 A 
ATOM    118  C   UNL A   1      36.773  33.499  29.130  1.00  0.00     0.173 A 
ATOM    119  C   UNL A   1      36.258  32.323  31.163  1.00  0.00     0.173 A 
ATOM    120  F   UNL A   1      37.636  33.846  28.165  1.00  0.00    -0.203 F 
ATOM    121  C   UNL A   1      35.479  34.013  29.101  1.00  0.00     0.198 A 
ATOM    122  C   UNL A   1      34.962  32.829  31.127  1.00  0.00     0.198 A 
ATOM    123  F   UNL A   1      36.615  31.512  32.169  1.00  0.00    -0.203 F 
ATOM    124  F   UNL A   1      35.110  34.840  28.113  1.00  0.00    -0.200 F 
ATOM    125  C   UNL A   1      34.573  33.675  30.097  1.00  0.00     0.200 A 
ATOM    126  F   UNL A   1      34.089  32.501  32.089  1.00  0.00    -0.200 F 
ATOM    127  F   UNL A   1      33.328  34.167  30.067  1.00  0.00    -0.200 F 
ENDBRANCH  89 117
BRANCH 104 128
ATOM    128  C   UNL A   1      43.247  34.970  32.631  1.00  0.00     0.064 A 
ATOM    129  C   UNL A   1      43.258  35.071  34.028  1.00  0.00     0.173 A 
ATOM    130  C   UNL A   1      43.647  36.083  31.880  1.00  0.00     0.173 A 
ATOM    131  F   UNL A   1      42.868  34.033  34.783  1.00  0.00    -0.203 F 
ATOM    132  C   UNL A   1      43.652  36.251  34.652  1.00  0.00     0.198 A 
ATOM    133  C   UNL A   1      44.047  37.259  32.508  1.00  0.00     0.198 A 
ATOM    134  F   UNL A   1      43.645  36.030  30.539  1.00  0.00    -0.203 F 
ATOM    135  F   UNL A   1      43.639  36.336  35.990  1.00  0.00    -0.200 F 
ATOM    136  C   UNL A   1      44.049  37.342  33.893  1.00  0.00     0.200 A 
ATOM    137  F   UNL A   1      44.427  38.314  31.774  1.00  0.00    -0.200 F 
ATOM    138  F   UNL A   1      44.425  38.478  34.496  1.00  0.00    -0.200 F 
ENDBRANCH 104 128
ENDBRANCH  69  72
ENDBRANCH  59  62
ENDBRANCH  55  58
ENDBRANCH  52  55
ENDBRANCH  49  52
ENDBRANCH  46  49
ENDBRANCH   1  46
TORSDOF 18
ENDMDL
MODEL 7
REMARK VINA RESULT:     -12.6      5.224     10.387
REMARK SMILES CCc1cc(C(=O)c2[nH]c3cc(Cl)ccc3c2CC(=O)NCCCCCCNC(=O)c2ccc(-c3c4nc(c(-c5c(F)c(F)c(F)c(F)c5F)c5ccc([nH]5)c(-c5c(F)c(F)c(F)c(F)c5F)c5nc(c(-c6c(F)c(F)c(F)c(F)c6F)c6ccc3[nH]6)C=C5)C=C4)cc2)ncc1Cl
REMARK SMILES IDX 23 1 22 4 21 7 19 8 20 9 18 11 17 14 8 15 9 16 10 17 16 19
REMARK SMILES IDX 11 20 15 21 12 22 14 24 13 26 6 28 7 29 5 30 3 31 4 32 96 33
REMARK SMILES IDX 95 35 97 36 94 37 2 39 1 42 24 46 25 49 26 52 27 55 28 58
REMARK SMILES IDX 29 59 30 61 31 62 32 63 93 64 33 65 92 67 34 69 35 72 36 73
REMARK SMILES IDX 86 74 37 75 91 76 85 77 87 78 38 79 90 80 84 82 83 84 39 86
REMARK SMILES IDX 71 89 51 90 70 91 52 92 55 93 69 94 88 95 53 96 54 98 68 100
REMARK SMILES IDX 89 101 56 104 40 106 41 107 49 108 42 109 43 110 47 111
REMARK SMILES IDX 50 112 44 113 45 114 48 115 46 116 72 117 73 118 81 119
REMARK SMILES IDX 74 120 75 121 79 122 82 123 76 124 77 125 80 126 78 127
REMARK SMILES IDX 57 128 58 129 66 130 59 131 60 132 64 133 67 134 61 135
REMARK SMILES IDX 62 136 65 137 63 138
REMARK H PARENT 23 2 23 3 22 5 22 6 21 10 18 12 18 13 9 18 11 23 15 25 14 27
REMARK H PARENT 4 34 95 38 2 40 2 41 1 43 1 44 1 45 24 47 24 48 25 50 25 51
REMARK H PARENT 26 53 26 54 27 56 27 57 28 60 32 66 93 68 33 70 92 71 91 81
REMARK H PARENT 85 83 87 85 90 87 84 88 52 97 55 99 88 102 53 103 89 105
REMARK Flexibility Score: inf
ROOT
ATOM      1  C   UNL A   1      37.037  22.943  24.945  1.00  0.00    -0.036 C 
ATOM      2  H   UNL A   1      37.818  22.578  25.579  1.00  0.00     0.028 H 
ATOM      3  H   UNL A   1      37.387  23.580  24.161  1.00  0.00     0.028 H 
ENDROOT
BRANCH   1   4
ATOM      4  C   UNL A   1      36.091  23.791  25.795  1.00  0.00     0.017 C 
ATOM      5  H   UNL A   1      36.652  24.588  26.238  1.00  0.00     0.049 H 
ATOM      6  H   UNL A   1      35.320  24.160  25.152  1.00  0.00     0.049 H 
BRANCH   4   7
ATOM      7  N   UNL A   1      35.456  23.030  26.851  1.00  0.00    -0.356 N 
ATOM      8  C   UNL A   1      34.142  22.990  27.222  1.00  0.00     0.224 C 
ATOM      9  O   UNL A   1      33.805  22.186  28.095  1.00  0.00    -0.275 OA
ATOM     10  H   UNL A   1      36.058  22.458  27.378  1.00  0.00     0.163 HD
BRANCH   8  11
ATOM     11  C   UNL A   1      33.102  23.835  26.503  1.00  0.00     0.055 C 
ATOM     12  H   UNL A   1      32.185  23.772  27.052  1.00  0.00     0.042 H 
ATOM     13  H   UNL A   1      33.500  24.827  26.458  1.00  0.00     0.042 H 
BRANCH  11  14
ATOM     14  C   UNL A   1      32.824  23.426  25.084  1.00  0.00    -0.002 A 
ATOM     15  C   UNL A   1      32.616  24.258  23.987  1.00  0.00     0.093 A 
ATOM     16  N   UNL A   1      32.507  23.455  22.877  1.00  0.00    -0.351 N 
ATOM     17  C   UNL A   1      32.468  22.131  23.237  1.00  0.00     0.048 A 
ATOM     18  H   UNL A   1      32.463  23.784  21.949  1.00  0.00     0.167 HD
ATOM     19  C   UNL A   1      32.663  22.078  24.616  1.00  0.00     0.004 A 
ATOM     20  C   UNL A   1      32.289  20.989  22.448  1.00  0.00    -0.019 A 
ATOM     21  C   UNL A   1      32.675  20.813  25.242  1.00  0.00    -0.051 A 
ATOM     22  C   UNL A   1      32.301  19.752  23.097  1.00  0.00     0.043 A 
ATOM     23  H   UNL A   1      32.152  21.058  21.428  1.00  0.00     0.066 H 
ATOM     24  C   UNL A   1      32.490  19.658  24.472  1.00  0.00    -0.043 A 
ATOM     25  H   UNL A   1      32.819  20.739  26.261  1.00  0.00     0.063 H 
ATOM     26  Cl  UNL A   1      32.078  18.316  22.172  1.00  0.00    -0.084 Cl
ATOM     27  H   UNL A   1      32.495  18.731  24.927  1.00  0.00     0.064 H 
BRANCH  15  28
ATOM     28  C   UNL A   1      32.582  25.706  23.911  1.00  0.00     0.227 C 
ATOM     29  O   UNL A   1      33.620  26.363  23.923  1.00  0.00    -0.285 OA
BRANCH  28  30
ATOM     30  C   UNL A   1      31.238  26.379  23.740  1.00  0.00     0.113 A 
ATOM     31  C   UNL A   1      29.846  28.348  23.410  1.00  0.00    -0.026 A 
ATOM     32  C   UNL A   1      31.120  27.751  23.501  1.00  0.00    -0.028 A 
ATOM     33  C   UNL A   1      28.728  27.516  23.534  1.00  0.00     0.062 A 
ATOM     34  H   UNL A   1      31.968  28.329  23.392  1.00  0.00     0.065 H 
ATOM     35  C   UNL A   1      28.935  26.159  23.761  1.00  0.00     0.047 A 
ATOM     36  Cl  UNL A   1      27.108  28.092  23.427  1.00  0.00    -0.082 Cl
ATOM     37  N   UNL A   1      30.153  25.579  23.880  1.00  0.00    -0.251 NA
ATOM     38  H   UNL A   1      28.104  25.554  23.845  1.00  0.00     0.086 H 
BRANCH  31  39
ATOM     39  C   UNL A   1      29.758  29.846  23.225  1.00  0.00    -0.029 C 
ATOM     40  H   UNL A   1      28.943  30.214  23.813  1.00  0.00     0.031 H 
ATOM     41  H   UNL A   1      30.696  30.260  23.534  1.00  0.00     0.031 H 
BRANCH  39  42
ATOM     42  C   UNL A   1      29.535  30.258  21.776  1.00  0.00    -0.061 C 
ATOM     43  H   UNL A   1      30.201  31.058  21.526  1.00  0.00     0.023 H 
ATOM     44  H   UNL A   1      28.525  30.583  21.649  1.00  0.00     0.023 H 
ATOM     45  H   UNL A   1      29.726  29.423  21.135  1.00  0.00     0.023 H 
ENDBRANCH  39  42
ENDBRANCH  31  39
ENDBRANCH  28  30
ENDBRANCH  15  28
ENDBRANCH  11  14
ENDBRANCH   8  11
ENDBRANCH   4   7
ENDBRANCH   1   4
BRANCH   1  46
ATOM     46  C   UNL A   1      36.385  21.738  24.255  1.00  0.00    -0.052 C 
ATOM     47  H   UNL A   1      36.851  21.615  23.300  1.00  0.00     0.027 H 
ATOM     48  H   UNL A   1      35.340  21.964  24.207  1.00  0.00     0.027 H 
BRANCH  46  49
ATOM     49  C   UNL A   1      36.483  20.401  24.999  1.00  0.00    -0.052 C 
ATOM     50  H   UNL A   1      35.700  19.769  24.638  1.00  0.00     0.027 H 
ATOM     51  H   UNL A   1      36.407  20.645  26.038  1.00  0.00     0.027 H 
BRANCH  49  52
ATOM     52  C   UNL A   1      37.806  19.641  24.850  1.00  0.00    -0.036 C 
ATOM     53  H   UNL A   1      38.130  19.743  23.836  1.00  0.00     0.028 H 
ATOM     54  H   UNL A   1      37.596  18.633  25.142  1.00  0.00     0.028 H 
BRANCH  52  55
ATOM     55  C   UNL A   1      38.947  20.105  25.755  1.00  0.00     0.018 C 
ATOM     56  H   UNL A   1      38.562  20.256  26.742  1.00  0.00     0.049 H 
ATOM     57  H   UNL A   1      39.340  21.011  25.341  1.00  0.00     0.049 H 
BRANCH  55  58
ATOM     58  N   UNL A   1      40.036  19.148  25.823  1.00  0.00    -0.352 N 
ATOM     59  C   UNL A   1      41.372  19.354  26.065  1.00  0.00     0.251 C 
ATOM     60  H   UNL A   1      39.779  18.209  25.673  1.00  0.00     0.163 HD
ATOM     61  O   UNL A   1      42.165  18.423  25.955  1.00  0.00    -0.269 OA
BRANCH  59  62
ATOM     62  C   UNL A   1      41.880  20.696  26.435  1.00  0.00     0.039 A 
ATOM     63  C   UNL A   1      42.117  21.623  25.413  1.00  0.00    -0.049 A 
ATOM     64  C   UNL A   1      42.187  21.027  27.759  1.00  0.00    -0.049 A 
ATOM     65  C   UNL A   1      42.611  22.895  25.719  1.00  0.00    -0.053 A 
ATOM     66  H   UNL A   1      41.926  21.367  24.433  1.00  0.00     0.063 H 
ATOM     67  C   UNL A   1      42.657  22.306  28.068  1.00  0.00    -0.053 A 
ATOM     68  H   UNL A   1      42.066  20.326  28.508  1.00  0.00     0.063 H 
ATOM     69  C   UNL A   1      42.870  23.249  27.051  1.00  0.00    -0.014 A 
ATOM     70  H   UNL A   1      42.784  23.575  24.963  1.00  0.00     0.063 H 
ATOM     71  H   UNL A   1      42.849  22.558  29.049  1.00  0.00     0.063 H 
BRANCH  69  72
ATOM     72  C   UNL A   1      43.358  24.606  27.394  1.00  0.00     0.031 A 
ATOM     73  C   UNL A   1      42.428  25.620  27.991  1.00  0.00     0.074 A 
ATOM     74  C   UNL A   1      44.630  24.944  27.117  1.00  0.00     0.049 A 
ATOM     75  N   UNL A   1      42.650  26.882  28.269  1.00  0.00    -0.248 NA
ATOM     76  C   UNL A   1      41.066  25.164  28.302  1.00  0.00    -0.034 C 
ATOM     77  C   UNL A   1      45.628  24.060  26.515  1.00  0.00    -0.036 A 
ATOM     78  N   UNL A   1      45.295  26.132  27.292  1.00  0.00    -0.354 N 
ATOM     79  C   UNL A   1      41.450  27.377  28.757  1.00  0.00     0.074 A 
ATOM     80  C   UNL A   1      40.503  26.281  28.743  1.00  0.00    -0.034 C 
ATOM     81  H   UNL A   1      40.656  24.222  28.204  1.00  0.00     0.065 H 
ATOM     82  C   UNL A   1      46.779  24.737  26.368  1.00  0.00    -0.036 A 
ATOM     83  H   UNL A   1      45.473  23.076  26.247  1.00  0.00     0.065 H 
ATOM     84  C   UNL A   1      46.593  26.103  26.849  1.00  0.00     0.049 A 
ATOM     85  H   UNL A   1      44.881  26.928  27.697  1.00  0.00     0.167 HD
ATOM     86  C   UNL A   1      41.163  28.633  29.174  1.00  0.00     0.037 A 
ATOM     87  H   UNL A   1      39.517  26.359  29.039  1.00  0.00     0.065 H 
ATOM     88  H   UNL A   1      47.654  24.353  25.978  1.00  0.00     0.065 H 
ATOM     89  C   UNL A   1      47.525  27.073  26.825  1.00  0.00     0.037 A 
ATOM     90  C   UNL A   1      42.105  29.717  29.231  1.00  0.00     0.049 A 
ATOM     91  C   UNL A   1      47.198  28.441  27.346  1.00  0.00     0.074 A 
ATOM     92  C   UNL A   1      41.911  31.009  29.693  1.00  0.00    -0.036 A 
ATOM     93  N   UNL A   1      43.425  29.634  28.819  1.00  0.00    -0.354 N 
ATOM     94  N   UNL A   1      46.066  28.891  27.823  1.00  0.00    -0.248 NA
ATOM     95  C   UNL A   1      48.281  29.437  27.322  1.00  0.00    -0.034 C 
ATOM     96  C   UNL A   1      43.114  31.711  29.551  1.00  0.00    -0.036 A 
ATOM     97  H   UNL A   1      41.032  31.387  30.078  1.00  0.00     0.065 H 
ATOM     98  C   UNL A   1      44.057  30.852  29.010  1.00  0.00     0.049 A 
ATOM     99  H   UNL A   1      43.851  28.829  28.445  1.00  0.00     0.167 HD
ATOM    100  C   UNL A   1      46.296  30.217  28.162  1.00  0.00     0.074 A 
ATOM    101  C   UNL A   1      47.680  30.499  27.842  1.00  0.00    -0.034 C 
ATOM    102  H   UNL A   1      49.253  29.336  26.989  1.00  0.00     0.065 H 
ATOM    103  H   UNL A   1      43.271  32.699  29.804  1.00  0.00     0.065 H 
ATOM    104  C   UNL A   1      45.433  31.117  28.688  1.00  0.00     0.037 A 
ATOM    105  H   UNL A   1      48.139  31.410  27.998  1.00  0.00     0.065 H 
BRANCH  86 106
ATOM    106  C   UNL A   1      39.756  28.906  29.594  1.00  0.00     0.064 A 
ATOM    107  C   UNL A   1      39.335  28.696  30.914  1.00  0.00     0.173 A 
ATOM    108  C   UNL A   1      38.829  29.413  28.674  1.00  0.00     0.173 A 
ATOM    109  F   UNL A   1      40.187  28.200  31.823  1.00  0.00    -0.203 F 
ATOM    110  C   UNL A   1      38.025  28.977  31.296  1.00  0.00     0.198 A 
ATOM    111  C   UNL A   1      37.524  29.703  29.061  1.00  0.00     0.198 A 
ATOM    112  F   UNL A   1      39.190  29.627  27.399  1.00  0.00    -0.203 F 
ATOM    113  F   UNL A   1      37.635  28.753  32.557  1.00  0.00    -0.200 F 
ATOM    114  C   UNL A   1      37.123  29.483  30.371  1.00  0.00     0.200 A 
ATOM    115  F   UNL A   1      36.652  30.191  28.167  1.00  0.00    -0.200 F 
ATOM    116  F   UNL A   1      35.863  29.754  30.741  1.00  0.00    -0.200 F 
ENDBRANCH  86 106
BRANCH  89 117
ATOM    117  C   UNL A   1      48.870  26.774  26.282  1.00  0.00     0.064 A 
ATOM    118  C   UNL A   1      49.857  26.199  27.093  1.00  0.00     0.173 A 
ATOM    119  C   UNL A   1      49.185  27.043  24.944  1.00  0.00     0.173 A 
ATOM    120  F   UNL A   1      49.599  25.946  28.383  1.00  0.00    -0.203 F 
ATOM    121  C   UNL A   1      51.117  25.903  26.581  1.00  0.00     0.198 A 
ATOM    122  C   UNL A   1      50.442  26.737  24.431  1.00  0.00     0.198 A 
ATOM    123  F   UNL A   1      48.268  27.596  24.137  1.00  0.00    -0.203 F 
ATOM    124  F   UNL A   1      52.053  25.367  27.377  1.00  0.00    -0.200 F 
ATOM    125  C   UNL A   1      51.409  26.168  25.250  1.00  0.00     0.200 A 
ATOM    126  F   UNL A   1      50.721  26.993  23.146  1.00  0.00    -0.200 F 
ATOM    127  F   UNL A   1      52.621  25.881  24.758  1.00  0.00    -0.200 F 
ENDBRANCH  89 117
BRANCH 104 128
ATOM    128  C   UNL A   1      45.963  32.489  28.957  1.00  0.00     0.064 A 
ATOM    129  C   UNL A   1      46.576  32.800  30.178  1.00  0.00     0.173 A 
ATOM    130  C   UNL A   1      45.888  33.488  27.977  1.00  0.00     0.173 A 
ATOM    131  F   UNL A   1      46.654  31.875  31.147  1.00  0.00    -0.203 F 
ATOM    132  C   UNL A   1      47.091  34.071  30.412  1.00  0.00     0.198 A 
ATOM    133  C   UNL A   1      46.411  34.757  28.212  1.00  0.00     0.198 A 
ATOM    134  F   UNL A   1      45.304  33.234  26.796  1.00  0.00    -0.203 F 
ATOM    135  F   UNL A   1      47.658  34.355  31.593  1.00  0.00    -0.200 F 
ATOM    136  C   UNL A   1      47.011  35.047  29.429  1.00  0.00     0.200 A 
ATOM    137  F   UNL A   1      46.330  35.700  27.264  1.00  0.00    -0.200 F 
ATOM    138  F   UNL A   1      47.505  36.271  29.658  1.00  0.00    -0.200 F 
ENDBRANCH 104 128
ENDBRANCH  69  72
ENDBRANCH  59  62
ENDBRANCH  55  58
ENDBRANCH  52  55
ENDBRANCH  49  52
ENDBRANCH  46  49
ENDBRANCH   1  46
TORSDOF 18
ENDMDL
MODEL 8
REMARK VINA RESULT:     -12.5      5.009     10.339
REMARK SMILES CCc1cc(C(=O)c2[nH]c3cc(Cl)ccc3c2CC(=O)NCCCCCCNC(=O)c2ccc(-c3c4nc(c(-c5c(F)c(F)c(F)c(F)c5F)c5ccc([nH]5)c(-c5c(F)c(F)c(F)c(F)c5F)c5nc(c(-c6c(F)c(F)c(F)c(F)c6F)c6ccc3[nH]6)C=C5)C=C4)cc2)ncc1Cl
REMARK SMILES IDX 23 1 22 4 21 7 19 8 20 9 18 11 17 14 8 15 9 16 10 17 16 19
REMARK SMILES IDX 11 20 15 21 12 22 14 24 13 26 6 28 7 29 5 30 3 31 4 32 96 33
REMARK SMILES IDX 95 35 97 36 94 37 2 39 1 42 24 46 25 49 26 52 27 55 28 58
REMARK SMILES IDX 29 59 30 61 31 62 32 63 93 64 33 65 92 67 34 69 35 72 36 73
REMARK SMILES IDX 86 74 37 75 91 76 85 77 87 78 38 79 90 80 84 82 83 84 39 86
REMARK SMILES IDX 71 89 51 90 70 91 52 92 55 93 69 94 88 95 53 96 54 98 68 100
REMARK SMILES IDX 89 101 56 104 40 106 41 107 49 108 42 109 43 110 47 111
REMARK SMILES IDX 50 112 44 113 45 114 48 115 46 116 72 117 73 118 81 119
REMARK SMILES IDX 74 120 75 121 79 122 82 123 76 124 77 125 80 126 78 127
REMARK SMILES IDX 57 128 58 129 66 130 59 131 60 132 64 133 67 134 61 135
REMARK SMILES IDX 62 136 65 137 63 138
REMARK H PARENT 23 2 23 3 22 5 22 6 21 10 18 12 18 13 9 18 11 23 15 25 14 27
REMARK H PARENT 4 34 95 38 2 40 2 41 1 43 1 44 1 45 24 47 24 48 25 50 25 51
REMARK H PARENT 26 53 26 54 27 56 27 57 28 60 32 66 93 68 33 70 92 71 91 81
REMARK H PARENT 85 83 87 85 90 87 84 88 52 97 55 99 88 102 53 103 89 105
REMARK Flexibility Score: inf
ROOT
ATOM      1  C   UNL A   1      35.760  23.122  25.713  1.00  0.00    -0.036 C 
ATOM      2  H   UNL A   1      34.928  22.503  25.976  1.00  0.00     0.028 H 
ATOM      3  H   UNL A   1      36.357  23.412  26.552  1.00  0.00     0.028 H 
ENDROOT
BRANCH   1   4
ATOM      4  C   UNL A   1      35.217  24.416  25.108  1.00  0.00     0.017 C 
ATOM      5  H   UNL A   1      36.028  25.103  24.984  1.00  0.00     0.049 H 
ATOM      6  H   UNL A   1      34.761  24.170  24.172  1.00  0.00     0.049 H 
BRANCH   4   7
ATOM      7  N   UNL A   1      34.206  25.039  25.938  1.00  0.00    -0.356 N 
ATOM      8  C   UNL A   1      33.500  26.190  25.730  1.00  0.00     0.224 C 
ATOM      9  O   UNL A   1      32.608  26.481  26.529  1.00  0.00    -0.275 OA
ATOM     10  H   UNL A   1      33.996  24.563  26.773  1.00  0.00     0.163 HD
BRANCH   8  11
ATOM     11  C   UNL A   1      33.734  27.034  24.487  1.00  0.00     0.055 C 
ATOM     12  H   UNL A   1      34.120  27.983  24.797  1.00  0.00     0.042 H 
ATOM     13  H   UNL A   1      34.413  26.482  23.872  1.00  0.00     0.042 H 
BRANCH  11  14
ATOM     14  C   UNL A   1      32.511  27.280  23.649  1.00  0.00    -0.002 A 
ATOM     15  C   UNL A   1      32.056  26.526  22.572  1.00  0.00     0.093 A 
ATOM     16  N   UNL A   1      30.849  27.055  22.179  1.00  0.00    -0.351 N 
ATOM     17  C   UNL A   1      30.590  28.223  22.851  1.00  0.00     0.048 A 
ATOM     18  H   UNL A   1      30.252  26.651  21.507  1.00  0.00     0.167 HD
ATOM     19  C   UNL A   1      31.615  28.394  23.781  1.00  0.00     0.004 A 
ATOM     20  C   UNL A   1      29.527  29.124  22.713  1.00  0.00    -0.019 A 
ATOM     21  C   UNL A   1      31.577  29.532  24.615  1.00  0.00    -0.051 A 
ATOM     22  C   UNL A   1      29.521  30.242  23.550  1.00  0.00     0.043 A 
ATOM     23  H   UNL A   1      28.779  28.968  22.019  1.00  0.00     0.066 H 
ATOM     24  C   UNL A   1      30.527  30.450  24.488  1.00  0.00    -0.043 A 
ATOM     25  H   UNL A   1      32.319  29.687  25.315  1.00  0.00     0.063 H 
ATOM     26  Cl  UNL A   1      28.239  31.384  23.415  1.00  0.00    -0.084 Cl
ATOM     27  H   UNL A   1      30.498  31.284  25.095  1.00  0.00     0.064 H 
BRANCH  15  28
ATOM     28  C   UNL A   1      32.627  25.343  21.956  1.00  0.00     0.227 C 
ATOM     29  O   UNL A   1      33.212  25.413  20.878  1.00  0.00    -0.285 OA
BRANCH  28  30
ATOM     30  C   UNL A   1      32.549  24.037  22.714  1.00  0.00     0.113 A 
ATOM     31  C   UNL A   1      31.688  22.645  24.515  1.00  0.00    -0.026 A 
ATOM     32  C   UNL A   1      31.684  23.858  23.798  1.00  0.00    -0.028 A 
ATOM     33  C   UNL A   1      32.554  21.635  24.082  1.00  0.00     0.062 A 
ATOM     34  H   UNL A   1      31.042  24.617  24.074  1.00  0.00     0.065 H 
ATOM     35  C   UNL A   1      33.374  21.892  22.988  1.00  0.00     0.047 A 
ATOM     36  Cl  UNL A   1      32.660  20.093  24.841  1.00  0.00    -0.082 Cl
ATOM     37  N   UNL A   1      33.401  23.064  22.309  1.00  0.00    -0.251 NA
ATOM     38  H   UNL A   1      34.006  21.140  22.673  1.00  0.00     0.086 H 
BRANCH  31  39
ATOM     39  C   UNL A   1      30.792  22.515  25.727  1.00  0.00    -0.029 C 
ATOM     40  H   UNL A   1      29.914  23.105  25.565  1.00  0.00     0.031 H 
ATOM     41  H   UNL A   1      30.562  21.476  25.843  1.00  0.00     0.031 H 
BRANCH  39  42
ATOM     42  C   UNL A   1      31.457  22.980  27.015  1.00  0.00    -0.061 C 
ATOM     43  H   UNL A   1      32.126  22.221  27.365  1.00  0.00     0.023 H 
ATOM     44  H   UNL A   1      30.709  23.166  27.756  1.00  0.00     0.023 H 
ATOM     45  H   UNL A   1      32.007  23.879  26.828  1.00  0.00     0.023 H 
ENDBRANCH  39  42
ENDBRANCH  31  39
ENDBRANCH  28  30
ENDBRANCH  15  28
ENDBRANCH  11  14
ENDBRANCH   8  11
ENDBRANCH   4   7
ENDBRANCH   1   4
BRANCH   1  46
ATOM     46  C   UNL A   1      36.682  22.312  24.793  1.00  0.00    -0.052 C 
ATOM     47  H   UNL A   1      37.693  22.526  25.072  1.00  0.00     0.027 H 
ATOM     48  H   UNL A   1      36.430  22.611  23.797  1.00  0.00     0.027 H 
BRANCH  46  49
ATOM     49  C   UNL A   1      36.499  20.791  24.825  1.00  0.00    -0.052 C 
ATOM     50  H   UNL A   1      35.888  20.518  23.991  1.00  0.00     0.027 H 
ATOM     51  H   UNL A   1      36.065  20.574  25.779  1.00  0.00     0.027 H 
BRANCH  49  52
ATOM     52  C   UNL A   1      37.783  19.955  24.757  1.00  0.00    -0.036 C 
ATOM     53  H   UNL A   1      38.243  20.137  23.809  1.00  0.00     0.028 H 
ATOM     54  H   UNL A   1      37.476  18.941  24.907  1.00  0.00     0.028 H 
BRANCH  52  55
ATOM     55  C   UNL A   1      38.821  20.238  25.844  1.00  0.00     0.018 C 
ATOM     56  H   UNL A   1      38.347  20.155  26.800  1.00  0.00     0.049 H 
ATOM     57  H   UNL A   1      39.203  21.224  25.675  1.00  0.00     0.049 H 
BRANCH  55  58
ATOM     58  N   UNL A   1      39.944  19.320  25.801  1.00  0.00    -0.352 N 
ATOM     59  C   UNL A   1      41.276  19.552  26.043  1.00  0.00     0.251 C 
ATOM     60  H   UNL A   1      39.718  18.392  25.562  1.00  0.00     0.163 HD
ATOM     61  O   UNL A   1      42.100  18.666  25.831  1.00  0.00    -0.269 OA
BRANCH  59  62
ATOM     62  C   UNL A   1      41.742  20.868  26.538  1.00  0.00     0.039 A 
ATOM     63  C   UNL A   1      42.112  21.839  25.598  1.00  0.00    -0.049 A 
ATOM     64  C   UNL A   1      41.882  21.134  27.904  1.00  0.00    -0.049 A 
ATOM     65  C   UNL A   1      42.571  23.089  26.024  1.00  0.00    -0.053 A 
ATOM     66  H   UNL A   1      42.044  21.631  24.590  1.00  0.00     0.063 H 
ATOM     67  C   UNL A   1      42.318  22.392  28.329  1.00  0.00    -0.053 A 
ATOM     68  H   UNL A   1      41.664  20.401  28.597  1.00  0.00     0.063 H 
ATOM     69  C   UNL A   1      42.663  23.378  27.392  1.00  0.00    -0.014 A 
ATOM     70  H   UNL A   1      42.843  23.801  25.328  1.00  0.00     0.063 H 
ATOM     71  H   UNL A   1      42.387  22.596  29.338  1.00  0.00     0.063 H 
BRANCH  69  72
ATOM     72  C   UNL A   1      43.113  24.711  27.858  1.00  0.00     0.031 A 
ATOM     73  C   UNL A   1      42.112  25.767  28.226  1.00  0.00     0.074 A 
ATOM     74  C   UNL A   1      44.428  24.992  27.898  1.00  0.00     0.049 A 
ATOM     75  N   UNL A   1      42.315  27.016  28.564  1.00  0.00    -0.248 NA
ATOM     76  C   UNL A   1      40.697  25.371  28.196  1.00  0.00    -0.034 C 
ATOM     77  C   UNL A   1      45.502  24.065  27.544  1.00  0.00    -0.036 A 
ATOM     78  N   UNL A   1      45.083  26.149  28.241  1.00  0.00    -0.354 N 
ATOM     79  C   UNL A   1      41.056  27.565  28.754  1.00  0.00     0.074 A 
ATOM     80  C   UNL A   1      40.093  26.512  28.501  1.00  0.00    -0.034 C 
ATOM     81  H   UNL A   1      40.282  24.448  27.991  1.00  0.00     0.065 H 
ATOM     82  C   UNL A   1      46.683  24.689  27.684  1.00  0.00    -0.036 A 
ATOM     83  H   UNL A   1      45.373  23.089  27.235  1.00  0.00     0.065 H 
ATOM     84  C   UNL A   1      46.446  26.062  28.123  1.00  0.00     0.049 A 
ATOM     85  H   UNL A   1      44.618  26.963  28.544  1.00  0.00     0.167 HD
ATOM     86  C   UNL A   1      40.732  28.832  29.105  1.00  0.00     0.037 A 
ATOM     87  H   UNL A   1      39.069  26.634  28.552  1.00  0.00     0.065 H 
ATOM     88  H   UNL A   1      47.609  24.267  27.511  1.00  0.00     0.065 H 
ATOM     89  C   UNL A   1      47.398  26.990  28.333  1.00  0.00     0.037 A 
ATOM     90  C   UNL A   1      41.679  29.873  29.398  1.00  0.00     0.049 A 
ATOM     91  C   UNL A   1      47.015  28.371  28.776  1.00  0.00     0.074 A 
ATOM     92  C   UNL A   1      41.436  31.172  29.815  1.00  0.00    -0.036 A 
ATOM     93  N   UNL A   1      43.055  29.731  29.314  1.00  0.00    -0.354 N 
ATOM     94  N   UNL A   1      45.822  28.871  28.973  1.00  0.00    -0.248 NA
ATOM     95  C   UNL A   1      48.114  29.317  29.024  1.00  0.00    -0.034 C 
ATOM     96  C   UNL A   1      42.667  31.819  29.973  1.00  0.00    -0.036 A 
ATOM     97  H   UNL A   1      40.507  31.589  29.981  1.00  0.00     0.065 H 
ATOM     98  C   UNL A   1      43.674  30.920  29.665  1.00  0.00     0.049 A 
ATOM     99  H   UNL A   1      43.522  28.908  29.044  1.00  0.00     0.167 HD
ATOM    100  C   UNL A   1      46.022  30.184  29.372  1.00  0.00     0.074 A 
ATOM    101  C   UNL A   1      47.453  30.404  29.396  1.00  0.00    -0.034 C 
ATOM    102  H   UNL A   1      49.132  29.172  28.933  1.00  0.00     0.065 H 
ATOM    103  H   UNL A   1      42.801  32.800  30.268  1.00  0.00     0.065 H 
ATOM    104  C   UNL A   1      45.098  31.122  29.685  1.00  0.00     0.037 A 
ATOM    105  H   UNL A   1      47.900  31.294  29.668  1.00  0.00     0.065 H 
BRANCH  86 106
ATOM    106  C   UNL A   1      39.278  29.168  29.178  1.00  0.00     0.064 A 
ATOM    107  C   UNL A   1      38.589  29.164  30.398  1.00  0.00     0.173 A 
ATOM    108  C   UNL A   1      38.576  29.528  28.019  1.00  0.00     0.173 A 
ATOM    109  F   UNL A   1      39.220  28.813  31.528  1.00  0.00    -0.203 F 
ATOM    110  C   UNL A   1      37.239  29.502  30.453  1.00  0.00     0.198 A 
ATOM    111  C   UNL A   1      37.230  29.875  28.079  1.00  0.00     0.198 A 
ATOM    112  F   UNL A   1      39.197  29.542  26.830  1.00  0.00    -0.203 F 
ATOM    113  F   UNL A   1      36.591  29.475  31.625  1.00  0.00    -0.200 F 
ATOM    114  C   UNL A   1      36.562  29.860  29.295  1.00  0.00     0.200 A 
ATOM    115  F   UNL A   1      36.576  30.220  26.961  1.00  0.00    -0.200 F 
ATOM    116  F   UNL A   1      35.263  30.185  29.352  1.00  0.00    -0.200 F 
ENDBRANCH  86 106
BRANCH  89 117
ATOM    117  C   UNL A   1      48.820  26.631  28.126  1.00  0.00     0.064 A 
ATOM    118  C   UNL A   1      49.635  26.282  29.210  1.00  0.00     0.173 A 
ATOM    119  C   UNL A   1      49.380  26.615  26.842  1.00  0.00     0.173 A 
ATOM    120  F   UNL A   1      49.139  26.304  30.454  1.00  0.00    -0.203 F 
ATOM    121  C   UNL A   1      50.968  25.930  29.016  1.00  0.00     0.198 A 
ATOM    122  C   UNL A   1      50.710  26.253  26.649  1.00  0.00     0.198 A 
ATOM    123  F   UNL A   1      48.633  26.946  25.780  1.00  0.00    -0.203 F 
ATOM    124  F   UNL A   1      51.735  25.614  30.068  1.00  0.00    -0.200 F 
ATOM    125  C   UNL A   1      51.504  25.912  27.736  1.00  0.00     0.200 A 
ATOM    126  F   UNL A   1      51.226  26.235  25.413  1.00  0.00    -0.200 F 
ATOM    127  F   UNL A   1      52.786  25.570  27.550  1.00  0.00    -0.200 F 
ENDBRANCH  89 117
BRANCH 104 128
ATOM    128  C   UNL A   1      45.606  32.469  30.089  1.00  0.00     0.064 A 
ATOM    129  C   UNL A   1      45.788  33.486  29.141  1.00  0.00     0.173 A 
ATOM    130  C   UNL A   1      45.882  32.755  31.432  1.00  0.00     0.173 A 
ATOM    131  F   UNL A   1      45.548  33.248  27.843  1.00  0.00    -0.203 F 
ATOM    132  C   UNL A   1      46.235  34.745  29.527  1.00  0.00     0.198 A 
ATOM    133  C   UNL A   1      46.324  34.019  31.815  1.00  0.00     0.198 A 
ATOM    134  F   UNL A   1      45.728  31.808  32.370  1.00  0.00    -0.203 F 
ATOM    135  F   UNL A   1      46.420  35.700  28.604  1.00  0.00    -0.200 F 
ATOM    136  C   UNL A   1      46.500  35.012  30.862  1.00  0.00     0.200 A 
ATOM    137  F   UNL A   1      46.583  34.275  33.105  1.00  0.00    -0.200 F 
ATOM    138  F   UNL A   1      46.934  36.225  31.231  1.00  0.00    -0.200 F 
ENDBRANCH 104 128
ENDBRANCH  69  72
ENDBRANCH  59  62
ENDBRANCH  55  58
ENDBRANCH  52  55
ENDBRANCH  49  52
ENDBRANCH  46  49
ENDBRANCH   1  46
TORSDOF 18
ENDMDL
MODEL 9
REMARK VINA RESULT:     -12.5      1.788      8.033
REMARK SMILES CCc1cc(C(=O)c2[nH]c3cc(Cl)ccc3c2CC(=O)NCCCCCCNC(=O)c2ccc(-c3c4nc(c(-c5c(F)c(F)c(F)c(F)c5F)c5ccc([nH]5)c(-c5c(F)c(F)c(F)c(F)c5F)c5nc(c(-c6c(F)c(F)c(F)c(F)c6F)c6ccc3[nH]6)C=C5)C=C4)cc2)ncc1Cl
REMARK SMILES IDX 23 1 22 4 21 7 19 8 20 9 18 11 17 14 8 15 9 16 10 17 16 19
REMARK SMILES IDX 11 20 15 21 12 22 14 24 13 26 6 28 7 29 5 30 3 31 4 32 96 33
REMARK SMILES IDX 95 35 97 36 94 37 2 39 1 42 24 46 25 49 26 52 27 55 28 58
REMARK SMILES IDX 29 59 30 61 31 62 32 63 93 64 33 65 92 67 34 69 35 72 36 73
REMARK SMILES IDX 86 74 37 75 91 76 85 77 87 78 38 79 90 80 84 82 83 84 39 86
REMARK SMILES IDX 71 89 51 90 70 91 52 92 55 93 69 94 88 95 53 96 54 98 68 100
REMARK SMILES IDX 89 101 56 104 40 106 41 107 49 108 42 109 43 110 47 111
REMARK SMILES IDX 50 112 44 113 45 114 48 115 46 116 72 117 73 118 81 119
REMARK SMILES IDX 74 120 75 121 79 122 82 123 76 124 77 125 80 126 78 127
REMARK SMILES IDX 57 128 58 129 66 130 59 131 60 132 64 133 67 134 61 135
REMARK SMILES IDX 62 136 65 137 63 138
REMARK H PARENT 23 2 23 3 22 5 22 6 21 10 18 12 18 13 9 18 11 23 15 25 14 27
REMARK H PARENT 4 34 95 38 2 40 2 41 1 43 1 44 1 45 24 47 24 48 25 50 25 51
REMARK H PARENT 26 53 26 54 27 56 27 57 28 60 32 66 93 68 33 70 92 71 91 81
REMARK H PARENT 85 83 87 85 90 87 84 88 52 97 55 99 88 102 53 103 89 105
REMARK Flexibility Score: inf
ROOT
ATOM      1  C   UNL A   1      34.752  31.166  28.177  1.00  0.00    -0.036 C 
ATOM      2  H   UNL A   1      35.574  31.459  27.557  1.00  0.00     0.028 H 
ATOM      3  H   UNL A   1      34.961  30.313  28.787  1.00  0.00     0.028 H 
ENDROOT
BRANCH   1   4
ATOM      4  C   UNL A   1      33.590  30.766  27.268  1.00  0.00     0.017 C 
ATOM      5  H   UNL A   1      32.741  31.369  27.511  1.00  0.00     0.049 H 
ATOM      6  H   UNL A   1      33.905  30.916  26.256  1.00  0.00     0.049 H 
BRANCH   4   7
ATOM      7  N   UNL A   1      33.224  29.372  27.411  1.00  0.00    -0.356 N 
ATOM      8  C   UNL A   1      33.196  28.380  26.472  1.00  0.00     0.224 C 
ATOM      9  O   UNL A   1      32.946  27.231  26.842  1.00  0.00    -0.275 OA
ATOM     10  H   UNL A   1      32.956  29.099  28.318  1.00  0.00     0.163 HD
BRANCH   8  11
ATOM     11  C   UNL A   1      33.572  28.664  25.026  1.00  0.00     0.055 C 
ATOM     12  H   UNL A   1      33.974  29.655  24.976  1.00  0.00     0.042 H 
ATOM     13  H   UNL A   1      34.275  27.909  24.744  1.00  0.00     0.042 H 
BRANCH  11  14
ATOM     14  C   UNL A   1      32.437  28.571  24.046  1.00  0.00    -0.002 A 
ATOM     15  C   UNL A   1      32.306  27.683  22.983  1.00  0.00     0.093 A 
ATOM     16  N   UNL A   1      31.066  27.888  22.425  1.00  0.00    -0.351 N 
ATOM     17  C   UNL A   1      30.461  28.987  22.980  1.00  0.00     0.048 A 
ATOM     18  H   UNL A   1      30.667  27.323  21.724  1.00  0.00     0.167 HD
ATOM     19  C   UNL A   1      31.296  29.441  24.000  1.00  0.00     0.004 A 
ATOM     20  C   UNL A   1      29.242  29.599  22.664  1.00  0.00    -0.019 A 
ATOM     21  C   UNL A   1      30.892  30.572  24.742  1.00  0.00    -0.051 A 
ATOM     22  C   UNL A   1      28.871  30.718  23.414  1.00  0.00     0.043 A 
ATOM     23  H   UNL A   1      28.641  29.237  21.907  1.00  0.00     0.066 H 
ATOM     24  C   UNL A   1      29.679  31.203  24.437  1.00  0.00    -0.043 A 
ATOM     25  H   UNL A   1      31.486  30.932  25.505  1.00  0.00     0.063 H 
ATOM     26  Cl  UNL A   1      27.384  31.511  23.060  1.00  0.00    -0.084 Cl
ATOM     27  H   UNL A   1      29.382  32.032  24.976  1.00  0.00     0.064 H 
BRANCH  15  28
ATOM     28  C   UNL A   1      33.209  26.647  22.518  1.00  0.00     0.227 C 
ATOM     29  O   UNL A   1      33.899  26.814  21.516  1.00  0.00    -0.285 OA
BRANCH  28  30
ATOM     30  C   UNL A   1      33.332  25.386  23.345  1.00  0.00     0.113 A 
ATOM     31  C   UNL A   1      34.491  23.975  24.953  1.00  0.00    -0.026 A 
ATOM     32  C   UNL A   1      34.381  25.190  24.249  1.00  0.00    -0.028 A 
ATOM     33  C   UNL A   1      33.506  23.005  24.738  1.00  0.00     0.062 A 
ATOM     34  H   UNL A   1      35.076  25.937  24.399  1.00  0.00     0.065 H 
ATOM     35  C   UNL A   1      32.491  23.285  23.828  1.00  0.00     0.047 A 
ATOM     36  Cl  UNL A   1      33.493  21.480  25.537  1.00  0.00    -0.082 Cl
ATOM     37  N   UNL A   1      32.390  24.437  23.123  1.00  0.00    -0.251 NA
ATOM     38  H   UNL A   1      31.766  22.566  23.680  1.00  0.00     0.086 H 
BRANCH  31  39
ATOM     39  C   UNL A   1      35.680  23.771  25.866  1.00  0.00    -0.029 C 
ATOM     40  H   UNL A   1      35.862  24.682  26.397  1.00  0.00     0.031 H 
ATOM     41  H   UNL A   1      35.439  22.963  26.526  1.00  0.00     0.031 H 
BRANCH  39  42
ATOM     42  C   UNL A   1      36.949  23.384  25.119  1.00  0.00    -0.061 C 
ATOM     43  H   UNL A   1      37.717  23.138  25.823  1.00  0.00     0.023 H 
ATOM     44  H   UNL A   1      37.270  24.204  24.513  1.00  0.00     0.023 H 
ATOM     45  H   UNL A   1      36.753  22.536  24.497  1.00  0.00     0.023 H 
ENDBRANCH  39  42
ENDBRANCH  31  39
ENDBRANCH  28  30
ENDBRANCH  15  28
ENDBRANCH  11  14
ENDBRANCH   8  11
ENDBRANCH   4   7
ENDBRANCH   1   4
BRANCH   1  46
ATOM     46  C   UNL A   1      34.452  32.319  29.143  1.00  0.00    -0.052 C 
ATOM     47  H   UNL A   1      35.208  32.316  29.901  1.00  0.00     0.027 H 
ATOM     48  H   UNL A   1      33.464  32.138  29.510  1.00  0.00     0.027 H 
BRANCH  46  49
ATOM     49  C   UNL A   1      34.412  33.721  28.527  1.00  0.00    -0.052 C 
ATOM     50  H   UNL A   1      34.526  33.616  27.469  1.00  0.00     0.027 H 
ATOM     51  H   UNL A   1      35.201  34.266  29.002  1.00  0.00     0.027 H 
BRANCH  49  52
ATOM     52  C   UNL A   1      33.138  34.534  28.782  1.00  0.00    -0.036 C 
ATOM     53  H   UNL A   1      32.529  33.985  29.468  1.00  0.00     0.028 H 
ATOM     54  H   UNL A   1      32.691  34.681  27.821  1.00  0.00     0.028 H 
BRANCH  52  55
ATOM     55  C   UNL A   1      33.346  35.935  29.359  1.00  0.00     0.018 C 
ATOM     56  H   UNL A   1      33.097  36.655  28.607  1.00  0.00     0.049 H 
ATOM     57  H   UNL A   1      34.370  36.012  29.658  1.00  0.00     0.049 H 
BRANCH  55  58
ATOM     58  N   UNL A   1      32.527  36.188  30.531  1.00  0.00    -0.352 N 
ATOM     59  C   UNL A   1      32.693  35.760  31.825  1.00  0.00     0.251 C 
ATOM     60  H   UNL A   1      31.733  36.750  30.375  1.00  0.00     0.163 HD
ATOM     61  O   UNL A   1      31.817  35.975  32.658  1.00  0.00    -0.269 OA
BRANCH  59  62
ATOM     62  C   UNL A   1      33.909  35.017  32.232  1.00  0.00     0.039 A 
ATOM     63  C   UNL A   1      33.762  33.705  32.700  1.00  0.00    -0.049 A 
ATOM     64  C   UNL A   1      35.174  35.613  32.220  1.00  0.00    -0.049 A 
ATOM     65  C   UNL A   1      34.882  32.975  33.107  1.00  0.00    -0.053 A 
ATOM     66  H   UNL A   1      32.824  33.277  32.743  1.00  0.00     0.063 H 
ATOM     67  C   UNL A   1      36.297  34.874  32.604  1.00  0.00    -0.053 A 
ATOM     68  H   UNL A   1      35.278  36.597  31.928  1.00  0.00     0.063 H 
ATOM     69  C   UNL A   1      36.158  33.551  33.048  1.00  0.00    -0.014 A 
ATOM     70  H   UNL A   1      34.768  32.009  33.452  1.00  0.00     0.063 H 
ATOM     71  H   UNL A   1      37.232  35.306  32.562  1.00  0.00     0.063 H 
BRANCH  69  72
ATOM     72  C   UNL A   1      37.360  32.776  33.441  1.00  0.00     0.031 A 
ATOM     73  C   UNL A   1      38.052  33.054  34.742  1.00  0.00     0.074 A 
ATOM     74  C   UNL A   1      37.863  31.856  32.598  1.00  0.00     0.049 A 
ATOM     75  N   UNL A   1      39.165  32.546  35.211  1.00  0.00    -0.248 NA
ATOM     76  C   UNL A   1      37.420  34.044  35.627  1.00  0.00    -0.034 C 
ATOM     77  C   UNL A   1      37.300  31.508  31.293  1.00  0.00    -0.036 A 
ATOM     78  N   UNL A   1      38.973  31.057  32.709  1.00  0.00    -0.354 N 
ATOM     79  C   UNL A   1      39.384  33.175  36.427  1.00  0.00     0.074 A 
ATOM     80  C   UNL A   1      38.286  34.099  36.630  1.00  0.00    -0.034 C 
ATOM     81  H   UNL A   1      36.535  34.560  35.500  1.00  0.00     0.065 H 
ATOM     82  C   UNL A   1      38.070  30.567  30.722  1.00  0.00    -0.036 A 
ATOM     83  H   UNL A   1      36.450  31.919  30.878  1.00  0.00     0.065 H 
ATOM     84  C   UNL A   1      39.186  30.260  31.614  1.00  0.00     0.049 A 
ATOM     85  H   UNL A   1      39.559  31.055  33.500  1.00  0.00     0.167 HD
ATOM     86  C   UNL A   1      40.409  33.001  37.295  1.00  0.00     0.037 A 
ATOM     87  H   UNL A   1      38.191  34.721  37.449  1.00  0.00     0.065 H 
ATOM     88  H   UNL A   1      37.901  30.131  29.802  1.00  0.00     0.065 H 
ATOM     89  C   UNL A   1      40.176  29.387  31.353  1.00  0.00     0.037 A 
ATOM     90  C   UNL A   1      41.481  32.058  37.125  1.00  0.00     0.049 A 
ATOM     91  C   UNL A   1      41.270  29.171  32.356  1.00  0.00     0.074 A 
ATOM     92  C   UNL A   1      42.532  31.779  37.983  1.00  0.00    -0.036 A 
ATOM     93  N   UNL A   1      41.634  31.233  36.023  1.00  0.00    -0.354 N 
ATOM     94  N   UNL A   1      41.454  29.757  33.512  1.00  0.00    -0.248 NA
ATOM     95  C   UNL A   1      42.295  28.172  32.017  1.00  0.00    -0.034 C 
ATOM     96  C   UNL A   1      43.328  30.789  37.394  1.00  0.00    -0.036 A 
ATOM     97  H   UNL A   1      42.698  32.222  38.900  1.00  0.00     0.065 H 
ATOM     98  C   UNL A   1      42.766  30.448  36.175  1.00  0.00     0.049 A 
ATOM     99  H   UNL A   1      41.030  31.209  35.246  1.00  0.00     0.167 HD
ATOM    100  C   UNL A   1      42.609  29.199  34.041  1.00  0.00     0.074 A 
ATOM    101  C   UNL A   1      43.081  28.221  33.084  1.00  0.00    -0.034 C 
ATOM    102  H   UNL A   1      42.380  27.587  31.171  1.00  0.00     0.065 H 
ATOM    103  H   UNL A   1      44.187  30.384  37.798  1.00  0.00     0.065 H 
ATOM    104  C   UNL A   1      43.221  29.479  35.215  1.00  0.00     0.037 A 
ATOM    105  H   UNL A   1      43.921  27.637  33.215  1.00  0.00     0.065 H 
BRANCH  86 106
ATOM    106  C   UNL A   1      40.425  33.867  38.512  1.00  0.00     0.064 A 
ATOM    107  C   UNL A   1      39.753  33.492  39.683  1.00  0.00     0.173 A 
ATOM    108  C   UNL A   1      41.148  35.068  38.516  1.00  0.00     0.173 A 
ATOM    109  F   UNL A   1      39.040  32.357  39.718  1.00  0.00    -0.203 F 
ATOM    110  C   UNL A   1      39.797  34.299  40.817  1.00  0.00     0.198 A 
ATOM    111  C   UNL A   1      41.198  35.867  39.654  1.00  0.00     0.198 A 
ATOM    112  F   UNL A   1      41.804  35.465  37.415  1.00  0.00    -0.203 F 
ATOM    113  F   UNL A   1      39.133  33.935  41.922  1.00  0.00    -0.200 F 
ATOM    114  C   UNL A   1      40.522  35.483  40.803  1.00  0.00     0.200 A 
ATOM    115  F   UNL A   1      41.897  37.010  39.641  1.00  0.00    -0.200 F 
ATOM    116  F   UNL A   1      40.563  36.257  41.897  1.00  0.00    -0.200 F 
ENDBRANCH  86 106
BRANCH  89 117
ATOM    117  C   UNL A   1      40.170  28.645  30.071  1.00  0.00     0.064 A 
ATOM    118  C   UNL A   1      39.513  27.413  29.961  1.00  0.00     0.173 A 
ATOM    119  C   UNL A   1      40.807  29.161  28.936  1.00  0.00     0.173 A 
ATOM    120  F   UNL A   1      38.910  26.879  31.031  1.00  0.00    -0.203 F 
ATOM    121  C   UNL A   1      39.494  26.721  28.753  1.00  0.00     0.198 A 
ATOM    122  C   UNL A   1      40.778  28.473  27.726  1.00  0.00     0.198 A 
ATOM    123  F   UNL A   1      41.450  30.336  29.003  1.00  0.00    -0.203 F 
ATOM    124  F   UNL A   1      38.872  25.536  28.672  1.00  0.00    -0.200 F 
ATOM    125  C   UNL A   1      40.123  27.252  27.636  1.00  0.00     0.200 A 
ATOM    126  F   UNL A   1      41.385  28.988  26.649  1.00  0.00    -0.200 F 
ATOM    127  F   UNL A   1      40.102  26.586  26.474  1.00  0.00    -0.200 F 
ENDBRANCH  89 117
BRANCH 104 128
ATOM    128  C   UNL A   1      44.464  28.711  35.533  1.00  0.00     0.064 A 
ATOM    129  C   UNL A   1      45.723  29.179  35.133  1.00  0.00     0.173 A 
ATOM    130  C   UNL A   1      44.400  27.520  36.268  1.00  0.00     0.173 A 
ATOM    131  F   UNL A   1      45.826  30.308  34.415  1.00  0.00    -0.203 F 
ATOM    132  C   UNL A   1      46.879  28.474  35.455  1.00  0.00     0.198 A 
ATOM    133  C   UNL A   1      45.559  26.821  36.594  1.00  0.00     0.198 A 
ATOM    134  F   UNL A   1      43.214  27.034  36.664  1.00  0.00    -0.203 F 
ATOM    135  F   UNL A   1      48.073  28.928  35.049  1.00  0.00    -0.200 F 
ATOM    136  C   UNL A   1      46.797  27.299  36.187  1.00  0.00     0.200 A 
ATOM    137  F   UNL A   1      45.479  25.683  37.298  1.00  0.00    -0.200 F 
ATOM    138  F   UNL A   1      47.910  26.620  36.493  1.00  0.00    -0.200 F 
ENDBRANCH 104 128
ENDBRANCH  69  72
ENDBRANCH  59  62
ENDBRANCH  55  58
ENDBRANCH  52  55
ENDBRANCH  49  52
ENDBRANCH  46  49
ENDBRANCH   1  46
TORSDOF 18
ENDMDL
MODEL 10
REMARK VINA RESULT:     -12.4      1.166      7.236
REMARK SMILES CCc1cc(C(=O)c2[nH]c3cc(Cl)ccc3c2CC(=O)NCCCCCCNC(=O)c2ccc(-c3c4nc(c(-c5c(F)c(F)c(F)c(F)c5F)c5ccc([nH]5)c(-c5c(F)c(F)c(F)c(F)c5F)c5nc(c(-c6c(F)c(F)c(F)c(F)c6F)c6ccc3[nH]6)C=C5)C=C4)cc2)ncc1Cl
REMARK SMILES IDX 23 1 22 4 21 7 19 8 20 9 18 11 17 14 8 15 9 16 10 17 16 19
REMARK SMILES IDX 11 20 15 21 12 22 14 24 13 26 6 28 7 29 5 30 3 31 4 32 96 33
REMARK SMILES IDX 95 35 97 36 94 37 2 39 1 42 24 46 25 49 26 52 27 55 28 58
REMARK SMILES IDX 29 59 30 61 31 62 32 63 93 64 33 65 92 67 34 69 35 72 36 73
REMARK SMILES IDX 86 74 37 75 91 76 85 77 87 78 38 79 90 80 84 82 83 84 39 86
REMARK SMILES IDX 71 89 51 90 70 91 52 92 55 93 69 94 88 95 53 96 54 98 68 100
REMARK SMILES IDX 89 101 56 104 40 106 41 107 49 108 42 109 43 110 47 111
REMARK SMILES IDX 50 112 44 113 45 114 48 115 46 116 72 117 73 118 81 119
REMARK SMILES IDX 74 120 75 121 79 122 82 123 76 124 77 125 80 126 78 127
REMARK SMILES IDX 57 128 58 129 66 130 59 131 60 132 64 133 67 134 61 135
REMARK SMILES IDX 62 136 65 137 63 138
REMARK H PARENT 23 2 23 3 22 5 22 6 21 10 18 12 18 13 9 18 11 23 15 25 14 27
REMARK H PARENT 4 34 95 38 2 40 2 41 1 43 1 44 1 45 24 47 24 48 25 50 25 51
REMARK H PARENT 26 53 26 54 27 56 27 57 28 60 32 66 93 68 33 70 92 71 91 81
REMARK H PARENT 85 83 87 85 90 87 84 88 52 97 55 99 88 102 53 103 89 105
REMARK Flexibility Score: inf
ROOT
ATOM      1  C   UNL A   1      33.447  29.214  25.804  1.00  0.00    -0.036 C 
ATOM      2  H   UNL A   1      33.171  29.229  24.769  1.00  0.00     0.028 H 
ATOM      3  H   UNL A   1      34.327  29.782  26.018  1.00  0.00     0.028 H 
ENDROOT
BRANCH   1   4
ATOM      4  C   UNL A   1      33.766  27.770  26.189  1.00  0.00     0.017 C 
ATOM      5  H   UNL A   1      34.241  27.291  25.358  1.00  0.00     0.049 H 
ATOM      6  H   UNL A   1      34.404  27.797  27.047  1.00  0.00     0.049 H 
BRANCH   4   7
ATOM      7  N   UNL A   1      32.584  27.012  26.546  1.00  0.00    -0.356 N 
ATOM      8  C   UNL A   1      32.330  25.678  26.401  1.00  0.00     0.224 C 
ATOM      9  O   UNL A   1      31.284  25.227  26.871  1.00  0.00    -0.275 OA
ATOM     10  H   UNL A   1      31.857  27.536  26.953  1.00  0.00     0.163 HD
BRANCH   8  11
ATOM     11  C   UNL A   1      33.361  24.752  25.773  1.00  0.00     0.055 C 
ATOM     12  H   UNL A   1      34.230  25.332  25.541  1.00  0.00     0.042 H 
ATOM     13  H   UNL A   1      33.546  23.980  26.490  1.00  0.00     0.042 H 
BRANCH  11  14
ATOM     14  C   UNL A   1      32.910  24.063  24.516  1.00  0.00    -0.002 A 
ATOM     15  C   UNL A   1      32.476  24.654  23.333  1.00  0.00     0.093 A 
ATOM     16  N   UNL A   1      32.269  23.647  22.421  1.00  0.00    -0.351 N 
ATOM     17  C   UNL A   1      32.390  22.418  23.020  1.00  0.00     0.048 A 
ATOM     18  H   UNL A   1      32.063  23.787  21.468  1.00  0.00     0.167 HD
ATOM     19  C   UNL A   1      32.790  22.643  24.336  1.00  0.00     0.004 A 
ATOM     20  C   UNL A   1      32.188  21.137  22.493  1.00  0.00    -0.019 A 
ATOM     21  C   UNL A   1      32.995  21.525  25.173  1.00  0.00    -0.051 A 
ATOM     22  C   UNL A   1      32.395  20.051  23.348  1.00  0.00     0.043 A 
ATOM     23  H   UNL A   1      31.897  21.000  21.513  1.00  0.00     0.066 H 
ATOM     24  C   UNL A   1      32.792  20.235  24.669  1.00  0.00    -0.043 A 
ATOM     25  H   UNL A   1      33.294  21.658  26.152  1.00  0.00     0.063 H 
ATOM     26  Cl  UNL A   1      32.153  18.454  22.750  1.00  0.00    -0.084 Cl
ATOM     27  H   UNL A   1      32.938  19.415  25.279  1.00  0.00     0.064 H 
BRANCH  15  28
ATOM     28  C   UNL A   1      32.316  26.056  22.998  1.00  0.00     0.227 C 
ATOM     29  O   UNL A   1      33.258  26.712  22.561  1.00  0.00    -0.285 OA
BRANCH  28  30
ATOM     30  C   UNL A   1      30.939  26.668  23.133  1.00  0.00     0.113 A 
ATOM     31  C   UNL A   1      29.413  28.562  23.072  1.00  0.00    -0.026 A 
ATOM     32  C   UNL A   1      30.698  28.021  22.875  1.00  0.00    -0.028 A 
ATOM     33  C   UNL A   1      28.400  27.696  23.499  1.00  0.00     0.062 A 
ATOM     34  H   UNL A   1      31.465  28.624  22.538  1.00  0.00     0.065 H 
ATOM     35  C   UNL A   1      28.723  26.362  23.724  1.00  0.00     0.047 A 
ATOM     36  Cl  UNL A   1      26.776  28.203  23.766  1.00  0.00    -0.082 Cl
ATOM     37  N   UNL A   1      29.961  25.836  23.566  1.00  0.00    -0.251 NA
ATOM     38  H   UNL A   1      27.968  25.730  24.033  1.00  0.00     0.086 H 
BRANCH  31  39
ATOM     39  C   UNL A   1      29.209  30.045  22.853  1.00  0.00    -0.029 C 
ATOM     40  H   UNL A   1      28.683  30.444  23.695  1.00  0.00     0.031 H 
ATOM     41  H   UNL A   1      30.177  30.486  22.739  1.00  0.00     0.031 H 
BRANCH  39  42
ATOM     42  C   UNL A   1      28.414  30.359  21.592  1.00  0.00    -0.061 C 
ATOM     43  H   UNL A   1      28.976  30.057  20.732  1.00  0.00     0.023 H 
ATOM     44  H   UNL A   1      28.224  31.410  21.543  1.00  0.00     0.023 H 
ATOM     45  H   UNL A   1      27.486  29.828  21.614  1.00  0.00     0.023 H 
ENDBRANCH  39  42
ENDBRANCH  31  39
ENDBRANCH  28  30
ENDBRANCH  15  28
ENDBRANCH  11  14
ENDBRANCH   8  11
ENDBRANCH   4   7
ENDBRANCH   1   4
BRANCH   1  46
ATOM     46  C   UNL A   1      32.313  29.865  26.606  1.00  0.00    -0.052 C 
ATOM     47  H   UNL A   1      32.755  30.415  27.411  1.00  0.00     0.027 H 
ATOM     48  H   UNL A   1      31.683  29.059  26.920  1.00  0.00     0.027 H 
BRANCH  46  49
ATOM     49  C   UNL A   1      31.402  30.822  25.830  1.00  0.00    -0.052 C 
ATOM     50  H   UNL A   1      30.401  30.449  25.903  1.00  0.00     0.027 H 
ATOM     51  H   UNL A   1      31.791  30.845  24.834  1.00  0.00     0.027 H 
BRANCH  49  52
ATOM     52  C   UNL A   1      31.394  32.279  26.304  1.00  0.00    -0.036 C 
ATOM     53  H   UNL A   1      30.387  32.538  26.555  1.00  0.00     0.028 H 
ATOM     54  H   UNL A   1      31.803  32.849  25.495  1.00  0.00     0.028 H 
BRANCH  52  55
ATOM     55  C   UNL A   1      32.274  32.591  27.515  1.00  0.00     0.018 C 
ATOM     56  H   UNL A   1      33.185  32.037  27.428  1.00  0.00     0.049 H 
ATOM     57  H   UNL A   1      31.725  32.316  28.392  1.00  0.00     0.049 H 
BRANCH  55  58
ATOM     58  N   UNL A   1      32.598  34.002  27.626  1.00  0.00    -0.352 N 
ATOM     59  C   UNL A   1      33.625  34.615  28.301  1.00  0.00     0.251 C 
ATOM     60  H   UNL A   1      31.991  34.611  27.147  1.00  0.00     0.163 HD
ATOM     61  O   UNL A   1      33.659  35.840  28.382  1.00  0.00    -0.269 OA
BRANCH  59  62
ATOM     62  C   UNL A   1      34.688  33.818  28.958  1.00  0.00     0.039 A 
ATOM     63  C   UNL A   1      36.021  34.199  28.763  1.00  0.00    -0.049 A 
ATOM     64  C   UNL A   1      34.394  32.672  29.703  1.00  0.00    -0.049 A 
ATOM     65  C   UNL A   1      37.054  33.465  29.353  1.00  0.00    -0.053 A 
ATOM     66  H   UNL A   1      36.241  35.023  28.183  1.00  0.00     0.063 H 
ATOM     67  C   UNL A   1      35.425  31.953  30.313  1.00  0.00    -0.053 A 
ATOM     68  H   UNL A   1      33.416  32.357  29.802  1.00  0.00     0.063 H 
ATOM     69  C   UNL A   1      36.761  32.345  30.144  1.00  0.00    -0.014 A 
ATOM     70  H   UNL A   1      38.035  33.749  29.206  1.00  0.00     0.063 H 
ATOM     71  H   UNL A   1      35.202  31.127  30.890  1.00  0.00     0.063 H 
BRANCH  69  72
ATOM     72  C   UNL A   1      37.844  31.579  30.807  1.00  0.00     0.031 A 
ATOM     73  C   UNL A   1      38.205  31.854  32.237  1.00  0.00     0.074 A 
ATOM     74  C   UNL A   1      38.542  30.671  30.102  1.00  0.00     0.049 A 
ATOM     75  N   UNL A   1      39.181  31.353  32.953  1.00  0.00    -0.248 NA
ATOM     76  C   UNL A   1      37.370  32.831  32.951  1.00  0.00    -0.034 C 
ATOM     77  C   UNL A   1      38.309  30.327  28.700  1.00  0.00    -0.036 A 
ATOM     78  N   UNL A   1      39.603  29.881  30.470  1.00  0.00    -0.354 N 
ATOM     79  C   UNL A   1      39.098  31.975  34.190  1.00  0.00     0.074 A 
ATOM     80  C   UNL A   1      37.974  32.887  34.131  1.00  0.00    -0.034 C 
ATOM     81  H   UNL A   1      36.534  33.339  32.621  1.00  0.00     0.065 H 
ATOM     82  C   UNL A   1      39.202  29.398  28.323  1.00  0.00    -0.036 A 
ATOM     83  H   UNL A   1      37.576  30.733  28.097  1.00  0.00     0.065 H 
ATOM     84  C   UNL A   1      40.078  29.094  29.451  1.00  0.00     0.049 A 
ATOM     85  H   UNL A   1      39.986  29.879  31.377  1.00  0.00     0.167 HD
ATOM     86  C   UNL A   1      39.890  31.805  35.275  1.00  0.00     0.037 A 
ATOM     87  H   UNL A   1      37.680  33.501  34.907  1.00  0.00     0.065 H 
ATOM     88  H   UNL A   1      39.261  28.967  27.387  1.00  0.00     0.065 H 
ATOM     89  C   UNL A   1      41.112  28.233  29.428  1.00  0.00     0.037 A 
ATOM     90  C   UNL A   1      40.983  30.873  35.359  1.00  0.00     0.049 A 
ATOM     91  C   UNL A   1      41.939  28.020  30.661  1.00  0.00     0.074 A 
ATOM     92  C   UNL A   1      41.803  30.597  36.440  1.00  0.00    -0.036 A 
ATOM     93  N   UNL A   1      41.402  30.058  34.320  1.00  0.00    -0.354 N 
ATOM     94  N   UNL A   1      41.838  28.600  31.830  1.00  0.00    -0.248 NA
ATOM     95  C   UNL A   1      43.027  27.034  30.569  1.00  0.00    -0.034 C 
ATOM     96  C   UNL A   1      42.727  29.620  36.051  1.00  0.00    -0.036 A 
ATOM     97  H   UNL A   1      41.743  31.036  37.372  1.00  0.00     0.065 H 
ATOM     98  C   UNL A   1      42.474  29.282  34.732  1.00  0.00     0.049 A 
ATOM     99  H   UNL A   1      40.999  30.034  33.422  1.00  0.00     0.167 HD
ATOM    100  C   UNL A   1      42.840  28.049  32.615  1.00  0.00     0.074 A 
ATOM    101  C   UNL A   1      43.536  27.082  31.792  1.00  0.00    -0.034 C 
ATOM    102  H   UNL A   1      43.316  26.456  29.764  1.00  0.00     0.065 H 
ATOM    103  H   UNL A   1      43.471  29.220  36.645  1.00  0.00     0.065 H 
ATOM    104  C   UNL A   1      43.154  28.325  33.903  1.00  0.00     0.037 A 
ATOM    105  H   UNL A   1      44.329  26.505  32.116  1.00  0.00     0.065 H 
BRANCH  86 106
ATOM    106  C   UNL A   1      39.608  32.661  36.466  1.00  0.00     0.064 A 
ATOM    107  C   UNL A   1      38.617  32.317  37.393  1.00  0.00     0.173 A 
ATOM    108  C   UNL A   1      40.361  33.821  36.697  1.00  0.00     0.173 A 
ATOM    109  F   UNL A   1      37.866  31.222  37.203  1.00  0.00    -0.203 F 
ATOM    110  C   UNL A   1      38.381  33.114  38.511  1.00  0.00     0.198 A 
ATOM    111  C   UNL A   1      40.130  34.610  37.820  1.00  0.00     0.198 A 
ATOM    112  F   UNL A   1      41.318  34.188  35.832  1.00  0.00    -0.203 F 
ATOM    113  F   UNL A   1      37.416  32.780  39.378  1.00  0.00    -0.200 F 
ATOM    114  C   UNL A   1      39.140  34.256  38.725  1.00  0.00     0.200 A 
ATOM    115  F   UNL A   1      40.862  35.713  38.026  1.00  0.00    -0.200 F 
ATOM    116  F   UNL A   1      38.911  35.021  39.802  1.00  0.00    -0.200 F 
ENDBRANCH  86 106
BRANCH  89 117
ATOM    117  C   UNL A   1      41.418  27.501  28.178  1.00  0.00     0.064 A 
ATOM    118  C   UNL A   1      42.342  28.011  27.258  1.00  0.00     0.173 A 
ATOM    119  C   UNL A   1      40.805  26.274  27.893  1.00  0.00     0.173 A 
ATOM    120  F   UNL A   1      42.933  29.191  27.488  1.00  0.00    -0.203 F 
ATOM    121  C   UNL A   1      42.642  27.317  26.089  1.00  0.00     0.198 A 
ATOM    122  C   UNL A   1      41.114  25.576  26.728  1.00  0.00     0.198 A 
ATOM    123  F   UNL A   1      39.913  25.754  28.748  1.00  0.00    -0.203 F 
ATOM    124  F   UNL A   1      43.518  27.829  25.213  1.00  0.00    -0.200 F 
ATOM    125  C   UNL A   1      42.031  26.098  25.826  1.00  0.00     0.200 A 
ATOM    126  F   UNL A   1      40.524  24.400  26.477  1.00  0.00    -0.200 F 
ATOM    127  F   UNL A   1      42.322  25.430  24.703  1.00  0.00    -0.200 F 
ENDBRANCH  89 117
BRANCH 104 128
ATOM    128  C   UNL A   1      44.295  27.567  34.502  1.00  0.00     0.064 A 
ATOM    129  C   UNL A   1      44.095  26.315  35.100  1.00  0.00     0.173 A 
ATOM    130  C   UNL A   1      45.599  28.078  34.448  1.00  0.00     0.173 A 
ATOM    131  F   UNL A   1      42.861  25.798  35.183  1.00  0.00    -0.203 F 
ATOM    132  C   UNL A   1      45.166  25.603  35.631  1.00  0.00     0.198 A 
ATOM    133  C   UNL A   1      46.668  27.359  34.975  1.00  0.00     0.198 A 
ATOM    134  F   UNL A   1      45.833  29.276  33.890  1.00  0.00    -0.203 F 
ATOM    135  F   UNL A   1      44.953  24.415  36.215  1.00  0.00    -0.200 F 
ATOM    136  C   UNL A   1      46.450  26.122  35.566  1.00  0.00     0.200 A 
ATOM    137  F   UNL A   1      47.908  27.863  34.916  1.00  0.00    -0.200 F 
ATOM    138  F   UNL A   1      47.479  25.436  36.081  1.00  0.00    -0.200 F 
ENDBRANCH 104 128
ENDBRANCH  69  72
ENDBRANCH  59  62
ENDBRANCH  55  58
ENDBRANCH  52  55
ENDBRANCH  49  52
ENDBRANCH  46  49
ENDBRANCH   1  46
TORSDOF 18
ENDMDL
