MODEL 1
REMARK VINA RESULT:     -12.3      0.000      0.000
REMARK SMILES CCc1cc(/C=C/C(=O)NCCCCCCNC(=O)c2ccc(-c3c4nc(c(-c5c(F)c(F)c(F)c(F)c5F)c5ccc([nH]5)c(-c5c(F)c(F)c(F)c(F)c5F)c5nc(c(-c6c(F)c(F)c(F)c(F)c6F)c6ccc3[nH]6)C=C5)C=C4)cc2)cc(C(=O)c2ccccc2)c1
REMARK SMILES IDX 13 1 12 4 11 7 10 10 8 11 9 12 7 14 6 15 5 18 3 19 4 20
REMARK SMILES IDX 93 21 84 23 83 25 2 27 1 30 85 34 86 35 87 36 88 37 92 38
REMARK SMILES IDX 89 39 91 41 90 43 14 47 15 50 16 53 17 56 18 57 19 59 20 60
REMARK SMILES IDX 21 61 82 62 22 63 81 65 23 67 24 70 25 71 75 72 26 73 80 74
REMARK SMILES IDX 74 75 76 76 27 77 79 78 73 80 72 82 28 84 60 87 40 88 59 89
REMARK SMILES IDX 41 90 44 91 58 92 77 93 42 94 43 96 57 98 78 99 45 102
REMARK SMILES IDX 29 104 30 105 38 106 31 107 32 108 36 109 39 110 33 111
REMARK SMILES IDX 34 112 37 113 35 114 61 115 62 116 70 117 63 118 64 119
REMARK SMILES IDX 68 120 71 121 65 122 66 123 69 124 67 125 46 126 47 127
REMARK SMILES IDX 55 128 48 129 49 130 53 131 56 132 50 133 51 134 54 135
REMARK SMILES IDX 52 136
REMARK H PARENT 13 2 13 3 12 5 12 6 11 8 11 9 10 13 6 16 7 17 4 22 93 24 83 26
REMARK H PARENT 2 28 2 29 1 31 1 32 1 33 88 40 92 42 89 44 91 45 90 46 14 48
REMARK H PARENT 14 49 15 51 15 52 16 54 16 55 17 58 21 64 82 66 22 68 81 69
REMARK H PARENT 80 79 74 81 76 83 79 85 73 86 41 95 44 97 77 100 42 101 78 103
REMARK Flexibility Score: inf
ROOT
ATOM      1  C   UNL A   1      30.955  28.399  24.456  1.00  0.00    -0.052 C 
ATOM      2  H   UNL A   1      30.440  29.296  24.733  1.00  0.00     0.027 H 
ATOM      3  H   UNL A   1      31.844  28.584  23.892  1.00  0.00     0.027 H 
ENDROOT
BRANCH   1   4
ATOM      4  C   UNL A   1      30.027  27.574  23.552  1.00  0.00    -0.036 C 
ATOM      5  H   UNL A   1      29.509  26.860  24.157  1.00  0.00     0.028 H 
ATOM      6  H   UNL A   1      29.355  28.258  23.077  1.00  0.00     0.028 H 
BRANCH   4   7
ATOM      7  C   UNL A   1      30.778  26.827  22.450  1.00  0.00     0.018 C 
ATOM      8  H   UNL A   1      31.038  25.849  22.799  1.00  0.00     0.049 H 
ATOM      9  H   UNL A   1      30.149  26.747  21.587  1.00  0.00     0.049 H 
BRANCH   7  10
ATOM     10  N   UNL A   1      31.984  27.548  22.095  1.00  0.00    -0.353 N 
ATOM     11  C   UNL A   1      33.292  27.198  22.138  1.00  0.00     0.243 C 
ATOM     12  O   UNL A   1      34.138  28.004  21.751  1.00  0.00    -0.270 OA
ATOM     13  H   UNL A   1      31.822  28.459  21.761  1.00  0.00     0.163 HD
BRANCH  11  14
ATOM     14  C   UNL A   1      33.739  25.851  22.562  1.00  0.00     0.003 C 
ATOM     15  C   UNL A   1      33.972  25.445  23.818  1.00  0.00    -0.049 C 
ATOM     16  H   UNL A   1      33.777  26.114  24.579  1.00  0.00     0.063 H 
ATOM     17  H   UNL A   1      33.885  25.155  21.814  1.00  0.00     0.068 H 
BRANCH  15  18
ATOM     18  C   UNL A   1      34.486  24.121  24.192  1.00  0.00    -0.024 A 
ATOM     19  C   UNL A   1      36.228  22.709  25.152  1.00  0.00    -0.047 A 
ATOM     20  C   UNL A   1      35.802  23.937  24.625  1.00  0.00    -0.052 A 
ATOM     21  C   UNL A   1      35.331  21.634  25.196  1.00  0.00    -0.048 A 
ATOM     22  H   UNL A   1      36.472  24.720  24.557  1.00  0.00     0.063 H 
ATOM     23  C   UNL A   1      34.010  21.800  24.762  1.00  0.00     0.023 A 
ATOM     24  H   UNL A   1      35.646  20.718  25.548  1.00  0.00     0.063 H 
ATOM     25  C   UNL A   1      33.598  23.040  24.254  1.00  0.00    -0.044 A 
ATOM     26  H   UNL A   1      32.628  23.157  23.920  1.00  0.00     0.064 H 
BRANCH  19  27
ATOM     27  C   UNL A   1      37.613  22.592  25.740  1.00  0.00    -0.031 C 
ATOM     28  H   UNL A   1      37.596  21.870  26.531  1.00  0.00     0.031 H 
ATOM     29  H   UNL A   1      38.287  22.283  24.968  1.00  0.00     0.031 H 
BRANCH  27  30
ATOM     30  C   UNL A   1      38.086  23.931  26.295  1.00  0.00    -0.061 C 
ATOM     31  H   UNL A   1      38.938  23.776  26.922  1.00  0.00     0.023 H 
ATOM     32  H   UNL A   1      37.299  24.378  26.865  1.00  0.00     0.023 H 
ATOM     33  H   UNL A   1      38.351  24.578  25.485  1.00  0.00     0.023 H 
ENDBRANCH  27  30
ENDBRANCH  19  27
BRANCH  23  34
ATOM     34  C   UNL A   1      33.003  20.702  24.828  1.00  0.00     0.193 C 
ATOM     35  O   UNL A   1      31.924  20.889  25.385  1.00  0.00    -0.289 OA
BRANCH  34  36
ATOM     36  C   UNL A   1      33.265  19.378  24.222  1.00  0.00     0.022 A 
ATOM     37  C   UNL A   1      32.434  18.943  23.186  1.00  0.00    -0.051 A 
ATOM     38  C   UNL A   1      34.307  18.563  24.680  1.00  0.00    -0.051 A 
ATOM     39  C   UNL A   1      32.678  17.716  22.571  1.00  0.00    -0.062 A 
ATOM     40  H   UNL A   1      31.641  19.528  22.878  1.00  0.00     0.063 H 
ATOM     41  C   UNL A   1      34.547  17.335  24.061  1.00  0.00    -0.062 A 
ATOM     42  H   UNL A   1      34.894  18.868  25.472  1.00  0.00     0.063 H 
ATOM     43  C   UNL A   1      33.740  16.918  23.002  1.00  0.00    -0.062 A 
ATOM     44  H   UNL A   1      32.076  17.398  21.796  1.00  0.00     0.062 H 
ATOM     45  H   UNL A   1      35.322  16.736  24.387  1.00  0.00     0.062 H 
ATOM     46  H   UNL A   1      33.928  16.016  22.536  1.00  0.00     0.062 H 
ENDBRANCH  34  36
ENDBRANCH  23  34
ENDBRANCH  15  18
ENDBRANCH  11  14
ENDBRANCH   7  10
ENDBRANCH   4   7
ENDBRANCH   1   4
BRANCH   1  47
ATOM     47  C   UNL A   1      31.394  27.684  25.740  1.00  0.00    -0.052 C 
ATOM     48  H   UNL A   1      31.317  26.628  25.578  1.00  0.00     0.027 H 
ATOM     49  H   UNL A   1      30.752  28.035  26.519  1.00  0.00     0.027 H 
BRANCH  47  50
ATOM     50  C   UNL A   1      32.825  27.996  26.183  1.00  0.00    -0.036 C 
ATOM     51  H   UNL A   1      33.428  27.127  26.016  1.00  0.00     0.028 H 
ATOM     52  H   UNL A   1      32.780  28.268  27.217  1.00  0.00     0.028 H 
BRANCH  50  53
ATOM     53  C   UNL A   1      33.454  29.169  25.442  1.00  0.00     0.018 C 
ATOM     54  H   UNL A   1      33.246  29.073  24.397  1.00  0.00     0.049 H 
ATOM     55  H   UNL A   1      34.510  29.154  25.622  1.00  0.00     0.049 H 
BRANCH  53  56
ATOM     56  N   UNL A   1      32.927  30.439  25.916  1.00  0.00    -0.352 N 
ATOM     57  C   UNL A   1      33.309  31.183  27.002  1.00  0.00     0.251 C 
ATOM     58  H   UNL A   1      32.191  30.818  25.381  1.00  0.00     0.163 HD
ATOM     59  O   UNL A   1      32.602  32.092  27.418  1.00  0.00    -0.269 OA
BRANCH  57  60
ATOM     60  C   UNL A   1      34.588  30.874  27.671  1.00  0.00     0.039 A 
ATOM     61  C   UNL A   1      35.593  31.844  27.703  1.00  0.00    -0.049 A 
ATOM     62  C   UNL A   1      34.790  29.623  28.261  1.00  0.00    -0.049 A 
ATOM     63  C   UNL A   1      36.786  31.574  28.375  1.00  0.00    -0.053 A 
ATOM     64  H   UNL A   1      35.454  32.752  27.233  1.00  0.00     0.063 H 
ATOM     65  C   UNL A   1      35.945  29.386  28.994  1.00  0.00    -0.053 A 
ATOM     66  H   UNL A   1      34.084  28.878  28.151  1.00  0.00     0.063 H 
ATOM     67  C   UNL A   1      36.957  30.355  29.052  1.00  0.00    -0.014 A 
ATOM     68  H   UNL A   1      37.545  32.275  28.376  1.00  0.00     0.063 H 
ATOM     69  H   UNL A   1      36.058  28.494  29.500  1.00  0.00     0.063 H 
BRANCH  67  70
ATOM     70  C   UNL A   1      38.194  30.061  29.814  1.00  0.00     0.031 A 
ATOM     71  C   UNL A   1      39.202  29.095  29.260  1.00  0.00     0.074 A 
ATOM     72  C   UNL A   1      38.370  30.602  31.035  1.00  0.00     0.049 A 
ATOM     73  N   UNL A   1      40.293  28.626  29.812  1.00  0.00    -0.248 NA
ATOM     74  C   UNL A   1      38.934  28.561  27.916  1.00  0.00    -0.034 C 
ATOM     75  C   UNL A   1      37.442  31.523  31.693  1.00  0.00    -0.036 A 
ATOM     76  N   UNL A   1      39.382  30.443  31.947  1.00  0.00    -0.354 N 
ATOM     77  C   UNL A   1      40.827  27.735  28.891  1.00  0.00     0.074 A 
ATOM     78  C   UNL A   1      39.914  27.684  27.771  1.00  0.00    -0.034 C 
ATOM     79  H   UNL A   1      38.178  28.807  27.257  1.00  0.00     0.065 H 
ATOM     80  C   UNL A   1      37.936  31.861  32.894  1.00  0.00    -0.036 A 
ATOM     81  H   UNL A   1      36.550  31.858  31.297  1.00  0.00     0.065 H 
ATOM     82  C   UNL A   1      39.189  31.146  33.111  1.00  0.00     0.049 A 
ATOM     83  H   UNL A   1      40.172  29.878  31.782  1.00  0.00     0.167 HD
ATOM     84  C   UNL A   1      41.986  27.039  28.966  1.00  0.00     0.037 A 
ATOM     85  H   UNL A   1      40.013  27.046  26.965  1.00  0.00     0.065 H 
ATOM     86  H   UNL A   1      37.499  32.519  33.559  1.00  0.00     0.065 H 
ATOM     87  C   UNL A   1      39.935  31.196  34.231  1.00  0.00     0.037 A 
ATOM     88  C   UNL A   1      42.897  27.110  30.078  1.00  0.00     0.049 A 
ATOM     89  C   UNL A   1      41.206  30.392  34.300  1.00  0.00     0.074 A 
ATOM     90  C   UNL A   1      44.125  26.490  30.229  1.00  0.00    -0.036 A 
ATOM     91  N   UNL A   1      42.675  27.845  31.235  1.00  0.00    -0.354 N 
ATOM     92  N   UNL A   1      41.738  29.604  33.397  1.00  0.00    -0.248 NA
ATOM     93  C   UNL A   1      41.985  30.490  35.543  1.00  0.00    -0.034 C 
ATOM     94  C   UNL A   1      44.619  26.804  31.498  1.00  0.00    -0.036 A 
ATOM     95  H   UNL A   1      44.594  25.898  29.525  1.00  0.00     0.065 H 
ATOM     96  C   UNL A   1      43.731  27.671  32.115  1.00  0.00     0.049 A 
ATOM     97  H   UNL A   1      41.884  28.407  31.404  1.00  0.00     0.167 HD
ATOM     98  C   UNL A   1      42.925  29.139  33.946  1.00  0.00     0.074 A 
ATOM     99  C   UNL A   1      43.042  29.741  35.257  1.00  0.00    -0.034 C 
ATOM    100  H   UNL A   1      41.765  31.004  36.409  1.00  0.00     0.065 H 
ATOM    101  H   UNL A   1      45.497  26.448  31.907  1.00  0.00     0.065 H 
ATOM    102  C   UNL A   1      43.838  28.292  33.411  1.00  0.00     0.037 A 
ATOM    103  H   UNL A   1      43.846  29.607  35.890  1.00  0.00     0.065 H 
BRANCH  84 104
ATOM    104  C   UNL A   1      42.332  26.138  27.814  1.00  0.00     0.064 A 
ATOM    105  C   UNL A   1      43.270  26.514  26.839  1.00  0.00     0.173 A 
ATOM    106  C   UNL A   1      41.741  24.871  27.699  1.00  0.00     0.173 A 
ATOM    107  F   UNL A   1      43.858  27.719  26.895  1.00  0.00    -0.203 F 
ATOM    108  C   UNL A   1      43.576  25.671  25.775  1.00  0.00     0.198 A 
ATOM    109  C   UNL A   1      42.076  24.016  26.652  1.00  0.00     0.198 A 
ATOM    110  F   UNL A   1      40.844  24.457  28.606  1.00  0.00    -0.203 F 
ATOM    111  F   UNL A   1      44.431  26.075  24.826  1.00  0.00    -0.200 F 
ATOM    112  C   UNL A   1      42.984  24.420  25.686  1.00  0.00     0.200 A 
ATOM    113  F   UNL A   1      41.515  22.800  26.577  1.00  0.00    -0.200 F 
ATOM    114  F   UNL A   1      43.285  23.606  24.665  1.00  0.00    -0.200 F 
ENDBRANCH  84 104
BRANCH  87 115
ATOM    115  C   UNL A   1      39.508  32.050  35.370  1.00  0.00     0.064 A 
ATOM    116  C   UNL A   1      38.655  31.550  36.363  1.00  0.00     0.173 A 
ATOM    117  C   UNL A   1      39.939  33.381  35.490  1.00  0.00     0.173 A 
ATOM    118  F   UNL A   1      38.201  30.290  36.283  1.00  0.00    -0.203 F 
ATOM    119  C   UNL A   1      38.232  32.352  37.421  1.00  0.00     0.198 A 
ATOM    120  C   UNL A   1      39.540  34.173  36.565  1.00  0.00     0.198 A 
ATOM    121  F   UNL A   1      40.759  33.906  34.569  1.00  0.00    -0.203 F 
ATOM    122  F   UNL A   1      37.379  31.862  38.330  1.00  0.00    -0.200 F 
ATOM    123  C   UNL A   1      38.679  33.660  37.524  1.00  0.00     0.200 A 
ATOM    124  F   UNL A   1      39.987  35.431  36.669  1.00  0.00    -0.200 F 
ATOM    125  F   UNL A   1      38.275  34.431  38.543  1.00  0.00    -0.200 F 
ENDBRANCH  87 115
BRANCH 102 126
ATOM    126  C   UNL A   1      45.070  28.000  34.219  1.00  0.00     0.064 A 
ATOM    127  C   UNL A   1      45.135  26.916  35.104  1.00  0.00     0.173 A 
ATOM    128  C   UNL A   1      46.222  28.786  34.055  1.00  0.00     0.173 A 
ATOM    129  F   UNL A   1      44.057  26.143  35.307  1.00  0.00    -0.203 F 
ATOM    130  C   UNL A   1      46.301  26.640  35.814  1.00  0.00     0.198 A 
ATOM    131  C   UNL A   1      47.397  28.488  34.741  1.00  0.00     0.198 A 
ATOM    132  F   UNL A   1      46.215  29.831  33.215  1.00  0.00    -0.203 F 
ATOM    133  F   UNL A   1      46.328  25.625  36.688  1.00  0.00    -0.200 F 
ATOM    134  C   UNL A   1      47.433  27.420  35.624  1.00  0.00     0.200 A 
ATOM    135  F   UNL A   1      48.494  29.232  34.542  1.00  0.00    -0.200 F 
ATOM    136  F   UNL A   1      48.559  27.143  36.295  1.00  0.00    -0.200 F 
ENDBRANCH 102 126
ENDBRANCH  67  70
ENDBRANCH  57  60
ENDBRANCH  53  56
ENDBRANCH  50  53
ENDBRANCH  47  50
ENDBRANCH   1  47
TORSDOF 18
ENDMDL
MODEL 2
REMARK VINA RESULT:     -12.3      1.355      3.190
REMARK SMILES CCc1cc(/C=C/C(=O)NCCCCCCNC(=O)c2ccc(-c3c4nc(c(-c5c(F)c(F)c(F)c(F)c5F)c5ccc([nH]5)c(-c5c(F)c(F)c(F)c(F)c5F)c5nc(c(-c6c(F)c(F)c(F)c(F)c6F)c6ccc3[nH]6)C=C5)C=C4)cc2)cc(C(=O)c2ccccc2)c1
REMARK SMILES IDX 13 1 12 4 11 7 10 10 8 11 9 12 7 14 6 15 5 18 3 19 4 20
REMARK SMILES IDX 93 21 84 23 83 25 2 27 1 30 85 34 86 35 87 36 88 37 92 38
REMARK SMILES IDX 89 39 91 41 90 43 14 47 15 50 16 53 17 56 18 57 19 59 20 60
REMARK SMILES IDX 21 61 82 62 22 63 81 65 23 67 24 70 25 71 75 72 26 73 80 74
REMARK SMILES IDX 74 75 76 76 27 77 79 78 73 80 72 82 28 84 60 87 40 88 59 89
REMARK SMILES IDX 41 90 44 91 58 92 77 93 42 94 43 96 57 98 78 99 45 102
REMARK SMILES IDX 29 104 30 105 38 106 31 107 32 108 36 109 39 110 33 111
REMARK SMILES IDX 34 112 37 113 35 114 61 115 62 116 70 117 63 118 64 119
REMARK SMILES IDX 68 120 71 121 65 122 66 123 69 124 67 125 46 126 47 127
REMARK SMILES IDX 55 128 48 129 49 130 53 131 56 132 50 133 51 134 54 135
REMARK SMILES IDX 52 136
REMARK H PARENT 13 2 13 3 12 5 12 6 11 8 11 9 10 13 6 16 7 17 4 22 93 24 83 26
REMARK H PARENT 2 28 2 29 1 31 1 32 1 33 88 40 92 42 89 44 91 45 90 46 14 48
REMARK H PARENT 14 49 15 51 15 52 16 54 16 55 17 58 21 64 82 66 22 68 81 69
REMARK H PARENT 80 79 74 81 76 83 79 85 73 86 41 95 44 97 77 100 42 101 78 103
REMARK Flexibility Score: inf
ROOT
ATOM      1  C   UNL A   1      32.898  26.289  25.786  1.00  0.00    -0.052 C 
ATOM      2  H   UNL A   1      33.197  25.262  25.817  1.00  0.00     0.027 H 
ATOM      3  H   UNL A   1      33.576  26.937  26.299  1.00  0.00     0.027 H 
ENDROOT
BRANCH   1   4
ATOM      4  C   UNL A   1      31.545  26.416  26.501  1.00  0.00    -0.036 C 
ATOM      5  H   UNL A   1      31.616  25.931  27.452  1.00  0.00     0.028 H 
ATOM      6  H   UNL A   1      31.334  27.461  26.600  1.00  0.00     0.028 H 
BRANCH   4   7
ATOM      7  C   UNL A   1      30.394  25.787  25.716  1.00  0.00     0.018 C 
ATOM      8  H   UNL A   1      29.708  26.553  25.419  1.00  0.00     0.049 H 
ATOM      9  H   UNL A   1      30.785  25.295  24.850  1.00  0.00     0.049 H 
BRANCH   7  10
ATOM     10  N   UNL A   1      29.703  24.817  26.543  1.00  0.00    -0.353 N 
ATOM     11  C   UNL A   1      30.036  23.564  26.935  1.00  0.00     0.243 C 
ATOM     12  O   UNL A   1      29.267  22.946  27.671  1.00  0.00    -0.270 OA
ATOM     13  H   UNL A   1      28.832  25.126  26.881  1.00  0.00     0.163 HD
BRANCH  11  14
ATOM     14  C   UNL A   1      31.329  22.938  26.575  1.00  0.00     0.003 C 
ATOM     15  C   UNL A   1      31.535  22.025  25.615  1.00  0.00    -0.049 C 
ATOM     16  H   UNL A   1      30.729  21.760  25.028  1.00  0.00     0.063 H 
ATOM     17  H   UNL A   1      32.155  23.235  27.118  1.00  0.00     0.068 H 
BRANCH  15  18
ATOM     18  C   UNL A   1      32.821  21.372  25.336  1.00  0.00    -0.024 A 
ATOM     19  C   UNL A   1      34.122  19.380  24.800  1.00  0.00    -0.047 A 
ATOM     20  C   UNL A   1      32.936  19.983  25.244  1.00  0.00    -0.052 A 
ATOM     21  C   UNL A   1      35.226  20.186  24.493  1.00  0.00    -0.048 A 
ATOM     22  H   UNL A   1      32.134  19.388  25.507  1.00  0.00     0.063 H 
ATOM     23  C   UNL A   1      35.129  21.580  24.584  1.00  0.00     0.023 A 
ATOM     24  H   UNL A   1      36.114  19.751  24.200  1.00  0.00     0.063 H 
ATOM     25  C   UNL A   1      33.930  22.164  25.014  1.00  0.00    -0.044 A 
ATOM     26  H   UNL A   1      33.863  23.191  25.095  1.00  0.00     0.064 H 
BRANCH  19  27
ATOM     27  C   UNL A   1      34.163  17.889  24.577  1.00  0.00    -0.031 C 
ATOM     28  H   UNL A   1      35.183  17.571  24.521  1.00  0.00     0.031 H 
ATOM     29  H   UNL A   1      33.666  17.408  25.395  1.00  0.00     0.031 H 
BRANCH  27  30
ATOM     30  C   UNL A   1      33.449  17.511  23.283  1.00  0.00    -0.061 C 
ATOM     31  H   UNL A   1      33.594  16.469  23.087  1.00  0.00     0.023 H 
ATOM     32  H   UNL A   1      33.850  18.085  22.474  1.00  0.00     0.023 H 
ATOM     33  H   UNL A   1      32.404  17.714  23.381  1.00  0.00     0.023 H 
ENDBRANCH  27  30
ENDBRANCH  19  27
BRANCH  23  34
ATOM     34  C   UNL A   1      36.259  22.486  24.226  1.00  0.00     0.193 C 
ATOM     35  O   UNL A   1      36.263  23.068  23.145  1.00  0.00    -0.289 OA
BRANCH  34  36
ATOM     36  C   UNL A   1      37.386  22.716  25.157  1.00  0.00     0.022 A 
ATOM     37  C   UNL A   1      37.510  23.974  25.755  1.00  0.00    -0.051 A 
ATOM     38  C   UNL A   1      38.324  21.712  25.425  1.00  0.00    -0.051 A 
ATOM     39  C   UNL A   1      38.539  24.210  26.664  1.00  0.00    -0.062 A 
ATOM     40  H   UNL A   1      36.840  24.725  25.524  1.00  0.00     0.063 H 
ATOM     41  C   UNL A   1      39.353  21.954  26.336  1.00  0.00    -0.062 A 
ATOM     42  H   UNL A   1      38.254  20.798  24.952  1.00  0.00     0.063 H 
ATOM     43  C   UNL A   1      39.454  23.198  26.961  1.00  0.00    -0.062 A 
ATOM     44  H   UNL A   1      38.626  25.132  27.118  1.00  0.00     0.062 H 
ATOM     45  H   UNL A   1      40.039  21.213  26.547  1.00  0.00     0.062 H 
ATOM     46  H   UNL A   1      40.208  23.370  27.645  1.00  0.00     0.062 H 
ENDBRANCH  34  36
ENDBRANCH  23  34
ENDBRANCH  15  18
ENDBRANCH  11  14
ENDBRANCH   7  10
ENDBRANCH   4   7
ENDBRANCH   1   4
BRANCH   1  47
ATOM     47  C   UNL A   1      32.889  26.740  24.320  1.00  0.00    -0.052 C 
ATOM     48  H   UNL A   1      31.954  26.450  23.886  1.00  0.00     0.027 H 
ATOM     49  H   UNL A   1      33.730  26.273  23.853  1.00  0.00     0.027 H 
BRANCH  47  50
ATOM     50  C   UNL A   1      33.061  28.248  24.118  1.00  0.00    -0.036 C 
ATOM     51  H   UNL A   1      32.090  28.698  24.087  1.00  0.00     0.028 H 
ATOM     52  H   UNL A   1      33.602  28.381  23.203  1.00  0.00     0.028 H 
BRANCH  50  53
ATOM     53  C   UNL A   1      33.871  28.924  25.216  1.00  0.00     0.018 C 
ATOM     54  H   UNL A   1      34.822  29.213  24.819  1.00  0.00     0.049 H 
ATOM     55  H   UNL A   1      33.992  28.230  26.022  1.00  0.00     0.049 H 
BRANCH  53  56
ATOM     56  N   UNL A   1      33.192  30.105  25.725  1.00  0.00    -0.352 N 
ATOM     57  C   UNL A   1      33.459  30.836  26.854  1.00  0.00     0.251 C 
ATOM     58  H   UNL A   1      32.433  30.423  25.184  1.00  0.00     0.163 HD
ATOM     59  O   UNL A   1      32.643  31.641  27.286  1.00  0.00    -0.269 OA
BRANCH  57  60
ATOM     60  C   UNL A   1      34.746  30.641  27.549  1.00  0.00     0.039 A 
ATOM     61  C   UNL A   1      35.627  31.719  27.669  1.00  0.00    -0.049 A 
ATOM     62  C   UNL A   1      35.079  29.391  28.078  1.00  0.00    -0.049 A 
ATOM     63  C   UNL A   1      36.824  31.553  28.366  1.00  0.00    -0.053 A 
ATOM     64  H   UNL A   1      35.395  32.630  27.244  1.00  0.00     0.063 H 
ATOM     65  C   UNL A   1      36.232  29.249  28.837  1.00  0.00    -0.053 A 
ATOM     66  H   UNL A   1      34.470  28.576  27.903  1.00  0.00     0.063 H 
ATOM     67  C   UNL A   1      37.120  30.325  28.982  1.00  0.00    -0.014 A 
ATOM     68  H   UNL A   1      37.493  32.336  28.432  1.00  0.00     0.063 H 
ATOM     69  H   UNL A   1      36.437  28.349  29.298  1.00  0.00     0.063 H 
BRANCH  67  70
ATOM     70  C   UNL A   1      38.361  30.135  29.771  1.00  0.00     0.031 A 
ATOM     71  C   UNL A   1      39.470  29.280  29.225  1.00  0.00     0.074 A 
ATOM     72  C   UNL A   1      38.455  30.665  31.005  1.00  0.00     0.049 A 
ATOM     73  N   UNL A   1      40.587  28.906  29.796  1.00  0.00    -0.248 NA
ATOM     74  C   UNL A   1      39.285  28.751  27.865  1.00  0.00    -0.034 C 
ATOM     75  C   UNL A   1      37.428  31.480  31.655  1.00  0.00    -0.036 A 
ATOM     76  N   UNL A   1      39.456  30.584  31.939  1.00  0.00    -0.354 N 
ATOM     77  C   UNL A   1      41.226  28.089  28.873  1.00  0.00     0.074 A 
ATOM     78  C   UNL A   1      40.348  27.974  27.729  1.00  0.00    -0.034 C 
ATOM     79  H   UNL A   1      38.525  28.937  27.191  1.00  0.00     0.065 H 
ATOM     80  C   UNL A   1      37.859  31.839  32.875  1.00  0.00    -0.036 A 
ATOM     81  H   UNL A   1      36.518  31.737  31.243  1.00  0.00     0.065 H 
ATOM     82  C   UNL A   1      39.170  31.243  33.110  1.00  0.00     0.049 A 
ATOM     83  H   UNL A   1      40.301  30.101  31.785  1.00  0.00     0.167 HD
ATOM     84  C   UNL A   1      42.443  27.505  28.965  1.00  0.00     0.037 A 
ATOM     85  H   UNL A   1      40.527  27.365  26.915  1.00  0.00     0.065 H 
ATOM     86  H   UNL A   1      37.346  32.439  33.540  1.00  0.00     0.065 H 
ATOM     87  C   UNL A   1      39.881  31.340  34.250  1.00  0.00     0.037 A 
ATOM     88  C   UNL A   1      43.317  27.640  30.100  1.00  0.00     0.049 A 
ATOM     89  C   UNL A   1      41.221  30.660  34.336  1.00  0.00     0.074 A 
ATOM     90  C   UNL A   1      44.595  27.137  30.271  1.00  0.00    -0.036 A 
ATOM     91  N   UNL A   1      42.999  28.327  31.264  1.00  0.00    -0.354 N 
ATOM     92  N   UNL A   1      41.847  29.944  33.433  1.00  0.00    -0.248 NA
ATOM     93  C   UNL A   1      41.957  30.806  35.600  1.00  0.00    -0.034 C 
ATOM     94  C   UNL A   1      45.026  27.470  31.558  1.00  0.00    -0.036 A 
ATOM     95  H   UNL A   1      45.135  26.606  29.570  1.00  0.00     0.065 H 
ATOM     96  C   UNL A   1      44.046  28.236  32.167  1.00  0.00     0.049 A 
ATOM     97  H   UNL A   1      42.154  28.807  31.424  1.00  0.00     0.167 HD
ATOM     98  C   UNL A   1      43.060  29.584  34.004  1.00  0.00     0.074 A 
ATOM     99  C   UNL A   1      43.088  30.168  35.328  1.00  0.00    -0.034 C 
ATOM    100  H   UNL A   1      41.669  31.280  36.470  1.00  0.00     0.065 H 
ATOM    101  H   UNL A   1      45.925  27.192  31.983  1.00  0.00     0.065 H 
ATOM    102  C   UNL A   1      44.062  28.838  33.478  1.00  0.00     0.037 A 
ATOM    103  H   UNL A   1      43.885  30.098  35.979  1.00  0.00     0.065 H 
BRANCH  84 104
ATOM    104  C   UNL A   1      42.901  26.665  27.806  1.00  0.00     0.064 A 
ATOM    105  C   UNL A   1      42.574  25.304  27.706  1.00  0.00     0.173 A 
ATOM    106  C   UNL A   1      43.653  27.235  26.767  1.00  0.00     0.173 A 
ATOM    107  F   UNL A   1      41.867  24.706  28.677  1.00  0.00    -0.203 F 
ATOM    108  C   UNL A   1      43.011  24.538  26.629  1.00  0.00     0.198 A 
ATOM    109  C   UNL A   1      44.057  26.474  25.673  1.00  0.00     0.198 A 
ATOM    110  F   UNL A   1      43.988  28.533  26.806  1.00  0.00    -0.203 F 
ATOM    111  F   UNL A   1      42.734  23.228  26.585  1.00  0.00    -0.200 F 
ATOM    112  C   UNL A   1      43.746  25.125  25.610  1.00  0.00     0.200 A 
ATOM    113  F   UNL A   1      44.754  27.047  24.681  1.00  0.00    -0.200 F 
ATOM    114  F   UNL A   1      44.159  24.388  24.570  1.00  0.00    -0.200 F 
ENDBRANCH  84 104
BRANCH  87 115
ATOM    115  C   UNL A   1      39.347  32.127  35.393  1.00  0.00     0.064 A 
ATOM    116  C   UNL A   1      38.552  31.519  36.374  1.00  0.00     0.173 A 
ATOM    117  C   UNL A   1      39.617  33.497  35.528  1.00  0.00     0.173 A 
ATOM    118  F   UNL A   1      38.250  30.216  36.278  1.00  0.00    -0.203 F 
ATOM    119  C   UNL A   1      38.029  32.255  37.435  1.00  0.00     0.198 A 
ATOM    120  C   UNL A   1      39.119  34.226  36.607  1.00  0.00     0.198 A 
ATOM    121  F   UNL A   1      40.376  34.125  34.620  1.00  0.00    -0.203 F 
ATOM    122  F   UNL A   1      37.233  31.659  38.333  1.00  0.00    -0.200 F 
ATOM    123  C   UNL A   1      38.318  33.606  37.554  1.00  0.00     0.200 A 
ATOM    124  F   UNL A   1      39.413  35.527  36.727  1.00  0.00    -0.200 F 
ATOM    125  F   UNL A   1      37.818  34.313  38.577  1.00  0.00    -0.200 F 
ENDBRANCH  87 115
BRANCH 102 126
ATOM    126  C   UNL A   1      45.297  28.649  34.310  1.00  0.00     0.064 A 
ATOM    127  C   UNL A   1      45.458  27.541  35.153  1.00  0.00     0.173 A 
ATOM    128  C   UNL A   1      46.358  29.563  34.215  1.00  0.00     0.173 A 
ATOM    129  F   UNL A   1      44.467  26.647  35.291  1.00  0.00    -0.203 F 
ATOM    130  C   UNL A   1      46.628  27.364  35.887  1.00  0.00     0.198 A 
ATOM    131  C   UNL A   1      47.540  29.366  34.924  1.00  0.00     0.198 A 
ATOM    132  F   UNL A   1      46.258  30.636  33.417  1.00  0.00    -0.203 F 
ATOM    133  F   UNL A   1      46.744  26.321  36.721  1.00  0.00    -0.200 F 
ATOM    134  C   UNL A   1      47.672  28.271  35.764  1.00  0.00     0.200 A 
ATOM    135  F   UNL A   1      48.553  30.233  34.790  1.00  0.00    -0.200 F 
ATOM    136  F   UNL A   1      48.803  28.090  36.459  1.00  0.00    -0.200 F 
ENDBRANCH 102 126
ENDBRANCH  67  70
ENDBRANCH  57  60
ENDBRANCH  53  56
ENDBRANCH  50  53
ENDBRANCH  47  50
ENDBRANCH   1  47
TORSDOF 18
ENDMDL
MODEL 3
REMARK VINA RESULT:     -12.3      2.030      7.959
REMARK SMILES CCc1cc(/C=C/C(=O)NCCCCCCNC(=O)c2ccc(-c3c4nc(c(-c5c(F)c(F)c(F)c(F)c5F)c5ccc([nH]5)c(-c5c(F)c(F)c(F)c(F)c5F)c5nc(c(-c6c(F)c(F)c(F)c(F)c6F)c6ccc3[nH]6)C=C5)C=C4)cc2)cc(C(=O)c2ccccc2)c1
REMARK SMILES IDX 13 1 12 4 11 7 10 10 8 11 9 12 7 14 6 15 5 18 3 19 4 20
REMARK SMILES IDX 93 21 84 23 83 25 2 27 1 30 85 34 86 35 87 36 88 37 92 38
REMARK SMILES IDX 89 39 91 41 90 43 14 47 15 50 16 53 17 56 18 57 19 59 20 60
REMARK SMILES IDX 21 61 82 62 22 63 81 65 23 67 24 70 25 71 75 72 26 73 80 74
REMARK SMILES IDX 74 75 76 76 27 77 79 78 73 80 72 82 28 84 60 87 40 88 59 89
REMARK SMILES IDX 41 90 44 91 58 92 77 93 42 94 43 96 57 98 78 99 45 102
REMARK SMILES IDX 29 104 30 105 38 106 31 107 32 108 36 109 39 110 33 111
REMARK SMILES IDX 34 112 37 113 35 114 61 115 62 116 70 117 63 118 64 119
REMARK SMILES IDX 68 120 71 121 65 122 66 123 69 124 67 125 46 126 47 127
REMARK SMILES IDX 55 128 48 129 49 130 53 131 56 132 50 133 51 134 54 135
REMARK SMILES IDX 52 136
REMARK H PARENT 13 2 13 3 12 5 12 6 11 8 11 9 10 13 6 16 7 17 4 22 93 24 83 26
REMARK H PARENT 2 28 2 29 1 31 1 32 1 33 88 40 92 42 89 44 91 45 90 46 14 48
REMARK H PARENT 14 49 15 51 15 52 16 54 16 55 17 58 21 64 82 66 22 68 81 69
REMARK H PARENT 80 79 74 81 76 83 79 85 73 86 41 95 44 97 77 100 42 101 78 103
REMARK Flexibility Score: inf
ROOT
ATOM      1  C   UNL A   1      32.591  26.392  25.912  1.00  0.00    -0.052 C 
ATOM      2  H   UNL A   1      32.738  25.337  25.811  1.00  0.00     0.027 H 
ATOM      3  H   UNL A   1      33.108  26.808  26.750  1.00  0.00     0.027 H 
ENDROOT
BRANCH   1   4
ATOM      4  C   UNL A   1      31.096  26.647  26.151  1.00  0.00    -0.036 C 
ATOM      5  H   UNL A   1      30.905  26.593  27.203  1.00  0.00     0.028 H 
ATOM      6  H   UNL A   1      30.869  27.614  25.753  1.00  0.00     0.028 H 
BRANCH   4   7
ATOM      7  C   UNL A   1      30.197  25.635  25.440  1.00  0.00     0.018 C 
ATOM      8  H   UNL A   1      29.436  26.157  24.897  1.00  0.00     0.049 H 
ATOM      9  H   UNL A   1      30.788  25.052  24.765  1.00  0.00     0.049 H 
BRANCH   7  10
ATOM     10  N   UNL A   1      29.577  24.755  26.411  1.00  0.00    -0.353 N 
ATOM     11  C   UNL A   1      29.953  23.554  26.913  1.00  0.00     0.243 C 
ATOM     12  O   UNL A   1      29.244  23.014  27.761  1.00  0.00    -0.270 OA
ATOM     13  H   UNL A   1      28.725  25.092  26.772  1.00  0.00     0.163 HD
BRANCH  11  14
ATOM     14  C   UNL A   1      31.228  22.902  26.535  1.00  0.00     0.003 C 
ATOM     15  C   UNL A   1      31.391  21.932  25.624  1.00  0.00    -0.049 C 
ATOM     16  H   UNL A   1      30.560  21.636  25.090  1.00  0.00     0.063 H 
ATOM     17  H   UNL A   1      32.078  23.228  27.023  1.00  0.00     0.068 H 
BRANCH  15  18
ATOM     18  C   UNL A   1      32.663  21.259  25.330  1.00  0.00    -0.024 A 
ATOM     19  C   UNL A   1      33.928  19.242  24.802  1.00  0.00    -0.047 A 
ATOM     20  C   UNL A   1      32.759  19.867  25.260  1.00  0.00    -0.052 A 
ATOM     21  C   UNL A   1      35.035  20.029  24.458  1.00  0.00    -0.048 A 
ATOM     22  H   UNL A   1      31.956  19.287  25.550  1.00  0.00     0.063 H 
ATOM     23  C   UNL A   1      34.957  21.425  24.526  1.00  0.00     0.023 A 
ATOM     24  H   UNL A   1      35.911  19.577  24.154  1.00  0.00     0.063 H 
ATOM     25  C   UNL A   1      33.774  22.032  24.971  1.00  0.00    -0.044 A 
ATOM     26  H   UNL A   1      33.722  23.060  25.035  1.00  0.00     0.064 H 
BRANCH  19  27
ATOM     27  C   UNL A   1      33.946  17.746  24.605  1.00  0.00    -0.031 C 
ATOM     28  H   UNL A   1      34.926  17.376  24.822  1.00  0.00     0.031 H 
ATOM     29  H   UNL A   1      33.226  17.307  25.264  1.00  0.00     0.031 H 
BRANCH  27  30
ATOM     30  C   UNL A   1      33.580  17.381  23.170  1.00  0.00    -0.061 C 
ATOM     31  H   UNL A   1      32.529  17.191  23.107  1.00  0.00     0.023 H 
ATOM     32  H   UNL A   1      34.119  16.505  22.877  1.00  0.00     0.023 H 
ATOM     33  H   UNL A   1      33.836  18.191  22.520  1.00  0.00     0.023 H 
ENDBRANCH  27  30
ENDBRANCH  19  27
BRANCH  23  34
ATOM     34  C   UNL A   1      36.090  22.310  24.129  1.00  0.00     0.193 C 
ATOM     35  O   UNL A   1      36.107  22.826  23.014  1.00  0.00    -0.289 OA
BRANCH  34  36
ATOM     36  C   UNL A   1      37.204  22.599  25.058  1.00  0.00     0.022 A 
ATOM     37  C   UNL A   1      38.155  21.600  25.290  1.00  0.00    -0.051 A 
ATOM     38  C   UNL A   1      37.306  23.834  25.709  1.00  0.00    -0.051 A 
ATOM     39  C   UNL A   1      39.237  21.854  26.131  1.00  0.00    -0.062 A 
ATOM     40  H   UNL A   1      38.054  20.676  24.840  1.00  0.00     0.063 H 
ATOM     41  C   UNL A   1      38.391  24.083  26.551  1.00  0.00    -0.062 A 
ATOM     42  H   UNL A   1      36.583  24.556  25.568  1.00  0.00     0.063 H 
ATOM     43  C   UNL A   1      39.359  23.099  26.753  1.00  0.00    -0.062 A 
ATOM     44  H   UNL A   1      39.947  21.124  26.294  1.00  0.00     0.062 H 
ATOM     45  H   UNL A   1      38.478  24.997  27.023  1.00  0.00     0.062 H 
ATOM     46  H   UNL A   1      40.169  23.290  27.364  1.00  0.00     0.062 H 
ENDBRANCH  34  36
ENDBRANCH  23  34
ENDBRANCH  15  18
ENDBRANCH  11  14
ENDBRANCH   7  10
ENDBRANCH   4   7
ENDBRANCH   1   4
BRANCH   1  47
ATOM     47  C   UNL A   1      33.162  27.077  24.664  1.00  0.00    -0.052 C 
ATOM     48  H   UNL A   1      32.365  27.210  23.961  1.00  0.00     0.027 H 
ATOM     49  H   UNL A   1      33.941  26.442  24.298  1.00  0.00     0.027 H 
BRANCH  47  50
ATOM     50  C   UNL A   1      33.802  28.443  24.924  1.00  0.00    -0.036 C 
ATOM     51  H   UNL A   1      33.132  29.202  24.575  1.00  0.00     0.028 H 
ATOM     52  H   UNL A   1      34.737  28.454  24.405  1.00  0.00     0.028 H 
BRANCH  50  53
ATOM     53  C   UNL A   1      34.106  28.707  26.393  1.00  0.00     0.018 C 
ATOM     54  H   UNL A   1      35.107  28.394  26.604  1.00  0.00     0.049 H 
ATOM     55  H   UNL A   1      33.405  28.156  26.987  1.00  0.00     0.049 H 
BRANCH  53  56
ATOM     56  N   UNL A   1      33.972  30.118  26.718  1.00  0.00    -0.352 N 
ATOM     57  C   UNL A   1      34.679  30.868  27.623  1.00  0.00     0.251 C 
ATOM     58  H   UNL A   1      33.277  30.603  26.217  1.00  0.00     0.163 HD
ATOM     59  O   UNL A   1      34.278  31.972  27.968  1.00  0.00    -0.269 OA
BRANCH  57  60
ATOM     60  C   UNL A   1      35.932  30.326  28.183  1.00  0.00     0.039 A 
ATOM     61  C   UNL A   1      37.124  30.492  27.473  1.00  0.00    -0.049 A 
ATOM     62  C   UNL A   1      35.923  29.650  29.406  1.00  0.00    -0.049 A 
ATOM     63  C   UNL A   1      38.319  30.025  28.020  1.00  0.00    -0.053 A 
ATOM     64  H   UNL A   1      37.120  30.958  26.553  1.00  0.00     0.063 H 
ATOM     65  C   UNL A   1      37.122  29.255  29.984  1.00  0.00    -0.053 A 
ATOM     66  H   UNL A   1      35.028  29.445  29.878  1.00  0.00     0.063 H 
ATOM     67  C   UNL A   1      38.331  29.430  29.293  1.00  0.00    -0.014 A 
ATOM     68  H   UNL A   1      39.199  30.117  27.487  1.00  0.00     0.063 H 
ATOM     69  H   UNL A   1      37.125  28.832  30.924  1.00  0.00     0.063 H 
BRANCH  67  70
ATOM     70  C   UNL A   1      39.592  28.968  29.919  1.00  0.00     0.031 A 
ATOM     71  C   UNL A   1      40.159  29.711  31.096  1.00  0.00     0.074 A 
ATOM     72  C   UNL A   1      40.264  27.933  29.381  1.00  0.00     0.049 A 
ATOM     73  N   UNL A   1      41.295  29.533  31.721  1.00  0.00    -0.248 NA
ATOM     74  C   UNL A   1      39.352  30.822  31.624  1.00  0.00    -0.034 C 
ATOM     75  C   UNL A   1      39.833  27.159  28.216  1.00  0.00    -0.036 A 
ATOM     76  N   UNL A   1      41.461  27.362  29.734  1.00  0.00    -0.354 N 
ATOM     77  C   UNL A   1      41.345  30.517  32.700  1.00  0.00     0.074 A 
ATOM     78  C   UNL A   1      40.153  31.324  32.550  1.00  0.00    -0.034 C 
ATOM     79  H   UNL A   1      38.407  31.131  31.344  1.00  0.00     0.065 H 
ATOM     80  C   UNL A   1      40.742  26.205  27.961  1.00  0.00    -0.036 A 
ATOM     81  H   UNL A   1      38.969  27.322  27.676  1.00  0.00     0.065 H 
ATOM     82  C   UNL A   1      41.840  26.328  28.914  1.00  0.00     0.049 A 
ATOM     83  H   UNL A   1      41.997  27.666  30.502  1.00  0.00     0.167 HD
ATOM     84  C   UNL A   1      42.288  30.713  33.650  1.00  0.00     0.037 A 
ATOM     85  H   UNL A   1      39.955  32.178  33.095  1.00  0.00     0.065 H 
ATOM     86  H   UNL A   1      40.675  25.498  27.212  1.00  0.00     0.065 H 
ATOM     87  C   UNL A   1      42.956  25.574  28.923  1.00  0.00     0.037 A 
ATOM     88  C   UNL A   1      43.461  29.894  33.802  1.00  0.00     0.049 A 
ATOM     89  C   UNL A   1      44.003  25.831  29.974  1.00  0.00     0.074 A 
ATOM     90  C   UNL A   1      44.451  29.973  34.766  1.00  0.00    -0.036 A 
ATOM     91  N   UNL A   1      43.806  28.845  32.960  1.00  0.00    -0.354 N 
ATOM     92  N   UNL A   1      44.010  26.720  30.937  1.00  0.00    -0.248 NA
ATOM     93  C   UNL A   1      45.197  24.974  29.942  1.00  0.00    -0.034 C 
ATOM     94  C   UNL A   1      45.421  29.010  34.474  1.00  0.00    -0.036 A 
ATOM     95  H   UNL A   1      44.469  30.630  35.561  1.00  0.00     0.065 H 
ATOM     96  C   UNL A   1      45.007  28.287  33.367  1.00  0.00     0.049 A 
ATOM     97  H   UNL A   1      43.274  28.543  32.187  1.00  0.00     0.167 HD
ATOM     98  C   UNL A   1      45.186  26.509  31.644  1.00  0.00     0.074 A 
ATOM     99  C   UNL A   1      45.863  25.401  31.006  1.00  0.00    -0.034 C 
ATOM    100  H   UNL A   1      45.450  24.235  29.268  1.00  0.00     0.065 H 
ATOM    101  H   UNL A   1      46.300  28.863  34.996  1.00  0.00     0.065 H 
ATOM    102  C   UNL A   1      45.660  27.173  32.727  1.00  0.00     0.037 A 
ATOM    103  H   UNL A   1      46.752  24.994  31.336  1.00  0.00     0.065 H 
BRANCH  84 104
ATOM    104  C   UNL A   1      42.091  31.863  34.598  1.00  0.00     0.064 A 
ATOM    105  C   UNL A   1      41.425  31.702  35.824  1.00  0.00     0.173 A 
ATOM    106  C   UNL A   1      42.599  33.134  34.291  1.00  0.00     0.173 A 
ATOM    107  F   UNL A   1      40.911  30.510  36.163  1.00  0.00    -0.203 F 
ATOM    108  C   UNL A   1      41.246  32.778  36.689  1.00  0.00     0.198 A 
ATOM    109  C   UNL A   1      42.449  34.199  35.175  1.00  0.00     0.198 A 
ATOM    110  F   UNL A   1      43.250  33.343  33.137  1.00  0.00    -0.203 F 
ATOM    111  F   UNL A   1      40.558  32.613  37.827  1.00  0.00    -0.200 F 
ATOM    112  C   UNL A   1      41.764  34.023  36.368  1.00  0.00     0.200 A 
ATOM    113  F   UNL A   1      42.964  35.399  34.870  1.00  0.00    -0.200 F 
ATOM    114  F   UNL A   1      41.597  35.056  37.205  1.00  0.00    -0.200 F 
ENDBRANCH  84 104
BRANCH  87 115
ATOM    115  C   UNL A   1      43.132  24.495  27.916  1.00  0.00     0.064 A 
ATOM    116  C   UNL A   1      43.699  24.767  26.663  1.00  0.00     0.173 A 
ATOM    117  C   UNL A   1      42.736  23.175  28.179  1.00  0.00     0.173 A 
ATOM    118  F   UNL A   1      44.077  26.017  26.356  1.00  0.00    -0.203 F 
ATOM    119  C   UNL A   1      43.846  23.766  25.705  1.00  0.00     0.198 A 
ATOM    120  C   UNL A   1      42.911  22.168  27.232  1.00  0.00     0.198 A 
ATOM    121  F   UNL A   1      42.191  22.861  29.363  1.00  0.00    -0.203 F 
ATOM    122  F   UNL A   1      44.348  24.064  24.500  1.00  0.00    -0.200 F 
ATOM    123  C   UNL A   1      43.457  22.466  25.993  1.00  0.00     0.200 A 
ATOM    124  F   UNL A   1      42.548  20.911  27.519  1.00  0.00    -0.200 F 
ATOM    125  F   UNL A   1      43.601  21.502  25.073  1.00  0.00    -0.200 F 
ENDBRANCH  87 115
BRANCH 102 126
ATOM    126  C   UNL A   1      46.950  26.691  33.325  1.00  0.00     0.064 A 
ATOM    127  C   UNL A   1      46.984  25.685  34.300  1.00  0.00     0.173 A 
ATOM    128  C   UNL A   1      48.174  27.206  32.869  1.00  0.00     0.173 A 
ATOM    129  F   UNL A   1      45.841  25.170  34.779  1.00  0.00    -0.203 F 
ATOM    130  C   UNL A   1      48.194  25.226  34.813  1.00  0.00     0.198 A 
ATOM    131  C   UNL A   1      49.384  26.721  33.359  1.00  0.00     0.198 A 
ATOM    132  F   UNL A   1      48.198  28.166  31.932  1.00  0.00    -0.203 F 
ATOM    133  F   UNL A   1      48.202  24.293  35.776  1.00  0.00    -0.200 F 
ATOM    134  C   UNL A   1      49.392  25.736  34.335  1.00  0.00     0.200 A 
ATOM    135  F   UNL A   1      50.540  27.204  32.884  1.00  0.00    -0.200 F 
ATOM    136  F   UNL A   1      50.556  25.281  34.819  1.00  0.00    -0.200 F 
ENDBRANCH 102 126
ENDBRANCH  67  70
ENDBRANCH  57  60
ENDBRANCH  53  56
ENDBRANCH  50  53
ENDBRANCH  47  50
ENDBRANCH   1  47
TORSDOF 18
ENDMDL
MODEL 4
REMARK VINA RESULT:     -12.2      2.172      7.278
REMARK SMILES CCc1cc(/C=C/C(=O)NCCCCCCNC(=O)c2ccc(-c3c4nc(c(-c5c(F)c(F)c(F)c(F)c5F)c5ccc([nH]5)c(-c5c(F)c(F)c(F)c(F)c5F)c5nc(c(-c6c(F)c(F)c(F)c(F)c6F)c6ccc3[nH]6)C=C5)C=C4)cc2)cc(C(=O)c2ccccc2)c1
REMARK SMILES IDX 13 1 12 4 11 7 10 10 8 11 9 12 7 14 6 15 5 18 3 19 4 20
REMARK SMILES IDX 93 21 84 23 83 25 2 27 1 30 85 34 86 35 87 36 88 37 92 38
REMARK SMILES IDX 89 39 91 41 90 43 14 47 15 50 16 53 17 56 18 57 19 59 20 60
REMARK SMILES IDX 21 61 82 62 22 63 81 65 23 67 24 70 25 71 75 72 26 73 80 74
REMARK SMILES IDX 74 75 76 76 27 77 79 78 73 80 72 82 28 84 60 87 40 88 59 89
REMARK SMILES IDX 41 90 44 91 58 92 77 93 42 94 43 96 57 98 78 99 45 102
REMARK SMILES IDX 29 104 30 105 38 106 31 107 32 108 36 109 39 110 33 111
REMARK SMILES IDX 34 112 37 113 35 114 61 115 62 116 70 117 63 118 64 119
REMARK SMILES IDX 68 120 71 121 65 122 66 123 69 124 67 125 46 126 47 127
REMARK SMILES IDX 55 128 48 129 49 130 53 131 56 132 50 133 51 134 54 135
REMARK SMILES IDX 52 136
REMARK H PARENT 13 2 13 3 12 5 12 6 11 8 11 9 10 13 6 16 7 17 4 22 93 24 83 26
REMARK H PARENT 2 28 2 29 1 31 1 32 1 33 88 40 92 42 89 44 91 45 90 46 14 48
REMARK H PARENT 14 49 15 51 15 52 16 54 16 55 17 58 21 64 82 66 22 68 81 69
REMARK H PARENT 80 79 74 81 76 83 79 85 73 86 41 95 44 97 77 100 42 101 78 103
REMARK Flexibility Score: inf
ROOT
ATOM      1  C   UNL A   1      31.514  28.281  24.958  1.00  0.00    -0.052 C 
ATOM      2  H   UNL A   1      31.211  29.220  25.374  1.00  0.00     0.027 H 
ATOM      3  H   UNL A   1      32.379  28.361  24.335  1.00  0.00     0.027 H 
ENDROOT
BRANCH   1   4
ATOM      4  C   UNL A   1      30.378  27.763  24.066  1.00  0.00    -0.036 C 
ATOM      5  H   UNL A   1      29.766  27.102  24.643  1.00  0.00     0.028 H 
ATOM      6  H   UNL A   1      29.829  28.615  23.721  1.00  0.00     0.028 H 
BRANCH   4   7
ATOM      7  C   UNL A   1      30.882  27.011  22.834  1.00  0.00     0.018 C 
ATOM      8  H   UNL A   1      31.102  25.998  23.103  1.00  0.00     0.049 H 
ATOM      9  H   UNL A   1      30.125  27.028  22.077  1.00  0.00     0.049 H 
BRANCH   7  10
ATOM     10  N   UNL A   1      32.080  27.645  22.322  1.00  0.00    -0.353 N 
ATOM     11  C   UNL A   1      33.344  27.187  22.157  1.00  0.00     0.243 C 
ATOM     12  O   UNL A   1      34.191  27.937  21.671  1.00  0.00    -0.270 OA
ATOM     13  H   UNL A   1      31.951  28.580  22.044  1.00  0.00     0.163 HD
BRANCH  11  14
ATOM     14  C   UNL A   1      33.729  25.791  22.468  1.00  0.00     0.003 C 
ATOM     15  C   UNL A   1      33.685  25.198  23.669  1.00  0.00    -0.049 C 
ATOM     16  H   UNL A   1      33.300  25.744  24.456  1.00  0.00     0.063 H 
ATOM     17  H   UNL A   1      34.065  25.216  21.679  1.00  0.00     0.068 H 
BRANCH  15  18
ATOM     18  C   UNL A   1      34.145  23.832  23.951  1.00  0.00    -0.024 A 
ATOM     19  C   UNL A   1      35.918  22.266  24.544  1.00  0.00    -0.047 A 
ATOM     20  C   UNL A   1      35.501  23.528  24.097  1.00  0.00    -0.052 A 
ATOM     21  C   UNL A   1      34.958  21.278  24.799  1.00  0.00    -0.048 A 
ATOM     22  H   UNL A   1      36.209  24.245  23.873  1.00  0.00     0.063 H 
ATOM     23  C   UNL A   1      33.595  21.565  24.653  1.00  0.00     0.023 A 
ATOM     24  H   UNL A   1      35.257  20.336  25.093  1.00  0.00     0.063 H 
ATOM     25  C   UNL A   1      33.197  22.838  24.220  1.00  0.00    -0.044 A 
ATOM     26  H   UNL A   1      32.193  23.045  24.099  1.00  0.00     0.064 H 
BRANCH  19  27
ATOM     27  C   UNL A   1      37.380  22.020  24.827  1.00  0.00    -0.031 C 
ATOM     28  H   UNL A   1      37.487  21.078  25.324  1.00  0.00     0.031 H 
ATOM     29  H   UNL A   1      37.911  22.014  23.898  1.00  0.00     0.031 H 
BRANCH  27  30
ATOM     30  C   UNL A   1      37.957  23.121  25.711  1.00  0.00    -0.061 C 
ATOM     31  H   UNL A   1      37.257  23.364  26.482  1.00  0.00     0.023 H 
ATOM     32  H   UNL A   1      38.149  23.990  25.118  1.00  0.00     0.023 H 
ATOM     33  H   UNL A   1      38.870  22.781  26.152  1.00  0.00     0.023 H 
ENDBRANCH  27  30
ENDBRANCH  19  27
BRANCH  23  34
ATOM     34  C   UNL A   1      32.530  20.565  24.953  1.00  0.00     0.193 C 
ATOM     35  O   UNL A   1      31.444  20.935  25.391  1.00  0.00    -0.289 OA
BRANCH  34  36
ATOM     36  C   UNL A   1      32.744  19.119  24.723  1.00  0.00     0.022 A 
ATOM     37  C   UNL A   1      32.963  18.677  23.414  1.00  0.00    -0.051 A 
ATOM     38  C   UNL A   1      32.712  18.202  25.780  1.00  0.00    -0.051 A 
ATOM     39  C   UNL A   1      33.204  17.326  23.170  1.00  0.00    -0.062 A 
ATOM     40  H   UNL A   1      32.945  19.350  22.631  1.00  0.00     0.063 H 
ATOM     41  C   UNL A   1      32.954  16.851  25.530  1.00  0.00    -0.062 A 
ATOM     42  H   UNL A   1      32.511  18.524  26.740  1.00  0.00     0.063 H 
ATOM     43  C   UNL A   1      33.209  16.416  24.229  1.00  0.00    -0.062 A 
ATOM     44  H   UNL A   1      33.380  16.999  22.208  1.00  0.00     0.062 H 
ATOM     45  H   UNL A   1      32.944  16.173  26.309  1.00  0.00     0.062 H 
ATOM     46  H   UNL A   1      33.402  15.418  24.048  1.00  0.00     0.062 H 
ENDBRANCH  34  36
ENDBRANCH  23  34
ENDBRANCH  15  18
ENDBRANCH  11  14
ENDBRANCH   7  10
ENDBRANCH   4   7
ENDBRANCH   1   4
BRANCH   1  47
ATOM     47  C   UNL A   1      31.894  27.347  26.114  1.00  0.00    -0.052 C 
ATOM     48  H   UNL A   1      31.990  26.355  25.724  1.00  0.00     0.027 H 
ATOM     49  H   UNL A   1      31.118  27.436  26.845  1.00  0.00     0.027 H 
BRANCH  47  50
ATOM     50  C   UNL A   1      33.201  27.711  26.822  1.00  0.00    -0.036 C 
ATOM     51  H   UNL A   1      33.799  26.826  26.904  1.00  0.00     0.028 H 
ATOM     52  H   UNL A   1      32.937  28.114  27.778  1.00  0.00     0.028 H 
BRANCH  50  53
ATOM     53  C   UNL A   1      34.014  28.776  26.098  1.00  0.00     0.018 C 
ATOM     54  H   UNL A   1      33.734  28.786  25.066  1.00  0.00     0.049 H 
ATOM     55  H   UNL A   1      35.053  28.539  26.207  1.00  0.00     0.049 H 
BRANCH  53  56
ATOM     56  N   UNL A   1      33.783  30.096  26.665  1.00  0.00    -0.352 N 
ATOM     57  C   UNL A   1      34.462  30.736  27.670  1.00  0.00     0.251 C 
ATOM     58  H   UNL A   1      33.034  30.600  26.272  1.00  0.00     0.163 HD
ATOM     59  O   UNL A   1      33.990  31.728  28.211  1.00  0.00    -0.269 OA
BRANCH  57  60
ATOM     60  C   UNL A   1      35.774  30.212  28.098  1.00  0.00     0.039 A 
ATOM     61  C   UNL A   1      36.871  30.339  27.242  1.00  0.00    -0.049 A 
ATOM     62  C   UNL A   1      35.914  29.594  29.344  1.00  0.00    -0.049 A 
ATOM     63  C   UNL A   1      38.123  29.890  27.660  1.00  0.00    -0.053 A 
ATOM     64  H   UNL A   1      36.755  30.762  26.308  1.00  0.00     0.063 H 
ATOM     65  C   UNL A   1      37.174  29.219  29.789  1.00  0.00    -0.053 A 
ATOM     66  H   UNL A   1      35.083  29.416  29.930  1.00  0.00     0.063 H 
ATOM     67  C   UNL A   1      38.290  29.355  28.949  1.00  0.00    -0.014 A 
ATOM     68  H   UNL A   1      38.932  29.952  27.021  1.00  0.00     0.063 H 
ATOM     69  H   UNL A   1      37.291  28.839  30.740  1.00  0.00     0.063 H 
BRANCH  67  70
ATOM     70  C   UNL A   1      39.618  28.914  29.438  1.00  0.00     0.031 A 
ATOM     71  C   UNL A   1      40.395  29.789  30.380  1.00  0.00     0.074 A 
ATOM     72  C   UNL A   1      40.154  27.770  28.973  1.00  0.00     0.049 A 
ATOM     73  N   UNL A   1      41.611  29.636  30.843  1.00  0.00    -0.248 NA
ATOM     74  C   UNL A   1      39.728  31.015  30.843  1.00  0.00    -0.034 C 
ATOM     75  C   UNL A   1      39.511  26.858  28.026  1.00  0.00    -0.036 A 
ATOM     76  N   UNL A   1      41.370  27.185  29.223  1.00  0.00    -0.354 N 
ATOM     77  C   UNL A   1      41.855  30.751  31.633  1.00  0.00     0.074 A 
ATOM     78  C   UNL A   1      40.687  31.599  31.544  1.00  0.00    -0.034 C 
ATOM     79  H   UNL A   1      38.762  31.337  30.668  1.00  0.00     0.065 H 
ATOM     80  C   UNL A   1      40.329  25.821  27.788  1.00  0.00    -0.036 A 
ATOM     81  H   UNL A   1      38.577  26.991  27.608  1.00  0.00     0.065 H 
ATOM     82  C   UNL A   1      41.571  26.017  28.528  1.00  0.00     0.049 A 
ATOM     83  H   UNL A   1      42.035  27.567  29.841  1.00  0.00     0.167 HD
ATOM     84  C   UNL A   1      42.947  31.029  32.383  1.00  0.00     0.037 A 
ATOM     85  H   UNL A   1      40.612  32.536  31.970  1.00  0.00     0.065 H 
ATOM     86  H   UNL A   1      40.115  25.015  27.180  1.00  0.00     0.065 H 
ATOM     87  C   UNL A   1      42.645  25.206  28.484  1.00  0.00     0.037 A 
ATOM     88  C   UNL A   1      44.098  30.170  32.479  1.00  0.00     0.049 A 
ATOM     89  C   UNL A   1      43.858  25.552  29.307  1.00  0.00     0.074 A 
ATOM     90  C   UNL A   1      45.233  30.332  33.254  1.00  0.00    -0.036 A 
ATOM     91  N   UNL A   1      44.261  28.987  31.771  1.00  0.00    -0.354 N 
ATOM     92  N   UNL A   1      44.054  26.573  30.104  1.00  0.00    -0.248 NA
ATOM     93  C   UNL A   1      44.998  24.627  29.227  1.00  0.00    -0.034 C 
ATOM     94  C   UNL A   1      46.107  29.277  32.972  1.00  0.00    -0.036 A 
ATOM     95  H   UNL A   1      45.405  31.098  33.923  1.00  0.00     0.065 H 
ATOM     96  C   UNL A   1      45.491  28.423  32.071  1.00  0.00     0.049 A 
ATOM     97  H   UNL A   1      43.601  28.606  31.148  1.00  0.00     0.167 HD
ATOM     98  C   UNL A   1      45.321  26.399  30.645  1.00  0.00     0.074 A 
ATOM     99  C   UNL A   1      45.844  25.167  30.093  1.00  0.00    -0.034 C 
ATOM    100  H   UNL A   1      45.110  23.780  28.648  1.00  0.00     0.065 H 
ATOM    101  H   UNL A   1      47.052  29.156  33.369  1.00  0.00     0.065 H 
ATOM    102  C   UNL A   1      45.989  27.186  31.523  1.00  0.00     0.037 A 
ATOM    103  H   UNL A   1      46.758  24.759  30.343  1.00  0.00     0.065 H 
BRANCH  84 104
ATOM    104  C   UNL A   1      42.950  32.318  33.156  1.00  0.00     0.064 A 
ATOM    105  C   UNL A   1      43.454  33.507  32.606  1.00  0.00     0.173 A 
ATOM    106  C   UNL A   1      42.416  32.371  34.452  1.00  0.00     0.173 A 
ATOM    107  F   UNL A   1      43.986  33.511  31.375  1.00  0.00    -0.203 F 
ATOM    108  C   UNL A   1      43.454  34.692  33.338  1.00  0.00     0.198 A 
ATOM    109  C   UNL A   1      42.386  33.565  35.168  1.00  0.00     0.198 A 
ATOM    110  F   UNL A   1      41.914  31.266  35.024  1.00  0.00    -0.203 F 
ATOM    111  F   UNL A   1      43.993  35.801  32.813  1.00  0.00    -0.200 F 
ATOM    112  C   UNL A   1      42.914  34.721  34.615  1.00  0.00     0.200 A 
ATOM    113  F   UNL A   1      41.849  33.596  36.396  1.00  0.00    -0.200 F 
ATOM    114  F   UNL A   1      42.909  35.864  35.314  1.00  0.00    -0.200 F 
ENDBRANCH  84 104
BRANCH  87 115
ATOM    115  C   UNL A   1      42.614  23.978  27.646  1.00  0.00     0.064 A 
ATOM    116  C   UNL A   1      42.264  22.739  28.199  1.00  0.00     0.173 A 
ATOM    117  C   UNL A   1      42.935  24.016  26.281  1.00  0.00     0.173 A 
ATOM    118  F   UNL A   1      41.967  22.648  29.504  1.00  0.00    -0.203 F 
ATOM    119  C   UNL A   1      42.255  21.581  27.425  1.00  0.00     0.198 A 
ATOM    120  C   UNL A   1      42.897  22.862  25.500  1.00  0.00     0.198 A 
ATOM    121  F   UNL A   1      43.273  25.176  25.702  1.00  0.00    -0.203 F 
ATOM    122  F   UNL A   1      41.962  20.402  27.990  1.00  0.00    -0.200 F 
ATOM    123  C   UNL A   1      42.566  21.644  26.075  1.00  0.00     0.200 A 
ATOM    124  F   UNL A   1      43.182  22.930  24.193  1.00  0.00    -0.200 F 
ATOM    125  F   UNL A   1      42.554  20.531  25.329  1.00  0.00    -0.200 F 
ENDBRANCH  87 115
BRANCH 102 126
ATOM    126  C   UNL A   1      47.340  26.720  31.983  1.00  0.00     0.064 A 
ATOM    127  C   UNL A   1      47.491  25.842  33.065  1.00  0.00     0.173 A 
ATOM    128  C   UNL A   1      48.496  27.115  31.290  1.00  0.00     0.173 A 
ATOM    129  F   UNL A   1      46.420  25.447  33.769  1.00  0.00    -0.203 F 
ATOM    130  C   UNL A   1      48.752  25.392  33.450  1.00  0.00     0.198 A 
ATOM    131  C   UNL A   1      49.751  26.637  31.657  1.00  0.00     0.198 A 
ATOM    132  F   UNL A   1      48.406  27.949  30.243  1.00  0.00    -0.203 F 
ATOM    133  F   UNL A   1      48.878  24.588  34.515  1.00  0.00    -0.200 F 
ATOM    134  C   UNL A   1      49.878  25.781  32.740  1.00  0.00     0.200 A 
ATOM    135  F   UNL A   1      50.835  27.001  30.958  1.00  0.00    -0.200 F 
ATOM    136  F   UNL A   1      51.088  25.334  33.103  1.00  0.00    -0.200 F 
ENDBRANCH 102 126
ENDBRANCH  67  70
ENDBRANCH  57  60
ENDBRANCH  53  56
ENDBRANCH  50  53
ENDBRANCH  47  50
ENDBRANCH   1  47
TORSDOF 18
ENDMDL
MODEL 5
REMARK VINA RESULT:     -12.1      1.318      7.824
REMARK SMILES CCc1cc(/C=C/C(=O)NCCCCCCNC(=O)c2ccc(-c3c4nc(c(-c5c(F)c(F)c(F)c(F)c5F)c5ccc([nH]5)c(-c5c(F)c(F)c(F)c(F)c5F)c5nc(c(-c6c(F)c(F)c(F)c(F)c6F)c6ccc3[nH]6)C=C5)C=C4)cc2)cc(C(=O)c2ccccc2)c1
REMARK SMILES IDX 13 1 12 4 11 7 10 10 8 11 9 12 7 14 6 15 5 18 3 19 4 20
REMARK SMILES IDX 93 21 84 23 83 25 2 27 1 30 85 34 86 35 87 36 88 37 92 38
REMARK SMILES IDX 89 39 91 41 90 43 14 47 15 50 16 53 17 56 18 57 19 59 20 60
REMARK SMILES IDX 21 61 82 62 22 63 81 65 23 67 24 70 25 71 75 72 26 73 80 74
REMARK SMILES IDX 74 75 76 76 27 77 79 78 73 80 72 82 28 84 60 87 40 88 59 89
REMARK SMILES IDX 41 90 44 91 58 92 77 93 42 94 43 96 57 98 78 99 45 102
REMARK SMILES IDX 29 104 30 105 38 106 31 107 32 108 36 109 39 110 33 111
REMARK SMILES IDX 34 112 37 113 35 114 61 115 62 116 70 117 63 118 64 119
REMARK SMILES IDX 68 120 71 121 65 122 66 123 69 124 67 125 46 126 47 127
REMARK SMILES IDX 55 128 48 129 49 130 53 131 56 132 50 133 51 134 54 135
REMARK SMILES IDX 52 136
REMARK H PARENT 13 2 13 3 12 5 12 6 11 8 11 9 10 13 6 16 7 17 4 22 93 24 83 26
REMARK H PARENT 2 28 2 29 1 31 1 32 1 33 88 40 92 42 89 44 91 45 90 46 14 48
REMARK H PARENT 14 49 15 51 15 52 16 54 16 55 17 58 21 64 82 66 22 68 81 69
REMARK H PARENT 80 79 74 81 76 83 79 85 73 86 41 95 44 97 77 100 42 101 78 103
REMARK Flexibility Score: inf
ROOT
ATOM      1  C   UNL A   1      32.477  26.903  25.624  1.00  0.00    -0.052 C 
ATOM      2  H   UNL A   1      32.901  25.951  25.379  1.00  0.00     0.027 H 
ATOM      3  H   UNL A   1      33.091  27.476  26.286  1.00  0.00     0.027 H 
ENDROOT
BRANCH   1   4
ATOM      4  C   UNL A   1      31.149  26.663  26.356  1.00  0.00    -0.036 C 
ATOM      5  H   UNL A   1      31.360  26.230  27.311  1.00  0.00     0.028 H 
ATOM      6  H   UNL A   1      30.659  27.610  26.446  1.00  0.00     0.028 H 
BRANCH   4   7
ATOM      7  C   UNL A   1      30.208  25.729  25.594  1.00  0.00     0.018 C 
ATOM      8  H   UNL A   1      29.435  26.306  25.130  1.00  0.00     0.049 H 
ATOM      9  H   UNL A   1      30.764  25.203  24.846  1.00  0.00     0.049 H 
BRANCH   7  10
ATOM     10  N   UNL A   1      29.614  24.772  26.506  1.00  0.00    -0.353 N 
ATOM     11  C   UNL A   1      30.010  23.541  26.908  1.00  0.00     0.243 C 
ATOM     12  O   UNL A   1      29.321  22.931  27.725  1.00  0.00    -0.270 OA
ATOM     13  H   UNL A   1      28.767  25.073  26.907  1.00  0.00     0.163 HD
BRANCH  11  14
ATOM     14  C   UNL A   1      31.283  22.931  26.458  1.00  0.00     0.003 C 
ATOM     15  C   UNL A   1      31.429  21.755  25.832  1.00  0.00    -0.049 C 
ATOM     16  H   UNL A   1      30.571  21.235  25.588  1.00  0.00     0.063 H 
ATOM     17  H   UNL A   1      32.145  23.467  26.646  1.00  0.00     0.068 H 
BRANCH  15  18
ATOM     18  C   UNL A   1      32.716  21.150  25.467  1.00  0.00    -0.024 A 
ATOM     19  C   UNL A   1      34.044  19.213  24.808  1.00  0.00    -0.047 A 
ATOM     20  C   UNL A   1      32.867  19.767  25.331  1.00  0.00    -0.052 A 
ATOM     21  C   UNL A   1      35.106  20.061  24.464  1.00  0.00    -0.048 A 
ATOM     22  H   UNL A   1      32.098  19.142  25.620  1.00  0.00     0.063 H 
ATOM     23  C   UNL A   1      34.973  21.448  24.598  1.00  0.00     0.023 A 
ATOM     24  H   UNL A   1      35.989  19.660  24.112  1.00  0.00     0.063 H 
ATOM     25  C   UNL A   1      33.782  21.984  25.108  1.00  0.00    -0.044 A 
ATOM     26  H   UNL A   1      33.690  23.006  25.220  1.00  0.00     0.064 H 
BRANCH  19  27
ATOM     27  C   UNL A   1      34.116  17.730  24.543  1.00  0.00    -0.031 C 
ATOM     28  H   UNL A   1      35.133  17.406  24.637  1.00  0.00     0.031 H 
ATOM     29  H   UNL A   1      33.497  17.225  25.255  1.00  0.00     0.031 H 
BRANCH  27  30
ATOM     30  C   UNL A   1      33.614  17.401  23.141  1.00  0.00    -0.061 C 
ATOM     31  H   UNL A   1      33.614  16.341  23.001  1.00  0.00     0.023 H 
ATOM     32  H   UNL A   1      34.257  17.856  22.416  1.00  0.00     0.023 H 
ATOM     33  H   UNL A   1      32.620  17.777  23.021  1.00  0.00     0.023 H 
ENDBRANCH  27  30
ENDBRANCH  19  27
BRANCH  23  34
ATOM     34  C   UNL A   1      36.054  22.397  24.206  1.00  0.00     0.193 C 
ATOM     35  O   UNL A   1      35.996  22.985  23.129  1.00  0.00    -0.289 OA
BRANCH  34  36
ATOM     36  C   UNL A   1      37.206  22.663  25.094  1.00  0.00     0.022 A 
ATOM     37  C   UNL A   1      37.331  23.935  25.662  1.00  0.00    -0.051 A 
ATOM     38  C   UNL A   1      38.167  21.678  25.354  1.00  0.00    -0.051 A 
ATOM     39  C   UNL A   1      38.385  24.205  26.533  1.00  0.00    -0.062 A 
ATOM     40  H   UNL A   1      36.644  24.672  25.436  1.00  0.00     0.063 H 
ATOM     41  C   UNL A   1      39.221  21.954  26.227  1.00  0.00    -0.062 A 
ATOM     42  H   UNL A   1      38.096  20.753  24.903  1.00  0.00     0.063 H 
ATOM     43  C   UNL A   1      39.323  23.212  26.822  1.00  0.00    -0.062 A 
ATOM     44  H   UNL A   1      38.472  25.138  26.965  1.00  0.00     0.062 H 
ATOM     45  H   UNL A   1      39.924  21.227  26.432  1.00  0.00     0.062 H 
ATOM     46  H   UNL A   1      40.095  23.409  27.479  1.00  0.00     0.062 H 
ENDBRANCH  34  36
ENDBRANCH  23  34
ENDBRANCH  15  18
ENDBRANCH  11  14
ENDBRANCH   7  10
ENDBRANCH   4   7
ENDBRANCH   1   4
BRANCH   1  47
ATOM     47  C   UNL A   1      32.354  27.718  24.330  1.00  0.00    -0.052 C 
ATOM     48  H   UNL A   1      31.313  27.861  24.123  1.00  0.00     0.027 H 
ATOM     49  H   UNL A   1      32.859  27.160  23.570  1.00  0.00     0.027 H 
BRANCH  47  50
ATOM     50  C   UNL A   1      33.024  29.093  24.378  1.00  0.00    -0.036 C 
ATOM     51  H   UNL A   1      32.282  29.838  24.178  1.00  0.00     0.028 H 
ATOM     52  H   UNL A   1      33.804  29.087  23.645  1.00  0.00     0.028 H 
BRANCH  50  53
ATOM     53  C   UNL A   1      33.676  29.410  25.718  1.00  0.00     0.018 C 
ATOM     54  H   UNL A   1      34.739  29.349  25.611  1.00  0.00     0.049 H 
ATOM     55  H   UNL A   1      33.327  28.700  26.439  1.00  0.00     0.049 H 
BRANCH  53  56
ATOM     56  N   UNL A   1      33.322  30.743  26.178  1.00  0.00    -0.352 N 
ATOM     57  C   UNL A   1      33.806  31.444  27.253  1.00  0.00     0.251 C 
ATOM     58  H   UNL A   1      32.639  31.208  25.642  1.00  0.00     0.163 HD
ATOM     59  O   UNL A   1      33.226  32.442  27.661  1.00  0.00    -0.269 OA
BRANCH  57  60
ATOM     60  C   UNL A   1      35.038  30.978  27.919  1.00  0.00     0.039 A 
ATOM     61  C   UNL A   1      36.138  31.835  27.994  1.00  0.00    -0.049 A 
ATOM     62  C   UNL A   1      35.101  29.692  28.464  1.00  0.00    -0.049 A 
ATOM     63  C   UNL A   1      37.289  31.418  28.664  1.00  0.00    -0.053 A 
ATOM     64  H   UNL A   1      36.101  32.769  27.558  1.00  0.00     0.063 H 
ATOM     65  C   UNL A   1      36.216  29.309  29.197  1.00  0.00    -0.053 A 
ATOM     66  H   UNL A   1      34.322  29.030  28.321  1.00  0.00     0.063 H 
ATOM     67  C   UNL A   1      37.324  30.164  29.297  1.00  0.00    -0.014 A 
ATOM     68  H   UNL A   1      38.116  32.035  28.697  1.00  0.00     0.063 H 
ATOM     69  H   UNL A   1      36.230  28.392  29.669  1.00  0.00     0.063 H 
BRANCH  67  70
ATOM     70  C   UNL A   1      38.515  29.715  30.057  1.00  0.00     0.031 A 
ATOM     71  C   UNL A   1      38.783  30.275  31.426  1.00  0.00     0.074 A 
ATOM     72  C   UNL A   1      39.390  28.867  29.486  1.00  0.00     0.049 A 
ATOM     73  N   UNL A   1      39.816  30.092  32.210  1.00  0.00    -0.248 NA
ATOM     74  C   UNL A   1      37.767  31.186  31.975  1.00  0.00    -0.034 C 
ATOM     75  C   UNL A   1      39.256  28.287  28.149  1.00  0.00    -0.036 A 
ATOM     76  N   UNL A   1      40.576  28.357  29.951  1.00  0.00    -0.354 N 
ATOM     77  C   UNL A   1      39.580  30.875  33.331  1.00  0.00     0.074 A 
ATOM     78  C   UNL A   1      38.337  31.579  33.103  1.00  0.00    -0.034 C 
ATOM     79  H   UNL A   1      36.850  31.451  31.583  1.00  0.00     0.065 H 
ATOM     80  C   UNL A   1      40.308  27.488  27.908  1.00  0.00    -0.036 A 
ATOM     81  H   UNL A   1      38.478  28.465  27.495  1.00  0.00     0.065 H 
ATOM     82  C   UNL A   1      41.211  27.534  29.053  1.00  0.00     0.049 A 
ATOM     83  H   UNL A   1      40.937  28.560  30.845  1.00  0.00     0.167 HD
ATOM     84  C   UNL A   1      40.324  30.980  34.457  1.00  0.00     0.037 A 
ATOM     85  H   UNL A   1      37.946  32.294  33.738  1.00  0.00     0.065 H 
ATOM     86  H   UNL A   1      40.454  26.930  27.052  1.00  0.00     0.065 H 
ATOM     87  C   UNL A   1      42.397  26.902  29.140  1.00  0.00     0.037 A 
ATOM     88  C   UNL A   1      41.550  30.261  34.682  1.00  0.00     0.049 A 
ATOM     89  C   UNL A   1      43.218  27.055  30.393  1.00  0.00     0.074 A 
ATOM     90  C   UNL A   1      42.351  30.253  35.810  1.00  0.00    -0.036 A 
ATOM     91  N   UNL A   1      42.157  29.426  33.754  1.00  0.00    -0.354 N 
ATOM     92  N   UNL A   1      42.955  27.745  31.476  1.00  0.00    -0.248 NA
ATOM     93  C   UNL A   1      44.499  26.337  30.437  1.00  0.00    -0.034 C 
ATOM     94  C   UNL A   1      43.470  29.457  35.544  1.00  0.00    -0.036 A 
ATOM     95  H   UNL A   1      42.157  30.748  36.695  1.00  0.00     0.065 H 
ATOM     96  C   UNL A   1      43.336  28.919  34.275  1.00  0.00     0.049 A 
ATOM     97  H   UNL A   1      41.801  29.224  32.858  1.00  0.00     0.167 HD
ATOM     98  C   UNL A   1      44.016  27.519  32.341  1.00  0.00     0.074 A 
ATOM     99  C   UNL A   1      44.924  26.619  31.661  1.00  0.00    -0.034 C 
ATOM    100  H   UNL A   1      44.950  25.764  29.707  1.00  0.00     0.065 H 
ATOM    101  H   UNL A   1      44.263  29.300  36.186  1.00  0.00     0.065 H 
ATOM    102  C   UNL A   1      44.220  28.010  33.588  1.00  0.00     0.037 A 
ATOM    103  H   UNL A   1      45.791  26.244  32.076  1.00  0.00     0.065 H 
BRANCH  84 104
ATOM    104  C   UNL A   1      39.831  31.907  35.532  1.00  0.00     0.064 A 
ATOM    105  C   UNL A   1      40.319  33.217  35.657  1.00  0.00     0.173 A 
ATOM    106  C   UNL A   1      38.837  31.491  36.431  1.00  0.00     0.173 A 
ATOM    107  F   UNL A   1      41.277  33.664  34.831  1.00  0.00    -0.203 F 
ATOM    108  C   UNL A   1      39.856  34.063  36.662  1.00  0.00     0.198 A 
ATOM    109  C   UNL A   1      38.351  32.351  37.413  1.00  0.00     0.198 A 
ATOM    110  F   UNL A   1      38.330  30.252  36.353  1.00  0.00    -0.203 F 
ATOM    111  F   UNL A   1      40.379  35.289  36.797  1.00  0.00    -0.200 F 
ATOM    112  C   UNL A   1      38.868  33.631  37.534  1.00  0.00     0.200 A 
ATOM    113  F   UNL A   1      37.385  31.937  38.245  1.00  0.00    -0.200 F 
ATOM    114  F   UNL A   1      38.419  34.448  38.496  1.00  0.00    -0.200 F 
ENDBRANCH  84 104
BRANCH  87 115
ATOM    115  C   UNL A   1      42.869  26.051  28.016  1.00  0.00     0.064 A 
ATOM    116  C   UNL A   1      43.671  26.586  26.999  1.00  0.00     0.173 A 
ATOM    117  C   UNL A   1      42.529  24.693  27.932  1.00  0.00     0.173 A 
ATOM    118  F   UNL A   1      44.008  27.885  27.024  1.00  0.00    -0.203 F 
ATOM    119  C   UNL A   1      44.099  25.802  25.930  1.00  0.00     0.198 A 
ATOM    120  C   UNL A   1      42.982  23.901  26.878  1.00  0.00     0.198 A 
ATOM    121  F   UNL A   1      41.768  24.131  28.881  1.00  0.00    -0.203 F 
ATOM    122  F   UNL A   1      44.825  26.350  24.947  1.00  0.00    -0.200 F 
ATOM    123  C   UNL A   1      43.759  24.459  25.873  1.00  0.00     0.200 A 
ATOM    124  F   UNL A   1      42.665  22.601  26.835  1.00  0.00    -0.200 F 
ATOM    125  F   UNL A   1      44.173  23.703  24.847  1.00  0.00    -0.200 F 
ENDBRANCH  87 115
BRANCH 102 126
ATOM    126  C   UNL A   1      45.446  27.550  34.323  1.00  0.00     0.064 A 
ATOM    127  C   UNL A   1      46.665  28.236  34.232  1.00  0.00     0.173 A 
ATOM    128  C   UNL A   1      45.379  26.438  35.178  1.00  0.00     0.173 A 
ATOM    129  F   UNL A   1      46.784  29.295  33.418  1.00  0.00    -0.203 F 
ATOM    130  C   UNL A   1      47.779  27.814  34.953  1.00  0.00     0.198 A 
ATOM    131  C   UNL A   1      46.485  26.039  35.923  1.00  0.00     0.198 A 
ATOM    132  F   UNL A   1      44.235  25.750  35.307  1.00  0.00    -0.203 F 
ATOM    133  F   UNL A   1      48.946  28.458  34.818  1.00  0.00    -0.200 F 
ATOM    134  C   UNL A   1      47.686  26.723  35.805  1.00  0.00     0.200 A 
ATOM    135  F   UNL A   1      46.388  24.996  36.759  1.00  0.00    -0.200 F 
ATOM    136  F   UNL A   1      48.755  26.329  36.510  1.00  0.00    -0.200 F 
ENDBRANCH 102 126
ENDBRANCH  67  70
ENDBRANCH  57  60
ENDBRANCH  53  56
ENDBRANCH  50  53
ENDBRANCH  47  50
ENDBRANCH   1  47
TORSDOF 18
ENDMDL
MODEL 6
REMARK VINA RESULT:     -12.0      4.956      9.532
REMARK SMILES CCc1cc(/C=C/C(=O)NCCCCCCNC(=O)c2ccc(-c3c4nc(c(-c5c(F)c(F)c(F)c(F)c5F)c5ccc([nH]5)c(-c5c(F)c(F)c(F)c(F)c5F)c5nc(c(-c6c(F)c(F)c(F)c(F)c6F)c6ccc3[nH]6)C=C5)C=C4)cc2)cc(C(=O)c2ccccc2)c1
REMARK SMILES IDX 13 1 12 4 11 7 10 10 8 11 9 12 7 14 6 15 5 18 3 19 4 20
REMARK SMILES IDX 93 21 84 23 83 25 2 27 1 30 85 34 86 35 87 36 88 37 92 38
REMARK SMILES IDX 89 39 91 41 90 43 14 47 15 50 16 53 17 56 18 57 19 59 20 60
REMARK SMILES IDX 21 61 82 62 22 63 81 65 23 67 24 70 25 71 75 72 26 73 80 74
REMARK SMILES IDX 74 75 76 76 27 77 79 78 73 80 72 82 28 84 60 87 40 88 59 89
REMARK SMILES IDX 41 90 44 91 58 92 77 93 42 94 43 96 57 98 78 99 45 102
REMARK SMILES IDX 29 104 30 105 38 106 31 107 32 108 36 109 39 110 33 111
REMARK SMILES IDX 34 112 37 113 35 114 61 115 62 116 70 117 63 118 64 119
REMARK SMILES IDX 68 120 71 121 65 122 66 123 69 124 67 125 46 126 47 127
REMARK SMILES IDX 55 128 48 129 49 130 53 131 56 132 50 133 51 134 54 135
REMARK SMILES IDX 52 136
REMARK H PARENT 13 2 13 3 12 5 12 6 11 8 11 9 10 13 6 16 7 17 4 22 93 24 83 26
REMARK H PARENT 2 28 2 29 1 31 1 32 1 33 88 40 92 42 89 44 91 45 90 46 14 48
REMARK H PARENT 14 49 15 51 15 52 16 54 16 55 17 58 21 64 82 66 22 68 81 69
REMARK H PARENT 80 79 74 81 76 83 79 85 73 86 41 95 44 97 77 100 42 101 78 103
REMARK Flexibility Score: inf
ROOT
ATOM      1  C   UNL A   1      42.295  19.147  26.755  1.00  0.00    -0.052 C 
ATOM      2  H   UNL A   1      42.476  19.280  27.801  1.00  0.00     0.027 H 
ATOM      3  H   UNL A   1      41.405  18.588  26.553  1.00  0.00     0.027 H 
ENDROOT
BRANCH   1   4
ATOM      4  C   UNL A   1      43.460  18.342  26.164  1.00  0.00    -0.036 C 
ATOM      5  H   UNL A   1      44.308  18.447  26.809  1.00  0.00     0.028 H 
ATOM      6  H   UNL A   1      43.140  17.323  26.090  1.00  0.00     0.028 H 
BRANCH   4   7
ATOM      7  C   UNL A   1      43.855  18.803  24.761  1.00  0.00     0.018 C 
ATOM      8  H   UNL A   1      43.433  18.136  24.038  1.00  0.00     0.049 H 
ATOM      9  H   UNL A   1      43.483  19.794  24.599  1.00  0.00     0.049 H 
BRANCH   7  10
ATOM     10  N   UNL A   1      45.298  18.808  24.628  1.00  0.00    -0.353 N 
ATOM     11  C   UNL A   1      46.227  19.756  24.899  1.00  0.00     0.243 C 
ATOM     12  O   UNL A   1      47.415  19.495  24.714  1.00  0.00    -0.270 OA
ATOM     13  H   UNL A   1      45.671  17.968  24.276  1.00  0.00     0.163 HD
BRANCH  11  14
ATOM     14  C   UNL A   1      45.872  21.069  25.484  1.00  0.00     0.003 C 
ATOM     15  C   UNL A   1      45.801  22.240  24.836  1.00  0.00    -0.049 C 
ATOM     16  H   UNL A   1      45.959  22.231  23.816  1.00  0.00     0.063 H 
ATOM     17  H   UNL A   1      45.657  21.084  26.494  1.00  0.00     0.068 H 
BRANCH  15  18
ATOM     18  C   UNL A   1      45.517  23.536  25.467  1.00  0.00    -0.024 A 
ATOM     19  C   UNL A   1      44.228  25.602  25.591  1.00  0.00    -0.047 A 
ATOM     20  C   UNL A   1      44.631  24.453  24.896  1.00  0.00    -0.052 A 
ATOM     21  C   UNL A   1      44.764  25.858  26.860  1.00  0.00    -0.048 A 
ATOM     22  H   UNL A   1      44.266  24.283  23.945  1.00  0.00     0.063 H 
ATOM     23  C   UNL A   1      45.656  24.951  27.445  1.00  0.00     0.023 A 
ATOM     24  H   UNL A   1      44.500  26.718  27.365  1.00  0.00     0.063 H 
ATOM     25  C   UNL A   1      46.035  23.800  26.741  1.00  0.00    -0.044 A 
ATOM     26  H   UNL A   1      46.703  23.139  27.166  1.00  0.00     0.064 H 
BRANCH  19  27
ATOM     27  C   UNL A   1      43.163  26.494  25.003  1.00  0.00    -0.031 C 
ATOM     28  H   UNL A   1      43.296  26.546  23.942  1.00  0.00     0.031 H 
ATOM     29  H   UNL A   1      42.203  26.082  25.239  1.00  0.00     0.031 H 
BRANCH  27  30
ATOM     30  C   UNL A   1      43.245  27.901  25.587  1.00  0.00    -0.061 C 
ATOM     31  H   UNL A   1      43.682  28.561  24.867  1.00  0.00     0.023 H 
ATOM     32  H   UNL A   1      43.849  27.886  26.470  1.00  0.00     0.023 H 
ATOM     33  H   UNL A   1      42.262  28.242  25.833  1.00  0.00     0.023 H 
ENDBRANCH  27  30
ENDBRANCH  19  27
BRANCH  23  34
ATOM     34  C   UNL A   1      46.221  25.152  28.810  1.00  0.00     0.193 C 
ATOM     35  O   UNL A   1      47.300  25.721  28.952  1.00  0.00    -0.289 OA
BRANCH  34  36
ATOM     36  C   UNL A   1      45.502  24.690  30.018  1.00  0.00     0.022 A 
ATOM     37  C   UNL A   1      44.475  23.755  29.865  1.00  0.00    -0.051 A 
ATOM     38  C   UNL A   1      45.823  25.184  31.288  1.00  0.00    -0.051 A 
ATOM     39  C   UNL A   1      43.804  23.272  30.988  1.00  0.00    -0.062 A 
ATOM     40  H   UNL A   1      44.213  23.423  28.923  1.00  0.00     0.063 H 
ATOM     41  C   UNL A   1      45.147  24.698  32.409  1.00  0.00    -0.062 A 
ATOM     42  H   UNL A   1      46.554  25.904  31.395  1.00  0.00     0.063 H 
ATOM     43  C   UNL A   1      44.147  23.737  32.259  1.00  0.00    -0.062 A 
ATOM     44  H   UNL A   1      43.055  22.571  30.880  1.00  0.00     0.062 H 
ATOM     45  H   UNL A   1      45.389  25.050  33.349  1.00  0.00     0.062 H 
ATOM     46  H   UNL A   1      43.659  23.368  33.090  1.00  0.00     0.062 H 
ENDBRANCH  34  36
ENDBRANCH  23  34
ENDBRANCH  15  18
ENDBRANCH  11  14
ENDBRANCH   7  10
ENDBRANCH   4   7
ENDBRANCH   1   4
BRANCH   1  47
ATOM     47  C   UNL A   1      42.092  20.531  26.125  1.00  0.00    -0.052 C 
ATOM     48  H   UNL A   1      41.084  20.594  25.771  1.00  0.00     0.027 H 
ATOM     49  H   UNL A   1      42.816  20.618  25.342  1.00  0.00     0.027 H 
BRANCH  47  50
ATOM     50  C   UNL A   1      42.339  21.705  27.076  1.00  0.00    -0.036 C 
ATOM     51  H   UNL A   1      42.793  22.500  26.521  1.00  0.00     0.028 H 
ATOM     52  H   UNL A   1      42.970  21.343  27.861  1.00  0.00     0.028 H 
BRANCH  50  53
ATOM     53  C   UNL A   1      41.072  22.238  27.733  1.00  0.00     0.018 C 
ATOM     54  H   UNL A   1      41.288  23.180  28.192  1.00  0.00     0.049 H 
ATOM     55  H   UNL A   1      40.747  21.526  28.463  1.00  0.00     0.049 H 
BRANCH  53  56
ATOM     56  N   UNL A   1      40.006  22.417  26.760  1.00  0.00    -0.352 N 
ATOM     57  C   UNL A   1      39.134  23.466  26.616  1.00  0.00     0.251 C 
ATOM     58  H   UNL A   1      39.894  21.682  26.114  1.00  0.00     0.163 HD
ATOM     59  O   UNL A   1      38.131  23.355  25.923  1.00  0.00    -0.269 OA
BRANCH  57  60
ATOM     60  C   UNL A   1      39.417  24.736  27.312  1.00  0.00     0.039 A 
ATOM     61  C   UNL A   1      39.018  24.889  28.642  1.00  0.00    -0.049 A 
ATOM     62  C   UNL A   1      40.074  25.774  26.645  1.00  0.00    -0.049 A 
ATOM     63  C   UNL A   1      39.325  26.069  29.320  1.00  0.00    -0.053 A 
ATOM     64  H   UNL A   1      38.500  24.135  29.119  1.00  0.00     0.063 H 
ATOM     65  C   UNL A   1      40.446  26.914  27.343  1.00  0.00    -0.053 A 
ATOM     66  H   UNL A   1      40.279  25.693  25.637  1.00  0.00     0.063 H 
ATOM     67  C   UNL A   1      40.069  27.077  28.685  1.00  0.00    -0.014 A 
ATOM     68  H   UNL A   1      39.006  26.200  30.293  1.00  0.00     0.063 H 
ATOM     69  H   UNL A   1      41.004  27.645  26.875  1.00  0.00     0.063 H 
BRANCH  67  70
ATOM     70  C   UNL A   1      40.451  28.320  29.396  1.00  0.00     0.031 A 
ATOM     71  C   UNL A   1      41.819  28.441  30.007  1.00  0.00     0.074 A 
ATOM     72  C   UNL A   1      39.545  29.302  29.557  1.00  0.00     0.049 A 
ATOM     73  N   UNL A   1      42.313  29.397  30.753  1.00  0.00    -0.248 NA
ATOM     74  C   UNL A   1      42.747  27.324  29.771  1.00  0.00    -0.034 C 
ATOM     75  C   UNL A   1      38.175  29.282  29.043  1.00  0.00    -0.036 A 
ATOM     76  N   UNL A   1      39.634  30.503  30.215  1.00  0.00    -0.354 N 
ATOM     77  C   UNL A   1      43.597  28.988  31.087  1.00  0.00     0.074 A 
ATOM     78  C   UNL A   1      43.787  27.675  30.510  1.00  0.00    -0.034 C 
ATOM     79  H   UNL A   1      42.620  26.486  29.182  1.00  0.00     0.065 H 
ATOM     80  C   UNL A   1      37.558  30.422  29.388  1.00  0.00    -0.036 A 
ATOM     81  H   UNL A   1      37.750  28.512  28.502  1.00  0.00     0.065 H 
ATOM     82  C   UNL A   1      38.471  31.234  30.186  1.00  0.00     0.049 A 
ATOM     83  H   UNL A   1      40.454  30.812  30.664  1.00  0.00     0.167 HD
ATOM     84  C   UNL A   1      44.538  29.658  31.791  1.00  0.00     0.037 A 
ATOM     85  H   UNL A   1      44.624  27.088  30.658  1.00  0.00     0.065 H 
ATOM     86  H   UNL A   1      36.593  30.684  29.131  1.00  0.00     0.065 H 
ATOM     87  C   UNL A   1      38.174  32.418  30.753  1.00  0.00     0.037 A 
ATOM     88  C   UNL A   1      44.346  30.973  32.345  1.00  0.00     0.049 A 
ATOM     89  C   UNL A   1      39.230  33.132  31.555  1.00  0.00     0.074 A 
ATOM     90  C   UNL A   1      45.254  31.763  33.027  1.00  0.00    -0.036 A 
ATOM     91  N   UNL A   1      43.158  31.688  32.284  1.00  0.00    -0.354 N 
ATOM     92  N   UNL A   1      40.464  32.768  31.808  1.00  0.00    -0.248 NA
ATOM     93  C   UNL A   1      38.854  34.424  32.145  1.00  0.00    -0.034 C 
ATOM     94  C   UNL A   1      44.599  32.932  33.428  1.00  0.00    -0.036 A 
ATOM     95  H   UNL A   1      46.242  31.530  33.209  1.00  0.00     0.065 H 
ATOM     96  C   UNL A   1      43.302  32.900  32.941  1.00  0.00     0.049 A 
ATOM     97  H   UNL A   1      42.334  31.380  31.840  1.00  0.00     0.167 HD
ATOM     98  C   UNL A   1      41.020  33.797  32.555  1.00  0.00     0.074 A 
ATOM     99  C   UNL A   1      39.993  34.806  32.706  1.00  0.00    -0.034 C 
ATOM    100  H   UNL A   1      37.942  34.907  32.126  1.00  0.00     0.065 H 
ATOM    101  H   UNL A   1      45.013  33.690  33.992  1.00  0.00     0.065 H 
ATOM    102  C   UNL A   1      42.271  33.899  33.068  1.00  0.00     0.037 A 
ATOM    103  H   UNL A   1      40.128  35.707  33.188  1.00  0.00     0.065 H 
BRANCH  84 104
ATOM    104  C   UNL A   1      45.862  28.979  32.004  1.00  0.00     0.064 A 
ATOM    105  C   UNL A   1      46.148  28.274  33.184  1.00  0.00     0.173 A 
ATOM    106  C   UNL A   1      46.846  29.009  31.005  1.00  0.00     0.173 A 
ATOM    107  F   UNL A   1      45.247  28.222  34.176  1.00  0.00    -0.203 F 
ATOM    108  C   UNL A   1      47.382  27.655  33.368  1.00  0.00     0.198 A 
ATOM    109  C   UNL A   1      48.066  28.359  31.178  1.00  0.00     0.198 A 
ATOM    110  F   UNL A   1      46.624  29.662  29.854  1.00  0.00    -0.203 F 
ATOM    111  F   UNL A   1      47.652  27.037  34.526  1.00  0.00    -0.200 F 
ATOM    112  C   UNL A   1      48.336  27.692  32.363  1.00  0.00     0.200 A 
ATOM    113  F   UNL A   1      48.981  28.382  30.199  1.00  0.00    -0.200 F 
ATOM    114  F   UNL A   1      49.520  27.089  32.539  1.00  0.00    -0.200 F 
ENDBRANCH  84 104
BRANCH  87 115
ATOM    115  C   UNL A   1      36.824  33.012  30.568  1.00  0.00     0.064 A 
ATOM    116  C   UNL A   1      36.466  33.619  29.357  1.00  0.00     0.173 A 
ATOM    117  C   UNL A   1      35.866  32.988  31.594  1.00  0.00     0.173 A 
ATOM    118  F   UNL A   1      37.353  33.684  28.353  1.00  0.00    -0.203 F 
ATOM    119  C   UNL A   1      35.210  34.198  29.184  1.00  0.00     0.198 A 
ATOM    120  C   UNL A   1      34.600  33.540  31.410  1.00  0.00     0.198 A 
ATOM    121  F   UNL A   1      36.156  32.415  32.770  1.00  0.00    -0.203 F 
ATOM    122  F   UNL A   1      34.912  34.814  28.032  1.00  0.00    -0.200 F 
ATOM    123  C   UNL A   1      34.277  34.153  30.208  1.00  0.00     0.200 A 
ATOM    124  F   UNL A   1      33.695  33.480  32.395  1.00  0.00    -0.200 F 
ATOM    125  F   UNL A   1      33.068  34.706  30.041  1.00  0.00    -0.200 F 
ENDBRANCH  87 115
BRANCH 102 126
ATOM    126  C   UNL A   1      42.620  35.164  33.799  1.00  0.00     0.064 A 
ATOM    127  C   UNL A   1      42.499  35.270  35.191  1.00  0.00     0.173 A 
ATOM    128  C   UNL A   1      43.139  36.263  33.097  1.00  0.00     0.173 A 
ATOM    129  F   UNL A   1      41.995  34.253  35.906  1.00  0.00    -0.203 F 
ATOM    130  C   UNL A   1      42.866  36.439  35.853  1.00  0.00     0.198 A 
ATOM    131  C   UNL A   1      43.536  37.418  33.766  1.00  0.00     0.198 A 
ATOM    132  F   UNL A   1      43.282  36.210  31.765  1.00  0.00    -0.203 F 
ATOM    133  F   UNL A   1      42.701  36.536  37.180  1.00  0.00    -0.200 F 
ATOM    134  C   UNL A   1      43.393  37.508  35.142  1.00  0.00     0.200 A 
ATOM    135  F   UNL A   1      44.061  38.442  33.079  1.00  0.00    -0.200 F 
ATOM    136  F   UNL A   1      43.760  38.625  35.784  1.00  0.00    -0.200 F 
ENDBRANCH 102 126
ENDBRANCH  67  70
ENDBRANCH  57  60
ENDBRANCH  53  56
ENDBRANCH  50  53
ENDBRANCH  47  50
ENDBRANCH   1  47
TORSDOF 18
ENDMDL
MODEL 7
REMARK VINA RESULT:     -11.9      1.429      7.784
REMARK SMILES CCc1cc(/C=C/C(=O)NCCCCCCNC(=O)c2ccc(-c3c4nc(c(-c5c(F)c(F)c(F)c(F)c5F)c5ccc([nH]5)c(-c5c(F)c(F)c(F)c(F)c5F)c5nc(c(-c6c(F)c(F)c(F)c(F)c6F)c6ccc3[nH]6)C=C5)C=C4)cc2)cc(C(=O)c2ccccc2)c1
REMARK SMILES IDX 13 1 12 4 11 7 10 10 8 11 9 12 7 14 6 15 5 18 3 19 4 20
REMARK SMILES IDX 93 21 84 23 83 25 2 27 1 30 85 34 86 35 87 36 88 37 92 38
REMARK SMILES IDX 89 39 91 41 90 43 14 47 15 50 16 53 17 56 18 57 19 59 20 60
REMARK SMILES IDX 21 61 82 62 22 63 81 65 23 67 24 70 25 71 75 72 26 73 80 74
REMARK SMILES IDX 74 75 76 76 27 77 79 78 73 80 72 82 28 84 60 87 40 88 59 89
REMARK SMILES IDX 41 90 44 91 58 92 77 93 42 94 43 96 57 98 78 99 45 102
REMARK SMILES IDX 29 104 30 105 38 106 31 107 32 108 36 109 39 110 33 111
REMARK SMILES IDX 34 112 37 113 35 114 61 115 62 116 70 117 63 118 64 119
REMARK SMILES IDX 68 120 71 121 65 122 66 123 69 124 67 125 46 126 47 127
REMARK SMILES IDX 55 128 48 129 49 130 53 131 56 132 50 133 51 134 54 135
REMARK SMILES IDX 52 136
REMARK H PARENT 13 2 13 3 12 5 12 6 11 8 11 9 10 13 6 16 7 17 4 22 93 24 83 26
REMARK H PARENT 2 28 2 29 1 31 1 32 1 33 88 40 92 42 89 44 91 45 90 46 14 48
REMARK H PARENT 14 49 15 51 15 52 16 54 16 55 17 58 21 64 82 66 22 68 81 69
REMARK H PARENT 80 79 74 81 76 83 79 85 73 86 41 95 44 97 77 100 42 101 78 103
REMARK Flexibility Score: inf
ROOT
ATOM      1  C   UNL A   1      32.718  26.356  25.496  1.00  0.00    -0.052 C 
ATOM      2  H   UNL A   1      32.809  25.347  25.150  1.00  0.00     0.027 H 
ATOM      3  H   UNL A   1      33.420  26.599  26.265  1.00  0.00     0.027 H 
ENDROOT
BRANCH   1   4
ATOM      4  C   UNL A   1      31.321  26.526  26.111  1.00  0.00    -0.036 C 
ATOM      5  H   UNL A   1      31.381  26.312  27.157  1.00  0.00     0.028 H 
ATOM      6  H   UNL A   1      31.012  27.533  25.926  1.00  0.00     0.028 H 
BRANCH   4   7
ATOM      7  C   UNL A   1      30.276  25.602  25.483  1.00  0.00     0.018 C 
ATOM      8  H   UNL A   1      29.498  26.193  25.046  1.00  0.00     0.049 H 
ATOM      9  H   UNL A   1      30.743  25.004  24.729  1.00  0.00     0.049 H 
BRANCH   7  10
ATOM     10  N   UNL A   1      29.710  24.734  26.496  1.00  0.00    -0.353 N 
ATOM     11  C   UNL A   1      29.999  23.461  26.860  1.00  0.00     0.243 C 
ATOM     12  O   UNL A   1      29.371  22.949  27.786  1.00  0.00    -0.270 OA
ATOM     13  H   UNL A   1      28.983  25.145  27.016  1.00  0.00     0.163 HD
BRANCH  11  14
ATOM     14  C   UNL A   1      31.095  22.687  26.233  1.00  0.00     0.003 C 
ATOM     15  C   UNL A   1      32.219  22.266  26.830  1.00  0.00    -0.049 C 
ATOM     16  H   UNL A   1      32.319  22.449  27.841  1.00  0.00     0.063 H 
ATOM     17  H   UNL A   1      30.982  22.448  25.235  1.00  0.00     0.068 H 
BRANCH  15  18
ATOM     18  C   UNL A   1      33.318  21.563  26.156  1.00  0.00    -0.024 A 
ATOM     19  C   UNL A   1      34.187  19.616  24.971  1.00  0.00    -0.047 A 
ATOM     20  C   UNL A   1      33.210  20.223  25.773  1.00  0.00    -0.052 A 
ATOM     21  C   UNL A   1      35.317  20.353  24.592  1.00  0.00    -0.048 A 
ATOM     22  H   UNL A   1      32.395  19.671  26.084  1.00  0.00     0.063 H 
ATOM     23  C   UNL A   1      35.443  21.695  24.971  1.00  0.00     0.023 A 
ATOM     24  H   UNL A   1      36.058  19.905  24.033  1.00  0.00     0.063 H 
ATOM     25  C   UNL A   1      34.447  22.290  25.759  1.00  0.00    -0.044 A 
ATOM     26  H   UNL A   1      34.547  23.275  26.050  1.00  0.00     0.064 H 
BRANCH  19  27
ATOM     27  C   UNL A   1      33.967  18.214  24.460  1.00  0.00    -0.031 C 
ATOM     28  H   UNL A   1      34.610  18.042  23.622  1.00  0.00     0.031 H 
ATOM     29  H   UNL A   1      34.188  17.524  25.248  1.00  0.00     0.031 H 
BRANCH  27  30
ATOM     30  C   UNL A   1      32.518  18.013  24.029  1.00  0.00    -0.061 C 
ATOM     31  H   UNL A   1      32.484  17.790  22.983  1.00  0.00     0.023 H 
ATOM     32  H   UNL A   1      31.961  18.905  24.221  1.00  0.00     0.023 H 
ATOM     33  H   UNL A   1      32.092  17.201  24.580  1.00  0.00     0.023 H 
ENDBRANCH  27  30
ENDBRANCH  19  27
BRANCH  23  34
ATOM     34  C   UNL A   1      36.602  22.538  24.558  1.00  0.00     0.193 C 
ATOM     35  O   UNL A   1      36.643  23.016  23.428  1.00  0.00    -0.289 OA
BRANCH  34  36
ATOM     36  C   UNL A   1      37.715  22.827  25.489  1.00  0.00     0.022 A 
ATOM     37  C   UNL A   1      38.647  21.818  25.748  1.00  0.00    -0.051 A 
ATOM     38  C   UNL A   1      37.833  24.074  26.116  1.00  0.00    -0.051 A 
ATOM     39  C   UNL A   1      39.727  22.073  26.592  1.00  0.00    -0.062 A 
ATOM     40  H   UNL A   1      38.535  20.887  25.317  1.00  0.00     0.063 H 
ATOM     41  C   UNL A   1      38.916  24.323  26.960  1.00  0.00    -0.062 A 
ATOM     42  H   UNL A   1      37.122  24.804  25.954  1.00  0.00     0.063 H 
ATOM     43  C   UNL A   1      39.866  23.327  27.189  1.00  0.00    -0.062 A 
ATOM     44  H   UNL A   1      40.425  21.335  26.774  1.00  0.00     0.062 H 
ATOM     45  H   UNL A   1      39.014  25.245  27.414  1.00  0.00     0.062 H 
ATOM     46  H   UNL A   1      40.674  23.518  27.802  1.00  0.00     0.062 H 
ENDBRANCH  34  36
ENDBRANCH  23  34
ENDBRANCH  15  18
ENDBRANCH  11  14
ENDBRANCH   7  10
ENDBRANCH   4   7
ENDBRANCH   1   4
BRANCH   1  47
ATOM     47  C   UNL A   1      33.015  27.294  24.320  1.00  0.00    -0.052 C 
ATOM     48  H   UNL A   1      32.345  27.051  23.521  1.00  0.00     0.027 H 
ATOM     49  H   UNL A   1      34.043  27.145  24.064  1.00  0.00     0.027 H 
BRANCH  47  50
ATOM     50  C   UNL A   1      32.859  28.783  24.639  1.00  0.00    -0.036 C 
ATOM     51  H   UNL A   1      31.834  28.970  24.883  1.00  0.00     0.028 H 
ATOM     52  H   UNL A   1      33.177  29.323  23.772  1.00  0.00     0.028 H 
BRANCH  50  53
ATOM     53  C   UNL A   1      33.725  29.254  25.800  1.00  0.00     0.018 C 
ATOM     54  H   UNL A   1      34.752  29.234  25.499  1.00  0.00     0.049 H 
ATOM     55  H   UNL A   1      33.561  28.600  26.631  1.00  0.00     0.049 H 
BRANCH  53  56
ATOM     56  N   UNL A   1      33.376  30.607  26.206  1.00  0.00    -0.352 N 
ATOM     57  C   UNL A   1      33.859  31.346  27.256  1.00  0.00     0.251 C 
ATOM     58  H   UNL A   1      32.699  31.054  25.649  1.00  0.00     0.163 HD
ATOM     59  O   UNL A   1      33.283  32.362  27.622  1.00  0.00    -0.269 OA
BRANCH  57  60
ATOM     60  C   UNL A   1      35.085  30.899  27.945  1.00  0.00     0.039 A 
ATOM     61  C   UNL A   1      36.187  31.757  28.002  1.00  0.00    -0.049 A 
ATOM     62  C   UNL A   1      35.143  29.631  28.530  1.00  0.00    -0.049 A 
ATOM     63  C   UNL A   1      37.331  31.360  28.693  1.00  0.00    -0.053 A 
ATOM     64  H   UNL A   1      36.153  32.677  27.536  1.00  0.00     0.063 H 
ATOM     65  C   UNL A   1      36.252  29.269  29.283  1.00  0.00    -0.053 A 
ATOM     66  H   UNL A   1      34.364  28.966  28.402  1.00  0.00     0.063 H 
ATOM     67  C   UNL A   1      37.360  30.126  29.365  1.00  0.00    -0.014 A 
ATOM     68  H   UNL A   1      38.159  31.976  28.713  1.00  0.00     0.063 H 
ATOM     69  H   UNL A   1      36.261  28.368  29.784  1.00  0.00     0.063 H 
BRANCH  67  70
ATOM     70  C   UNL A   1      38.544  29.699  30.148  1.00  0.00     0.031 A 
ATOM     71  C   UNL A   1      38.753  30.232  31.537  1.00  0.00     0.074 A 
ATOM     72  C   UNL A   1      39.466  28.898  29.581  1.00  0.00     0.049 A 
ATOM     73  N   UNL A   1      39.769  30.064  32.346  1.00  0.00    -0.248 NA
ATOM     74  C   UNL A   1      37.690  31.092  32.080  1.00  0.00    -0.034 C 
ATOM     75  C   UNL A   1      39.390  28.350  28.226  1.00  0.00    -0.036 A 
ATOM     76  N   UNL A   1      40.655  28.418  30.067  1.00  0.00    -0.354 N 
ATOM     77  C   UNL A   1      39.474  30.809  33.480  1.00  0.00     0.074 A 
ATOM     78  C   UNL A   1      38.213  31.474  33.234  1.00  0.00    -0.034 C 
ATOM     79  H   UNL A   1      36.775  31.334  31.668  1.00  0.00     0.065 H 
ATOM     80  C   UNL A   1      40.476  27.595  27.996  1.00  0.00    -0.036 A 
ATOM     81  H   UNL A   1      38.625  28.518  27.554  1.00  0.00     0.065 H 
ATOM     82  C   UNL A   1      41.345  27.643  29.167  1.00  0.00     0.049 A 
ATOM     83  H   UNL A   1      40.984  28.611  30.976  1.00  0.00     0.167 HD
ATOM     84  C   UNL A   1      40.181  30.910  34.630  1.00  0.00     0.037 A 
ATOM     85  H   UNL A   1      37.779  32.158  33.875  1.00  0.00     0.065 H 
ATOM     86  H   UNL A   1      40.667  27.067  27.130  1.00  0.00     0.065 H 
ATOM     87  C   UNL A   1      42.550  27.051  29.273  1.00  0.00     0.037 A 
ATOM     88  C   UNL A   1      41.426  30.229  34.872  1.00  0.00     0.049 A 
ATOM     89  C   UNL A   1      43.329  27.200  30.552  1.00  0.00     0.074 A 
ATOM     90  C   UNL A   1      42.195  30.219  36.022  1.00  0.00    -0.036 A 
ATOM     91  N   UNL A   1      42.088  29.441  33.941  1.00  0.00    -0.354 N 
ATOM     92  N   UNL A   1      43.010  27.851  31.645  1.00  0.00    -0.248 NA
ATOM     93  C   UNL A   1      44.634  26.527  30.615  1.00  0.00    -0.034 C 
ATOM     94  C   UNL A   1      43.348  29.472  35.769  1.00  0.00    -0.036 A 
ATOM     95  H   UNL A   1      41.957  30.683  36.913  1.00  0.00     0.065 H 
ATOM     96  C   UNL A   1      43.270  28.962  34.483  1.00  0.00     0.049 A 
ATOM     97  H   UNL A   1      41.765  29.251  33.030  1.00  0.00     0.167 HD
ATOM     98  C   UNL A   1      44.055  27.640  32.534  1.00  0.00     0.074 A 
ATOM     99  C   UNL A   1      45.013  26.791  31.858  1.00  0.00    -0.034 C 
ATOM    100  H   UNL A   1      45.125  25.990  29.884  1.00  0.00     0.065 H 
ATOM    101  H   UNL A   1      44.128  29.325  36.429  1.00  0.00     0.065 H 
ATOM    102  C   UNL A   1      44.206  28.104  33.799  1.00  0.00     0.037 A 
ATOM    103  H   UNL A   1      45.881  26.436  32.288  1.00  0.00     0.065 H 
BRANCH  84 104
ATOM    104  C   UNL A   1      39.625  31.790  35.714  1.00  0.00     0.064 A 
ATOM    105  C   UNL A   1      38.648  31.329  36.611  1.00  0.00     0.173 A 
ATOM    106  C   UNL A   1      40.095  33.102  35.875  1.00  0.00     0.173 A 
ATOM    107  F   UNL A   1      38.156  30.086  36.494  1.00  0.00    -0.203 F 
ATOM    108  C   UNL A   1      38.139  32.159  37.606  1.00  0.00     0.198 A 
ATOM    109  C   UNL A   1      39.609  33.918  36.894  1.00  0.00     0.198 A 
ATOM    110  F   UNL A   1      41.032  33.593  35.051  1.00  0.00    -0.203 F 
ATOM    111  F   UNL A   1      37.167  31.715  38.414  1.00  0.00    -0.200 F 
ATOM    112  C   UNL A   1      38.625  33.450  37.751  1.00  0.00     0.200 A 
ATOM    113  F   UNL A   1      40.091  35.160  37.043  1.00  0.00    -0.200 F 
ATOM    114  F   UNL A   1      38.139  34.245  38.714  1.00  0.00    -0.200 F 
ENDBRANCH  84 104
BRANCH  87 115
ATOM    115  C   UNL A   1      43.084  26.248  28.141  1.00  0.00     0.064 A 
ATOM    116  C   UNL A   1      42.918  24.857  28.106  1.00  0.00     0.173 A 
ATOM    117  C   UNL A   1      43.773  26.850  27.077  1.00  0.00     0.173 A 
ATOM    118  F   UNL A   1      42.283  24.233  29.109  1.00  0.00    -0.203 F 
ATOM    119  C   UNL A   1      43.436  24.095  27.060  1.00  0.00     0.198 A 
ATOM    120  C   UNL A   1      44.264  26.092  26.016  1.00  0.00     0.198 A 
ATOM    121  F   UNL A   1      43.955  28.178  27.061  1.00  0.00    -0.203 F 
ATOM    122  F   UNL A   1      43.303  22.763  27.075  1.00  0.00    -0.200 F 
ATOM    123  C   UNL A   1      44.103  24.714  26.014  1.00  0.00     0.200 A 
ATOM    124  F   UNL A   1      44.894  26.694  25.000  1.00  0.00    -0.200 F 
ATOM    125  F   UNL A   1      44.599  23.982  25.006  1.00  0.00    -0.200 F 
ENDBRANCH  87 115
BRANCH 102 126
ATOM    126  C   UNL A   1      45.426  27.668  34.557  1.00  0.00     0.064 A 
ATOM    127  C   UNL A   1      45.447  26.485  35.308  1.00  0.00     0.173 A 
ATOM    128  C   UNL A   1      46.609  28.420  34.481  1.00  0.00     0.173 A 
ATOM    129  F   UNL A   1      44.338  25.739  35.425  1.00  0.00    -0.203 F 
ATOM    130  C   UNL A   1      46.602  26.080  35.972  1.00  0.00     0.198 A 
ATOM    131  C   UNL A   1      47.772  27.995  35.118  1.00  0.00     0.198 A 
ATOM    132  F   UNL A   1      46.645  29.557  33.770  1.00  0.00    -0.203 F 
ATOM    133  F   UNL A   1      46.588  24.967  36.720  1.00  0.00    -0.200 F 
ATOM    134  C   UNL A   1      47.765  26.829  35.868  1.00  0.00     0.200 A 
ATOM    135  F   UNL A   1      48.898  28.711  35.002  1.00  0.00    -0.200 F 
ATOM    136  F   UNL A   1      48.879  26.428  36.495  1.00  0.00    -0.200 F 
ENDBRANCH 102 126
ENDBRANCH  67  70
ENDBRANCH  57  60
ENDBRANCH  53  56
ENDBRANCH  50  53
ENDBRANCH  47  50
ENDBRANCH   1  47
TORSDOF 18
ENDMDL
MODEL 8
REMARK VINA RESULT:     -11.9      1.319      3.362
REMARK SMILES CCc1cc(/C=C/C(=O)NCCCCCCNC(=O)c2ccc(-c3c4nc(c(-c5c(F)c(F)c(F)c(F)c5F)c5ccc([nH]5)c(-c5c(F)c(F)c(F)c(F)c5F)c5nc(c(-c6c(F)c(F)c(F)c(F)c6F)c6ccc3[nH]6)C=C5)C=C4)cc2)cc(C(=O)c2ccccc2)c1
REMARK SMILES IDX 13 1 12 4 11 7 10 10 8 11 9 12 7 14 6 15 5 18 3 19 4 20
REMARK SMILES IDX 93 21 84 23 83 25 2 27 1 30 85 34 86 35 87 36 88 37 92 38
REMARK SMILES IDX 89 39 91 41 90 43 14 47 15 50 16 53 17 56 18 57 19 59 20 60
REMARK SMILES IDX 21 61 82 62 22 63 81 65 23 67 24 70 25 71 75 72 26 73 80 74
REMARK SMILES IDX 74 75 76 76 27 77 79 78 73 80 72 82 28 84 60 87 40 88 59 89
REMARK SMILES IDX 41 90 44 91 58 92 77 93 42 94 43 96 57 98 78 99 45 102
REMARK SMILES IDX 29 104 30 105 38 106 31 107 32 108 36 109 39 110 33 111
REMARK SMILES IDX 34 112 37 113 35 114 61 115 62 116 70 117 63 118 64 119
REMARK SMILES IDX 68 120 71 121 65 122 66 123 69 124 67 125 46 126 47 127
REMARK SMILES IDX 55 128 48 129 49 130 53 131 56 132 50 133 51 134 54 135
REMARK SMILES IDX 52 136
REMARK H PARENT 13 2 13 3 12 5 12 6 11 8 11 9 10 13 6 16 7 17 4 22 93 24 83 26
REMARK H PARENT 2 28 2 29 1 31 1 32 1 33 88 40 92 42 89 44 91 45 90 46 14 48
REMARK H PARENT 14 49 15 51 15 52 16 54 16 55 17 58 21 64 82 66 22 68 81 69
REMARK H PARENT 80 79 74 81 76 83 79 85 73 86 41 95 44 97 77 100 42 101 78 103
REMARK Flexibility Score: inf
ROOT
ATOM      1  C   UNL A   1      31.892  28.952  22.779  1.00  0.00    -0.052 C 
ATOM      2  H   UNL A   1      31.482  29.932  22.915  1.00  0.00     0.027 H 
ATOM      3  H   UNL A   1      31.886  28.634  21.758  1.00  0.00     0.027 H 
ENDROOT
BRANCH   1   4
ATOM      4  C   UNL A   1      31.016  27.956  23.553  1.00  0.00    -0.036 C 
ATOM      5  H   UNL A   1      31.560  27.619  24.410  1.00  0.00     0.028 H 
ATOM      6  H   UNL A   1      30.117  28.467  23.826  1.00  0.00     0.028 H 
BRANCH   4   7
ATOM      7  C   UNL A   1      30.618  26.738  22.718  1.00  0.00     0.018 C 
ATOM      8  H   UNL A   1      30.650  25.862  23.332  1.00  0.00     0.049 H 
ATOM      9  H   UNL A   1      29.627  26.879  22.340  1.00  0.00     0.049 H 
BRANCH   7  10
ATOM     10  N   UNL A   1      31.533  26.579  21.605  1.00  0.00    -0.353 N 
ATOM     11  C   UNL A   1      32.509  25.672  21.360  1.00  0.00     0.243 C 
ATOM     12  O   UNL A   1      33.142  25.747  20.307  1.00  0.00    -0.270 OA
ATOM     13  H   UNL A   1      31.426  27.255  20.898  1.00  0.00     0.163 HD
BRANCH  11  14
ATOM     14  C   UNL A   1      32.793  24.546  22.278  1.00  0.00     0.003 C 
ATOM     15  C   UNL A   1      33.997  24.156  22.718  1.00  0.00    -0.049 C 
ATOM     16  H   UNL A   1      34.814  24.720  22.435  1.00  0.00     0.063 H 
ATOM     17  H   UNL A   1      31.979  24.005  22.614  1.00  0.00     0.068 H 
BRANCH  15  18
ATOM     18  C   UNL A   1      34.244  22.986  23.571  1.00  0.00    -0.024 A 
ATOM     19  C   UNL A   1      33.508  20.880  24.557  1.00  0.00    -0.047 A 
ATOM     20  C   UNL A   1      33.227  22.086  23.898  1.00  0.00    -0.052 A 
ATOM     21  C   UNL A   1      34.826  20.600  24.940  1.00  0.00    -0.048 A 
ATOM     22  H   UNL A   1      32.250  22.311  23.648  1.00  0.00     0.063 H 
ATOM     23  C   UNL A   1      35.857  21.494  24.625  1.00  0.00     0.023 A 
ATOM     24  H   UNL A   1      35.037  19.733  25.457  1.00  0.00     0.063 H 
ATOM     25  C   UNL A   1      35.558  22.686  23.950  1.00  0.00    -0.044 A 
ATOM     26  H   UNL A   1      36.316  23.351  23.731  1.00  0.00     0.064 H 
BRANCH  19  27
ATOM     27  C   UNL A   1      32.407  19.870  24.765  1.00  0.00    -0.031 C 
ATOM     28  H   UNL A   1      32.072  19.921  25.780  1.00  0.00     0.031 H 
ATOM     29  H   UNL A   1      31.603  20.098  24.095  1.00  0.00     0.031 H 
BRANCH  27  30
ATOM     30  C   UNL A   1      32.900  18.457  24.471  1.00  0.00    -0.061 C 
ATOM     31  H   UNL A   1      33.946  18.393  24.683  1.00  0.00     0.023 H 
ATOM     32  H   UNL A   1      32.729  18.227  23.440  1.00  0.00     0.023 H 
ATOM     33  H   UNL A   1      32.368  17.760  25.085  1.00  0.00     0.023 H 
ENDBRANCH  27  30
ENDBRANCH  19  27
BRANCH  23  34
ATOM     34  C   UNL A   1      37.282  21.224  24.969  1.00  0.00     0.193 C 
ATOM     35  O   UNL A   1      37.815  20.177  24.610  1.00  0.00    -0.289 OA
BRANCH  34  36
ATOM     36  C   UNL A   1      38.089  22.201  25.732  1.00  0.00     0.022 A 
ATOM     37  C   UNL A   1      37.555  23.473  25.961  1.00  0.00    -0.051 A 
ATOM     38  C   UNL A   1      39.368  21.879  26.203  1.00  0.00    -0.051 A 
ATOM     39  C   UNL A   1      38.276  24.403  26.708  1.00  0.00    -0.062 A 
ATOM     40  H   UNL A   1      36.629  23.722  25.577  1.00  0.00     0.063 H 
ATOM     41  C   UNL A   1      40.085  22.814  26.949  1.00  0.00    -0.062 A 
ATOM     42  H   UNL A   1      39.777  20.954  25.998  1.00  0.00     0.063 H 
ATOM     43  C   UNL A   1      39.535  24.070  27.209  1.00  0.00    -0.062 A 
ATOM     44  H   UNL A   1      37.878  25.337  26.891  1.00  0.00     0.062 H 
ATOM     45  H   UNL A   1      41.023  22.576  27.310  1.00  0.00     0.062 H 
ATOM     46  H   UNL A   1      40.062  24.755  27.774  1.00  0.00     0.062 H 
ENDBRANCH  34  36
ENDBRANCH  23  34
ENDBRANCH  15  18
ENDBRANCH  11  14
ENDBRANCH   7  10
ENDBRANCH   4   7
ENDBRANCH   1   4
BRANCH   1  47
ATOM     47  C   UNL A   1      33.361  28.984  23.218  1.00  0.00    -0.052 C 
ATOM     48  H   UNL A   1      33.578  29.964  23.590  1.00  0.00     0.027 H 
ATOM     49  H   UNL A   1      33.941  28.725  22.358  1.00  0.00     0.027 H 
BRANCH  47  50
ATOM     50  C   UNL A   1      33.722  27.969  24.306  1.00  0.00    -0.036 C 
ATOM     51  H   UNL A   1      34.507  27.342  23.936  1.00  0.00     0.028 H 
ATOM     52  H   UNL A   1      32.831  27.420  24.529  1.00  0.00     0.028 H 
BRANCH  50  53
ATOM     53  C   UNL A   1      34.188  28.607  25.608  1.00  0.00     0.018 C 
ATOM     54  H   UNL A   1      35.236  28.812  25.541  1.00  0.00     0.049 H 
ATOM     55  H   UNL A   1      33.986  27.925  26.409  1.00  0.00     0.049 H 
BRANCH  53  56
ATOM     56  N   UNL A   1      33.479  29.849  25.874  1.00  0.00    -0.352 N 
ATOM     57  C   UNL A   1      33.653  30.741  26.901  1.00  0.00     0.251 C 
ATOM     58  H   UNL A   1      32.774  30.081  25.226  1.00  0.00     0.163 HD
ATOM     59  O   UNL A   1      32.811  31.599  27.134  1.00  0.00    -0.269 OA
BRANCH  57  60
ATOM     60  C   UNL A   1      34.871  30.655  27.729  1.00  0.00     0.039 A 
ATOM     61  C   UNL A   1      35.122  29.487  28.455  1.00  0.00    -0.049 A 
ATOM     62  C   UNL A   1      35.761  31.731  27.789  1.00  0.00    -0.049 A 
ATOM     63  C   UNL A   1      36.295  29.381  29.201  1.00  0.00    -0.053 A 
ATOM     64  H   UNL A   1      34.444  28.710  28.438  1.00  0.00     0.063 H 
ATOM     65  C   UNL A   1      36.963  31.594  28.469  1.00  0.00    -0.053 A 
ATOM     66  H   UNL A   1      35.523  32.625  27.330  1.00  0.00     0.063 H 
ATOM     67  C   UNL A   1      37.239  30.422  29.188  1.00  0.00    -0.014 A 
ATOM     68  H   UNL A   1      36.472  28.533  29.763  1.00  0.00     0.063 H 
ATOM     69  H   UNL A   1      37.657  32.357  28.444  1.00  0.00     0.063 H 
BRANCH  67  70
ATOM     70  C   UNL A   1      38.517  30.316  29.933  1.00  0.00     0.031 A 
ATOM     71  C   UNL A   1      39.654  29.520  29.357  1.00  0.00     0.074 A 
ATOM     72  C   UNL A   1      38.624  30.869  31.155  1.00  0.00     0.049 A 
ATOM     73  N   UNL A   1      40.811  29.221  29.891  1.00  0.00    -0.248 NA
ATOM     74  C   UNL A   1      39.452  28.961  28.011  1.00  0.00    -0.034 C 
ATOM     75  C   UNL A   1      37.575  31.632  31.833  1.00  0.00    -0.036 A 
ATOM     76  N   UNL A   1      39.661  30.861  32.053  1.00  0.00    -0.354 N 
ATOM     77  C   UNL A   1      41.463  28.429  28.956  1.00  0.00     0.074 A 
ATOM     78  C   UNL A   1      40.553  28.246  27.846  1.00  0.00    -0.034 C 
ATOM     79  H   UNL A   1      38.658  29.092  27.364  1.00  0.00     0.065 H 
ATOM     80  C   UNL A   1      38.027  32.033  33.032  1.00  0.00    -0.036 A 
ATOM     81  H   UNL A   1      36.636  31.829  31.452  1.00  0.00     0.065 H 
ATOM     82  C   UNL A   1      39.379  31.519  33.225  1.00  0.00     0.049 A 
ATOM     83  H   UNL A   1      40.527  30.426  31.874  1.00  0.00     0.167 HD
ATOM     84  C   UNL A   1      42.716  27.920  29.010  1.00  0.00     0.037 A 
ATOM     85  H   UNL A   1      40.738  27.637  27.034  1.00  0.00     0.065 H 
ATOM     86  H   UNL A   1      37.504  32.612  33.707  1.00  0.00     0.065 H 
ATOM     87  C   UNL A   1      40.124  31.675  34.337  1.00  0.00     0.037 A 
ATOM     88  C   UNL A   1      43.621  28.122  30.110  1.00  0.00     0.049 A 
ATOM     89  C   UNL A   1      41.504  31.076  34.382  1.00  0.00     0.074 A 
ATOM     90  C   UNL A   1      44.932  27.697  30.240  1.00  0.00    -0.036 A 
ATOM     91  N   UNL A   1      43.305  28.806  31.276  1.00  0.00    -0.354 N 
ATOM     92  N   UNL A   1      42.138  30.385  33.466  1.00  0.00    -0.248 NA
ATOM     93  C   UNL A   1      42.276  31.283  35.616  1.00  0.00    -0.034 C 
ATOM     94  C   UNL A   1      45.389  28.075  31.506  1.00  0.00    -0.036 A 
ATOM     95  H   UNL A   1      45.476  27.189  29.526  1.00  0.00     0.065 H 
ATOM     96  C   UNL A   1      44.387  28.790  32.141  1.00  0.00     0.049 A 
ATOM     97  H   UNL A   1      42.439  29.238  31.461  1.00  0.00     0.167 HD
ATOM     98  C   UNL A   1      43.390  30.105  33.996  1.00  0.00     0.074 A 
ATOM     99  C   UNL A   1      43.431  30.709  35.311  1.00  0.00    -0.034 C 
ATOM    100  H   UNL A   1      41.991  31.752  36.490  1.00  0.00     0.065 H 
ATOM    101  H   UNL A   1      46.317  27.856  31.901  1.00  0.00     0.065 H 
ATOM    102  C   UNL A   1      44.415  29.412  33.442  1.00  0.00     0.037 A 
ATOM    103  H   UNL A   1      44.254  30.696  35.932  1.00  0.00     0.065 H 
BRANCH  84 104
ATOM    104  C   UNL A   1      43.181  27.091  27.845  1.00  0.00     0.064 A 
ATOM    105  C   UNL A   1      42.953  25.707  27.787  1.00  0.00     0.173 A 
ATOM    106  C   UNL A   1      43.836  27.692  26.760  1.00  0.00     0.173 A 
ATOM    107  F   UNL A   1      42.340  25.079  28.802  1.00  0.00    -0.203 F 
ATOM    108  C   UNL A   1      43.395  24.952  26.703  1.00  0.00     0.198 A 
ATOM    109  C   UNL A   1      44.245  26.940  25.662  1.00  0.00     0.198 A 
ATOM    110  F   UNL A   1      44.073  29.013  26.760  1.00  0.00    -0.203 F 
ATOM    111  F   UNL A   1      43.217  23.624  26.697  1.00  0.00    -0.200 F 
ATOM    112  C   UNL A   1      44.034  25.570  25.639  1.00  0.00     0.200 A 
ATOM    113  F   UNL A   1      44.848  27.542  24.627  1.00  0.00    -0.200 F 
ATOM    114  F   UNL A   1      44.452  24.844  24.594  1.00  0.00    -0.200 F 
ENDBRANCH  84 104
BRANCH  87 115
ATOM    115  C   UNL A   1      39.586  32.446  35.489  1.00  0.00     0.064 A 
ATOM    116  C   UNL A   1      39.858  33.814  35.627  1.00  0.00     0.173 A 
ATOM    117  C   UNL A   1      38.795  31.835  36.473  1.00  0.00     0.173 A 
ATOM    118  F   UNL A   1      40.626  34.439  34.722  1.00  0.00    -0.203 F 
ATOM    119  C   UNL A   1      39.378  34.538  36.716  1.00  0.00     0.198 A 
ATOM    120  C   UNL A   1      38.288  32.567  37.546  1.00  0.00     0.198 A 
ATOM    121  F   UNL A   1      38.501  30.531  36.385  1.00  0.00    -0.203 F 
ATOM    122  F   UNL A   1      39.692  35.833  36.848  1.00  0.00    -0.200 F 
ATOM    123  C   UNL A   1      38.588  33.915  37.671  1.00  0.00     0.200 A 
ATOM    124  F   UNL A   1      37.513  31.966  38.458  1.00  0.00    -0.200 F 
ATOM    125  F   UNL A   1      38.123  34.612  38.717  1.00  0.00    -0.200 F 
ENDBRANCH  87 115
BRANCH 102 126
ATOM    126  C   UNL A   1      45.688  29.307  34.231  1.00  0.00     0.064 A 
ATOM    127  C   UNL A   1      46.704  30.267  34.126  1.00  0.00     0.173 A 
ATOM    128  C   UNL A   1      45.865  28.261  35.150  1.00  0.00     0.173 A 
ATOM    129  F   UNL A   1      46.591  31.278  33.252  1.00  0.00    -0.203 F 
ATOM    130  C   UNL A   1      47.861  30.172  34.896  1.00  0.00     0.198 A 
ATOM    131  C   UNL A   1      47.007  28.187  35.942  1.00  0.00     0.198 A 
ATOM    132  F   UNL A   1      44.919  27.320  35.295  1.00  0.00    -0.203 F 
ATOM    133  F   UNL A   1      48.839  31.076  34.747  1.00  0.00    -0.200 F 
ATOM    134  C   UNL A   1      48.006  29.139  35.810  1.00  0.00     0.200 A 
ATOM    135  F   UNL A   1      47.137  27.198  36.837  1.00  0.00    -0.200 F 
ATOM    136  F   UNL A   1      49.113  29.059  36.561  1.00  0.00    -0.200 F 
ENDBRANCH 102 126
ENDBRANCH  67  70
ENDBRANCH  57  60
ENDBRANCH  53  56
ENDBRANCH  50  53
ENDBRANCH  47  50
ENDBRANCH   1  47
TORSDOF 18
ENDMDL
MODEL 9
REMARK VINA RESULT:     -11.8      2.672      8.529
REMARK SMILES CCc1cc(/C=C/C(=O)NCCCCCCNC(=O)c2ccc(-c3c4nc(c(-c5c(F)c(F)c(F)c(F)c5F)c5ccc([nH]5)c(-c5c(F)c(F)c(F)c(F)c5F)c5nc(c(-c6c(F)c(F)c(F)c(F)c6F)c6ccc3[nH]6)C=C5)C=C4)cc2)cc(C(=O)c2ccccc2)c1
REMARK SMILES IDX 13 1 12 4 11 7 10 10 8 11 9 12 7 14 6 15 5 18 3 19 4 20
REMARK SMILES IDX 93 21 84 23 83 25 2 27 1 30 85 34 86 35 87 36 88 37 92 38
REMARK SMILES IDX 89 39 91 41 90 43 14 47 15 50 16 53 17 56 18 57 19 59 20 60
REMARK SMILES IDX 21 61 82 62 22 63 81 65 23 67 24 70 25 71 75 72 26 73 80 74
REMARK SMILES IDX 74 75 76 76 27 77 79 78 73 80 72 82 28 84 60 87 40 88 59 89
REMARK SMILES IDX 41 90 44 91 58 92 77 93 42 94 43 96 57 98 78 99 45 102
REMARK SMILES IDX 29 104 30 105 38 106 31 107 32 108 36 109 39 110 33 111
REMARK SMILES IDX 34 112 37 113 35 114 61 115 62 116 70 117 63 118 64 119
REMARK SMILES IDX 68 120 71 121 65 122 66 123 69 124 67 125 46 126 47 127
REMARK SMILES IDX 55 128 48 129 49 130 53 131 56 132 50 133 51 134 54 135
REMARK SMILES IDX 52 136
REMARK H PARENT 13 2 13 3 12 5 12 6 11 8 11 9 10 13 6 16 7 17 4 22 93 24 83 26
REMARK H PARENT 2 28 2 29 1 31 1 32 1 33 88 40 92 42 89 44 91 45 90 46 14 48
REMARK H PARENT 14 49 15 51 15 52 16 54 16 55 17 58 21 64 82 66 22 68 81 69
REMARK H PARENT 80 79 74 81 76 83 79 85 73 86 41 95 44 97 77 100 42 101 78 103
REMARK Flexibility Score: inf
ROOT
ATOM      1  C   UNL A   1      34.868  33.501  29.023  1.00  0.00    -0.052 C 
ATOM      2  H   UNL A   1      35.383  33.587  29.958  1.00  0.00     0.027 H 
ATOM      3  H   UNL A   1      33.836  33.243  29.137  1.00  0.00     0.027 H 
ENDROOT
BRANCH   1   4
ATOM      4  C   UNL A   1      35.517  32.363  28.222  1.00  0.00    -0.036 C 
ATOM      5  H   UNL A   1      35.823  32.747  27.272  1.00  0.00     0.028 H 
ATOM      6  H   UNL A   1      36.347  32.004  28.794  1.00  0.00     0.028 H 
BRANCH   4   7
ATOM      7  C   UNL A   1      34.573  31.183  27.991  1.00  0.00     0.018 C 
ATOM      8  H   UNL A   1      35.018  30.506  27.290  1.00  0.00     0.049 H 
ATOM      9  H   UNL A   1      34.403  30.681  28.920  1.00  0.00     0.049 H 
BRANCH   7  10
ATOM     10  N   UNL A   1      33.308  31.656  27.467  1.00  0.00    -0.353 N 
ATOM     11  C   UNL A   1      32.257  31.002  26.915  1.00  0.00     0.243 C 
ATOM     12  O   UNL A   1      31.271  31.649  26.563  1.00  0.00    -0.270 OA
ATOM     13  H   UNL A   1      33.190  32.631  27.521  1.00  0.00     0.163 HD
BRANCH  11  14
ATOM     14  C   UNL A   1      32.218  29.527  26.790  1.00  0.00     0.003 C 
ATOM     15  C   UNL A   1      32.726  28.795  25.789  1.00  0.00    -0.049 C 
ATOM     16  H   UNL A   1      33.243  29.295  25.048  1.00  0.00     0.063 H 
ATOM     17  H   UNL A   1      31.752  29.009  27.553  1.00  0.00     0.068 H 
BRANCH  15  18
ATOM     18  C   UNL A   1      32.603  27.337  25.665  1.00  0.00    -0.024 A 
ATOM     19  C   UNL A   1      31.323  25.280  25.944  1.00  0.00    -0.047 A 
ATOM     20  C   UNL A   1      31.528  26.640  26.221  1.00  0.00    -0.052 A 
ATOM     21  C   UNL A   1      32.243  24.599  25.137  1.00  0.00    -0.048 A 
ATOM     22  H   UNL A   1      30.871  27.134  26.847  1.00  0.00     0.063 H 
ATOM     23  C   UNL A   1      33.329  25.282  24.575  1.00  0.00     0.023 A 
ATOM     24  H   UNL A   1      32.120  23.591  24.957  1.00  0.00     0.063 H 
ATOM     25  C   UNL A   1      33.508  26.645  24.850  1.00  0.00    -0.044 A 
ATOM     26  H   UNL A   1      34.316  27.145  24.448  1.00  0.00     0.064 H 
BRANCH  19  27
ATOM     27  C   UNL A   1      30.074  24.597  26.445  1.00  0.00    -0.031 C 
ATOM     28  H   UNL A   1      29.718  25.113  27.314  1.00  0.00     0.031 H 
ATOM     29  H   UNL A   1      29.337  24.621  25.669  1.00  0.00     0.031 H 
BRANCH  27  30
ATOM     30  C   UNL A   1      30.355  23.143  26.807  1.00  0.00    -0.061 C 
ATOM     31  H   UNL A   1      29.648  22.814  27.539  1.00  0.00     0.023 H 
ATOM     32  H   UNL A   1      31.345  23.059  27.204  1.00  0.00     0.023 H 
ATOM     33  H   UNL A   1      30.270  22.536  25.930  1.00  0.00     0.023 H 
ENDBRANCH  27  30
ENDBRANCH  19  27
BRANCH  23  34
ATOM     34  C   UNL A   1      34.312  24.617  23.673  1.00  0.00     0.193 C 
ATOM     35  O   UNL A   1      34.189  24.707  22.454  1.00  0.00    -0.289 OA
BRANCH  34  36
ATOM     36  C   UNL A   1      35.456  23.849  24.212  1.00  0.00     0.022 A 
ATOM     37  C   UNL A   1      35.925  24.162  25.492  1.00  0.00    -0.051 A 
ATOM     38  C   UNL A   1      36.076  22.843  23.461  1.00  0.00    -0.051 A 
ATOM     39  C   UNL A   1      36.977  23.432  26.042  1.00  0.00    -0.062 A 
ATOM     40  H   UNL A   1      35.493  24.932  26.027  1.00  0.00     0.063 H 
ATOM     41  C   UNL A   1      37.129  22.116  24.017  1.00  0.00    -0.062 A 
ATOM     42  H   UNL A   1      35.755  22.641  22.501  1.00  0.00     0.063 H 
ATOM     43  C   UNL A   1      37.572  22.404  25.308  1.00  0.00    -0.062 A 
ATOM     44  H   UNL A   1      37.316  23.651  26.991  1.00  0.00     0.062 H 
ATOM     45  H   UNL A   1      37.581  21.364  23.472  1.00  0.00     0.062 H 
ATOM     46  H   UNL A   1      38.342  21.855  25.723  1.00  0.00     0.062 H 
ENDBRANCH  34  36
ENDBRANCH  23  34
ENDBRANCH  15  18
ENDBRANCH  11  14
ENDBRANCH   7  10
ENDBRANCH   4   7
ENDBRANCH   1   4
BRANCH   1  47
ATOM     47  C   UNL A   1      34.902  34.869  28.330  1.00  0.00    -0.052 C 
ATOM     48  H   UNL A   1      34.769  34.715  27.279  1.00  0.00     0.027 H 
ATOM     49  H   UNL A   1      35.847  35.309  28.572  1.00  0.00     0.027 H 
BRANCH  47  50
ATOM     50  C   UNL A   1      33.830  35.851  28.808  1.00  0.00    -0.036 C 
ATOM     51  H   UNL A   1      33.346  36.267  27.949  1.00  0.00     0.028 H 
ATOM     52  H   UNL A   1      34.327  36.594  29.396  1.00  0.00     0.028 H 
BRANCH  50  53
ATOM     53  C   UNL A   1      32.770  35.215  29.698  1.00  0.00     0.018 C 
ATOM     54  H   UNL A   1      33.128  34.268  30.044  1.00  0.00     0.049 H 
ATOM     55  H   UNL A   1      31.875  35.095  29.122  1.00  0.00     0.049 H 
BRANCH  53  56
ATOM     56  N   UNL A   1      32.467  36.056  30.846  1.00  0.00    -0.352 N 
ATOM     57  C   UNL A   1      32.948  35.974  32.128  1.00  0.00     0.251 C 
ATOM     58  H   UNL A   1      31.827  36.785  30.679  1.00  0.00     0.163 HD
ATOM     59  O   UNL A   1      32.405  36.586  33.039  1.00  0.00    -0.269 OA
BRANCH  57  60
ATOM     60  C   UNL A   1      34.131  35.136  32.400  1.00  0.00     0.039 A 
ATOM     61  C   UNL A   1      35.405  35.647  32.138  1.00  0.00    -0.049 A 
ATOM     62  C   UNL A   1      33.977  33.843  32.910  1.00  0.00    -0.049 A 
ATOM     63  C   UNL A   1      36.529  34.877  32.437  1.00  0.00    -0.053 A 
ATOM     64  H   UNL A   1      35.513  36.587  31.726  1.00  0.00     0.063 H 
ATOM     65  C   UNL A   1      35.096  33.110  33.279  1.00  0.00    -0.053 A 
ATOM     66  H   UNL A   1      33.034  33.436  33.010  1.00  0.00     0.063 H 
ATOM     67  C   UNL A   1      36.383  33.616  33.039  1.00  0.00    -0.014 A 
ATOM     68  H   UNL A   1      37.472  35.237  32.218  1.00  0.00     0.063 H 
ATOM     69  H   UNL A   1      34.982  32.191  33.733  1.00  0.00     0.063 H 
BRANCH  67  70
ATOM     70  C   UNL A   1      37.561  32.797  33.414  1.00  0.00     0.031 A 
ATOM     71  C   UNL A   1      38.295  33.084  34.693  1.00  0.00     0.074 A 
ATOM     72  C   UNL A   1      38.012  31.852  32.568  1.00  0.00     0.049 A 
ATOM     73  N   UNL A   1      39.401  32.555  35.151  1.00  0.00    -0.248 NA
ATOM     74  C   UNL A   1      37.724  34.126  35.560  1.00  0.00    -0.034 C 
ATOM     75  C   UNL A   1      37.405  31.510  31.281  1.00  0.00    -0.036 A 
ATOM     76  N   UNL A   1      39.097  31.016  32.656  1.00  0.00    -0.354 N 
ATOM     77  C   UNL A   1      39.665  33.211  36.347  1.00  0.00     0.074 A 
ATOM     78  C   UNL A   1      38.636  34.214  36.515  1.00  0.00    -0.034 C 
ATOM     79  H   UNL A   1      36.842  34.652  35.452  1.00  0.00     0.065 H 
ATOM     80  C   UNL A   1      38.115  30.525  30.708  1.00  0.00    -0.036 A 
ATOM     81  H   UNL A   1      36.567  31.956  30.877  1.00  0.00     0.065 H 
ATOM     82  C   UNL A   1      39.250  30.198  31.564  1.00  0.00     0.049 A 
ATOM     83  H   UNL A   1      39.707  31.004  33.429  1.00  0.00     0.167 HD
ATOM     84  C   UNL A   1      40.662  32.980  37.232  1.00  0.00     0.037 A 
ATOM     85  H   UNL A   1      38.617  34.907  37.280  1.00  0.00     0.065 H 
ATOM     86  H   UNL A   1      37.893  30.072  29.807  1.00  0.00     0.065 H 
ATOM     87  C   UNL A   1      40.210  29.296  31.280  1.00  0.00     0.037 A 
ATOM     88  C   UNL A   1      41.670  31.967  37.064  1.00  0.00     0.049 A 
ATOM     89  C   UNL A   1      41.323  29.077  32.270  1.00  0.00     0.074 A 
ATOM     90  C   UNL A   1      42.692  31.614  37.928  1.00  0.00    -0.036 A 
ATOM     91  N   UNL A   1      41.787  31.147  35.950  1.00  0.00    -0.354 N 
ATOM     92  N   UNL A   1      41.527  29.654  33.429  1.00  0.00    -0.248 NA
ATOM     93  C   UNL A   1      42.339  28.076  31.913  1.00  0.00    -0.034 C 
ATOM     94  C   UNL A   1      43.459  30.620  37.312  1.00  0.00    -0.036 A 
ATOM     95  H   UNL A   1      42.858  32.015  38.864  1.00  0.00     0.065 H 
ATOM     96  C   UNL A   1      42.880  30.308  36.093  1.00  0.00     0.049 A 
ATOM     97  H   UNL A   1      41.182  31.161  35.172  1.00  0.00     0.167 HD
ATOM     98  C   UNL A   1      42.669  29.066  33.955  1.00  0.00     0.074 A 
ATOM     99  C   UNL A   1      43.110  28.079  32.992  1.00  0.00    -0.034 C 
ATOM    100  H   UNL A   1      42.428  27.519  31.050  1.00  0.00     0.065 H 
ATOM    101  H   UNL A   1      44.313  30.192  37.702  1.00  0.00     0.065 H 
ATOM    102  C   UNL A   1      43.295  29.319  35.130  1.00  0.00     0.037 A 
ATOM    103  H   UNL A   1      43.920  27.455  33.128  1.00  0.00     0.065 H 
BRANCH  84 104
ATOM    104  C   UNL A   1      40.712  33.842  38.463  1.00  0.00     0.064 A 
ATOM    105  C   UNL A   1      41.488  35.010  38.515  1.00  0.00     0.173 A 
ATOM    106  C   UNL A   1      39.952  33.510  39.594  1.00  0.00     0.173 A 
ATOM    107  F   UNL A   1      42.243  35.368  37.464  1.00  0.00    -0.203 F 
ATOM    108  C   UNL A   1      41.528  35.795  39.664  1.00  0.00     0.198 A 
ATOM    109  C   UNL A   1      39.966  34.317  40.730  1.00  0.00     0.198 A 
ATOM    110  F   UNL A   1      39.186  32.409  39.598  1.00  0.00    -0.203 F 
ATOM    111  F   UNL A   1      42.321  36.873  39.710  1.00  0.00    -0.200 F 
ATOM    112  C   UNL A   1      40.762  35.451  40.768  1.00  0.00     0.200 A 
ATOM    113  F   UNL A   1      39.213  33.992  41.790  1.00  0.00    -0.200 F 
ATOM    114  F   UNL A   1      40.796  36.211  41.871  1.00  0.00    -0.200 F 
ENDBRANCH  84 104
BRANCH  87 115
ATOM    115  C   UNL A   1      40.149  28.521  30.013  1.00  0.00     0.064 A 
ATOM    116  C   UNL A   1      40.757  29.003  28.846  1.00  0.00     0.173 A 
ATOM    117  C   UNL A   1      39.483  27.288  29.940  1.00  0.00     0.173 A 
ATOM    118  F   UNL A   1      41.390  30.186  28.861  1.00  0.00    -0.203 F 
ATOM    119  C   UNL A   1      40.685  28.294  27.649  1.00  0.00     0.198 A 
ATOM    120  C   UNL A   1      39.438  26.564  28.750  1.00  0.00     0.198 A 
ATOM    121  F   UNL A   1      38.889  26.780  31.029  1.00  0.00    -0.203 F 
ATOM    122  F   UNL A   1      41.235  28.800  26.538  1.00  0.00    -0.200 F 
ATOM    123  C   UNL A   1      40.030  27.072  27.604  1.00  0.00     0.200 A 
ATOM    124  F   UNL A   1      38.818  25.377  28.714  1.00  0.00    -0.200 F 
ATOM    125  F   UNL A   1      39.964  26.387  26.454  1.00  0.00    -0.200 F 
ENDBRANCH  87 115
BRANCH 102 126
ATOM    126  C   UNL A   1      44.496  28.484  35.470  1.00  0.00     0.064 A 
ATOM    127  C   UNL A   1      45.796  28.890  35.138  1.00  0.00     0.173 A 
ATOM    128  C   UNL A   1      44.343  27.290  36.191  1.00  0.00     0.173 A 
ATOM    129  F   UNL A   1      45.995  30.015  34.437  1.00  0.00    -0.203 F 
ATOM    130  C   UNL A   1      46.899  28.119  35.497  1.00  0.00     0.198 A 
ATOM    131  C   UNL A   1      45.450  26.539  36.578  1.00  0.00     0.198 A 
ATOM    132  F   UNL A   1      43.121  26.860  36.539  1.00  0.00    -0.203 F 
ATOM    133  F   UNL A   1      48.130  28.503  35.132  1.00  0.00    -0.200 F 
ATOM    134  C   UNL A   1      46.726  26.951  36.226  1.00  0.00     0.200 A 
ATOM    135  F   UNL A   1      45.281  25.420  37.296  1.00  0.00    -0.200 F 
ATOM    136  F   UNL A   1      47.790  26.220  36.584  1.00  0.00    -0.200 F 
ENDBRANCH 102 126
ENDBRANCH  67  70
ENDBRANCH  57  60
ENDBRANCH  53  56
ENDBRANCH  50  53
ENDBRANCH  47  50
ENDBRANCH   1  47
TORSDOF 18
ENDMDL
MODEL 10
REMARK VINA RESULT:     -11.8      2.655      8.488
REMARK SMILES CCc1cc(/C=C/C(=O)NCCCCCCNC(=O)c2ccc(-c3c4nc(c(-c5c(F)c(F)c(F)c(F)c5F)c5ccc([nH]5)c(-c5c(F)c(F)c(F)c(F)c5F)c5nc(c(-c6c(F)c(F)c(F)c(F)c6F)c6ccc3[nH]6)C=C5)C=C4)cc2)cc(C(=O)c2ccccc2)c1
REMARK SMILES IDX 13 1 12 4 11 7 10 10 8 11 9 12 7 14 6 15 5 18 3 19 4 20
REMARK SMILES IDX 93 21 84 23 83 25 2 27 1 30 85 34 86 35 87 36 88 37 92 38
REMARK SMILES IDX 89 39 91 41 90 43 14 47 15 50 16 53 17 56 18 57 19 59 20 60
REMARK SMILES IDX 21 61 82 62 22 63 81 65 23 67 24 70 25 71 75 72 26 73 80 74
REMARK SMILES IDX 74 75 76 76 27 77 79 78 73 80 72 82 28 84 60 87 40 88 59 89
REMARK SMILES IDX 41 90 44 91 58 92 77 93 42 94 43 96 57 98 78 99 45 102
REMARK SMILES IDX 29 104 30 105 38 106 31 107 32 108 36 109 39 110 33 111
REMARK SMILES IDX 34 112 37 113 35 114 61 115 62 116 70 117 63 118 64 119
REMARK SMILES IDX 68 120 71 121 65 122 66 123 69 124 67 125 46 126 47 127
REMARK SMILES IDX 55 128 48 129 49 130 53 131 56 132 50 133 51 134 54 135
REMARK SMILES IDX 52 136
REMARK H PARENT 13 2 13 3 12 5 12 6 11 8 11 9 10 13 6 16 7 17 4 22 93 24 83 26
REMARK H PARENT 2 28 2 29 1 31 1 32 1 33 88 40 92 42 89 44 91 45 90 46 14 48
REMARK H PARENT 14 49 15 51 15 52 16 54 16 55 17 58 21 64 82 66 22 68 81 69
REMARK H PARENT 80 79 74 81 76 83 79 85 73 86 41 95 44 97 77 100 42 101 78 103
REMARK Flexibility Score: inf
ROOT
ATOM      1  C   UNL A   1      35.085  33.339  29.006  1.00  0.00    -0.052 C 
ATOM      2  H   UNL A   1      35.655  33.333  29.912  1.00  0.00     0.027 H 
ATOM      3  H   UNL A   1      34.044  33.150  29.167  1.00  0.00     0.027 H 
ENDROOT
BRANCH   1   4
ATOM      4  C   UNL A   1      35.601  32.208  28.107  1.00  0.00    -0.036 C 
ATOM      5  H   UNL A   1      35.935  32.631  27.183  1.00  0.00     0.028 H 
ATOM      6  H   UNL A   1      36.395  31.720  28.632  1.00  0.00     0.028 H 
BRANCH   4   7
ATOM      7  C   UNL A   1      34.536  31.153  27.803  1.00  0.00     0.018 C 
ATOM      8  H   UNL A   1      34.821  30.602  26.931  1.00  0.00     0.049 H 
ATOM      9  H   UNL A   1      34.449  30.490  28.638  1.00  0.00     0.049 H 
BRANCH   7  10
ATOM     10  N   UNL A   1      33.257  31.794  27.570  1.00  0.00    -0.353 N 
ATOM     11  C   UNL A   1      32.196  31.443  26.804  1.00  0.00     0.243 C 
ATOM     12  O   UNL A   1      31.200  32.166  26.797  1.00  0.00    -0.270 OA
ATOM     13  H   UNL A   1      33.137  32.640  28.059  1.00  0.00     0.163 HD
BRANCH  11  14
ATOM     14  C   UNL A   1      32.160  30.180  26.031  1.00  0.00     0.003 C 
ATOM     15  C   UNL A   1      31.763  28.980  26.478  1.00  0.00    -0.049 C 
ATOM     16  H   UNL A   1      31.396  28.928  27.441  1.00  0.00     0.063 H 
ATOM     17  H   UNL A   1      32.473  30.229  25.048  1.00  0.00     0.068 H 
BRANCH  15  18
ATOM     18  C   UNL A   1      31.811  27.735  25.702  1.00  0.00    -0.024 A 
ATOM     19  C   UNL A   1      32.510  26.486  23.727  1.00  0.00    -0.047 A 
ATOM     20  C   UNL A   1      32.298  27.702  24.392  1.00  0.00    -0.052 A 
ATOM     21  C   UNL A   1      32.179  25.287  24.370  1.00  0.00    -0.048 A 
ATOM     22  H   UNL A   1      32.506  28.589  23.906  1.00  0.00     0.063 H 
ATOM     23  C   UNL A   1      31.686  25.301  25.680  1.00  0.00     0.023 A 
ATOM     24  H   UNL A   1      32.297  24.389  23.875  1.00  0.00     0.063 H 
ATOM     25  C   UNL A   1      31.496  26.526  26.335  1.00  0.00    -0.044 A 
ATOM     26  H   UNL A   1      31.119  26.538  27.296  1.00  0.00     0.064 H 
BRANCH  19  27
ATOM     27  C   UNL A   1      33.170  26.485  22.370  1.00  0.00    -0.031 C 
ATOM     28  H   UNL A   1      33.872  25.677  22.323  1.00  0.00     0.031 H 
ATOM     29  H   UNL A   1      32.413  26.365  21.622  1.00  0.00     0.031 H 
BRANCH  27  30
ATOM     30  C   UNL A   1      33.902  27.799  22.117  1.00  0.00    -0.061 C 
ATOM     31  H   UNL A   1      34.549  27.690  21.272  1.00  0.00     0.023 H 
ATOM     32  H   UNL A   1      34.480  28.056  22.979  1.00  0.00     0.023 H 
ATOM     33  H   UNL A   1      33.188  28.572  21.923  1.00  0.00     0.023 H 
ENDBRANCH  27  30
ENDBRANCH  19  27
BRANCH  23  34
ATOM     34  C   UNL A   1      31.359  24.052  26.426  1.00  0.00     0.193 C 
ATOM     35  O   UNL A   1      30.413  24.033  27.210  1.00  0.00    -0.289 OA
BRANCH  34  36
ATOM     36  C   UNL A   1      32.146  22.814  26.238  1.00  0.00     0.022 A 
ATOM     37  C   UNL A   1      31.655  21.837  25.367  1.00  0.00    -0.051 A 
ATOM     38  C   UNL A   1      33.348  22.606  26.925  1.00  0.00    -0.051 A 
ATOM     39  C   UNL A   1      32.392  20.676  25.141  1.00  0.00    -0.062 A 
ATOM     40  H   UNL A   1      30.747  21.975  24.894  1.00  0.00     0.063 H 
ATOM     41  C   UNL A   1      34.082  21.441  26.695  1.00  0.00    -0.062 A 
ATOM     42  H   UNL A   1      33.690  23.310  27.598  1.00  0.00     0.063 H 
ATOM     43  C   UNL A   1      33.609  20.483  25.797  1.00  0.00    -0.062 A 
ATOM     44  H   UNL A   1      32.039  19.959  24.489  1.00  0.00     0.062 H 
ATOM     45  H   UNL A   1      34.976  21.289  27.189  1.00  0.00     0.062 H 
ATOM     46  H   UNL A   1      34.160  19.629  25.618  1.00  0.00     0.062 H 
ENDBRANCH  34  36
ENDBRANCH  23  34
ENDBRANCH  15  18
ENDBRANCH  11  14
ENDBRANCH   7  10
ENDBRANCH   4   7
ENDBRANCH   1   4
BRANCH   1  47
ATOM     47  C   UNL A   1      35.183  34.740  28.388  1.00  0.00    -0.052 C 
ATOM     48  H   UNL A   1      35.199  34.635  27.323  1.00  0.00     0.027 H 
ATOM     49  H   UNL A   1      36.075  35.182  28.778  1.00  0.00     0.027 H 
BRANCH  47  50
ATOM     50  C   UNL A   1      34.034  35.681  28.759  1.00  0.00    -0.036 C 
ATOM     51  H   UNL A   1      33.608  36.066  27.855  1.00  0.00     0.028 H 
ATOM     52  H   UNL A   1      34.447  36.451  29.376  1.00  0.00     0.028 H 
BRANCH  50  53
ATOM     53  C   UNL A   1      32.929  35.010  29.565  1.00  0.00     0.018 C 
ATOM     54  H   UNL A   1      33.312  34.111  30.000  1.00  0.00     0.049 H 
ATOM     55  H   UNL A   1      32.114  34.794  28.905  1.00  0.00     0.049 H 
BRANCH  53  56
ATOM     56  N   UNL A   1      32.443  35.880  30.625  1.00  0.00    -0.352 N 
ATOM     57  C   UNL A   1      32.761  35.878  31.959  1.00  0.00     0.251 C 
ATOM     58  H   UNL A   1      31.796  36.567  30.345  1.00  0.00     0.163 HD
ATOM     59  O   UNL A   1      32.078  36.496  32.765  1.00  0.00    -0.269 OA
BRANCH  57  60
ATOM     60  C   UNL A   1      33.939  35.115  32.416  1.00  0.00     0.039 A 
ATOM     61  C   UNL A   1      33.761  33.829  32.932  1.00  0.00    -0.049 A 
ATOM     62  C   UNL A   1      35.216  35.676  32.336  1.00  0.00    -0.049 A 
ATOM     63  C   UNL A   1      34.874  33.085  33.321  1.00  0.00    -0.053 A 
ATOM     64  H   UNL A   1      32.812  33.433  33.025  1.00  0.00     0.063 H 
ATOM     65  C   UNL A   1      36.328  34.906  32.650  1.00  0.00    -0.053 A 
ATOM     66  H   UNL A   1      35.332  36.660  32.045  1.00  0.00     0.063 H 
ATOM     67  C   UNL A   1      36.168  33.607  33.153  1.00  0.00    -0.014 A 
ATOM     68  H   UNL A   1      34.747  32.146  33.732  1.00  0.00     0.063 H 
ATOM     69  H   UNL A   1      37.275  35.291  32.512  1.00  0.00     0.063 H 
BRANCH  67  70
ATOM     70  C   UNL A   1      37.372  32.820  33.512  1.00  0.00     0.031 A 
ATOM     71  C   UNL A   1      38.105  33.116  34.790  1.00  0.00     0.074 A 
ATOM     72  C   UNL A   1      37.847  31.898  32.654  1.00  0.00     0.049 A 
ATOM     73  N   UNL A   1      39.230  32.616  35.237  1.00  0.00    -0.248 NA
ATOM     74  C   UNL A   1      37.508  34.131  35.672  1.00  0.00    -0.034 C 
ATOM     75  C   UNL A   1      37.243  31.551  31.367  1.00  0.00    -0.036 A 
ATOM     76  N   UNL A   1      38.957  31.095  32.727  1.00  0.00    -0.354 N 
ATOM     77  C   UNL A   1      39.480  33.267  36.438  1.00  0.00     0.074 A 
ATOM     78  C   UNL A   1      38.423  34.236  36.623  1.00  0.00    -0.034 C 
ATOM     79  H   UNL A   1      36.610  34.631  35.575  1.00  0.00     0.065 H 
ATOM     80  C   UNL A   1      37.979  30.594  30.779  1.00  0.00    -0.036 A 
ATOM     81  H   UNL A   1      36.389  31.975  30.972  1.00  0.00     0.065 H 
ATOM     82  C   UNL A   1      39.129  30.293  31.625  1.00  0.00     0.049 A 
ATOM     83  H   UNL A   1      39.571  31.092  33.497  1.00  0.00     0.167 HD
ATOM     84  C   UNL A   1      40.489  33.057  37.315  1.00  0.00     0.037 A 
ATOM     85  H   UNL A   1      38.387  34.921  37.395  1.00  0.00     0.065 H 
ATOM     86  H   UNL A   1      37.766  30.144  29.875  1.00  0.00     0.065 H 
ATOM     87  C   UNL A   1      40.114  29.423  31.327  1.00  0.00     0.037 A 
ATOM     88  C   UNL A   1      41.526  32.077  37.131  1.00  0.00     0.049 A 
ATOM     89  C   UNL A   1      41.239  29.228  32.308  1.00  0.00     0.074 A 
ATOM     90  C   UNL A   1      42.563  31.746  37.985  1.00  0.00    -0.036 A 
ATOM     91  N   UNL A   1      41.661  31.272  36.007  1.00  0.00    -0.354 N 
ATOM     92  N   UNL A   1      41.431  29.799  33.473  1.00  0.00    -0.248 NA
ATOM     93  C   UNL A   1      42.282  28.262  31.935  1.00  0.00    -0.034 C 
ATOM     94  C   UNL A   1      43.356  30.782  37.355  1.00  0.00    -0.036 A 
ATOM     95  H   UNL A   1      42.723  32.142  38.925  1.00  0.00     0.065 H 
ATOM     96  C   UNL A   1      42.780  30.465  36.136  1.00  0.00     0.049 A 
ATOM     97  H   UNL A   1      41.051  31.276  35.234  1.00  0.00     0.167 HD
ATOM     98  C   UNL A   1      42.594  29.240  33.985  1.00  0.00     0.074 A 
ATOM     99  C   UNL A   1      43.059  28.277  33.010  1.00  0.00    -0.034 C 
ATOM    100  H   UNL A   1      42.383  27.717  31.065  1.00  0.00     0.065 H 
ATOM    101  H   UNL A   1      44.226  30.376  37.735  1.00  0.00     0.065 H 
ATOM    102  C   UNL A   1      43.219  29.499  35.160  1.00  0.00     0.037 A 
ATOM    103  H   UNL A   1      43.888  27.676  33.134  1.00  0.00     0.065 H 
BRANCH  84 104
ATOM    104  C   UNL A   1      40.520  33.907  38.555  1.00  0.00     0.064 A 
ATOM    105  C   UNL A   1      39.816  33.546  39.714  1.00  0.00     0.173 A 
ATOM    106  C   UNL A   1      41.287  35.081  38.593  1.00  0.00     0.173 A 
ATOM    107  F   UNL A   1      39.058  32.439  39.729  1.00  0.00    -0.203 F 
ATOM    108  C   UNL A   1      39.851  34.347  40.853  1.00  0.00     0.198 A 
ATOM    109  C   UNL A   1      41.348  35.861  39.746  1.00  0.00     0.198 A 
ATOM    110  F   UNL A   1      41.986  35.469  37.516  1.00  0.00    -0.203 F 
ATOM    111  F   UNL A   1      39.124  34.012  41.928  1.00  0.00    -0.200 F 
ATOM    112  C   UNL A   1      40.622  35.499  40.870  1.00  0.00     0.200 A 
ATOM    113  F   UNL A   1      42.107  36.966  39.765  1.00  0.00    -0.200 F 
ATOM    114  F   UNL A   1      40.661  36.265  41.969  1.00  0.00    -0.200 F 
ENDBRANCH  84 104
BRANCH  87 115
ATOM    115  C   UNL A   1      40.069  28.660  30.053  1.00  0.00     0.064 A 
ATOM    116  C   UNL A   1      39.446  27.406  29.988  1.00  0.00     0.173 A 
ATOM    117  C   UNL A   1      40.647  29.162  28.877  1.00  0.00     0.173 A 
ATOM    118  F   UNL A   1      38.895  26.875  31.089  1.00  0.00    -0.203 F 
ATOM    119  C   UNL A   1      39.420  26.674  28.802  1.00  0.00     0.198 A 
ATOM    120  C   UNL A   1      40.595  28.443  27.684  1.00  0.00     0.198 A 
ATOM    121  F   UNL A   1      41.252  30.359  28.884  1.00  0.00    -0.203 F 
ATOM    122  F   UNL A   1      38.859  25.458  28.780  1.00  0.00    -0.200 F 
ATOM    123  C   UNL A   1      39.989  27.196  27.651  1.00  0.00     0.200 A 
ATOM    124  F   UNL A   1      41.132  28.957  26.570  1.00  0.00    -0.200 F 
ATOM    125  F   UNL A   1      39.962  26.494  26.509  1.00  0.00    -0.200 F 
ENDBRANCH  87 115
BRANCH 102 126
ATOM    126  C   UNL A   1      44.447  28.698  35.484  1.00  0.00     0.064 A 
ATOM    127  C   UNL A   1      45.731  29.139  35.136  1.00  0.00     0.173 A 
ATOM    128  C   UNL A   1      44.336  27.500  36.206  1.00  0.00     0.173 A 
ATOM    129  F   UNL A   1      45.890  30.270  34.432  1.00  0.00    -0.203 F 
ATOM    130  C   UNL A   1      46.859  28.399  35.481  1.00  0.00     0.198 A 
ATOM    131  C   UNL A   1      45.467  26.779  36.579  1.00  0.00     0.198 A 
ATOM    132  F   UNL A   1      43.130  27.037  36.570  1.00  0.00    -0.203 F 
ATOM    133  F   UNL A   1      48.075  28.816  35.100  1.00  0.00    -0.200 F 
ATOM    134  C   UNL A   1      46.727  27.226  36.211  1.00  0.00     0.200 A 
ATOM    135  F   UNL A   1      45.339  25.656  37.299  1.00  0.00    -0.200 F 
ATOM    136  F   UNL A   1      47.816  26.525  36.555  1.00  0.00    -0.200 F 
ENDBRANCH 102 126
ENDBRANCH  67  70
ENDBRANCH  57  60
ENDBRANCH  53  56
ENDBRANCH  50  53
ENDBRANCH  47  50
ENDBRANCH   1  47
TORSDOF 18
ENDMDL
