MODEL 1
REMARK VINA RESULT:     -11.0      0.000      0.000
REMARK SMILES O=C(/C=C/c1ccc(O)c(O)c1)NCCCCCCNC(=O)c1ccc(-c2c3nc(c(-c4c(F)c(F)c(F)c(F)c4F)c4ccc([nH]4)c(-c4c(F)c(F)c(F)c(F)c4F)c4nc(c(-c5c(F)c(F)c(F)c(F)c5F)c5ccc2[nH]5)C=C4)C=C3)cc1
REMARK SMILES IDX 16 1 15 4 14 7 13 10 1 11 2 12 3 14 4 15 5 18 6 19 12 20
REMARK SMILES IDX 7 21 10 23 8 25 11 27 9 29 17 31 18 34 19 37 20 40 21 41
REMARK SMILES IDX 22 43 23 44 24 45 85 46 25 47 84 49 26 51 27 54 28 55 78 56
REMARK SMILES IDX 29 57 83 58 77 59 79 60 30 61 82 62 76 64 75 66 31 68 63 71
REMARK SMILES IDX 43 72 62 73 44 74 47 75 61 76 80 77 45 78 46 80 60 82 81 83
REMARK SMILES IDX 48 86 32 88 33 89 41 90 34 91 35 92 39 93 42 94 36 95 37 96
REMARK SMILES IDX 40 97 38 98 64 99 65 100 73 101 66 102 67 103 71 104 74 105
REMARK SMILES IDX 68 106 69 107 72 108 70 109 49 110 50 111 58 112 51 113
REMARK SMILES IDX 52 114 56 115 59 116 53 117 54 118 57 119 55 120
REMARK H PARENT 16 2 16 3 15 5 15 6 14 8 14 9 13 13 3 16 4 17 6 22 12 24 7 26
REMARK H PARENT 11 28 9 30 17 32 17 33 18 35 18 36 19 38 19 39 20 42 24 48
REMARK H PARENT 85 50 25 52 84 53 83 63 77 65 79 67 82 69 76 70 44 79 47 81
REMARK H PARENT 80 84 45 85 81 87
REMARK Flexibility Score: inf
ROOT
ATOM      1  C   UNL A   1      41.853  21.445  27.338  1.00  0.00    -0.052 C 
ATOM      2  H   UNL A   1      42.766  21.821  27.752  1.00  0.00     0.027 H 
ATOM      3  H   UNL A   1      41.825  21.466  26.269  1.00  0.00     0.027 H 
ENDROOT
BRANCH   1   4
ATOM      4  C   UNL A   1      40.710  22.356  27.808  1.00  0.00    -0.036 C 
ATOM      5  H   UNL A   1      40.011  21.758  28.357  1.00  0.00     0.028 H 
ATOM      6  H   UNL A   1      41.160  23.125  28.400  1.00  0.00     0.028 H 
BRANCH   4   7
ATOM      7  C   UNL A   1      39.952  23.063  26.684  1.00  0.00     0.018 C 
ATOM      8  H   UNL A   1      39.617  24.017  27.035  1.00  0.00     0.049 H 
ATOM      9  H   UNL A   1      40.613  23.175  25.851  1.00  0.00     0.049 H 
BRANCH   7  10
ATOM     10  N   UNL A   1      38.804  22.292  26.251  1.00  0.00    -0.353 N 
ATOM     11  O   UNL A   1      37.561  24.077  25.524  1.00  0.00    -0.270 OA
ATOM     12  C   UNL A   1      37.671  22.879  25.759  1.00  0.00     0.243 C 
ATOM     13  H   UNL A   1      38.841  21.311  26.315  1.00  0.00     0.163 HD
BRANCH  12  14
ATOM     14  C   UNL A   1      36.518  21.980  25.495  1.00  0.00     0.003 C 
ATOM     15  C   UNL A   1      36.582  20.706  25.077  1.00  0.00    -0.049 C 
ATOM     16  H   UNL A   1      35.576  22.374  25.646  1.00  0.00     0.068 H 
ATOM     17  H   UNL A   1      37.501  20.313  24.819  1.00  0.00     0.063 H 
BRANCH  15  18
ATOM     18  C   UNL A   1      35.392  19.850  24.975  1.00  0.00    -0.022 A 
ATOM     19  C   UNL A   1      35.472  18.490  24.626  1.00  0.00    -0.051 A 
ATOM     20  C   UNL A   1      34.140  20.412  25.249  1.00  0.00    -0.009 A 
ATOM     21  C   UNL A   1      34.315  17.711  24.514  1.00  0.00    -0.016 A 
ATOM     22  H   UNL A   1      36.395  18.062  24.452  1.00  0.00     0.063 H 
ATOM     23  C   UNL A   1      32.997  19.633  25.133  1.00  0.00     0.157 A 
ATOM     24  H   UNL A   1      34.066  21.401  25.536  1.00  0.00     0.067 H 
ATOM     25  C   UNL A   1      33.080  18.294  24.762  1.00  0.00     0.157 A 
ATOM     26  H   UNL A   1      34.379  16.715  24.251  1.00  0.00     0.066 H 
BRANCH  23  27
ATOM     27  O   UNL A   1      31.779  20.200  25.378  1.00  0.00    -0.504 OA
ATOM     28  H   UNL A   1      31.421  20.822  24.776  1.00  0.00     0.293 HD
ENDBRANCH  23  27
BRANCH  25  29
ATOM     29  O   UNL A   1      31.911  17.593  24.652  1.00  0.00    -0.504 OA
ATOM     30  H   UNL A   1      31.436  17.598  23.844  1.00  0.00     0.293 HD
ENDBRANCH  25  29
ENDBRANCH  15  18
ENDBRANCH  12  14
ENDBRANCH   7  10
ENDBRANCH   4   7
ENDBRANCH   1   4
BRANCH   1  31
ATOM     31  C   UNL A   1      41.726  19.971  27.736  1.00  0.00    -0.052 C 
ATOM     32  H   UNL A   1      40.686  19.720  27.748  1.00  0.00     0.027 H 
ATOM     33  H   UNL A   1      42.199  19.881  28.691  1.00  0.00     0.027 H 
BRANCH  31  34
ATOM     34  C   UNL A   1      42.442  18.983  26.814  1.00  0.00    -0.036 C 
ATOM     35  H   UNL A   1      41.890  18.067  26.816  1.00  0.00     0.028 H 
ATOM     36  H   UNL A   1      43.435  18.880  27.198  1.00  0.00     0.028 H 
BRANCH  34  37
ATOM     37  C   UNL A   1      42.588  19.446  25.368  1.00  0.00     0.018 C 
ATOM     38  H   UNL A   1      42.698  20.510  25.358  1.00  0.00     0.049 H 
ATOM     39  H   UNL A   1      41.711  19.135  24.838  1.00  0.00     0.049 H 
BRANCH  37  40
ATOM     40  N   UNL A   1      43.738  18.851  24.703  1.00  0.00    -0.352 N 
ATOM     41  C   UNL A   1      44.896  19.452  24.271  1.00  0.00     0.251 C 
ATOM     42  H   UNL A   1      43.678  17.883  24.540  1.00  0.00     0.163 HD
ATOM     43  O   UNL A   1      45.700  18.831  23.583  1.00  0.00    -0.269 OA
BRANCH  41  44
ATOM     44  C   UNL A   1      45.159  20.866  24.614  1.00  0.00     0.039 A 
ATOM     45  C   UNL A   1      44.897  21.856  23.663  1.00  0.00    -0.049 A 
ATOM     46  C   UNL A   1      45.649  21.214  25.875  1.00  0.00    -0.049 A 
ATOM     47  C   UNL A   1      45.058  23.202  24.003  1.00  0.00    -0.053 A 
ATOM     48  H   UNL A   1      44.586  21.595  22.714  1.00  0.00     0.063 H 
ATOM     49  C   UNL A   1      45.739  22.555  26.235  1.00  0.00    -0.053 A 
ATOM     50  H   UNL A   1      45.943  20.479  26.538  1.00  0.00     0.063 H 
ATOM     51  C   UNL A   1      45.442  23.564  25.303  1.00  0.00    -0.014 A 
ATOM     52  H   UNL A   1      44.892  23.934  23.294  1.00  0.00     0.063 H 
ATOM     53  H   UNL A   1      46.026  22.811  27.192  1.00  0.00     0.063 H 
BRANCH  51  54
ATOM     54  C   UNL A   1      45.548  24.987  25.720  1.00  0.00     0.031 A 
ATOM     55  C   UNL A   1      46.882  25.682  25.680  1.00  0.00     0.074 A 
ATOM     56  C   UNL A   1      44.468  25.625  26.214  1.00  0.00     0.049 A 
ATOM     57  N   UNL A   1      47.211  26.870  26.121  1.00  0.00    -0.248 NA
ATOM     58  C   UNL A   1      48.002  24.931  25.093  1.00  0.00    -0.034 C 
ATOM     59  C   UNL A   1      43.126  25.052  26.337  1.00  0.00    -0.036 A 
ATOM     60  N   UNL A   1      44.332  26.893  26.726  1.00  0.00    -0.354 N 
ATOM     61  C   UNL A   1      48.575  26.994  25.891  1.00  0.00     0.074 A 
ATOM     62  C   UNL A   1      49.022  25.750  25.305  1.00  0.00    -0.034 C 
ATOM     63  H   UNL A   1      47.997  24.006  24.634  1.00  0.00     0.065 H 
ATOM     64  C   UNL A   1      42.304  25.964  26.879  1.00  0.00    -0.036 A 
ATOM     65  H   UNL A   1      42.856  24.097  26.052  1.00  0.00     0.065 H 
ATOM     66  C   UNL A   1      43.066  27.170  27.186  1.00  0.00     0.049 A 
ATOM     67  H   UNL A   1      45.072  27.541  26.763  1.00  0.00     0.167 HD
ATOM     68  C   UNL A   1      49.377  28.058  26.133  1.00  0.00     0.037 A 
ATOM     69  H   UNL A   1      50.006  25.529  25.083  1.00  0.00     0.065 H 
ATOM     70  H   UNL A   1      41.295  25.834  27.051  1.00  0.00     0.065 H 
ATOM     71  C   UNL A   1      42.582  28.267  27.803  1.00  0.00     0.037 A 
ATOM     72  C   UNL A   1      48.920  29.311  26.673  1.00  0.00     0.049 A 
ATOM     73  C   UNL A   1      43.505  29.430  28.064  1.00  0.00     0.074 A 
ATOM     74  C   UNL A   1      49.642  30.474  26.877  1.00  0.00    -0.036 A 
ATOM     75  N   UNL A   1      47.624  29.563  27.096  1.00  0.00    -0.354 N 
ATOM     76  N   UNL A   1      44.774  29.564  27.770  1.00  0.00    -0.248 NA
ATOM     77  C   UNL A   1      42.924  30.598  28.744  1.00  0.00    -0.034 C 
ATOM     78  C   UNL A   1      48.797  31.412  27.475  1.00  0.00    -0.036 A 
ATOM     79  H   UNL A   1      50.632  30.622  26.630  1.00  0.00     0.065 H 
ATOM     80  C   UNL A   1      47.534  30.856  27.587  1.00  0.00     0.049 A 
ATOM     81  H   UNL A   1      46.880  28.920  27.055  1.00  0.00     0.167 HD
ATOM     82  C   UNL A   1      45.130  30.840  28.185  1.00  0.00     0.074 A 
ATOM     83  C   UNL A   1      43.942  31.446  28.745  1.00  0.00    -0.034 C 
ATOM     84  H   UNL A   1      41.972  30.725  29.120  1.00  0.00     0.065 H 
ATOM     85  H   UNL A   1      49.069  32.360  27.782  1.00  0.00     0.065 H 
ATOM     86  C   UNL A   1      46.335  31.457  28.109  1.00  0.00     0.037 A 
ATOM     87  H   UNL A   1      43.894  32.413  29.100  1.00  0.00     0.065 H 
BRANCH  68  88
ATOM     88  C   UNL A   1      50.838  27.929  25.814  1.00  0.00     0.064 A 
ATOM     89  C   UNL A   1      51.782  27.598  26.796  1.00  0.00     0.173 A 
ATOM     90  C   UNL A   1      51.285  28.055  24.489  1.00  0.00     0.173 A 
ATOM     91  F   UNL A   1      51.407  27.475  28.079  1.00  0.00    -0.203 F 
ATOM     92  C   UNL A   1      53.121  27.409  26.467  1.00  0.00     0.198 A 
ATOM     93  C   UNL A   1      52.619  27.836  24.159  1.00  0.00     0.198 A 
ATOM     94  F   UNL A   1      50.421  28.364  23.511  1.00  0.00    -0.203 F 
ATOM     95  F   UNL A   1      54.011  27.122  27.427  1.00  0.00    -0.200 F 
ATOM     96  C   UNL A   1      53.536  27.517  25.148  1.00  0.00     0.200 A 
ATOM     97  F   UNL A   1      53.015  27.925  22.882  1.00  0.00    -0.200 F 
ATOM     98  F   UNL A   1      54.822  27.313  24.830  1.00  0.00    -0.200 F 
ENDBRANCH  68  88
BRANCH  71  99
ATOM     99  C   UNL A   1      41.156  28.331  28.222  1.00  0.00     0.064 A 
ATOM    100  C   UNL A   1      40.181  28.881  27.377  1.00  0.00     0.173 A 
ATOM    101  C   UNL A   1      40.746  27.899  29.493  1.00  0.00     0.173 A 
ATOM    102  F   UNL A   1      40.525  29.329  26.161  1.00  0.00    -0.203 F 
ATOM    103  C   UNL A   1      38.862  29.035  27.800  1.00  0.00     0.198 A 
ATOM    104  C   UNL A   1      39.419  28.022  29.902  1.00  0.00     0.198 A 
ATOM    105  F   UNL A   1      41.635  27.363  30.340  1.00  0.00    -0.203 F 
ATOM    106  F   UNL A   1      37.968  29.629  26.998  1.00  0.00    -0.200 F 
ATOM    107  C   UNL A   1      38.481  28.603  29.061  1.00  0.00     0.200 A 
ATOM    108  F   UNL A   1      39.052  27.590  31.115  1.00  0.00    -0.200 F 
ATOM    109  F   UNL A   1      37.216  28.760  29.472  1.00  0.00    -0.200 F 
ENDBRANCH  71  99
BRANCH  86 110
ATOM    110  C   UNL A   1      46.421  32.880  28.578  1.00  0.00     0.064 A 
ATOM    111  C   UNL A   1      46.770  33.207  29.895  1.00  0.00     0.173 A 
ATOM    112  C   UNL A   1      46.206  33.933  27.674  1.00  0.00     0.173 A 
ATOM    113  F   UNL A   1      46.971  32.238  30.801  1.00  0.00    -0.203 F 
ATOM    114  C   UNL A   1      46.882  34.535  30.296  1.00  0.00     0.198 A 
ATOM    115  C   UNL A   1      46.351  35.258  28.070  1.00  0.00     0.198 A 
ATOM    116  F   UNL A   1      45.876  33.674  26.398  1.00  0.00    -0.203 F 
ATOM    117  F   UNL A   1      47.175  34.826  31.571  1.00  0.00    -0.200 F 
ATOM    118  C   UNL A   1      46.682  35.559  29.381  1.00  0.00     0.200 A 
ATOM    119  F   UNL A   1      46.175  36.246  27.179  1.00  0.00    -0.200 F 
ATOM    120  F   UNL A   1      46.806  36.837  29.766  1.00  0.00    -0.200 F 
ENDBRANCH  86 110
ENDBRANCH  51  54
ENDBRANCH  41  44
ENDBRANCH  37  40
ENDBRANCH  34  37
ENDBRANCH  31  34
ENDBRANCH   1  31
TORSDOF 16
ENDMDL
MODEL 2
REMARK VINA RESULT:     -11.0      7.007     12.079
REMARK SMILES O=C(/C=C/c1ccc(O)c(O)c1)NCCCCCCNC(=O)c1ccc(-c2c3nc(c(-c4c(F)c(F)c(F)c(F)c4F)c4ccc([nH]4)c(-c4c(F)c(F)c(F)c(F)c4F)c4nc(c(-c5c(F)c(F)c(F)c(F)c5F)c5ccc2[nH]5)C=C4)C=C3)cc1
REMARK SMILES IDX 16 1 15 4 14 7 13 10 1 11 2 12 3 14 4 15 5 18 6 19 12 20
REMARK SMILES IDX 7 21 10 23 8 25 11 27 9 29 17 31 18 34 19 37 20 40 21 41
REMARK SMILES IDX 22 43 23 44 24 45 85 46 25 47 84 49 26 51 27 54 28 55 78 56
REMARK SMILES IDX 29 57 83 58 77 59 79 60 30 61 82 62 76 64 75 66 31 68 63 71
REMARK SMILES IDX 43 72 62 73 44 74 47 75 61 76 80 77 45 78 46 80 60 82 81 83
REMARK SMILES IDX 48 86 32 88 33 89 41 90 34 91 35 92 39 93 42 94 36 95 37 96
REMARK SMILES IDX 40 97 38 98 64 99 65 100 73 101 66 102 67 103 71 104 74 105
REMARK SMILES IDX 68 106 69 107 72 108 70 109 49 110 50 111 58 112 51 113
REMARK SMILES IDX 52 114 56 115 59 116 53 117 54 118 57 119 55 120
REMARK H PARENT 16 2 16 3 15 5 15 6 14 8 14 9 13 13 3 16 4 17 6 22 12 24 7 26
REMARK H PARENT 11 28 9 30 17 32 17 33 18 35 18 36 19 38 19 39 20 42 24 48
REMARK H PARENT 85 50 25 52 84 53 83 63 77 65 79 67 82 69 76 70 44 79 47 81
REMARK H PARENT 80 84 45 85 81 87
REMARK Flexibility Score: inf
ROOT
ATOM      1  C   UNL A   1      33.118  27.158  26.111  1.00  0.00    -0.052 C 
ATOM      2  H   UNL A   1      33.088  27.744  25.216  1.00  0.00     0.027 H 
ATOM      3  H   UNL A   1      34.077  27.143  26.583  1.00  0.00     0.027 H 
ENDROOT
BRANCH   1   4
ATOM      4  C   UNL A   1      32.809  25.702  25.733  1.00  0.00    -0.036 C 
ATOM      5  H   UNL A   1      33.708  25.131  25.845  1.00  0.00     0.028 H 
ATOM      6  H   UNL A   1      32.023  25.381  26.383  1.00  0.00     0.028 H 
BRANCH   4   7
ATOM      7  C   UNL A   1      32.298  25.508  24.305  1.00  0.00     0.018 C 
ATOM      8  H   UNL A   1      33.133  25.362  23.652  1.00  0.00     0.049 H 
ATOM      9  H   UNL A   1      31.652  24.655  24.292  1.00  0.00     0.049 H 
BRANCH   7  10
ATOM     10  N   UNL A   1      31.541  26.657  23.851  1.00  0.00    -0.353 N 
ATOM     11  O   UNL A   1      29.554  26.051  24.821  1.00  0.00    -0.270 OA
ATOM     12  C   UNL A   1      30.204  26.799  24.100  1.00  0.00     0.243 C 
ATOM     13  H   UNL A   1      32.007  27.360  23.343  1.00  0.00     0.163 HD
BRANCH  12  14
ATOM     14  C   UNL A   1      29.525  27.949  23.449  1.00  0.00     0.003 C 
ATOM     15  C   UNL A   1      29.821  29.248  23.619  1.00  0.00    -0.049 C 
ATOM     16  H   UNL A   1      28.751  27.728  22.803  1.00  0.00     0.068 H 
ATOM     17  H   UNL A   1      30.520  29.509  24.332  1.00  0.00     0.063 H 
BRANCH  15  18
ATOM     18  C   UNL A   1      29.186  30.310  22.826  1.00  0.00    -0.022 A 
ATOM     19  C   UNL A   1      28.602  30.064  21.571  1.00  0.00    -0.051 A 
ATOM     20  C   UNL A   1      29.153  31.607  23.353  1.00  0.00    -0.009 A 
ATOM     21  C   UNL A   1      28.028  31.106  20.833  1.00  0.00    -0.016 A 
ATOM     22  H   UNL A   1      28.596  29.105  21.191  1.00  0.00     0.063 H 
ATOM     23  C   UNL A   1      28.584  32.634  22.613  1.00  0.00     0.157 A 
ATOM     24  H   UNL A   1      29.550  31.798  24.287  1.00  0.00     0.067 H 
ATOM     25  C   UNL A   1      28.031  32.390  21.359  1.00  0.00     0.157 A 
ATOM     26  H   UNL A   1      27.607  30.920  19.909  1.00  0.00     0.066 H 
BRANCH  23  27
ATOM     27  O   UNL A   1      28.581  33.900  23.126  1.00  0.00    -0.504 OA
ATOM     28  H   UNL A   1      28.133  34.079  23.929  1.00  0.00     0.293 HD
ENDBRANCH  23  27
BRANCH  25  29
ATOM     29  O   UNL A   1      27.503  33.454  20.681  1.00  0.00    -0.504 OA
ATOM     30  H   UNL A   1      27.439  34.290  21.099  1.00  0.00     0.293 HD
ENDBRANCH  25  29
ENDBRANCH  15  18
ENDBRANCH  12  14
ENDBRANCH   7  10
ENDBRANCH   4   7
ENDBRANCH   1   4
BRANCH   1  31
ATOM     31  C   UNL A   1      32.158  27.792  27.123  1.00  0.00    -0.052 C 
ATOM     32  H   UNL A   1      32.620  27.753  28.086  1.00  0.00     0.027 H 
ATOM     33  H   UNL A   1      31.249  27.231  27.060  1.00  0.00     0.027 H 
BRANCH  31  34
ATOM     34  C   UNL A   1      31.778  29.246  26.837  1.00  0.00    -0.036 C 
ATOM     35  H   UNL A   1      31.522  29.711  27.767  1.00  0.00     0.028 H 
ATOM     36  H   UNL A   1      30.965  29.213  26.143  1.00  0.00     0.028 H 
BRANCH  34  37
ATOM     37  C   UNL A   1      32.872  30.077  26.177  1.00  0.00     0.018 C 
ATOM     38  H   UNL A   1      32.792  29.969  25.116  1.00  0.00     0.049 H 
ATOM     39  H   UNL A   1      33.814  29.720  26.539  1.00  0.00     0.049 H 
BRANCH  37  40
ATOM     40  N   UNL A   1      32.780  31.491  26.510  1.00  0.00    -0.352 N 
ATOM     41  C   UNL A   1      33.551  32.230  27.375  1.00  0.00     0.251 C 
ATOM     42  H   UNL A   1      32.065  31.988  26.052  1.00  0.00     0.163 HD
ATOM     43  O   UNL A   1      33.236  33.381  27.661  1.00  0.00    -0.269 OA
BRANCH  41  44
ATOM     44  C   UNL A   1      34.752  31.623  27.986  1.00  0.00     0.039 A 
ATOM     45  C   UNL A   1      35.903  32.400  28.140  1.00  0.00    -0.049 A 
ATOM     46  C   UNL A   1      34.738  30.294  28.418  1.00  0.00    -0.049 A 
ATOM     47  C   UNL A   1      37.017  31.867  28.795  1.00  0.00    -0.053 A 
ATOM     48  H   UNL A   1      35.931  33.364  27.773  1.00  0.00     0.063 H 
ATOM     49  C   UNL A   1      35.820  29.788  29.133  1.00  0.00    -0.053 A 
ATOM     50  H   UNL A   1      33.928  29.690  28.208  1.00  0.00     0.063 H 
ATOM     51  C   UNL A   1      36.971  30.570  29.330  1.00  0.00    -0.014 A 
ATOM     52  H   UNL A   1      37.878  32.429  28.885  1.00  0.00     0.063 H 
ATOM     53  H   UNL A   1      35.777  28.833  29.520  1.00  0.00     0.063 H 
BRANCH  51  54
ATOM     54  C   UNL A   1      38.108  30.001  30.099  1.00  0.00     0.031 A 
ATOM     55  C   UNL A   1      38.359  30.454  31.512  1.00  0.00     0.074 A 
ATOM     56  C   UNL A   1      38.964  29.147  29.502  1.00  0.00     0.049 A 
ATOM     57  N   UNL A   1      39.365  30.181  32.304  1.00  0.00    -0.248 NA
ATOM     58  C   UNL A   1      37.359  31.357  32.104  1.00  0.00    -0.034 C 
ATOM     59  C   UNL A   1      38.852  28.657  28.127  1.00  0.00    -0.036 A 
ATOM     60  N   UNL A   1      40.112  28.555  29.969  1.00  0.00    -0.354 N 
ATOM     61  C   UNL A   1      39.133  30.899  33.470  1.00  0.00     0.074 A 
ATOM     62  C   UNL A   1      37.912  31.648  33.273  1.00  0.00    -0.034 C 
ATOM     63  H   UNL A   1      36.460  31.679  31.713  1.00  0.00     0.065 H 
ATOM     64  C   UNL A   1      39.881  27.835  27.865  1.00  0.00    -0.036 A 
ATOM     65  H   UNL A   1      38.101  28.905  27.463  1.00  0.00     0.065 H 
ATOM     66  C   UNL A   1      40.751  27.774  29.035  1.00  0.00     0.049 A 
ATOM     67  H   UNL A   1      40.448  28.680  30.887  1.00  0.00     0.167 HD
ATOM     68  C   UNL A   1      39.867  30.918  34.608  1.00  0.00     0.037 A 
ATOM     69  H   UNL A   1      37.523  32.321  33.953  1.00  0.00     0.065 H 
ATOM     70  H   UNL A   1      40.031  27.327  26.979  1.00  0.00     0.065 H 
ATOM     71  C   UNL A   1      41.918  27.102  29.109  1.00  0.00     0.037 A 
ATOM     72  C   UNL A   1      41.056  30.135  34.818  1.00  0.00     0.049 A 
ATOM     73  C   UNL A   1      42.714  27.151  30.388  1.00  0.00     0.074 A 
ATOM     74  C   UNL A   1      41.821  30.025  35.966  1.00  0.00    -0.036 A 
ATOM     75  N   UNL A   1      41.654  29.332  33.859  1.00  0.00    -0.354 N 
ATOM     76  N   UNL A   1      42.443  27.771  31.510  1.00  0.00    -0.248 NA
ATOM     77  C   UNL A   1      43.980  26.402  30.411  1.00  0.00    -0.034 C 
ATOM     78  C   UNL A   1      42.913  29.199  35.685  1.00  0.00    -0.036 A 
ATOM     79  H   UNL A   1      41.620  30.474  36.872  1.00  0.00     0.065 H 
ATOM     80  C   UNL A   1      42.794  28.745  34.381  1.00  0.00     0.049 A 
ATOM     81  H   UNL A   1      41.318  29.200  32.943  1.00  0.00     0.167 HD
ATOM     82  C   UNL A   1      43.476  27.452  32.382  1.00  0.00     0.074 A 
ATOM     83  C   UNL A   1      44.376  26.577  31.663  1.00  0.00    -0.034 C 
ATOM     84  H   UNL A   1      44.439  25.878  29.651  1.00  0.00     0.065 H 
ATOM     85  H   UNL A   1      43.678  28.967  36.338  1.00  0.00     0.065 H 
ATOM     86  C   UNL A   1      43.662  27.848  33.664  1.00  0.00     0.037 A 
ATOM     87  H   UNL A   1      45.218  26.145  32.073  1.00  0.00     0.065 H 
BRANCH  68  88
ATOM     88  C   UNL A   1      39.412  31.806  35.729  1.00  0.00     0.064 A 
ATOM     89  C   UNL A   1      39.839  33.137  35.836  1.00  0.00     0.173 A 
ATOM     90  C   UNL A   1      38.467  31.342  36.658  1.00  0.00     0.173 A 
ATOM     91  F   UNL A   1      40.748  33.626  34.979  1.00  0.00    -0.203 F 
ATOM     92  C   UNL A   1      39.347  33.967  36.840  1.00  0.00     0.198 A 
ATOM     93  C   UNL A   1      37.955  32.184  37.641  1.00  0.00     0.198 A 
ATOM     94  F   UNL A   1      38.021  30.078  36.595  1.00  0.00    -0.203 F 
ATOM     95  F   UNL A   1      39.792  35.227  36.942  1.00  0.00    -0.200 F 
ATOM     96  C   UNL A   1      38.398  33.494  37.733  1.00  0.00     0.200 A 
ATOM     97  F   UNL A   1      37.027  31.729  38.493  1.00  0.00    -0.200 F 
ATOM     98  F   UNL A   1      37.909  34.302  38.685  1.00  0.00    -0.200 F 
ENDBRANCH  68  88
BRANCH  71  99
ATOM     99  C   UNL A   1      42.416  26.322  27.944  1.00  0.00     0.064 A 
ATOM    100  C   UNL A   1      43.323  26.887  27.034  1.00  0.00     0.173 A 
ATOM    101  C   UNL A   1      41.959  25.021  27.684  1.00  0.00     0.173 A 
ATOM    102  F   UNL A   1      43.773  28.135  27.226  1.00  0.00    -0.203 F 
ATOM    103  C   UNL A   1      43.719  26.199  25.889  1.00  0.00     0.198 A 
ATOM    104  C   UNL A   1      42.384  24.321  26.556  1.00  0.00     0.198 A 
ATOM    105  F   UNL A   1      41.096  24.432  28.522  1.00  0.00    -0.203 F 
ATOM    106  F   UNL A   1      44.529  26.791  25.001  1.00  0.00    -0.200 F 
ATOM    107  C   UNL A   1      43.251  24.915  25.651  1.00  0.00     0.200 A 
ATOM    108  F   UNL A   1      41.941  23.076  26.338  1.00  0.00    -0.200 F 
ATOM    109  F   UNL A   1      43.624  24.258  24.546  1.00  0.00    -0.200 F 
ENDBRANCH  71  99
BRANCH  86 110
ATOM    110  C   UNL A   1      44.844  27.290  34.402  1.00  0.00     0.064 A 
ATOM    111  C   UNL A   1      44.780  26.073  35.093  1.00  0.00     0.173 A 
ATOM    112  C   UNL A   1      46.077  27.961  34.364  1.00  0.00     0.173 A 
ATOM    113  F   UNL A   1      43.621  25.401  35.171  1.00  0.00    -0.203 F 
ATOM    114  C   UNL A   1      45.901  25.556  35.737  1.00  0.00     0.198 A 
ATOM    115  C   UNL A   1      47.204  27.426  34.980  1.00  0.00     0.198 A 
ATOM    116  F   UNL A   1      46.194  29.127  33.710  1.00  0.00    -0.203 F 
ATOM    117  F   UNL A   1      45.807  24.413  36.428  1.00  0.00    -0.200 F 
ATOM    118  C   UNL A   1      47.114  26.228  35.671  1.00  0.00     0.200 A 
ATOM    119  F   UNL A   1      48.378  28.067  34.901  1.00  0.00    -0.200 F 
ATOM    120  F   UNL A   1      48.196  25.721  36.278  1.00  0.00    -0.200 F 
ENDBRANCH  86 110
ENDBRANCH  51  54
ENDBRANCH  41  44
ENDBRANCH  37  40
ENDBRANCH  34  37
ENDBRANCH  31  34
ENDBRANCH   1  31
TORSDOF 16
ENDMDL
MODEL 3
REMARK VINA RESULT:     -11.0      7.552     11.970
REMARK SMILES O=C(/C=C/c1ccc(O)c(O)c1)NCCCCCCNC(=O)c1ccc(-c2c3nc(c(-c4c(F)c(F)c(F)c(F)c4F)c4ccc([nH]4)c(-c4c(F)c(F)c(F)c(F)c4F)c4nc(c(-c5c(F)c(F)c(F)c(F)c5F)c5ccc2[nH]5)C=C4)C=C3)cc1
REMARK SMILES IDX 16 1 15 4 14 7 13 10 1 11 2 12 3 14 4 15 5 18 6 19 12 20
REMARK SMILES IDX 7 21 10 23 8 25 11 27 9 29 17 31 18 34 19 37 20 40 21 41
REMARK SMILES IDX 22 43 23 44 24 45 85 46 25 47 84 49 26 51 27 54 28 55 78 56
REMARK SMILES IDX 29 57 83 58 77 59 79 60 30 61 82 62 76 64 75 66 31 68 63 71
REMARK SMILES IDX 43 72 62 73 44 74 47 75 61 76 80 77 45 78 46 80 60 82 81 83
REMARK SMILES IDX 48 86 32 88 33 89 41 90 34 91 35 92 39 93 42 94 36 95 37 96
REMARK SMILES IDX 40 97 38 98 64 99 65 100 73 101 66 102 67 103 71 104 74 105
REMARK SMILES IDX 68 106 69 107 72 108 70 109 49 110 50 111 58 112 51 113
REMARK SMILES IDX 52 114 56 115 59 116 53 117 54 118 57 119 55 120
REMARK H PARENT 16 2 16 3 15 5 15 6 14 8 14 9 13 13 3 16 4 17 6 22 12 24 7 26
REMARK H PARENT 11 28 9 30 17 32 17 33 18 35 18 36 19 38 19 39 20 42 24 48
REMARK H PARENT 85 50 25 52 84 53 83 63 77 65 79 67 82 69 76 70 44 79 47 81
REMARK H PARENT 80 84 45 85 81 87
REMARK Flexibility Score: inf
ROOT
ATOM      1  C   UNL A   1      33.375  29.429  26.527  1.00  0.00    -0.052 C 
ATOM      2  H   UNL A   1      33.343  29.690  25.489  1.00  0.00     0.027 H 
ATOM      3  H   UNL A   1      34.184  29.882  27.060  1.00  0.00     0.027 H 
ENDROOT
BRANCH   1   4
ATOM      4  C   UNL A   1      33.601  27.913  26.626  1.00  0.00    -0.036 C 
ATOM      5  H   UNL A   1      34.512  27.678  26.115  1.00  0.00     0.028 H 
ATOM      6  H   UNL A   1      33.632  27.679  27.669  1.00  0.00     0.028 H 
BRANCH   4   7
ATOM      7  C   UNL A   1      32.484  27.060  26.023  1.00  0.00     0.018 C 
ATOM      8  H   UNL A   1      32.920  26.286  25.426  1.00  0.00     0.049 H 
ATOM      9  H   UNL A   1      31.910  26.644  26.824  1.00  0.00     0.049 H 
BRANCH   7  10
ATOM     10  N   UNL A   1      31.600  27.852  25.194  1.00  0.00    -0.353 N 
ATOM     11  O   UNL A   1      32.220  26.913  23.195  1.00  0.00    -0.270 OA
ATOM     12  C   UNL A   1      31.588  27.751  23.830  1.00  0.00     0.243 C 
ATOM     13  H   UNL A   1      30.985  28.487  25.627  1.00  0.00     0.163 HD
BRANCH  12  14
ATOM     14  C   UNL A   1      30.741  28.727  23.097  1.00  0.00     0.003 C 
ATOM     15  C   UNL A   1      29.920  29.637  23.646  1.00  0.00    -0.049 C 
ATOM     16  H   UNL A   1      30.786  28.702  22.067  1.00  0.00     0.068 H 
ATOM     17  H   UNL A   1      29.774  29.622  24.668  1.00  0.00     0.063 H 
BRANCH  15  18
ATOM     18  C   UNL A   1      29.225  30.655  22.846  1.00  0.00    -0.022 A 
ATOM     19  C   UNL A   1      28.662  30.366  21.591  1.00  0.00    -0.051 A 
ATOM     20  C   UNL A   1      29.113  31.950  23.364  1.00  0.00    -0.009 A 
ATOM     21  C   UNL A   1      28.028  31.367  20.844  1.00  0.00    -0.016 A 
ATOM     22  H   UNL A   1      28.715  29.407  21.216  1.00  0.00     0.063 H 
ATOM     23  C   UNL A   1      28.485  32.936  22.617  1.00  0.00     0.157 A 
ATOM     24  H   UNL A   1      29.494  32.170  24.298  1.00  0.00     0.067 H 
ATOM     25  C   UNL A   1      27.952  32.652  21.363  1.00  0.00     0.157 A 
ATOM     26  H   UNL A   1      27.622  31.152  19.920  1.00  0.00     0.066 H 
BRANCH  23  27
ATOM     27  O   UNL A   1      28.404  34.203  23.122  1.00  0.00    -0.504 OA
ATOM     28  H   UNL A   1      27.775  34.805  22.779  1.00  0.00     0.293 HD
ENDBRANCH  23  27
BRANCH  25  29
ATOM     29  O   UNL A   1      27.363  33.678  20.677  1.00  0.00    -0.504 OA
ATOM     30  H   UNL A   1      27.078  34.445  21.134  1.00  0.00     0.293 HD
ENDBRANCH  25  29
ENDBRANCH  15  18
ENDBRANCH  12  14
ENDBRANCH   7  10
ENDBRANCH   4   7
ENDBRANCH   1   4
BRANCH   1  31
ATOM     31  C   UNL A   1      32.092  29.946  27.184  1.00  0.00    -0.052 C 
ATOM     32  H   UNL A   1      32.200  29.849  28.243  1.00  0.00     0.027 H 
ATOM     33  H   UNL A   1      31.294  29.358  26.779  1.00  0.00     0.027 H 
BRANCH  31  34
ATOM     34  C   UNL A   1      31.743  31.403  26.875  1.00  0.00    -0.036 C 
ATOM     35  H   UNL A   1      31.043  31.740  27.609  1.00  0.00     0.028 H 
ATOM     36  H   UNL A   1      31.351  31.413  25.879  1.00  0.00     0.028 H 
BRANCH  34  37
ATOM     37  C   UNL A   1      32.930  32.360  26.876  1.00  0.00     0.018 C 
ATOM     38  H   UNL A   1      33.323  32.421  25.883  1.00  0.00     0.049 H 
ATOM     39  H   UNL A   1      33.655  31.978  27.564  1.00  0.00     0.049 H 
BRANCH  37  40
ATOM     40  N   UNL A   1      32.568  33.700  27.317  1.00  0.00    -0.352 N 
ATOM     41  C   UNL A   1      33.060  34.426  28.375  1.00  0.00     0.251 C 
ATOM     42  H   UNL A   1      31.873  34.148  26.783  1.00  0.00     0.163 HD
ATOM     43  O   UNL A   1      32.529  35.483  28.704  1.00  0.00    -0.269 OA
BRANCH  41  44
ATOM     44  C   UNL A   1      34.218  33.916  29.138  1.00  0.00     0.039 A 
ATOM     45  C   UNL A   1      34.023  32.885  30.061  1.00  0.00    -0.049 A 
ATOM     46  C   UNL A   1      35.495  34.444  28.933  1.00  0.00    -0.049 A 
ATOM     47  C   UNL A   1      35.121  32.333  30.726  1.00  0.00    -0.053 A 
ATOM     48  H   UNL A   1      33.072  32.532  30.252  1.00  0.00     0.063 H 
ATOM     49  C   UNL A   1      36.596  33.846  29.541  1.00  0.00    -0.053 A 
ATOM     50  H   UNL A   1      35.622  35.274  28.334  1.00  0.00     0.063 H 
ATOM     51  C   UNL A   1      36.420  32.782  30.442  1.00  0.00    -0.014 A 
ATOM     52  H   UNL A   1      34.977  31.591  31.428  1.00  0.00     0.063 H 
ATOM     53  H   UNL A   1      37.546  34.186  29.328  1.00  0.00     0.063 H 
BRANCH  51  54
ATOM     54  C   UNL A   1      37.616  32.165  31.073  1.00  0.00     0.031 A 
ATOM     55  C   UNL A   1      38.393  31.111  30.332  1.00  0.00     0.074 A 
ATOM     56  C   UNL A   1      37.951  32.486  32.339  1.00  0.00     0.049 A 
ATOM     57  N   UNL A   1      39.381  30.359  30.751  1.00  0.00    -0.248 NA
ATOM     58  C   UNL A   1      37.989  30.844  28.942  1.00  0.00    -0.034 C 
ATOM     59  C   UNL A   1      37.258  33.467  33.176  1.00  0.00    -0.036 A 
ATOM     60  N   UNL A   1      38.948  32.004  33.152  1.00  0.00    -0.354 N 
ATOM     61  C   UNL A   1      39.692  29.518  29.692  1.00  0.00     0.074 A 
ATOM     62  C   UNL A   1      38.769  29.822  28.622  1.00  0.00    -0.034 C 
ATOM     63  H   UNL A   1      37.282  31.328  28.366  1.00  0.00     0.065 H 
ATOM     64  C   UNL A   1      37.855  33.521  34.378  1.00  0.00    -0.036 A 
ATOM     65  H   UNL A   1      36.441  34.027  32.889  1.00  0.00     0.065 H 
ATOM     66  C   UNL A   1      38.942  32.548  34.415  1.00  0.00     0.049 A 
ATOM     67  H   UNL A   1      39.605  31.332  32.859  1.00  0.00     0.167 HD
ATOM     68  C   UNL A   1      40.672  28.586  29.615  1.00  0.00     0.037 A 
ATOM     69  H   UNL A   1      38.722  29.310  27.726  1.00  0.00     0.065 H 
ATOM     70  H   UNL A   1      37.588  34.150  35.151  1.00  0.00     0.065 H 
ATOM     71  C   UNL A   1      39.714  32.276  35.487  1.00  0.00     0.037 A 
ATOM     72  C   UNL A   1      41.618  28.319  30.665  1.00  0.00     0.049 A 
ATOM     73  C   UNL A   1      40.790  31.227  35.369  1.00  0.00     0.074 A 
ATOM     74  C   UNL A   1      42.697  27.452  30.650  1.00  0.00    -0.036 A 
ATOM     75  N   UNL A   1      41.599  28.912  31.918  1.00  0.00    -0.354 N 
ATOM     76  N   UNL A   1      41.124  30.494  34.337  1.00  0.00    -0.248 NA
ATOM     77  C   UNL A   1      41.599  30.969  36.571  1.00  0.00    -0.034 C 
ATOM     78  C   UNL A   1      43.297  27.479  31.912  1.00  0.00    -0.036 A 
ATOM     79  H   UNL A   1      43.005  26.884  29.846  1.00  0.00     0.065 H 
ATOM     80  C   UNL A   1      42.630  28.409  32.693  1.00  0.00     0.049 A 
ATOM     81  H   UNL A   1      40.948  29.590  32.212  1.00  0.00     0.167 HD
ATOM     82  C   UNL A   1      42.205  29.725  34.748  1.00  0.00     0.074 A 
ATOM     83  C   UNL A   1      42.477  30.085  36.122  1.00  0.00    -0.034 C 
ATOM     84  H   UNL A   1      41.506  31.372  37.516  1.00  0.00     0.065 H 
ATOM     85  H   UNL A   1      44.100  26.904  32.211  1.00  0.00     0.065 H 
ATOM     86  C   UNL A   1      42.911  28.803  34.049  1.00  0.00     0.037 A 
ATOM     87  H   UNL A   1      43.255  29.702  36.681  1.00  0.00     0.065 H 
BRANCH  68  88
ATOM     88  C   UNL A   1      40.785  27.781  28.354  1.00  0.00     0.064 A 
ATOM     89  C   UNL A   1      41.576  28.204  27.276  1.00  0.00     0.173 A 
ATOM     90  C   UNL A   1      40.162  26.527  28.259  1.00  0.00     0.173 A 
ATOM     91  F   UNL A   1      42.184  29.399  27.314  1.00  0.00    -0.203 F 
ATOM     92  C   UNL A   1      41.728  27.408  26.145  1.00  0.00     0.198 A 
ATOM     93  C   UNL A   1      40.342  25.720  27.139  1.00  0.00     0.198 A 
ATOM     94  F   UNL A   1      39.401  26.072  29.266  1.00  0.00    -0.203 F 
ATOM     95  F   UNL A   1      42.464  27.846  25.114  1.00  0.00    -0.200 F 
ATOM     96  C   UNL A   1      41.121  26.163  26.082  1.00  0.00     0.200 A 
ATOM     97  F   UNL A   1      39.768  24.511  27.087  1.00  0.00    -0.200 F 
ATOM     98  F   UNL A   1      41.288  25.388  25.001  1.00  0.00    -0.200 F 
ENDBRANCH  68  88
BRANCH  71  99
ATOM     99  C   UNL A   1      39.508  33.000  36.770  1.00  0.00     0.064 A 
ATOM    100  C   UNL A   1      38.531  32.579  37.686  1.00  0.00     0.173 A 
ATOM    101  C   UNL A   1      40.239  34.155  37.086  1.00  0.00     0.173 A 
ATOM    102  F   UNL A   1      37.791  31.494  37.421  1.00  0.00    -0.203 F 
ATOM    103  C   UNL A   1      38.266  33.308  38.844  1.00  0.00     0.198 A 
ATOM    104  C   UNL A   1      39.996  34.863  38.261  1.00  0.00     0.198 A 
ATOM    105  F   UNL A   1      41.187  34.600  36.249  1.00  0.00    -0.203 F 
ATOM    106  F   UNL A   1      37.279  32.922  39.664  1.00  0.00    -0.200 F 
ATOM    107  C   UNL A   1      39.000  34.448  39.132  1.00  0.00     0.200 A 
ATOM    108  F   UNL A   1      40.718  35.956  38.543  1.00  0.00    -0.200 F 
ATOM    109  F   UNL A   1      38.738  35.154  40.240  1.00  0.00    -0.200 F 
ENDBRANCH  71  99
BRANCH  86 110
ATOM    110  C   UNL A   1      44.087  28.164  34.727  1.00  0.00     0.064 A 
ATOM    111  C   UNL A   1      45.361  28.748  34.708  1.00  0.00     0.173 A 
ATOM    112  C   UNL A   1      43.919  26.976  35.457  1.00  0.00     0.173 A 
ATOM    113  F   UNL A   1      45.577  29.875  34.012  1.00  0.00    -0.203 F 
ATOM    114  C   UNL A   1      46.429  28.157  35.378  1.00  0.00     0.198 A 
ATOM    115  C   UNL A   1      44.980  26.406  36.153  1.00  0.00     0.198 A 
ATOM    116  F   UNL A   1      42.717  26.381  35.513  1.00  0.00    -0.203 F 
ATOM    117  F   UNL A   1      47.648  28.708  35.310  1.00  0.00    -0.200 F 
ATOM    118  C   UNL A   1      46.235  26.992  36.107  1.00  0.00     0.200 A 
ATOM    119  F   UNL A   1      44.787  25.290  36.871  1.00  0.00    -0.200 F 
ATOM    120  F   UNL A   1      47.260  26.433  36.764  1.00  0.00    -0.200 F 
ENDBRANCH  86 110
ENDBRANCH  51  54
ENDBRANCH  41  44
ENDBRANCH  37  40
ENDBRANCH  34  37
ENDBRANCH  31  34
ENDBRANCH   1  31
TORSDOF 16
ENDMDL
MODEL 4
REMARK VINA RESULT:     -11.0      8.040     13.433
REMARK SMILES O=C(/C=C/c1ccc(O)c(O)c1)NCCCCCCNC(=O)c1ccc(-c2c3nc(c(-c4c(F)c(F)c(F)c(F)c4F)c4ccc([nH]4)c(-c4c(F)c(F)c(F)c(F)c4F)c4nc(c(-c5c(F)c(F)c(F)c(F)c5F)c5ccc2[nH]5)C=C4)C=C3)cc1
REMARK SMILES IDX 16 1 15 4 14 7 13 10 1 11 2 12 3 14 4 15 5 18 6 19 12 20
REMARK SMILES IDX 7 21 10 23 8 25 11 27 9 29 17 31 18 34 19 37 20 40 21 41
REMARK SMILES IDX 22 43 23 44 24 45 85 46 25 47 84 49 26 51 27 54 28 55 78 56
REMARK SMILES IDX 29 57 83 58 77 59 79 60 30 61 82 62 76 64 75 66 31 68 63 71
REMARK SMILES IDX 43 72 62 73 44 74 47 75 61 76 80 77 45 78 46 80 60 82 81 83
REMARK SMILES IDX 48 86 32 88 33 89 41 90 34 91 35 92 39 93 42 94 36 95 37 96
REMARK SMILES IDX 40 97 38 98 64 99 65 100 73 101 66 102 67 103 71 104 74 105
REMARK SMILES IDX 68 106 69 107 72 108 70 109 49 110 50 111 58 112 51 113
REMARK SMILES IDX 52 114 56 115 59 116 53 117 54 118 57 119 55 120
REMARK H PARENT 16 2 16 3 15 5 15 6 14 8 14 9 13 13 3 16 4 17 6 22 12 24 7 26
REMARK H PARENT 11 28 9 30 17 32 17 33 18 35 18 36 19 38 19 39 20 42 24 48
REMARK H PARENT 85 50 25 52 84 53 83 63 77 65 79 67 82 69 76 70 44 79 47 81
REMARK H PARENT 80 84 45 85 81 87
REMARK Flexibility Score: inf
ROOT
ATOM      1  C   UNL A   1      34.534  32.463  28.738  1.00  0.00    -0.052 C 
ATOM      2  H   UNL A   1      34.644  32.163  29.760  1.00  0.00     0.027 H 
ATOM      3  H   UNL A   1      33.582  32.216  28.317  1.00  0.00     0.027 H 
ENDROOT
BRANCH   1   4
ATOM      4  C   UNL A   1      35.575  31.699  27.907  1.00  0.00    -0.036 C 
ATOM      5  H   UNL A   1      35.722  32.228  26.988  1.00  0.00     0.028 H 
ATOM      6  H   UNL A   1      36.459  31.643  28.507  1.00  0.00     0.028 H 
BRANCH   4   7
ATOM      7  C   UNL A   1      35.190  30.258  27.570  1.00  0.00     0.018 C 
ATOM      8  H   UNL A   1      36.035  29.764  27.136  1.00  0.00     0.049 H 
ATOM      9  H   UNL A   1      34.888  29.770  28.472  1.00  0.00     0.049 H 
BRANCH   7  10
ATOM     10  N   UNL A   1      34.085  30.208  26.635  1.00  0.00    -0.353 N 
ATOM     11  O   UNL A   1      32.969  28.483  27.653  1.00  0.00    -0.270 OA
ATOM     12  C   UNL A   1      33.090  29.274  26.724  1.00  0.00     0.243 C 
ATOM     13  H   UNL A   1      34.049  30.871  25.907  1.00  0.00     0.163 HD
BRANCH  12  14
ATOM     14  C   UNL A   1      32.103  29.245  25.615  1.00  0.00     0.003 C 
ATOM     15  C   UNL A   1      31.147  30.158  25.377  1.00  0.00    -0.049 C 
ATOM     16  H   UNL A   1      32.156  28.446  24.964  1.00  0.00     0.068 H 
ATOM     17  H   UNL A   1      31.000  30.915  26.063  1.00  0.00     0.063 H 
BRANCH  15  18
ATOM     18  C   UNL A   1      30.304  30.119  24.174  1.00  0.00    -0.022 A 
ATOM     19  C   UNL A   1      30.398  29.088  23.223  1.00  0.00    -0.051 A 
ATOM     20  C   UNL A   1      29.367  31.141  23.983  1.00  0.00    -0.009 A 
ATOM     21  C   UNL A   1      29.596  29.097  22.076  1.00  0.00    -0.016 A 
ATOM     22  H   UNL A   1      31.066  28.316  23.373  1.00  0.00     0.063 H 
ATOM     23  C   UNL A   1      28.577  31.144  22.842  1.00  0.00     0.157 A 
ATOM     24  H   UNL A   1      29.263  31.889  24.687  1.00  0.00     0.067 H 
ATOM     25  C   UNL A   1      28.692  30.134  21.890  1.00  0.00     0.157 A 
ATOM     26  H   UNL A   1      29.675  28.341  21.378  1.00  0.00     0.066 H 
BRANCH  23  27
ATOM     27  O   UNL A   1      27.684  32.160  22.654  1.00  0.00    -0.504 OA
ATOM     28  H   UNL A   1      27.768  32.955  23.142  1.00  0.00     0.293 HD
ENDBRANCH  23  27
BRANCH  25  29
ATOM     29  O   UNL A   1      27.893  30.211  20.783  1.00  0.00    -0.504 OA
ATOM     30  H   UNL A   1      27.729  31.042  20.381  1.00  0.00     0.293 HD
ENDBRANCH  25  29
ENDBRANCH  15  18
ENDBRANCH  12  14
ENDBRANCH   7  10
ENDBRANCH   4   7
ENDBRANCH   1   4
BRANCH   1  31
ATOM     31  C   UNL A   1      34.639  33.990  28.680  1.00  0.00    -0.052 C 
ATOM     32  H   UNL A   1      35.016  34.260  27.716  1.00  0.00     0.027 H 
ATOM     33  H   UNL A   1      35.283  34.273  29.486  1.00  0.00     0.027 H 
BRANCH  31  34
ATOM     34  C   UNL A   1      33.326  34.742  28.903  1.00  0.00    -0.036 C 
ATOM     35  H   UNL A   1      32.700  34.139  29.527  1.00  0.00     0.028 H 
ATOM     36  H   UNL A   1      32.912  34.918  27.932  1.00  0.00     0.028 H 
BRANCH  34  37
ATOM     37  C   UNL A   1      33.473  36.110  29.560  1.00  0.00     0.018 C 
ATOM     38  H   UNL A   1      33.348  36.864  28.812  1.00  0.00     0.049 H 
ATOM     39  H   UNL A   1      34.446  36.153  30.004  1.00  0.00     0.049 H 
BRANCH  37  40
ATOM     40  N   UNL A   1      32.496  36.333  30.616  1.00  0.00    -0.352 N 
ATOM     41  C   UNL A   1      32.484  35.849  31.902  1.00  0.00     0.251 C 
ATOM     42  H   UNL A   1      31.737  36.910  30.374  1.00  0.00     0.163 HD
ATOM     43  O   UNL A   1      31.498  36.005  32.616  1.00  0.00    -0.269 OA
BRANCH  41  44
ATOM     44  C   UNL A   1      33.656  35.111  32.417  1.00  0.00     0.039 A 
ATOM     45  C   UNL A   1      33.486  33.806  32.888  1.00  0.00    -0.049 A 
ATOM     46  C   UNL A   1      34.923  35.700  32.424  1.00  0.00    -0.049 A 
ATOM     47  C   UNL A   1      34.598  33.066  33.296  1.00  0.00    -0.053 A 
ATOM     48  H   UNL A   1      32.542  33.390  32.933  1.00  0.00     0.063 H 
ATOM     49  C   UNL A   1      36.038  34.938  32.762  1.00  0.00    -0.053 A 
ATOM     50  H   UNL A   1      35.032  36.697  32.178  1.00  0.00     0.063 H 
ATOM     51  C   UNL A   1      35.887  33.612  33.200  1.00  0.00    -0.014 A 
ATOM     52  H   UNL A   1      34.471  32.112  33.670  1.00  0.00     0.063 H 
ATOM     53  H   UNL A   1      36.981  35.350  32.691  1.00  0.00     0.063 H 
BRANCH  51  54
ATOM     54  C   UNL A   1      37.098  32.825  33.552  1.00  0.00     0.031 A 
ATOM     55  C   UNL A   1      37.843  33.127  34.824  1.00  0.00     0.074 A 
ATOM     56  C   UNL A   1      37.576  31.904  32.692  1.00  0.00     0.049 A 
ATOM     57  N   UNL A   1      38.987  32.651  35.249  1.00  0.00    -0.248 NA
ATOM     58  C   UNL A   1      37.237  34.119  35.727  1.00  0.00    -0.034 C 
ATOM     59  C   UNL A   1      36.966  31.543  31.411  1.00  0.00    -0.036 A 
ATOM     60  N   UNL A   1      38.701  31.117  32.755  1.00  0.00    -0.354 N 
ATOM     61  C   UNL A   1      39.247  33.304  36.447  1.00  0.00     0.074 A 
ATOM     62  C   UNL A   1      38.163  34.236  36.667  1.00  0.00    -0.034 C 
ATOM     63  H   UNL A   1      36.326  34.598  35.650  1.00  0.00     0.065 H 
ATOM     64  C   UNL A   1      37.716  30.601  30.815  1.00  0.00    -0.036 A 
ATOM     65  H   UNL A   1      36.098  31.948  31.027  1.00  0.00     0.065 H 
ATOM     66  C   UNL A   1      38.883  30.324  31.646  1.00  0.00     0.049 A 
ATOM     67  H   UNL A   1      39.319  31.120  33.522  1.00  0.00     0.167 HD
ATOM     68  C   UNL A   1      40.289  33.127  37.294  1.00  0.00     0.037 A 
ATOM     69  H   UNL A   1      38.119  34.905  37.453  1.00  0.00     0.065 H 
ATOM     70  H   UNL A   1      37.501  30.146  29.914  1.00  0.00     0.065 H 
ATOM     71  C   UNL A   1      39.890  29.486  31.329  1.00  0.00     0.037 A 
ATOM     72  C   UNL A   1      41.341  32.166  37.094  1.00  0.00     0.049 A 
ATOM     73  C   UNL A   1      41.039  29.320  32.290  1.00  0.00     0.074 A 
ATOM     74  C   UNL A   1      42.394  31.857  37.937  1.00  0.00    -0.036 A 
ATOM     75  N   UNL A   1      41.473  31.360  35.974  1.00  0.00    -0.354 N 
ATOM     76  N   UNL A   1      41.233  29.885  33.456  1.00  0.00    -0.248 NA
ATOM     77  C   UNL A   1      42.110  28.394  31.890  1.00  0.00    -0.034 C 
ATOM     78  C   UNL A   1      43.195  30.905  37.302  1.00  0.00    -0.036 A 
ATOM     79  H   UNL A   1      42.559  32.261  38.871  1.00  0.00     0.065 H 
ATOM     80  C   UNL A   1      42.608  30.574  36.092  1.00  0.00     0.049 A 
ATOM     81  H   UNL A   1      40.854  31.349  35.209  1.00  0.00     0.167 HD
ATOM     82  C   UNL A   1      42.418  29.352  33.946  1.00  0.00     0.074 A 
ATOM     83  C   UNL A   1      42.897  28.413  32.956  1.00  0.00    -0.034 C 
ATOM     84  H   UNL A   1      42.220  27.868  31.010  1.00  0.00     0.065 H 
ATOM     85  H   UNL A   1      44.077  30.514  37.673  1.00  0.00     0.065 H 
ATOM     86  C   UNL A   1      43.053  29.617  35.113  1.00  0.00     0.037 A 
ATOM     87  H   UNL A   1      43.742  27.832  33.066  1.00  0.00     0.065 H 
BRANCH  68  88
ATOM     88  C   UNL A   1      40.353  33.984  38.524  1.00  0.00     0.064 A 
ATOM     89  C   UNL A   1      41.036  35.209  38.536  1.00  0.00     0.173 A 
ATOM     90  C   UNL A   1      39.649  33.614  39.680  1.00  0.00     0.173 A 
ATOM     91  F   UNL A   1      41.733  35.604  37.460  1.00  0.00    -0.203 F 
ATOM     92  C   UNL A   1      41.022  36.025  39.664  1.00  0.00     0.198 A 
ATOM     93  C   UNL A   1      39.611  34.446  40.795  1.00  0.00     0.198 A 
ATOM     94  F   UNL A   1      38.973  32.455  39.717  1.00  0.00    -0.203 F 
ATOM     95  F   UNL A   1      41.707  37.177  39.664  1.00  0.00    -0.200 F 
ATOM     96  C   UNL A   1      40.300  35.649  40.787  1.00  0.00     0.200 A 
ATOM     97  F   UNL A   1      38.900  34.088  41.872  1.00  0.00    -0.200 F 
ATOM     98  F   UNL A   1      40.269  36.447  41.864  1.00  0.00    -0.200 F 
ENDBRANCH  68  88
BRANCH  71  99
ATOM     99  C   UNL A   1      39.870  28.732  30.046  1.00  0.00     0.064 A 
ATOM    100  C   UNL A   1      39.325  27.441  29.977  1.00  0.00     0.173 A 
ATOM    101  C   UNL A   1      40.442  29.259  28.877  1.00  0.00     0.173 A 
ATOM    102  F   UNL A   1      38.786  26.884  31.071  1.00  0.00    -0.203 F 
ATOM    103  C   UNL A   1      39.391  26.691  28.804  1.00  0.00     0.198 A 
ATOM    104  C   UNL A   1      40.476  28.521  27.696  1.00  0.00     0.198 A 
ATOM    105  F   UNL A   1      40.973  30.489  28.885  1.00  0.00    -0.203 F 
ATOM    106  F   UNL A   1      38.927  25.434  28.788  1.00  0.00    -0.200 F 
ATOM    107  C   UNL A   1      39.964  27.232  27.663  1.00  0.00     0.200 A 
ATOM    108  F   UNL A   1      41.017  29.053  26.592  1.00  0.00    -0.200 F 
ATOM    109  F   UNL A   1      40.037  26.508  26.539  1.00  0.00    -0.200 F 
ENDBRANCH  71  99
BRANCH  86 110
ATOM    110  C   UNL A   1      44.298  28.838  35.423  1.00  0.00     0.064 A 
ATOM    111  C   UNL A   1      44.256  27.614  36.104  1.00  0.00     0.173 A 
ATOM    112  C   UNL A   1      45.547  29.300  34.975  1.00  0.00     0.173 A 
ATOM    113  F   UNL A   1      43.090  27.137  36.564  1.00  0.00    -0.203 F 
ATOM    114  C   UNL A   1      45.421  26.890  36.344  1.00  0.00     0.198 A 
ATOM    115  C   UNL A   1      46.704  28.558  35.189  1.00  0.00     0.198 A 
ATOM    116  F   UNL A   1      45.640  30.463  34.312  1.00  0.00    -0.203 F 
ATOM    117  F   UNL A   1      45.364  25.744  37.035  1.00  0.00    -0.200 F 
ATOM    118  C   UNL A   1      46.641  27.358  35.878  1.00  0.00     0.200 A 
ATOM    119  F   UNL A   1      47.879  29.003  34.722  1.00  0.00    -0.200 F 
ATOM    120  F   UNL A   1      47.759  26.651  36.097  1.00  0.00    -0.200 F 
ENDBRANCH  86 110
ENDBRANCH  51  54
ENDBRANCH  41  44
ENDBRANCH  37  40
ENDBRANCH  34  37
ENDBRANCH  31  34
ENDBRANCH   1  31
TORSDOF 16
ENDMDL
MODEL 5
REMARK VINA RESULT:     -11.0      7.477     12.984
REMARK SMILES O=C(/C=C/c1ccc(O)c(O)c1)NCCCCCCNC(=O)c1ccc(-c2c3nc(c(-c4c(F)c(F)c(F)c(F)c4F)c4ccc([nH]4)c(-c4c(F)c(F)c(F)c(F)c4F)c4nc(c(-c5c(F)c(F)c(F)c(F)c5F)c5ccc2[nH]5)C=C4)C=C3)cc1
REMARK SMILES IDX 16 1 15 4 14 7 13 10 1 11 2 12 3 14 4 15 5 18 6 19 12 20
REMARK SMILES IDX 7 21 10 23 8 25 11 27 9 29 17 31 18 34 19 37 20 40 21 41
REMARK SMILES IDX 22 43 23 44 24 45 85 46 25 47 84 49 26 51 27 54 28 55 78 56
REMARK SMILES IDX 29 57 83 58 77 59 79 60 30 61 82 62 76 64 75 66 31 68 63 71
REMARK SMILES IDX 43 72 62 73 44 74 47 75 61 76 80 77 45 78 46 80 60 82 81 83
REMARK SMILES IDX 48 86 32 88 33 89 41 90 34 91 35 92 39 93 42 94 36 95 37 96
REMARK SMILES IDX 40 97 38 98 64 99 65 100 73 101 66 102 67 103 71 104 74 105
REMARK SMILES IDX 68 106 69 107 72 108 70 109 49 110 50 111 58 112 51 113
REMARK SMILES IDX 52 114 56 115 59 116 53 117 54 118 57 119 55 120
REMARK H PARENT 16 2 16 3 15 5 15 6 14 8 14 9 13 13 3 16 4 17 6 22 12 24 7 26
REMARK H PARENT 11 28 9 30 17 32 17 33 18 35 18 36 19 38 19 39 20 42 24 48
REMARK H PARENT 85 50 25 52 84 53 83 63 77 65 79 67 82 69 76 70 44 79 47 81
REMARK H PARENT 80 84 45 85 81 87
REMARK Flexibility Score: inf
ROOT
ATOM      1  C   UNL A   1      35.265  33.158  28.043  1.00  0.00    -0.052 C 
ATOM      2  H   UNL A   1      34.964  33.707  27.175  1.00  0.00     0.027 H 
ATOM      3  H   UNL A   1      36.260  33.378  28.368  1.00  0.00     0.027 H 
ENDROOT
BRANCH   1   4
ATOM      4  C   UNL A   1      35.259  31.665  27.683  1.00  0.00    -0.036 C 
ATOM      5  H   UNL A   1      35.768  31.545  26.749  1.00  0.00     0.028 H 
ATOM      6  H   UNL A   1      35.742  31.157  28.492  1.00  0.00     0.028 H 
BRANCH   4   7
ATOM      7  C   UNL A   1      33.868  31.045  27.551  1.00  0.00     0.018 C 
ATOM      8  H   UNL A   1      33.602  30.584  28.480  1.00  0.00     0.049 H 
ATOM      9  H   UNL A   1      33.176  31.821  27.300  1.00  0.00     0.049 H 
BRANCH   7  10
ATOM     10  N   UNL A   1      33.830  30.046  26.503  1.00  0.00    -0.353 N 
ATOM     11  O   UNL A   1      32.513  28.546  27.632  1.00  0.00    -0.270 OA
ATOM     12  C   UNL A   1      33.198  28.842  26.660  1.00  0.00     0.243 C 
ATOM     13  H   UNL A   1      34.276  30.239  25.647  1.00  0.00     0.163 HD
BRANCH  12  14
ATOM     14  C   UNL A   1      33.365  27.856  25.562  1.00  0.00     0.003 C 
ATOM     15  C   UNL A   1      32.456  26.955  25.157  1.00  0.00    -0.049 C 
ATOM     16  H   UNL A   1      34.269  27.863  25.063  1.00  0.00     0.068 H 
ATOM     17  H   UNL A   1      31.583  26.852  25.698  1.00  0.00     0.063 H 
BRANCH  15  18
ATOM     18  C   UNL A   1      32.658  26.111  23.971  1.00  0.00    -0.022 A 
ATOM     19  C   UNL A   1      33.472  24.965  23.994  1.00  0.00    -0.051 A 
ATOM     20  C   UNL A   1      32.003  26.460  22.784  1.00  0.00    -0.009 A 
ATOM     21  C   UNL A   1      33.661  24.199  22.838  1.00  0.00    -0.016 A 
ATOM     22  H   UNL A   1      33.934  24.686  24.873  1.00  0.00     0.063 H 
ATOM     23  C   UNL A   1      32.198  25.697  21.642  1.00  0.00     0.157 A 
ATOM     24  H   UNL A   1      31.378  27.281  22.758  1.00  0.00     0.067 H 
ATOM     25  C   UNL A   1      33.026  24.578  21.663  1.00  0.00     0.157 A 
ATOM     26  H   UNL A   1      34.266  23.362  22.859  1.00  0.00     0.066 H 
BRANCH  23  27
ATOM     27  O   UNL A   1      31.574  26.062  20.483  1.00  0.00    -0.504 OA
ATOM     28  H   UNL A   1      31.584  25.487  19.744  1.00  0.00     0.293 HD
ENDBRANCH  23  27
BRANCH  25  29
ATOM     29  O   UNL A   1      33.184  23.883  20.496  1.00  0.00    -0.504 OA
ATOM     30  H   UNL A   1      32.584  24.014  19.788  1.00  0.00     0.293 HD
ENDBRANCH  25  29
ENDBRANCH  15  18
ENDBRANCH  12  14
ENDBRANCH   7  10
ENDBRANCH   4   7
ENDBRANCH   1   4
BRANCH   1  31
ATOM     31  C   UNL A   1      34.343  33.559  29.199  1.00  0.00    -0.052 C 
ATOM     32  H   UNL A   1      34.950  33.965  29.980  1.00  0.00     0.027 H 
ATOM     33  H   UNL A   1      33.819  32.670  29.482  1.00  0.00     0.027 H 
BRANCH  31  34
ATOM     34  C   UNL A   1      33.270  34.590  28.848  1.00  0.00    -0.036 C 
ATOM     35  H   UNL A   1      32.329  34.223  29.200  1.00  0.00     0.028 H 
ATOM     36  H   UNL A   1      33.307  34.713  27.786  1.00  0.00     0.028 H 
BRANCH  34  37
ATOM     37  C   UNL A   1      33.491  35.975  29.446  1.00  0.00     0.018 C 
ATOM     38  H   UNL A   1      33.376  36.705  28.672  1.00  0.00     0.049 H 
ATOM     39  H   UNL A   1      34.477  35.995  29.863  1.00  0.00     0.049 H 
BRANCH  37  40
ATOM     40  N   UNL A   1      32.553  36.279  30.518  1.00  0.00    -0.352 N 
ATOM     41  C   UNL A   1      32.570  35.863  31.828  1.00  0.00     0.251 C 
ATOM     42  H   UNL A   1      31.802  36.863  30.269  1.00  0.00     0.163 HD
ATOM     43  O   UNL A   1      31.611  36.084  32.562  1.00  0.00    -0.269 OA
BRANCH  41  44
ATOM     44  C   UNL A   1      33.739  35.122  32.346  1.00  0.00     0.039 A 
ATOM     45  C   UNL A   1      33.550  33.847  32.886  1.00  0.00    -0.049 A 
ATOM     46  C   UNL A   1      35.019  35.678  32.286  1.00  0.00    -0.049 A 
ATOM     47  C   UNL A   1      34.656  33.099  33.299  1.00  0.00    -0.053 A 
ATOM     48  H   UNL A   1      32.599  33.458  32.979  1.00  0.00     0.063 H 
ATOM     49  C   UNL A   1      36.125  34.905  32.630  1.00  0.00    -0.053 A 
ATOM     50  H   UNL A   1      35.145  36.658  31.987  1.00  0.00     0.063 H 
ATOM     51  C   UNL A   1      35.955  33.607  33.139  1.00  0.00    -0.014 A 
ATOM     52  H   UNL A   1      34.517  32.169  33.724  1.00  0.00     0.063 H 
ATOM     53  H   UNL A   1      37.075  35.289  32.511  1.00  0.00     0.063 H 
BRANCH  51  54
ATOM     54  C   UNL A   1      37.156  32.807  33.495  1.00  0.00     0.031 A 
ATOM     55  C   UNL A   1      37.901  33.102  34.770  1.00  0.00     0.074 A 
ATOM     56  C   UNL A   1      37.627  31.880  32.637  1.00  0.00     0.049 A 
ATOM     57  N   UNL A   1      39.038  32.614  35.198  1.00  0.00    -0.248 NA
ATOM     58  C   UNL A   1      37.302  34.101  35.670  1.00  0.00    -0.034 C 
ATOM     59  C   UNL A   1      37.018  31.525  31.355  1.00  0.00    -0.036 A 
ATOM     60  N   UNL A   1      38.743  31.081  32.704  1.00  0.00    -0.354 N 
ATOM     61  C   UNL A   1      39.301  33.265  36.396  1.00  0.00     0.074 A 
ATOM     62  C   UNL A   1      38.227  34.208  36.613  1.00  0.00    -0.034 C 
ATOM     63  H   UNL A   1      36.396  34.590  35.589  1.00  0.00     0.065 H 
ATOM     64  C   UNL A   1      37.759  30.575  30.761  1.00  0.00    -0.036 A 
ATOM     65  H   UNL A   1      36.155  31.939  30.968  1.00  0.00     0.065 H 
ATOM     66  C   UNL A   1      38.921  30.286  31.596  1.00  0.00     0.049 A 
ATOM     67  H   UNL A   1      39.359  31.079  33.473  1.00  0.00     0.167 HD
ATOM     68  C   UNL A   1      40.338  33.078  37.246  1.00  0.00     0.037 A 
ATOM     69  H   UNL A   1      38.187  34.878  37.398  1.00  0.00     0.065 H 
ATOM     70  H   UNL A   1      37.542  30.122  29.860  1.00  0.00     0.065 H 
ATOM     71  C   UNL A   1      39.919  29.437  31.283  1.00  0.00     0.037 A 
ATOM     72  C   UNL A   1      41.380  32.106  37.051  1.00  0.00     0.049 A 
ATOM     73  C   UNL A   1      41.063  29.259  32.248  1.00  0.00     0.074 A 
ATOM     74  C   UNL A   1      42.428  31.786  37.897  1.00  0.00    -0.036 A 
ATOM     75  N   UNL A   1      41.508  31.298  35.932  1.00  0.00    -0.354 N 
ATOM     76  N   UNL A   1      41.260  29.823  33.414  1.00  0.00    -0.248 NA
ATOM     77  C   UNL A   1      42.126  28.322  31.852  1.00  0.00    -0.034 C 
ATOM     78  C   UNL A   1      43.221  30.825  37.266  1.00  0.00    -0.036 A 
ATOM     79  H   UNL A   1      42.594  32.188  38.832  1.00  0.00     0.065 H 
ATOM     80  C   UNL A   1      42.634  30.500  36.054  1.00  0.00     0.049 A 
ATOM     81  H   UNL A   1      40.891  31.292  35.165  1.00  0.00     0.167 HD
ATOM     82  C   UNL A   1      42.438  29.278  33.908  1.00  0.00     0.074 A 
ATOM     83  C   UNL A   1      42.910  28.333  32.920  1.00  0.00    -0.034 C 
ATOM     84  H   UNL A   1      42.233  27.795  30.972  1.00  0.00     0.065 H 
ATOM     85  H   UNL A   1      44.097  30.425  37.639  1.00  0.00     0.065 H 
ATOM     86  C   UNL A   1      43.072  29.538  35.077  1.00  0.00     0.037 A 
ATOM     87  H   UNL A   1      43.748  27.744  33.033  1.00  0.00     0.065 H 
BRANCH  68  88
ATOM     88  C   UNL A   1      40.408  33.935  38.476  1.00  0.00     0.064 A 
ATOM     89  C   UNL A   1      41.107  35.150  38.491  1.00  0.00     0.173 A 
ATOM     90  C   UNL A   1      39.693  33.575  39.629  1.00  0.00     0.173 A 
ATOM     91  F   UNL A   1      41.814  35.536  37.418  1.00  0.00    -0.203 F 
ATOM     92  C   UNL A   1      41.098  35.968  39.618  1.00  0.00     0.198 A 
ATOM     93  C   UNL A   1      39.660  34.409  40.743  1.00  0.00     0.198 A 
ATOM     94  F   UNL A   1      39.002  32.425  39.664  1.00  0.00    -0.203 F 
ATOM     95  F   UNL A   1      41.797  37.111  39.620  1.00  0.00    -0.200 F 
ATOM     96  C   UNL A   1      40.366  35.602  40.738  1.00  0.00     0.200 A 
ATOM     97  F   UNL A   1      38.940  34.061  41.818  1.00  0.00    -0.200 F 
ATOM     98  F   UNL A   1      40.339  36.401  41.814  1.00  0.00    -0.200 F 
ENDBRANCH  68  88
BRANCH  71  99
ATOM     99  C   UNL A   1      39.896  28.683  30.000  1.00  0.00     0.064 A 
ATOM    100  C   UNL A   1      39.343  27.394  29.932  1.00  0.00     0.173 A 
ATOM    101  C   UNL A   1      40.472  29.205  28.832  1.00  0.00     0.173 A 
ATOM    102  F   UNL A   1      38.800  26.841  31.026  1.00  0.00    -0.203 F 
ATOM    103  C   UNL A   1      39.405  26.644  28.759  1.00  0.00     0.198 A 
ATOM    104  C   UNL A   1      40.502  28.466  27.651  1.00  0.00     0.198 A 
ATOM    105  F   UNL A   1      41.010  30.432  28.839  1.00  0.00    -0.203 F 
ATOM    106  F   UNL A   1      38.933  25.390  28.744  1.00  0.00    -0.200 F 
ATOM    107  C   UNL A   1      39.982  27.180  27.619  1.00  0.00     0.200 A 
ATOM    108  F   UNL A   1      41.047  28.994  26.547  1.00  0.00    -0.200 F 
ATOM    109  F   UNL A   1      40.051  26.455  26.495  1.00  0.00    -0.200 F 
ENDBRANCH  71  99
BRANCH  86 110
ATOM    110  C   UNL A   1      44.308  28.745  35.391  1.00  0.00     0.064 A 
ATOM    111  C   UNL A   1      44.250  27.521  36.070  1.00  0.00     0.173 A 
ATOM    112  C   UNL A   1      45.563  29.195  34.950  1.00  0.00     0.173 A 
ATOM    113  F   UNL A   1      43.078  27.055  36.525  1.00  0.00    -0.203 F 
ATOM    114  C   UNL A   1      45.407  26.785  36.315  1.00  0.00     0.198 A 
ATOM    115  C   UNL A   1      46.711  28.441  35.167  1.00  0.00     0.198 A 
ATOM    116  F   UNL A   1      45.671  30.358  34.288  1.00  0.00    -0.203 F 
ATOM    117  F   UNL A   1      45.335  25.638  37.005  1.00  0.00    -0.200 F 
ATOM    118  C   UNL A   1      46.634  27.241  35.855  1.00  0.00     0.200 A 
ATOM    119  F   UNL A   1      47.893  28.874  34.706  1.00  0.00    -0.200 F 
ATOM    120  F   UNL A   1      47.743  26.523  36.078  1.00  0.00    -0.200 F 
ENDBRANCH  86 110
ENDBRANCH  51  54
ENDBRANCH  41  44
ENDBRANCH  37  40
ENDBRANCH  34  37
ENDBRANCH  31  34
ENDBRANCH   1  31
TORSDOF 16
ENDMDL
MODEL 6
REMARK VINA RESULT:     -10.9      6.026     10.429
REMARK SMILES O=C(/C=C/c1ccc(O)c(O)c1)NCCCCCCNC(=O)c1ccc(-c2c3nc(c(-c4c(F)c(F)c(F)c(F)c4F)c4ccc([nH]4)c(-c4c(F)c(F)c(F)c(F)c4F)c4nc(c(-c5c(F)c(F)c(F)c(F)c5F)c5ccc2[nH]5)C=C4)C=C3)cc1
REMARK SMILES IDX 16 1 15 4 14 7 13 10 1 11 2 12 3 14 4 15 5 18 6 19 12 20
REMARK SMILES IDX 7 21 10 23 8 25 11 27 9 29 17 31 18 34 19 37 20 40 21 41
REMARK SMILES IDX 22 43 23 44 24 45 85 46 25 47 84 49 26 51 27 54 28 55 78 56
REMARK SMILES IDX 29 57 83 58 77 59 79 60 30 61 82 62 76 64 75 66 31 68 63 71
REMARK SMILES IDX 43 72 62 73 44 74 47 75 61 76 80 77 45 78 46 80 60 82 81 83
REMARK SMILES IDX 48 86 32 88 33 89 41 90 34 91 35 92 39 93 42 94 36 95 37 96
REMARK SMILES IDX 40 97 38 98 64 99 65 100 73 101 66 102 67 103 71 104 74 105
REMARK SMILES IDX 68 106 69 107 72 108 70 109 49 110 50 111 58 112 51 113
REMARK SMILES IDX 52 114 56 115 59 116 53 117 54 118 57 119 55 120
REMARK H PARENT 16 2 16 3 15 5 15 6 14 8 14 9 13 13 3 16 4 17 6 22 12 24 7 26
REMARK H PARENT 11 28 9 30 17 32 17 33 18 35 18 36 19 38 19 39 20 42 24 48
REMARK H PARENT 85 50 25 52 84 53 83 63 77 65 79 67 82 69 76 70 44 79 47 81
REMARK H PARENT 80 84 45 85 81 87
REMARK Flexibility Score: inf
ROOT
ATOM      1  C   UNL A   1      31.236  27.324  27.081  1.00  0.00    -0.052 C 
ATOM      2  H   UNL A   1      31.564  27.207  28.093  1.00  0.00     0.027 H 
ATOM      3  H   UNL A   1      30.172  27.364  26.974  1.00  0.00     0.027 H 
ENDROOT
BRANCH   1   4
ATOM      4  C   UNL A   1      31.693  26.089  26.291  1.00  0.00    -0.036 C 
ATOM      5  H   UNL A   1      32.526  26.372  25.682  1.00  0.00     0.028 H 
ATOM      6  H   UNL A   1      31.936  25.340  27.015  1.00  0.00     0.028 H 
BRANCH   4   7
ATOM      7  C   UNL A   1      30.624  25.481  25.382  1.00  0.00     0.018 C 
ATOM      8  H   UNL A   1      31.091  24.796  24.705  1.00  0.00     0.049 H 
ATOM      9  H   UNL A   1      29.906  24.979  25.995  1.00  0.00     0.049 H 
BRANCH   7  10
ATOM     10  N   UNL A   1      29.934  26.500  24.617  1.00  0.00    -0.353 N 
ATOM     11  O   UNL A   1      31.457  26.606  22.906  1.00  0.00    -0.270 OA
ATOM     12  C   UNL A   1      30.448  27.023  23.463  1.00  0.00     0.243 C 
ATOM     13  H   UNL A   1      29.065  26.828  24.941  1.00  0.00     0.163 HD
BRANCH  12  14
ATOM     14  C   UNL A   1      29.709  28.165  22.864  1.00  0.00     0.003 C 
ATOM     15  C   UNL A   1      29.736  29.439  23.286  1.00  0.00    -0.049 C 
ATOM     16  H   UNL A   1      29.118  27.958  22.044  1.00  0.00     0.068 H 
ATOM     17  H   UNL A   1      30.235  29.662  24.162  1.00  0.00     0.063 H 
BRANCH  15  18
ATOM     18  C   UNL A   1      29.081  30.527  22.547  1.00  0.00    -0.022 A 
ATOM     19  C   UNL A   1      28.488  30.329  21.289  1.00  0.00    -0.051 A 
ATOM     20  C   UNL A   1      29.039  31.799  23.130  1.00  0.00    -0.009 A 
ATOM     21  C   UNL A   1      27.894  31.395  20.602  1.00  0.00    -0.016 A 
ATOM     22  H   UNL A   1      28.488  29.388  20.867  1.00  0.00     0.063 H 
ATOM     23  C   UNL A   1      28.451  32.851  22.442  1.00  0.00     0.157 A 
ATOM     24  H   UNL A   1      29.443  31.954  24.068  1.00  0.00     0.067 H 
ATOM     25  C   UNL A   1      27.888  32.655  21.184  1.00  0.00     0.157 A 
ATOM     26  H   UNL A   1      27.466  31.246  19.675  1.00  0.00     0.066 H 
BRANCH  23  27
ATOM     27  O   UNL A   1      28.439  34.093  23.010  1.00  0.00    -0.504 OA
ATOM     28  H   UNL A   1      28.753  34.212  23.884  1.00  0.00     0.293 HD
ENDBRANCH  23  27
BRANCH  25  29
ATOM     29  O   UNL A   1      27.341  33.741  20.558  1.00  0.00    -0.504 OA
ATOM     30  H   UNL A   1      27.838  34.531  20.471  1.00  0.00     0.293 HD
ENDBRANCH  25  29
ENDBRANCH  15  18
ENDBRANCH  12  14
ENDBRANCH   7  10
ENDBRANCH   4   7
ENDBRANCH   1   4
BRANCH   1  31
ATOM     31  C   UNL A   1      31.764  28.667  26.565  1.00  0.00    -0.052 C 
ATOM     32  H   UNL A   1      31.951  29.295  27.410  1.00  0.00     0.027 H 
ATOM     33  H   UNL A   1      31.011  29.047  25.906  1.00  0.00     0.027 H 
BRANCH  31  34
ATOM     34  C   UNL A   1      33.049  28.587  25.740  1.00  0.00    -0.036 C 
ATOM     35  H   UNL A   1      32.938  29.229  24.891  1.00  0.00     0.028 H 
ATOM     36  H   UNL A   1      33.175  27.558  25.478  1.00  0.00     0.028 H 
BRANCH  34  37
ATOM     37  C   UNL A   1      34.315  28.998  26.483  1.00  0.00     0.018 C 
ATOM     38  H   UNL A   1      35.094  29.162  25.768  1.00  0.00     0.049 H 
ATOM     39  H   UNL A   1      34.563  28.209  27.163  1.00  0.00     0.049 H 
BRANCH  37  40
ATOM     40  N   UNL A   1      34.136  30.213  27.265  1.00  0.00    -0.352 N 
ATOM     41  C   UNL A   1      34.950  30.746  28.236  1.00  0.00     0.251 C 
ATOM     42  H   UNL A   1      33.318  30.724  27.072  1.00  0.00     0.163 HD
ATOM     43  O   UNL A   1      34.570  31.698  28.912  1.00  0.00    -0.269 OA
BRANCH  41  44
ATOM     44  C   UNL A   1      36.280  30.151  28.485  1.00  0.00     0.039 A 
ATOM     45  C   UNL A   1      37.265  30.253  27.499  1.00  0.00    -0.049 A 
ATOM     46  C   UNL A   1      36.557  29.506  29.693  1.00  0.00    -0.049 A 
ATOM     47  C   UNL A   1      38.552  29.772  27.754  1.00  0.00    -0.053 A 
ATOM     48  H   UNL A   1      37.044  30.682  26.586  1.00  0.00     0.063 H 
ATOM     49  C   UNL A   1      37.857  29.094  29.972  1.00  0.00    -0.053 A 
ATOM     50  H   UNL A   1      35.802  29.337  30.375  1.00  0.00     0.063 H 
ATOM     51  C   UNL A   1      38.869  29.224  29.006  1.00  0.00    -0.014 A 
ATOM     52  H   UNL A   1      39.274  29.821  27.017  1.00  0.00     0.063 H 
ATOM     53  H   UNL A   1      38.079  28.689  30.895  1.00  0.00     0.063 H 
BRANCH  51  54
ATOM     54  C   UNL A   1      40.247  28.774  29.337  1.00  0.00     0.031 A 
ATOM     55  C   UNL A   1      41.163  29.679  30.116  1.00  0.00     0.074 A 
ATOM     56  C   UNL A   1      40.702  27.596  28.866  1.00  0.00     0.049 A 
ATOM     57  N   UNL A   1      42.435  29.533  30.393  1.00  0.00    -0.248 NA
ATOM     58  C   UNL A   1      40.580  30.930  30.627  1.00  0.00    -0.034 C 
ATOM     59  C   UNL A   1      39.925  26.644  28.070  1.00  0.00    -0.036 A 
ATOM     60  N   UNL A   1      41.938  27.007  28.969  1.00  0.00    -0.354 N 
ATOM     61  C   UNL A   1      42.805  30.680  31.081  1.00  0.00     0.074 A 
ATOM     62  C   UNL A   1      41.638  31.531  31.151  1.00  0.00    -0.034 C 
ATOM     63  H   UNL A   1      39.601  31.255  30.589  1.00  0.00     0.065 H 
ATOM     64  C   UNL A   1      40.697  25.589  27.766  1.00  0.00    -0.036 A 
ATOM     65  H   UNL A   1      38.939  26.765  27.788  1.00  0.00     0.065 H 
ATOM     66  C   UNL A   1      42.036  25.808  28.303  1.00  0.00     0.049 A 
ATOM     67  H   UNL A   1      42.686  27.406  29.471  1.00  0.00     0.167 HD
ATOM     68  C   UNL A   1      44.009  30.987  31.621  1.00  0.00     0.037 A 
ATOM     69  H   UNL A   1      41.632  32.482  31.554  1.00  0.00     0.065 H 
ATOM     70  H   UNL A   1      40.392  24.756  27.238  1.00  0.00     0.065 H 
ATOM     71  C   UNL A   1      43.093  24.989  28.129  1.00  0.00     0.037 A 
ATOM     72  C   UNL A   1      45.155  30.118  31.591  1.00  0.00     0.049 A 
ATOM     73  C   UNL A   1      44.421  25.365  28.736  1.00  0.00     0.074 A 
ATOM     74  C   UNL A   1      46.393  30.306  32.180  1.00  0.00    -0.036 A 
ATOM     75  N   UNL A   1      45.205  28.898  30.934  1.00  0.00    -0.354 N 
ATOM     76  N   UNL A   1      44.738  26.416  29.451  1.00  0.00    -0.248 NA
ATOM     77  C   UNL A   1      45.540  24.437  28.511  1.00  0.00    -0.034 C 
ATOM     78  C   UNL A   1      47.210  29.226  31.834  1.00  0.00    -0.036 A 
ATOM     79  H   UNL A   1      46.665  31.105  32.773  1.00  0.00     0.065 H 
ATOM     80  C   UNL A   1      46.463  28.336  31.081  1.00  0.00     0.049 A 
ATOM     81  H   UNL A   1      44.459  28.492  30.437  1.00  0.00     0.167 HD
ATOM     82  C   UNL A   1      46.073  26.253  29.799  1.00  0.00     0.074 A 
ATOM     83  C   UNL A   1      46.506  24.999  29.223  1.00  0.00    -0.034 C 
ATOM     84  H   UNL A   1      45.565  23.574  27.948  1.00  0.00     0.065 H 
ATOM     85  H   UNL A   1      48.202  29.112  32.095  1.00  0.00     0.065 H 
ATOM     86  C   UNL A   1      46.869  27.069  30.531  1.00  0.00     0.037 A 
ATOM     87  H   UNL A   1      47.446  24.594  29.349  1.00  0.00     0.065 H 
BRANCH  68  88
ATOM     88  C   UNL A   1      44.162  32.316  32.300  1.00  0.00     0.064 A 
ATOM     89  C   UNL A   1      44.557  33.463  31.598  1.00  0.00     0.173 A 
ATOM     90  C   UNL A   1      43.824  32.460  33.655  1.00  0.00     0.173 A 
ATOM     91  F   UNL A   1      44.900  33.378  30.303  1.00  0.00    -0.203 F 
ATOM     92  C   UNL A   1      44.621  34.703  32.229  1.00  0.00     0.198 A 
ATOM     93  C   UNL A   1      43.859  33.705  34.275  1.00  0.00     0.198 A 
ATOM     94  F   UNL A   1      43.433  31.394  34.371  1.00  0.00    -0.203 F 
ATOM     95  F   UNL A   1      45.030  35.781  31.546  1.00  0.00    -0.200 F 
ATOM     96  C   UNL A   1      44.261  34.824  33.563  1.00  0.00     0.200 A 
ATOM     97  F   UNL A   1      43.496  33.823  35.559  1.00  0.00    -0.200 F 
ATOM     98  F   UNL A   1      44.301  36.022  34.163  1.00  0.00    -0.200 F 
ENDBRANCH  68  88
BRANCH  71  99
ATOM     99  C   UNL A   1      42.955  23.730  27.348  1.00  0.00     0.064 A 
ATOM    100  C   UNL A   1      42.440  22.567  27.942  1.00  0.00     0.173 A 
ATOM    101  C   UNL A   1      43.383  23.644  26.015  1.00  0.00     0.173 A 
ATOM    102  F   UNL A   1      42.038  22.591  29.220  1.00  0.00    -0.203 F 
ATOM    103  C   UNL A   1      42.399  21.360  27.247  1.00  0.00     0.198 A 
ATOM    104  C   UNL A   1      43.308  22.444  25.310  1.00  0.00     0.198 A 
ATOM    105  F   UNL A   1      43.879  24.725  25.397  1.00  0.00    -0.203 F 
ATOM    106  F   UNL A   1      41.969  20.250  27.862  1.00  0.00    -0.200 F 
ATOM    107  C   UNL A   1      42.830  21.299  25.930  1.00  0.00     0.200 A 
ATOM    108  F   UNL A   1      43.713  22.393  24.034  1.00  0.00    -0.200 F 
ATOM    109  F   UNL A   1      42.800  20.137  25.266  1.00  0.00    -0.200 F 
ENDBRANCH  71  99
BRANCH  86 110
ATOM    110  C   UNL A   1      48.270  26.609  30.812  1.00  0.00     0.064 A 
ATOM    111  C   UNL A   1      48.573  25.782  31.902  1.00  0.00     0.173 A 
ATOM    112  C   UNL A   1      49.313  26.955  29.939  1.00  0.00     0.173 A 
ATOM    113  F   UNL A   1      47.614  25.435  32.774  1.00  0.00    -0.203 F 
ATOM    114  C   UNL A   1      49.874  25.335  32.120  1.00  0.00     0.198 A 
ATOM    115  C   UNL A   1      50.605  26.480  30.141  1.00  0.00     0.198 A 
ATOM    116  F   UNL A   1      49.074  27.739  28.876  1.00  0.00    -0.203 F 
ATOM    117  F   UNL A   1      50.150  24.582  33.193  1.00  0.00    -0.200 F 
ATOM    118  C   UNL A   1      50.885  25.677  31.234  1.00  0.00     0.200 A 
ATOM    119  F   UNL A   1      51.578  26.797  29.274  1.00  0.00    -0.200 F 
ATOM    120  F   UNL A   1      52.134  25.233  31.438  1.00  0.00    -0.200 F 
ENDBRANCH  86 110
ENDBRANCH  51  54
ENDBRANCH  41  44
ENDBRANCH  37  40
ENDBRANCH  34  37
ENDBRANCH  31  34
ENDBRANCH   1  31
TORSDOF 16
ENDMDL
MODEL 7
REMARK VINA RESULT:     -10.9      6.568     11.395
REMARK SMILES O=C(/C=C/c1ccc(O)c(O)c1)NCCCCCCNC(=O)c1ccc(-c2c3nc(c(-c4c(F)c(F)c(F)c(F)c4F)c4ccc([nH]4)c(-c4c(F)c(F)c(F)c(F)c4F)c4nc(c(-c5c(F)c(F)c(F)c(F)c5F)c5ccc2[nH]5)C=C4)C=C3)cc1
REMARK SMILES IDX 16 1 15 4 14 7 13 10 1 11 2 12 3 14 4 15 5 18 6 19 12 20
REMARK SMILES IDX 7 21 10 23 8 25 11 27 9 29 17 31 18 34 19 37 20 40 21 41
REMARK SMILES IDX 22 43 23 44 24 45 85 46 25 47 84 49 26 51 27 54 28 55 78 56
REMARK SMILES IDX 29 57 83 58 77 59 79 60 30 61 82 62 76 64 75 66 31 68 63 71
REMARK SMILES IDX 43 72 62 73 44 74 47 75 61 76 80 77 45 78 46 80 60 82 81 83
REMARK SMILES IDX 48 86 32 88 33 89 41 90 34 91 35 92 39 93 42 94 36 95 37 96
REMARK SMILES IDX 40 97 38 98 64 99 65 100 73 101 66 102 67 103 71 104 74 105
REMARK SMILES IDX 68 106 69 107 72 108 70 109 49 110 50 111 58 112 51 113
REMARK SMILES IDX 52 114 56 115 59 116 53 117 54 118 57 119 55 120
REMARK H PARENT 16 2 16 3 15 5 15 6 14 8 14 9 13 13 3 16 4 17 6 22 12 24 7 26
REMARK H PARENT 11 28 9 30 17 32 17 33 18 35 18 36 19 38 19 39 20 42 24 48
REMARK H PARENT 85 50 25 52 84 53 83 63 77 65 79 67 82 69 76 70 44 79 47 81
REMARK H PARENT 80 84 45 85 81 87
REMARK Flexibility Score: inf
ROOT
ATOM      1  C   UNL A   1      32.295  29.625  27.265  1.00  0.00    -0.052 C 
ATOM      2  H   UNL A   1      33.316  29.417  27.017  1.00  0.00     0.027 H 
ATOM      3  H   UNL A   1      32.176  30.146  28.191  1.00  0.00     0.027 H 
ENDROOT
BRANCH   1   4
ATOM      4  C   UNL A   1      31.568  28.284  27.438  1.00  0.00    -0.036 C 
ATOM      5  H   UNL A   1      32.100  27.707  28.166  1.00  0.00     0.028 H 
ATOM      6  H   UNL A   1      30.568  28.518  27.736  1.00  0.00     0.028 H 
BRANCH   4   7
ATOM      7  C   UNL A   1      31.454  27.450  26.161  1.00  0.00     0.018 C 
ATOM      8  H   UNL A   1      30.514  26.940  26.161  1.00  0.00     0.049 H 
ATOM      9  H   UNL A   1      31.531  28.107  25.321  1.00  0.00     0.049 H 
BRANCH   7  10
ATOM     10  N   UNL A   1      32.519  26.471  26.070  1.00  0.00    -0.353 N 
ATOM     11  O   UNL A   1      33.666  27.503  24.374  1.00  0.00    -0.270 OA
ATOM     12  C   UNL A   1      33.511  26.552  25.132  1.00  0.00     0.243 C 
ATOM     13  H   UNL A   1      32.527  25.719  26.706  1.00  0.00     0.163 HD
BRANCH  12  14
ATOM     14  C   UNL A   1      34.450  25.403  25.057  1.00  0.00     0.003 C 
ATOM     15  C   UNL A   1      34.346  24.245  25.728  1.00  0.00    -0.049 C 
ATOM     16  H   UNL A   1      35.262  25.506  24.428  1.00  0.00     0.068 H 
ATOM     17  H   UNL A   1      33.605  24.148  26.440  1.00  0.00     0.063 H 
BRANCH  15  18
ATOM     18  C   UNL A   1      35.249  23.111  25.486  1.00  0.00    -0.022 A 
ATOM     19  C   UNL A   1      34.773  21.836  25.134  1.00  0.00    -0.051 A 
ATOM     20  C   UNL A   1      36.628  23.319  25.598  1.00  0.00    -0.009 A 
ATOM     21  C   UNL A   1      35.661  20.771  24.934  1.00  0.00    -0.016 A 
ATOM     22  H   UNL A   1      33.760  21.683  25.020  1.00  0.00     0.063 H 
ATOM     23  C   UNL A   1      37.501  22.259  25.401  1.00  0.00     0.157 A 
ATOM     24  H   UNL A   1      36.995  24.258  25.825  1.00  0.00     0.067 H 
ATOM     25  C   UNL A   1      37.024  20.991  25.078  1.00  0.00     0.157 A 
ATOM     26  H   UNL A   1      35.306  19.835  24.683  1.00  0.00     0.066 H 
BRANCH  23  27
ATOM     27  O   UNL A   1      38.844  22.469  25.538  1.00  0.00    -0.504 OA
ATOM     28  H   UNL A   1      39.410  21.754  25.754  1.00  0.00     0.293 HD
ENDBRANCH  23  27
BRANCH  25  29
ATOM     29  O   UNL A   1      37.942  19.991  24.915  1.00  0.00    -0.504 OA
ATOM     30  H   UNL A   1      38.406  19.908  24.105  1.00  0.00     0.293 HD
ENDBRANCH  25  29
ENDBRANCH  15  18
ENDBRANCH  12  14
ENDBRANCH   7  10
ENDBRANCH   4   7
ENDBRANCH   1   4
BRANCH   1  31
ATOM     31  C   UNL A   1      31.725  30.548  26.183  1.00  0.00    -0.052 C 
ATOM     32  H   UNL A   1      30.803  30.128  25.843  1.00  0.00     0.027 H 
ATOM     33  H   UNL A   1      32.475  30.609  25.422  1.00  0.00     0.027 H 
BRANCH  31  34
ATOM     34  C   UNL A   1      31.456  31.985  26.629  1.00  0.00    -0.036 C 
ATOM     35  H   UNL A   1      30.645  31.970  27.327  1.00  0.00     0.028 H 
ATOM     36  H   UNL A   1      31.238  32.540  25.741  1.00  0.00     0.028 H 
BRANCH  34  37
ATOM     37  C   UNL A   1      32.638  32.684  27.291  1.00  0.00     0.018 C 
ATOM     38  H   UNL A   1      33.474  32.649  26.625  1.00  0.00     0.049 H 
ATOM     39  H   UNL A   1      32.844  32.173  28.209  1.00  0.00     0.049 H 
BRANCH  37  40
ATOM     40  N   UNL A   1      32.357  34.076  27.615  1.00  0.00    -0.352 N 
ATOM     41  C   UNL A   1      32.953  34.884  28.554  1.00  0.00     0.251 C 
ATOM     42  H   UNL A   1      31.640  34.496  27.089  1.00  0.00     0.163 HD
ATOM     43  O   UNL A   1      32.485  35.990  28.808  1.00  0.00    -0.269 OA
BRANCH  41  44
ATOM     44  C   UNL A   1      34.147  34.406  29.280  1.00  0.00     0.039 A 
ATOM     45  C   UNL A   1      33.982  33.753  30.505  1.00  0.00    -0.049 A 
ATOM     46  C   UNL A   1      35.426  34.588  28.748  1.00  0.00    -0.049 A 
ATOM     47  C   UNL A   1      35.094  33.218  31.160  1.00  0.00    -0.053 A 
ATOM     48  H   UNL A   1      33.043  33.665  30.923  1.00  0.00     0.063 H 
ATOM     49  C   UNL A   1      36.523  33.993  29.365  1.00  0.00    -0.053 A 
ATOM     50  H   UNL A   1      35.557  35.162  27.900  1.00  0.00     0.063 H 
ATOM     51  C   UNL A   1      36.368  33.299  30.577  1.00  0.00    -0.014 A 
ATOM     52  H   UNL A   1      34.978  32.760  32.078  1.00  0.00     0.063 H 
ATOM     53  H   UNL A   1      37.455  34.062  28.929  1.00  0.00     0.063 H 
BRANCH  51  54
ATOM     54  C   UNL A   1      37.559  32.674  31.209  1.00  0.00     0.031 A 
ATOM     55  C   UNL A   1      38.239  31.511  30.539  1.00  0.00     0.074 A 
ATOM     56  C   UNL A   1      37.975  33.092  32.422  1.00  0.00     0.049 A 
ATOM     57  N   UNL A   1      39.204  30.745  30.983  1.00  0.00    -0.248 NA
ATOM     58  C   UNL A   1      37.750  31.140  29.201  1.00  0.00    -0.034 C 
ATOM     59  C   UNL A   1      37.380  34.186  33.191  1.00  0.00    -0.036 A 
ATOM     60  N   UNL A   1      38.984  32.631  33.231  1.00  0.00    -0.354 N 
ATOM     61  C   UNL A   1      39.414  29.791  29.997  1.00  0.00     0.074 A 
ATOM     62  C   UNL A   1      38.455  30.048  28.945  1.00  0.00    -0.034 C 
ATOM     63  H   UNL A   1      37.042  31.608  28.614  1.00  0.00     0.065 H 
ATOM     64  C   UNL A   1      38.039  34.318  34.354  1.00  0.00    -0.036 A 
ATOM     65  H   UNL A   1      36.581  34.764  32.888  1.00  0.00     0.065 H 
ATOM     66  C   UNL A   1      39.072  33.290  34.435  1.00  0.00     0.049 A 
ATOM     67  H   UNL A   1      39.588  31.896  32.975  1.00  0.00     0.167 HD
ATOM     68  C   UNL A   1      40.336  28.800  29.966  1.00  0.00     0.037 A 
ATOM     69  H   UNL A   1      38.336  29.457  28.107  1.00  0.00     0.065 H 
ATOM     70  H   UNL A   1      37.846  35.031  35.074  1.00  0.00     0.065 H 
ATOM     71  C   UNL A   1      39.881  33.074  35.492  1.00  0.00     0.037 A 
ATOM     72  C   UNL A   1      41.319  28.576  30.993  1.00  0.00     0.049 A 
ATOM     73  C   UNL A   1      40.891  31.957  35.427  1.00  0.00     0.074 A 
ATOM     74  C   UNL A   1      42.347  27.650  31.012  1.00  0.00    -0.036 A 
ATOM     75  N   UNL A   1      41.396  29.285  32.182  1.00  0.00    -0.354 N 
ATOM     76  N   UNL A   1      41.132  31.112  34.456  1.00  0.00    -0.248 NA
ATOM     77  C   UNL A   1      41.745  31.765  36.610  1.00  0.00    -0.034 C 
ATOM     78  C   UNL A   1      43.011  27.760  32.237  1.00  0.00    -0.036 A 
ATOM     79  H   UNL A   1      42.582  26.992  30.254  1.00  0.00     0.065 H 
ATOM     80  C   UNL A   1      42.437  28.797  32.955  1.00  0.00     0.049 A 
ATOM     81  H   UNL A   1      40.799  30.025  32.439  1.00  0.00     0.167 HD
ATOM     82  C   UNL A   1      42.189  30.322  34.890  1.00  0.00     0.074 A 
ATOM     83  C   UNL A   1      42.550  30.793  36.209  1.00  0.00    -0.034 C 
ATOM     84  H   UNL A   1      41.723  32.260  37.515  1.00  0.00     0.065 H 
ATOM     85  H   UNL A   1      43.796  27.169  32.553  1.00  0.00     0.065 H 
ATOM     86  C   UNL A   1      42.807  29.299  34.252  1.00  0.00     0.037 A 
ATOM     87  H   UNL A   1      43.333  30.419  36.766  1.00  0.00     0.065 H 
BRANCH  68  88
ATOM     88  C   UNL A   1      40.342  27.875  28.785  1.00  0.00     0.064 A 
ATOM     89  C   UNL A   1      41.090  28.153  27.632  1.00  0.00     0.173 A 
ATOM     90  C   UNL A   1      39.656  26.651  28.843  1.00  0.00     0.173 A 
ATOM     91  F   UNL A   1      41.754  29.313  27.522  1.00  0.00    -0.203 F 
ATOM     92  C   UNL A   1      41.141  27.247  26.577  1.00  0.00     0.198 A 
ATOM     93  C   UNL A   1      39.735  25.734  27.799  1.00  0.00     0.198 A 
ATOM     94  F   UNL A   1      38.932  26.333  29.927  1.00  0.00    -0.203 F 
ATOM     95  F   UNL A   1      41.838  27.547  25.472  1.00  0.00    -0.200 F 
ATOM     96  C   UNL A   1      40.474  26.035  26.666  1.00  0.00     0.200 A 
ATOM     97  F   UNL A   1      39.103  24.557  27.895  1.00  0.00    -0.200 F 
ATOM     98  F   UNL A   1      40.544  25.153  25.658  1.00  0.00    -0.200 F 
ENDBRANCH  68  88
BRANCH  71  99
ATOM     99  C   UNL A   1      39.781  33.926  36.707  1.00  0.00     0.064 A 
ATOM    100  C   UNL A   1      38.960  33.553  37.782  1.00  0.00     0.173 A 
ATOM    101  C   UNL A   1      40.456  35.153  36.800  1.00  0.00     0.173 A 
ATOM    102  F   UNL A   1      38.276  32.401  37.733  1.00  0.00    -0.203 F 
ATOM    103  C   UNL A   1      38.784  34.392  38.882  1.00  0.00     0.198 A 
ATOM    104  C   UNL A   1      40.306  35.975  37.916  1.00  0.00     0.198 A 
ATOM    105  F   UNL A   1      41.257  35.557  35.805  1.00  0.00    -0.203 F 
ATOM    106  F   UNL A   1      37.938  34.042  39.860  1.00  0.00    -0.200 F 
ATOM    107  C   UNL A   1      39.459  35.601  38.949  1.00  0.00     0.200 A 
ATOM    108  F   UNL A   1      40.972  37.135  37.984  1.00  0.00    -0.200 F 
ATOM    109  F   UNL A   1      39.283  36.411  40.001  1.00  0.00    -0.200 F 
ENDBRANCH  71  99
BRANCH  86 110
ATOM    110  C   UNL A   1      43.980  28.657  34.934  1.00  0.00     0.064 A 
ATOM    111  C   UNL A   1      43.835  27.530  35.754  1.00  0.00     0.173 A 
ATOM    112  C   UNL A   1      45.277  29.148  34.713  1.00  0.00     0.173 A 
ATOM    113  F   UNL A   1      42.616  27.031  36.008  1.00  0.00    -0.203 F 
ATOM    114  C   UNL A   1      44.943  26.929  36.345  1.00  0.00     0.198 A 
ATOM    115  C   UNL A   1      46.384  28.525  35.279  1.00  0.00     0.198 A 
ATOM    116  F   UNL A   1      45.470  30.222  33.931  1.00  0.00    -0.203 F 
ATOM    117  F   UNL A   1      44.778  25.878  37.160  1.00  0.00    -0.200 F 
ATOM    118  C   UNL A   1      46.217  27.421  36.098  1.00  0.00     0.200 A 
ATOM    119  F   UNL A   1      47.616  28.992  35.025  1.00  0.00    -0.200 F 
ATOM    120  F   UNL A   1      47.284  26.831  36.655  1.00  0.00    -0.200 F 
ENDBRANCH  86 110
ENDBRANCH  51  54
ENDBRANCH  41  44
ENDBRANCH  37  40
ENDBRANCH  34  37
ENDBRANCH  31  34
ENDBRANCH   1  31
TORSDOF 16
ENDMDL
MODEL 8
REMARK VINA RESULT:     -10.8      6.629     11.372
REMARK SMILES O=C(/C=C/c1ccc(O)c(O)c1)NCCCCCCNC(=O)c1ccc(-c2c3nc(c(-c4c(F)c(F)c(F)c(F)c4F)c4ccc([nH]4)c(-c4c(F)c(F)c(F)c(F)c4F)c4nc(c(-c5c(F)c(F)c(F)c(F)c5F)c5ccc2[nH]5)C=C4)C=C3)cc1
REMARK SMILES IDX 16 1 15 4 14 7 13 10 1 11 2 12 3 14 4 15 5 18 6 19 12 20
REMARK SMILES IDX 7 21 10 23 8 25 11 27 9 29 17 31 18 34 19 37 20 40 21 41
REMARK SMILES IDX 22 43 23 44 24 45 85 46 25 47 84 49 26 51 27 54 28 55 78 56
REMARK SMILES IDX 29 57 83 58 77 59 79 60 30 61 82 62 76 64 75 66 31 68 63 71
REMARK SMILES IDX 43 72 62 73 44 74 47 75 61 76 80 77 45 78 46 80 60 82 81 83
REMARK SMILES IDX 48 86 32 88 33 89 41 90 34 91 35 92 39 93 42 94 36 95 37 96
REMARK SMILES IDX 40 97 38 98 64 99 65 100 73 101 66 102 67 103 71 104 74 105
REMARK SMILES IDX 68 106 69 107 72 108 70 109 49 110 50 111 58 112 51 113
REMARK SMILES IDX 52 114 56 115 59 116 53 117 54 118 57 119 55 120
REMARK H PARENT 16 2 16 3 15 5 15 6 14 8 14 9 13 13 3 16 4 17 6 22 12 24 7 26
REMARK H PARENT 11 28 9 30 17 32 17 33 18 35 18 36 19 38 19 39 20 42 24 48
REMARK H PARENT 85 50 25 52 84 53 83 63 77 65 79 67 82 69 76 70 44 79 47 81
REMARK H PARENT 80 84 45 85 81 87
REMARK Flexibility Score: inf
ROOT
ATOM      1  C   UNL A   1      32.488  29.623  27.266  1.00  0.00    -0.052 C 
ATOM      2  H   UNL A   1      33.480  29.422  26.917  1.00  0.00     0.027 H 
ATOM      3  H   UNL A   1      32.457  30.187  28.174  1.00  0.00     0.027 H 
ENDROOT
BRANCH   1   4
ATOM      4  C   UNL A   1      31.817  28.278  27.581  1.00  0.00    -0.036 C 
ATOM      5  H   UNL A   1      32.498  27.694  28.165  1.00  0.00     0.028 H 
ATOM      6  H   UNL A   1      30.909  28.507  28.098  1.00  0.00     0.028 H 
BRANCH   4   7
ATOM      7  C   UNL A   1      31.420  27.459  26.352  1.00  0.00     0.018 C 
ATOM      8  H   UNL A   1      30.380  27.217  26.416  1.00  0.00     0.049 H 
ATOM      9  H   UNL A   1      31.622  28.042  25.479  1.00  0.00     0.049 H 
BRANCH   7  10
ATOM     10  N   UNL A   1      32.183  26.231  26.265  1.00  0.00    -0.353 N 
ATOM     11  O   UNL A   1      33.879  27.078  24.974  1.00  0.00    -0.270 OA
ATOM     12  C   UNL A   1      33.329  26.131  25.524  1.00  0.00     0.243 C 
ATOM     13  H   UNL A   1      31.865  25.438  26.755  1.00  0.00     0.163 HD
BRANCH  12  14
ATOM     14  C   UNL A   1      33.926  24.776  25.402  1.00  0.00     0.003 C 
ATOM     15  C   UNL A   1      35.156  24.486  24.948  1.00  0.00    -0.049 C 
ATOM     16  H   UNL A   1      33.338  23.979  25.694  1.00  0.00     0.068 H 
ATOM     17  H   UNL A   1      35.732  25.247  24.554  1.00  0.00     0.063 H 
BRANCH  15  18
ATOM     18  C   UNL A   1      35.712  23.127  24.994  1.00  0.00    -0.022 A 
ATOM     19  C   UNL A   1      37.095  22.880  24.955  1.00  0.00    -0.051 A 
ATOM     20  C   UNL A   1      34.827  22.046  25.092  1.00  0.00    -0.009 A 
ATOM     21  C   UNL A   1      37.589  21.569  24.975  1.00  0.00    -0.016 A 
ATOM     22  H   UNL A   1      37.754  23.673  24.913  1.00  0.00     0.063 H 
ATOM     23  C   UNL A   1      35.324  20.751  25.108  1.00  0.00     0.157 A 
ATOM     24  H   UNL A   1      33.810  22.212  25.152  1.00  0.00     0.067 H 
ATOM     25  C   UNL A   1      36.694  20.510  25.044  1.00  0.00     0.157 A 
ATOM     26  H   UNL A   1      38.605  21.394  24.940  1.00  0.00     0.066 H 
BRANCH  23  27
ATOM     27  O   UNL A   1      34.450  19.704  25.178  1.00  0.00    -0.504 OA
ATOM     28  H   UNL A   1      34.594  19.013  25.794  1.00  0.00     0.293 HD
ENDBRANCH  23  27
BRANCH  25  29
ATOM     29  O   UNL A   1      37.110  19.208  25.048  1.00  0.00    -0.504 OA
ATOM     30  H   UNL A   1      37.098  18.710  24.254  1.00  0.00     0.293 HD
ENDBRANCH  25  29
ENDBRANCH  15  18
ENDBRANCH  12  14
ENDBRANCH   7  10
ENDBRANCH   4   7
ENDBRANCH   1   4
BRANCH   1  31
ATOM     31  C   UNL A   1      31.781  30.480  26.211  1.00  0.00    -0.052 C 
ATOM     32  H   UNL A   1      30.846  30.015  25.980  1.00  0.00     0.027 H 
ATOM     33  H   UNL A   1      32.450  30.533  25.377  1.00  0.00     0.027 H 
BRANCH  31  34
ATOM     34  C   UNL A   1      31.503  31.925  26.625  1.00  0.00    -0.036 C 
ATOM     35  H   UNL A   1      30.672  31.924  27.298  1.00  0.00     0.028 H 
ATOM     36  H   UNL A   1      31.315  32.466  25.721  1.00  0.00     0.028 H 
BRANCH  34  37
ATOM     37  C   UNL A   1      32.668  32.631  27.311  1.00  0.00     0.018 C 
ATOM     38  H   UNL A   1      33.526  32.576  26.674  1.00  0.00     0.049 H 
ATOM     39  H   UNL A   1      32.840  32.139  28.246  1.00  0.00     0.049 H 
BRANCH  37  40
ATOM     40  N   UNL A   1      32.387  34.031  27.594  1.00  0.00    -0.352 N 
ATOM     41  C   UNL A   1      32.972  34.863  28.518  1.00  0.00     0.251 C 
ATOM     42  H   UNL A   1      31.677  34.438  27.049  1.00  0.00     0.163 HD
ATOM     43  O   UNL A   1      32.505  35.976  28.737  1.00  0.00    -0.269 OA
BRANCH  41  44
ATOM     44  C   UNL A   1      34.157  34.401  29.271  1.00  0.00     0.039 A 
ATOM     45  C   UNL A   1      33.974  33.755  30.497  1.00  0.00    -0.049 A 
ATOM     46  C   UNL A   1      35.445  34.594  28.764  1.00  0.00    -0.049 A 
ATOM     47  C   UNL A   1      35.078  33.236  31.178  1.00  0.00    -0.053 A 
ATOM     48  H   UNL A   1      33.027  33.660  30.897  1.00  0.00     0.063 H 
ATOM     49  C   UNL A   1      36.534  34.014  29.406  1.00  0.00    -0.053 A 
ATOM     50  H   UNL A   1      35.587  35.164  27.915  1.00  0.00     0.063 H 
ATOM     51  C   UNL A   1      36.363  33.326  30.620  1.00  0.00    -0.014 A 
ATOM     52  H   UNL A   1      34.948  32.783  32.096  1.00  0.00     0.063 H 
ATOM     53  H   UNL A   1      37.475  34.089  28.989  1.00  0.00     0.063 H 
BRANCH  51  54
ATOM     54  C   UNL A   1      37.547  32.718  31.280  1.00  0.00     0.031 A 
ATOM     55  C   UNL A   1      38.230  31.534  30.649  1.00  0.00     0.074 A 
ATOM     56  C   UNL A   1      37.954  33.170  32.483  1.00  0.00     0.049 A 
ATOM     57  N   UNL A   1      39.189  30.780  31.124  1.00  0.00    -0.248 NA
ATOM     58  C   UNL A   1      37.751  31.125  29.319  1.00  0.00    -0.034 C 
ATOM     59  C   UNL A   1      37.355  34.287  33.216  1.00  0.00    -0.036 A 
ATOM     60  N   UNL A   1      38.955  32.730  33.314  1.00  0.00    -0.354 N 
ATOM     61  C   UNL A   1      39.405  29.797  30.168  1.00  0.00     0.074 A 
ATOM     62  C   UNL A   1      38.456  30.025  29.101  1.00  0.00    -0.034 C 
ATOM     63  H   UNL A   1      37.049  31.578  28.713  1.00  0.00     0.065 H 
ATOM     64  C   UNL A   1      38.004  34.451  34.380  1.00  0.00    -0.036 A 
ATOM     65  H   UNL A   1      36.559  34.858  32.889  1.00  0.00     0.065 H 
ATOM     66  C   UNL A   1      39.034  33.424  34.499  1.00  0.00     0.049 A 
ATOM     67  H   UNL A   1      39.559  31.987  33.084  1.00  0.00     0.167 HD
ATOM     68  C   UNL A   1      40.326  28.804  30.174  1.00  0.00     0.037 A 
ATOM     69  H   UNL A   1      38.343  29.410  28.279  1.00  0.00     0.065 H 
ATOM     70  H   UNL A   1      37.807  35.185  35.077  1.00  0.00     0.065 H 
ATOM     71  C   UNL A   1      39.834  33.238  35.568  1.00  0.00     0.037 A 
ATOM     72  C   UNL A   1      41.300  28.608  31.214  1.00  0.00     0.049 A 
ATOM     73  C   UNL A   1      40.842  32.117  35.545  1.00  0.00     0.074 A 
ATOM     74  C   UNL A   1      42.326  27.681  31.269  1.00  0.00    -0.036 A 
ATOM     75  N   UNL A   1      41.368  29.351  32.383  1.00  0.00    -0.354 N 
ATOM     76  N   UNL A   1      41.089  31.243  34.601  1.00  0.00    -0.248 NA
ATOM     77  C   UNL A   1      41.686  31.958  36.740  1.00  0.00    -0.034 C 
ATOM     78  C   UNL A   1      42.979  27.825  32.496  1.00  0.00    -0.036 A 
ATOM     79  H   UNL A   1      42.566  27.000  30.532  1.00  0.00     0.065 H 
ATOM     80  C   UNL A   1      42.401  28.883  33.178  1.00  0.00     0.049 A 
ATOM     81  H   UNL A   1      40.771  30.099  32.614  1.00  0.00     0.167 HD
ATOM     82  C   UNL A   1      42.141  30.465  35.066  1.00  0.00     0.074 A 
ATOM     83  C   UNL A   1      42.492  30.973  36.374  1.00  0.00    -0.034 C 
ATOM     84  H   UNL A   1      41.657  32.479  37.630  1.00  0.00     0.065 H 
ATOM     85  H   UNL A   1      43.761  27.242  32.836  1.00  0.00     0.065 H 
ATOM     86  C   UNL A   1      42.762  29.422  34.463  1.00  0.00     0.037 A 
ATOM     87  H   UNL A   1      43.270  30.614  36.948  1.00  0.00     0.065 H 
BRANCH  68  88
ATOM     88  C   UNL A   1      40.339  27.845  29.020  1.00  0.00     0.064 A 
ATOM     89  C   UNL A   1      39.562  26.678  29.020  1.00  0.00     0.173 A 
ATOM     90  C   UNL A   1      41.075  28.143  27.862  1.00  0.00     0.173 A 
ATOM     91  F   UNL A   1      38.848  26.343  30.105  1.00  0.00    -0.203 F 
ATOM     92  C   UNL A   1      39.530  25.839  27.909  1.00  0.00     0.198 A 
ATOM     93  C   UNL A   1      41.017  27.319  26.742  1.00  0.00     0.198 A 
ATOM     94  F   UNL A   1      41.830  29.251  27.808  1.00  0.00    -0.203 F 
ATOM     95  F   UNL A   1      38.803  24.714  27.943  1.00  0.00    -0.200 F 
ATOM     96  C   UNL A   1      40.248  26.166  26.768  1.00  0.00     0.200 A 
ATOM     97  F   UNL A   1      41.698  27.644  25.636  1.00  0.00    -0.200 F 
ATOM     98  F   UNL A   1      40.197  25.369  25.692  1.00  0.00    -0.200 F 
ENDBRANCH  68  88
BRANCH  71  99
ATOM     99  C   UNL A   1      39.726  34.125  36.758  1.00  0.00     0.064 A 
ATOM    100  C   UNL A   1      40.475  35.308  36.844  1.00  0.00     0.173 A 
ATOM    101  C   UNL A   1      38.919  33.785  37.854  1.00  0.00     0.173 A 
ATOM    102  F   UNL A   1      41.278  35.666  35.833  1.00  0.00    -0.203 F 
ATOM    103  C   UNL A   1      40.453  36.093  37.996  1.00  0.00     0.198 A 
ATOM    104  C   UNL A   1      38.872  34.590  38.991  1.00  0.00     0.198 A 
ATOM    105  F   UNL A   1      38.179  32.668  37.824  1.00  0.00    -0.203 F 
ATOM    106  F   UNL A   1      41.234  37.180  38.077  1.00  0.00    -0.200 F 
ATOM    107  C   UNL A   1      39.650  35.735  39.068  1.00  0.00     0.200 A 
ATOM    108  F   UNL A   1      38.083  34.248  40.019  1.00  0.00    -0.200 F 
ATOM    109  F   UNL A   1      39.637  36.484  40.178  1.00  0.00    -0.200 F 
ENDBRANCH  71  99
BRANCH  86 110
ATOM    110  C   UNL A   1      43.928  28.799  35.174  1.00  0.00     0.064 A 
ATOM    111  C   UNL A   1      43.769  27.715  36.049  1.00  0.00     0.173 A 
ATOM    112  C   UNL A   1      45.231  29.259  34.925  1.00  0.00     0.173 A 
ATOM    113  F   UNL A   1      42.544  27.248  36.331  1.00  0.00    -0.203 F 
ATOM    114  C   UNL A   1      44.871  27.129  36.666  1.00  0.00     0.198 A 
ATOM    115  C   UNL A   1      46.331  28.649  35.518  1.00  0.00     0.198 A 
ATOM    116  F   UNL A   1      45.437  30.289  34.090  1.00  0.00    -0.203 F 
ATOM    117  F   UNL A   1      44.694  26.123  37.533  1.00  0.00    -0.200 F 
ATOM    118  C   UNL A   1      46.151  27.590  36.392  1.00  0.00     0.200 A 
ATOM    119  F   UNL A   1      47.569  29.085  35.239  1.00  0.00    -0.200 F 
ATOM    120  F   UNL A   1      47.211  27.013  36.976  1.00  0.00    -0.200 F 
ENDBRANCH  86 110
ENDBRANCH  51  54
ENDBRANCH  41  44
ENDBRANCH  37  40
ENDBRANCH  34  37
ENDBRANCH  31  34
ENDBRANCH   1  31
TORSDOF 16
ENDMDL
MODEL 9
REMARK VINA RESULT:     -10.8      5.746      9.764
REMARK SMILES O=C(/C=C/c1ccc(O)c(O)c1)NCCCCCCNC(=O)c1ccc(-c2c3nc(c(-c4c(F)c(F)c(F)c(F)c4F)c4ccc([nH]4)c(-c4c(F)c(F)c(F)c(F)c4F)c4nc(c(-c5c(F)c(F)c(F)c(F)c5F)c5ccc2[nH]5)C=C4)C=C3)cc1
REMARK SMILES IDX 16 1 15 4 14 7 13 10 1 11 2 12 3 14 4 15 5 18 6 19 12 20
REMARK SMILES IDX 7 21 10 23 8 25 11 27 9 29 17 31 18 34 19 37 20 40 21 41
REMARK SMILES IDX 22 43 23 44 24 45 85 46 25 47 84 49 26 51 27 54 28 55 78 56
REMARK SMILES IDX 29 57 83 58 77 59 79 60 30 61 82 62 76 64 75 66 31 68 63 71
REMARK SMILES IDX 43 72 62 73 44 74 47 75 61 76 80 77 45 78 46 80 60 82 81 83
REMARK SMILES IDX 48 86 32 88 33 89 41 90 34 91 35 92 39 93 42 94 36 95 37 96
REMARK SMILES IDX 40 97 38 98 64 99 65 100 73 101 66 102 67 103 71 104 74 105
REMARK SMILES IDX 68 106 69 107 72 108 70 109 49 110 50 111 58 112 51 113
REMARK SMILES IDX 52 114 56 115 59 116 53 117 54 118 57 119 55 120
REMARK H PARENT 16 2 16 3 15 5 15 6 14 8 14 9 13 13 3 16 4 17 6 22 12 24 7 26
REMARK H PARENT 11 28 9 30 17 32 17 33 18 35 18 36 19 38 19 39 20 42 24 48
REMARK H PARENT 85 50 25 52 84 53 83 63 77 65 79 67 82 69 76 70 44 79 47 81
REMARK H PARENT 80 84 45 85 81 87
REMARK Flexibility Score: inf
ROOT
ATOM      1  C   UNL A   1      33.513  27.062  24.009  1.00  0.00    -0.052 C 
ATOM      2  H   UNL A   1      34.011  28.007  24.086  1.00  0.00     0.027 H 
ATOM      3  H   UNL A   1      34.166  26.222  24.122  1.00  0.00     0.027 H 
ENDROOT
BRANCH   1   4
ATOM      4  C   UNL A   1      32.924  26.951  22.596  1.00  0.00    -0.036 C 
ATOM      5  H   UNL A   1      32.682  27.938  22.257  1.00  0.00     0.028 H 
ATOM      6  H   UNL A   1      33.668  26.472  21.994  1.00  0.00     0.028 H 
BRANCH   4   7
ATOM      7  C   UNL A   1      31.665  26.090  22.493  1.00  0.00     0.018 C 
ATOM      8  H   UNL A   1      31.061  26.252  23.361  1.00  0.00     0.049 H 
ATOM      9  H   UNL A   1      31.137  26.370  21.606  1.00  0.00     0.049 H 
BRANCH   7  10
ATOM     10  N   UNL A   1      31.990  24.682  22.403  1.00  0.00    -0.353 N 
ATOM     11  O   UNL A   1      30.837  24.035  24.277  1.00  0.00    -0.270 OA
ATOM     12  C   UNL A   1      31.594  23.776  23.348  1.00  0.00     0.243 C 
ATOM     13  H   UNL A   1      32.518  24.365  21.634  1.00  0.00     0.163 HD
BRANCH  12  14
ATOM     14  C   UNL A   1      32.124  22.395  23.209  1.00  0.00     0.003 C 
ATOM     15  C   UNL A   1      32.476  21.573  24.211  1.00  0.00    -0.049 C 
ATOM     16  H   UNL A   1      32.233  22.032  22.249  1.00  0.00     0.068 H 
ATOM     17  H   UNL A   1      32.475  21.938  25.176  1.00  0.00     0.063 H 
BRANCH  15  18
ATOM     18  C   UNL A   1      32.860  20.173  23.983  1.00  0.00    -0.022 A 
ATOM     19  C   UNL A   1      33.914  19.561  24.681  1.00  0.00    -0.051 A 
ATOM     20  C   UNL A   1      32.136  19.427  23.045  1.00  0.00    -0.009 A 
ATOM     21  C   UNL A   1      34.269  18.231  24.420  1.00  0.00    -0.016 A 
ATOM     22  H   UNL A   1      34.432  20.096  25.395  1.00  0.00     0.063 H 
ATOM     23  C   UNL A   1      32.495  18.111  22.791  1.00  0.00     0.157 A 
ATOM     24  H   UNL A   1      31.339  19.853  22.546  1.00  0.00     0.067 H 
ATOM     25  C   UNL A   1      33.558  17.517  23.466  1.00  0.00     0.157 A 
ATOM     26  H   UNL A   1      35.049  17.789  24.931  1.00  0.00     0.066 H 
BRANCH  23  27
ATOM     27  O   UNL A   1      31.798  17.401  21.855  1.00  0.00    -0.504 OA
ATOM     28  H   UNL A   1      32.181  17.225  21.018  1.00  0.00     0.293 HD
ENDBRANCH  23  27
BRANCH  25  29
ATOM     29  O   UNL A   1      33.865  16.222  23.151  1.00  0.00    -0.504 OA
ATOM     30  H   UNL A   1      34.263  15.666  23.792  1.00  0.00     0.293 HD
ENDBRANCH  25  29
ENDBRANCH  15  18
ENDBRANCH  12  14
ENDBRANCH   7  10
ENDBRANCH   4   7
ENDBRANCH   1   4
BRANCH   1  31
ATOM     31  C   UNL A   1      32.499  26.967  25.154  1.00  0.00    -0.052 C 
ATOM     32  H   UNL A   1      32.943  26.398  25.943  1.00  0.00     0.027 H 
ATOM     33  H   UNL A   1      31.625  26.512  24.737  1.00  0.00     0.027 H 
BRANCH  31  34
ATOM     34  C   UNL A   1      32.045  28.307  25.733  1.00  0.00    -0.036 C 
ATOM     35  H   UNL A   1      31.963  28.199  26.794  1.00  0.00     0.028 H 
ATOM     36  H   UNL A   1      31.115  28.540  25.258  1.00  0.00     0.028 H 
BRANCH  34  37
ATOM     37  C   UNL A   1      32.977  29.479  25.447  1.00  0.00     0.018 C 
ATOM     38  H   UNL A   1      33.104  29.565  24.388  1.00  0.00     0.049 H 
ATOM     39  H   UNL A   1      33.906  29.283  25.940  1.00  0.00     0.049 H 
BRANCH  37  40
ATOM     40  N   UNL A   1      32.464  30.742  25.959  1.00  0.00    -0.352 N 
ATOM     41  C   UNL A   1      32.952  31.526  26.977  1.00  0.00     0.251 C 
ATOM     42  H   UNL A   1      31.654  31.080  25.515  1.00  0.00     0.163 HD
ATOM     43  O   UNL A   1      32.304  32.484  27.389  1.00  0.00    -0.269 OA
BRANCH  41  44
ATOM     44  C   UNL A   1      34.252  31.195  27.597  1.00  0.00     0.039 A 
ATOM     45  C   UNL A   1      35.215  32.199  27.733  1.00  0.00    -0.049 A 
ATOM     46  C   UNL A   1      34.515  29.902  28.056  1.00  0.00    -0.049 A 
ATOM     47  C   UNL A   1      36.414  31.924  28.395  1.00  0.00    -0.053 A 
ATOM     48  H   UNL A   1      35.041  33.140  27.347  1.00  0.00     0.063 H 
ATOM     49  C   UNL A   1      35.677  29.648  28.778  1.00  0.00    -0.053 A 
ATOM     50  H   UNL A   1      33.849  29.138  27.860  1.00  0.00     0.063 H 
ATOM     51  C   UNL A   1      36.639  30.657  28.957  1.00  0.00    -0.014 A 
ATOM     52  H   UNL A   1      37.138  32.655  28.472  1.00  0.00     0.063 H 
ATOM     53  H   UNL A   1      35.834  28.713  29.184  1.00  0.00     0.063 H 
BRANCH  51  54
ATOM     54  C   UNL A   1      37.869  30.354  29.735  1.00  0.00     0.031 A 
ATOM     55  C   UNL A   1      38.898  29.413  29.170  1.00  0.00     0.074 A 
ATOM     56  C   UNL A   1      38.019  30.852  30.978  1.00  0.00     0.049 A 
ATOM     57  N   UNL A   1      39.970  28.917  29.737  1.00  0.00    -0.248 NA
ATOM     58  C   UNL A   1      38.680  28.942  27.792  1.00  0.00    -0.034 C 
ATOM     59  C   UNL A   1      37.077  31.747  31.653  1.00  0.00    -0.036 A 
ATOM     60  N   UNL A   1      39.012  30.657  31.908  1.00  0.00    -0.354 N 
ATOM     61  C   UNL A   1      40.532  28.060  28.800  1.00  0.00     0.074 A 
ATOM     62  C   UNL A   1      39.668  28.073  27.641  1.00  0.00    -0.034 C 
ATOM     63  H   UNL A   1      37.949  29.219  27.118  1.00  0.00     0.065 H 
ATOM     64  C   UNL A   1      37.540  32.031  32.881  1.00  0.00    -0.036 A 
ATOM     65  H   UNL A   1      36.197  32.102  31.249  1.00  0.00     0.065 H 
ATOM     66  C   UNL A   1      38.787  31.304  33.100  1.00  0.00     0.049 A 
ATOM     67  H   UNL A   1      39.810  30.106  31.737  1.00  0.00     0.167 HD
ATOM     68  C   UNL A   1      41.676  27.341  28.896  1.00  0.00     0.037 A 
ATOM     69  H   UNL A   1      39.803  27.480  26.806  1.00  0.00     0.065 H 
ATOM     70  H   UNL A   1      37.088  32.662  33.560  1.00  0.00     0.065 H 
ATOM     71  C   UNL A   1      39.496  31.293  34.247  1.00  0.00     0.037 A 
ATOM     72  C   UNL A   1      42.557  27.368  30.033  1.00  0.00     0.049 A 
ATOM     73  C   UNL A   1      40.760  30.474  34.321  1.00  0.00     0.074 A 
ATOM     74  C   UNL A   1      43.779  26.738  30.188  1.00  0.00    -0.036 A 
ATOM     75  N   UNL A   1      42.309  28.059  31.209  1.00  0.00    -0.354 N 
ATOM     76  N   UNL A   1      41.321  29.731  33.401  1.00  0.00    -0.248 NA
ATOM     77  C   UNL A   1      41.491  30.497  35.598  1.00  0.00    -0.034 C 
ATOM     78  C   UNL A   1      44.245  27.002  31.479  1.00  0.00    -0.036 A 
ATOM     79  H   UNL A   1      44.262  26.171  29.475  1.00  0.00     0.065 H 
ATOM     80  C   UNL A   1      43.344  27.848  32.105  1.00  0.00     0.049 A 
ATOM     81  H   UNL A   1      41.516  28.617  31.381  1.00  0.00     0.167 HD
ATOM     82  C   UNL A   1      42.488  29.237  33.969  1.00  0.00     0.074 A 
ATOM     83  C   UNL A   1      42.560  29.770  35.311  1.00  0.00    -0.034 C 
ATOM     84  H   UNL A   1      41.237  30.959  36.484  1.00  0.00     0.065 H 
ATOM     85  H   UNL A   1      45.114  26.630  31.895  1.00  0.00     0.065 H 
ATOM     86  C   UNL A   1      43.418  28.414  33.426  1.00  0.00     0.037 A 
ATOM     87  H   UNL A   1      43.343  29.605  35.962  1.00  0.00     0.065 H 
BRANCH  68  88
ATOM     88  C   UNL A   1      42.056  26.462  27.741  1.00  0.00     0.064 A 
ATOM     89  C   UNL A   1      43.008  26.860  26.792  1.00  0.00     0.173 A 
ATOM     90  C   UNL A   1      41.523  25.168  27.633  1.00  0.00     0.173 A 
ATOM     91  F   UNL A   1      43.541  28.090  26.844  1.00  0.00    -0.203 F 
ATOM     92  C   UNL A   1      43.403  26.000  25.770  1.00  0.00     0.198 A 
ATOM     93  C   UNL A   1      41.942  24.300  26.629  1.00  0.00     0.198 A 
ATOM     94  F   UNL A   1      40.613  24.736  28.520  1.00  0.00    -0.203 F 
ATOM     95  F   UNL A   1      44.292  26.412  24.856  1.00  0.00    -0.200 F 
ATOM     96  C   UNL A   1      42.879  24.718  25.697  1.00  0.00     0.200 A 
ATOM     97  F   UNL A   1      41.446  23.057  26.569  1.00  0.00    -0.200 F 
ATOM     98  F   UNL A   1      43.277  23.884  24.726  1.00  0.00    -0.200 F 
ENDBRANCH  68  88
BRANCH  71  99
ATOM     99  C   UNL A   1      39.039  32.077  35.426  1.00  0.00     0.064 A 
ATOM    100  C   UNL A   1      39.371  33.433  35.562  1.00  0.00     0.173 A 
ATOM    101  C   UNL A   1      38.311  31.479  36.467  1.00  0.00     0.173 A 
ATOM    102  F   UNL A   1      40.084  34.046  34.606  1.00  0.00    -0.203 F 
ATOM    103  C   UNL A   1      39.032  34.148  36.709  1.00  0.00     0.198 A 
ATOM    104  C   UNL A   1      37.942  32.205  37.597  1.00  0.00     0.198 A 
ATOM    105  F   UNL A   1      37.963  30.187  36.387  1.00  0.00    -0.203 F 
ATOM    106  F   UNL A   1      39.425  35.422  36.842  1.00  0.00    -0.200 F 
ATOM    107  C   UNL A   1      38.315  33.535  37.725  1.00  0.00     0.200 A 
ATOM    108  F   UNL A   1      37.236  31.612  38.570  1.00  0.00    -0.200 F 
ATOM    109  F   UNL A   1      37.997  34.219  38.831  1.00  0.00    -0.200 F 
ENDBRANCH  71  99
BRANCH  86 110
ATOM    110  C   UNL A   1      44.629  28.090  34.251  1.00  0.00     0.064 A 
ATOM    111  C   UNL A   1      45.770  28.905  34.247  1.00  0.00     0.173 A 
ATOM    112  C   UNL A   1      44.621  26.975  35.105  1.00  0.00     0.173 A 
ATOM    113  F   UNL A   1      45.833  29.973  33.437  1.00  0.00    -0.203 F 
ATOM    114  C   UNL A   1      46.866  28.605  35.051  1.00  0.00     0.198 A 
ATOM    115  C   UNL A   1      45.705  26.698  35.932  1.00  0.00     0.198 A 
ATOM    116  F   UNL A   1      43.551  26.167  35.153  1.00  0.00    -0.203 F 
ATOM    117  F   UNL A   1      47.963  29.373  34.998  1.00  0.00    -0.200 F 
ATOM    118  C   UNL A   1      46.828  27.508  35.900  1.00  0.00     0.200 A 
ATOM    119  F   UNL A   1      45.660  25.647  36.764  1.00  0.00    -0.200 F 
ATOM    120  F   UNL A   1      47.879  27.231  36.684  1.00  0.00    -0.200 F 
ENDBRANCH  86 110
ENDBRANCH  51  54
ENDBRANCH  41  44
ENDBRANCH  37  40
ENDBRANCH  34  37
ENDBRANCH  31  34
ENDBRANCH   1  31
TORSDOF 16
ENDMDL
MODEL 10
REMARK VINA RESULT:     -10.8      1.605      2.466
REMARK SMILES O=C(/C=C/c1ccc(O)c(O)c1)NCCCCCCNC(=O)c1ccc(-c2c3nc(c(-c4c(F)c(F)c(F)c(F)c4F)c4ccc([nH]4)c(-c4c(F)c(F)c(F)c(F)c4F)c4nc(c(-c5c(F)c(F)c(F)c(F)c5F)c5ccc2[nH]5)C=C4)C=C3)cc1
REMARK SMILES IDX 16 1 15 4 14 7 13 10 1 11 2 12 3 14 4 15 5 18 6 19 12 20
REMARK SMILES IDX 7 21 10 23 8 25 11 27 9 29 17 31 18 34 19 37 20 40 21 41
REMARK SMILES IDX 22 43 23 44 24 45 85 46 25 47 84 49 26 51 27 54 28 55 78 56
REMARK SMILES IDX 29 57 83 58 77 59 79 60 30 61 82 62 76 64 75 66 31 68 63 71
REMARK SMILES IDX 43 72 62 73 44 74 47 75 61 76 80 77 45 78 46 80 60 82 81 83
REMARK SMILES IDX 48 86 32 88 33 89 41 90 34 91 35 92 39 93 42 94 36 95 37 96
REMARK SMILES IDX 40 97 38 98 64 99 65 100 73 101 66 102 67 103 71 104 74 105
REMARK SMILES IDX 68 106 69 107 72 108 70 109 49 110 50 111 58 112 51 113
REMARK SMILES IDX 52 114 56 115 59 116 53 117 54 118 57 119 55 120
REMARK H PARENT 16 2 16 3 15 5 15 6 14 8 14 9 13 13 3 16 4 17 6 22 12 24 7 26
REMARK H PARENT 11 28 9 30 17 32 17 33 18 35 18 36 19 38 19 39 20 42 24 48
REMARK H PARENT 85 50 25 52 84 53 83 63 77 65 79 67 82 69 76 70 44 79 47 81
REMARK H PARENT 80 84 45 85 81 87
REMARK Flexibility Score: inf
ROOT
ATOM      1  C   UNL A   1      41.995  20.974  27.152  1.00  0.00    -0.052 C 
ATOM      2  H   UNL A   1      42.784  21.516  27.632  1.00  0.00     0.027 H 
ATOM      3  H   UNL A   1      42.120  20.882  26.093  1.00  0.00     0.027 H 
ENDROOT
BRANCH   1   4
ATOM      4  C   UNL A   1      40.691  21.758  27.356  1.00  0.00    -0.036 C 
ATOM      5  H   UNL A   1      39.935  21.070  27.675  1.00  0.00     0.028 H 
ATOM      6  H   UNL A   1      40.903  22.515  28.081  1.00  0.00     0.028 H 
BRANCH   4   7
ATOM      7  C   UNL A   1      40.179  22.483  26.111  1.00  0.00     0.018 C 
ATOM      8  H   UNL A   1      40.892  23.226  25.823  1.00  0.00     0.049 H 
ATOM      9  H   UNL A   1      40.046  21.762  25.332  1.00  0.00     0.049 H 
BRANCH   7  10
ATOM     10  N   UNL A   1      38.904  23.126  26.357  1.00  0.00    -0.353 N 
ATOM     11  O   UNL A   1      37.666  21.762  24.991  1.00  0.00    -0.270 OA
ATOM     12  C   UNL A   1      37.755  22.743  25.721  1.00  0.00     0.243 C 
ATOM     13  H   UNL A   1      38.864  23.866  27.005  1.00  0.00     0.163 HD
BRANCH  12  14
ATOM     14  C   UNL A   1      36.553  23.584  25.956  1.00  0.00     0.003 C 
ATOM     15  C   UNL A   1      35.423  23.577  25.232  1.00  0.00    -0.049 C 
ATOM     16  H   UNL A   1      36.591  24.238  26.754  1.00  0.00     0.068 H 
ATOM     17  H   UNL A   1      35.390  23.010  24.369  1.00  0.00     0.063 H 
BRANCH  15  18
ATOM     18  C   UNL A   1      34.233  24.345  25.622  1.00  0.00    -0.022 A 
ATOM     19  C   UNL A   1      34.122  25.727  25.392  1.00  0.00    -0.051 A 
ATOM     20  C   UNL A   1      33.171  23.666  26.231  1.00  0.00    -0.009 A 
ATOM     21  C   UNL A   1      32.983  26.431  25.800  1.00  0.00    -0.016 A 
ATOM     22  H   UNL A   1      34.889  26.227  24.916  1.00  0.00     0.063 H 
ATOM     23  C   UNL A   1      32.047  24.372  26.634  1.00  0.00     0.157 A 
ATOM     24  H   UNL A   1      33.224  22.645  26.379  1.00  0.00     0.067 H 
ATOM     25  C   UNL A   1      31.953  25.745  26.428  1.00  0.00     0.157 A 
ATOM     26  H   UNL A   1      32.910  27.447  25.635  1.00  0.00     0.066 H 
BRANCH  23  27
ATOM     27  O   UNL A   1      31.028  23.703  27.251  1.00  0.00    -0.504 OA
ATOM     28  H   UNL A   1      30.598  22.996  26.813  1.00  0.00     0.293 HD
ENDBRANCH  23  27
BRANCH  25  29
ATOM     29  O   UNL A   1      30.822  26.377  26.867  1.00  0.00    -0.504 OA
ATOM     30  H   UNL A   1      30.705  27.293  26.707  1.00  0.00     0.293 HD
ENDBRANCH  25  29
ENDBRANCH  15  18
ENDBRANCH  12  14
ENDBRANCH   7  10
ENDBRANCH   4   7
ENDBRANCH   1   4
BRANCH   1  31
ATOM     31  C   UNL A   1      41.998  19.546  27.705  1.00  0.00    -0.052 C 
ATOM     32  H   UNL A   1      40.983  19.248  27.858  1.00  0.00     0.027 H 
ATOM     33  H   UNL A   1      42.575  19.578  28.605  1.00  0.00     0.027 H 
BRANCH  31  34
ATOM     34  C   UNL A   1      42.668  18.502  26.810  1.00  0.00    -0.036 C 
ATOM     35  H   UNL A   1      42.122  17.587  26.900  1.00  0.00     0.028 H 
ATOM     36  H   UNL A   1      43.681  18.425  27.145  1.00  0.00     0.028 H 
BRANCH  34  37
ATOM     37  C   UNL A   1      42.733  18.871  25.332  1.00  0.00     0.018 C 
ATOM     38  H   UNL A   1      42.567  19.924  25.234  1.00  0.00     0.049 H 
ATOM     39  H   UNL A   1      41.982  18.304  24.823  1.00  0.00     0.049 H 
BRANCH  37  40
ATOM     40  N   UNL A   1      44.017  18.543  24.729  1.00  0.00    -0.352 N 
ATOM     41  C   UNL A   1      45.061  19.377  24.405  1.00  0.00     0.251 C 
ATOM     42  H   UNL A   1      44.157  17.592  24.523  1.00  0.00     0.163 HD
ATOM     43  O   UNL A   1      46.012  18.958  23.753  1.00  0.00    -0.269 OA
BRANCH  41  44
ATOM     44  C   UNL A   1      45.022  20.794  24.822  1.00  0.00     0.039 A 
ATOM     45  C   UNL A   1      45.396  21.130  26.126  1.00  0.00    -0.049 A 
ATOM     46  C   UNL A   1      44.630  21.791  23.924  1.00  0.00    -0.049 A 
ATOM     47  C   UNL A   1      45.448  22.473  26.508  1.00  0.00    -0.053 A 
ATOM     48  H   UNL A   1      45.634  20.389  26.804  1.00  0.00     0.063 H 
ATOM     49  C   UNL A   1      44.752  23.130  24.283  1.00  0.00    -0.053 A 
ATOM     50  H   UNL A   1      44.252  21.535  22.999  1.00  0.00     0.063 H 
ATOM     51  C   UNL A   1      45.164  23.486  25.579  1.00  0.00    -0.014 A 
ATOM     52  H   UNL A   1      45.697  22.722  27.478  1.00  0.00     0.063 H 
ATOM     53  H   UNL A   1      44.537  23.867  23.594  1.00  0.00     0.063 H 
BRANCH  51  54
ATOM     54  C   UNL A   1      45.284  24.925  25.930  1.00  0.00     0.031 A 
ATOM     55  C   UNL A   1      46.626  25.603  25.858  1.00  0.00     0.074 A 
ATOM     56  C   UNL A   1      44.212  25.597  26.394  1.00  0.00     0.049 A 
ATOM     57  N   UNL A   1      46.969  26.807  26.244  1.00  0.00    -0.248 NA
ATOM     58  C   UNL A   1      47.738  24.814  25.305  1.00  0.00    -0.034 C 
ATOM     59  C   UNL A   1      42.865  25.044  26.544  1.00  0.00    -0.036 A 
ATOM     60  N   UNL A   1      44.090  26.888  26.848  1.00  0.00    -0.354 N 
ATOM     61  C   UNL A   1      48.333  26.905  26.008  1.00  0.00     0.074 A 
ATOM     62  C   UNL A   1      48.766  25.631  25.479  1.00  0.00    -0.034 C 
ATOM     63  H   UNL A   1      47.722  23.869  24.889  1.00  0.00     0.065 H 
ATOM     64  C   UNL A   1      42.052  25.989  27.044  1.00  0.00    -0.036 A 
ATOM     65  H   UNL A   1      42.584  24.080  26.303  1.00  0.00     0.065 H 
ATOM     66  C   UNL A   1      42.828  27.200  27.295  1.00  0.00     0.049 A 
ATOM     67  H   UNL A   1      44.837  27.529  26.854  1.00  0.00     0.167 HD
ATOM     68  C   UNL A   1      49.147  27.970  26.200  1.00  0.00     0.037 A 
ATOM     69  H   UNL A   1      49.748  25.390  25.267  1.00  0.00     0.065 H 
ATOM     70  H   UNL A   1      41.042  25.877  27.222  1.00  0.00     0.065 H 
ATOM     71  C   UNL A   1      42.356  28.329  27.861  1.00  0.00     0.037 A 
ATOM     72  C   UNL A   1      48.704  29.252  26.682  1.00  0.00     0.049 A 
ATOM     73  C   UNL A   1      43.292  29.493  28.069  1.00  0.00     0.074 A 
ATOM     74  C   UNL A   1      49.438  30.415  26.832  1.00  0.00    -0.036 A 
ATOM     75  N   UNL A   1      47.411  29.537  27.094  1.00  0.00    -0.354 N 
ATOM     76  N   UNL A   1      44.562  29.599  27.768  1.00  0.00    -0.248 NA
ATOM     77  C   UNL A   1      42.723  30.697  28.694  1.00  0.00    -0.034 C 
ATOM     78  C   UNL A   1      48.604  31.389  27.387  1.00  0.00    -0.036 A 
ATOM     79  H   UNL A   1      50.430  30.541  26.578  1.00  0.00     0.065 H 
ATOM     80  C   UNL A   1      47.335  30.852  27.525  1.00  0.00     0.049 A 
ATOM     81  H   UNL A   1      46.660  28.901  27.083  1.00  0.00     0.167 HD
ATOM     82  C   UNL A   1      44.932  30.890  28.124  1.00  0.00     0.074 A 
ATOM     83  C   UNL A   1      43.751  31.533  28.656  1.00  0.00    -0.034 C 
ATOM     84  H   UNL A   1      41.773  30.851  29.065  1.00  0.00     0.065 H 
ATOM     85  H   UNL A   1      48.887  32.347  27.650  1.00  0.00     0.065 H 
ATOM     86  C   UNL A   1      46.143  31.489  28.019  1.00  0.00     0.037 A 
ATOM     87  H   UNL A   1      43.713  32.516  28.967  1.00  0.00     0.065 H 
BRANCH  68  88
ATOM     88  C   UNL A   1      50.606  27.811  25.887  1.00  0.00     0.064 A 
ATOM     89  C   UNL A   1      51.543  27.487  26.878  1.00  0.00     0.173 A 
ATOM     90  C   UNL A   1      51.057  27.900  24.561  1.00  0.00     0.173 A 
ATOM     91  F   UNL A   1      51.165  27.400  28.163  1.00  0.00    -0.203 F 
ATOM     92  C   UNL A   1      52.880  27.271  26.556  1.00  0.00     0.198 A 
ATOM     93  C   UNL A   1      52.388  27.653  24.238  1.00  0.00     0.198 A 
ATOM     94  F   UNL A   1      50.200  28.201  23.574  1.00  0.00    -0.203 F 
ATOM     95  F   UNL A   1      53.764  26.992  27.524  1.00  0.00    -0.200 F 
ATOM     96  C   UNL A   1      53.299  27.342  25.236  1.00  0.00     0.200 A 
ATOM     97  F   UNL A   1      52.787  27.707  22.960  1.00  0.00    -0.200 F 
ATOM     98  F   UNL A   1      54.582  27.110  24.925  1.00  0.00    -0.200 F 
ENDBRANCH  68  88
BRANCH  71  99
ATOM     99  C   UNL A   1      40.931  28.428  28.278  1.00  0.00     0.064 A 
ATOM    100  C   UNL A   1      39.961  28.950  27.408  1.00  0.00     0.173 A 
ATOM    101  C   UNL A   1      40.517  28.057  29.566  1.00  0.00     0.173 A 
ATOM    102  F   UNL A   1      40.310  29.339  26.174  1.00  0.00    -0.203 F 
ATOM    103  C   UNL A   1      38.644  29.137  27.825  1.00  0.00     0.198 A 
ATOM    104  C   UNL A   1      39.192  28.213  29.970  1.00  0.00     0.198 A 
ATOM    105  F   UNL A   1      41.401  27.549  30.436  1.00  0.00    -0.203 F 
ATOM    106  F   UNL A   1      37.757  29.704  26.997  1.00  0.00    -0.200 F 
ATOM    107  C   UNL A   1      38.260  28.766  29.104  1.00  0.00     0.200 A 
ATOM    108  F   UNL A   1      38.821  27.839  31.202  1.00  0.00    -0.200 F 
ATOM    109  F   UNL A   1      36.997  28.955  29.508  1.00  0.00    -0.200 F 
ENDBRANCH  71  99
BRANCH  86 110
ATOM    110  C   UNL A   1      46.244  32.931  28.422  1.00  0.00     0.064 A 
ATOM    111  C   UNL A   1      46.002  33.973  27.516  1.00  0.00     0.173 A 
ATOM    112  C   UNL A   1      46.531  33.271  29.754  1.00  0.00     0.173 A 
ATOM    113  F   UNL A   1      45.738  33.701  26.229  1.00  0.00    -0.203 F 
ATOM    114  C   UNL A   1      46.064  35.303  27.924  1.00  0.00     0.198 A 
ATOM    115  C   UNL A   1      46.560  34.600  30.165  1.00  0.00     0.198 A 
ATOM    116  F   UNL A   1      46.764  32.310  30.663  1.00  0.00    -0.203 F 
ATOM    117  F   UNL A   1      45.872  36.284  27.032  1.00  0.00    -0.200 F 
ATOM    118  C   UNL A   1      46.332  35.614  29.249  1.00  0.00     0.200 A 
ATOM    119  F   UNL A   1      46.802  34.898  31.450  1.00  0.00    -0.200 F 
ATOM    120  F   UNL A   1      46.376  36.895  29.642  1.00  0.00    -0.200 F 
ENDBRANCH  86 110
ENDBRANCH  51  54
ENDBRANCH  41  44
ENDBRANCH  37  40
ENDBRANCH  34  37
ENDBRANCH  31  34
ENDBRANCH   1  31
TORSDOF 16
ENDMDL
