MODEL 1
REMARK VINA RESULT:     -12.4      0.000      0.000
REMARK SMILES O=C(NCCCCCCNC(=O)c1cccc(Nc2ccc([N+](=O)[O-])cc2)c1)c1ccc(-c2c3nc(c(-c4c(F)c(F)c(F)c(F)c4F)c4ccc([nH]4)c(-c4c(F)c(F)c(F)c(F)c4F)c4nc(c(-c5c(F)c(F)c(F)c(F)c5F)c5ccc2[nH]5)C=C4)C=C3)cc1
REMARK SMILES IDX 7 1 6 4 5 7 4 10 3 13 1 14 2 15 29 17 30 18 91 19 31 20
REMARK SMILES IDX 90 22 32 24 33 27 34 28 84 29 35 30 89 31 83 32 85 33 36 34
REMARK SMILES IDX 88 35 82 37 81 39 37 41 69 44 49 45 68 46 50 47 53 48 67 49
REMARK SMILES IDX 86 50 51 51 52 53 66 55 87 56 54 59 38 61 39 62 47 63 40 64
REMARK SMILES IDX 41 65 45 66 48 67 42 68 43 69 46 70 44 71 70 72 71 73 79 74
REMARK SMILES IDX 72 75 73 76 77 77 80 78 74 79 75 80 78 81 76 82 55 83 56 84
REMARK SMILES IDX 64 85 57 86 58 87 62 88 65 89 59 90 60 91 63 92 61 93 8 94
REMARK SMILES IDX 9 97 10 100 11 101 12 103 13 104 14 105 28 106 15 107 17 109
REMARK SMILES IDX 16 111 18 114 19 116 20 117 27 118 21 119 26 121 22 123
REMARK SMILES IDX 23 126 24 127 25 128
REMARK H PARENT 7 2 7 3 6 5 6 6 5 8 5 9 4 11 4 12 3 16 30 21 91 23 31 25 90 26
REMARK H PARENT 89 36 83 38 85 40 88 42 82 43 50 52 53 54 86 57 51 58 87 60
REMARK H PARENT 8 95 8 96 9 98 9 99 10 102 14 108 28 110 15 112 16 113 18 115
REMARK H PARENT 20 120 27 122 21 124 26 125
REMARK Flexibility Score: inf
ROOT
ATOM      1  C   UNL A   1      36.872  21.861  24.283  1.00  0.00    -0.052 C 
ATOM      2  H   UNL A   1      35.969  22.088  23.756  1.00  0.00     0.027 H 
ATOM      3  H   UNL A   1      37.728  21.741  23.651  1.00  0.00     0.027 H 
ENDROOT
BRANCH   1   4
ATOM      4  C   UNL A   1      36.681  20.514  24.985  1.00  0.00    -0.052 C 
ATOM      5  H   UNL A   1      36.434  20.708  26.008  1.00  0.00     0.027 H 
ATOM      6  H   UNL A   1      35.910  20.008  24.443  1.00  0.00     0.027 H 
BRANCH   4   7
ATOM      7  C   UNL A   1      37.891  19.582  24.961  1.00  0.00    -0.036 C 
ATOM      8  H   UNL A   1      37.597  18.646  25.387  1.00  0.00     0.028 H 
ATOM      9  H   UNL A   1      38.191  19.507  23.937  1.00  0.00     0.028 H 
BRANCH   7  10
ATOM     10  C   UNL A   1      39.108  20.086  25.723  1.00  0.00     0.018 C 
ATOM     11  H   UNL A   1      39.503  20.939  25.211  1.00  0.00     0.049 H 
ATOM     12  H   UNL A   1      38.788  20.330  26.714  1.00  0.00     0.049 H 
BRANCH  10  13
ATOM     13  N   UNL A   1      40.159  19.088  25.839  1.00  0.00    -0.352 N 
ATOM     14  O   UNL A   1      42.277  18.321  26.020  1.00  0.00    -0.269 OA
ATOM     15  C   UNL A   1      41.498  19.267  26.090  1.00  0.00     0.251 C 
ATOM     16  H   UNL A   1      39.871  18.154  25.721  1.00  0.00     0.163 HD
BRANCH  15  17
ATOM     17  C   UNL A   1      42.006  20.618  26.419  1.00  0.00     0.039 A 
ATOM     18  C   UNL A   1      42.239  20.985  27.745  1.00  0.00    -0.049 A 
ATOM     19  C   UNL A   1      42.248  21.528  25.386  1.00  0.00    -0.049 A 
ATOM     20  C   UNL A   1      42.567  22.301  28.048  1.00  0.00    -0.053 A 
ATOM     21  H   UNL A   1      42.169  20.282  28.498  1.00  0.00     0.063 H 
ATOM     22  C   UNL A   1      42.669  22.827  25.688  1.00  0.00    -0.053 A 
ATOM     23  H   UNL A   1      42.116  21.243  24.403  1.00  0.00     0.063 H 
ATOM     24  C   UNL A   1      42.802  23.233  27.024  1.00  0.00    -0.014 A 
ATOM     25  H   UNL A   1      42.637  22.596  29.034  1.00  0.00     0.063 H 
ATOM     26  H   UNL A   1      42.881  23.489  24.925  1.00  0.00     0.063 H 
BRANCH  24  27
ATOM     27  C   UNL A   1      43.252  24.601  27.388  1.00  0.00     0.031 A 
ATOM     28  C   UNL A   1      44.659  25.061  27.127  1.00  0.00     0.074 A 
ATOM     29  C   UNL A   1      42.351  25.450  27.919  1.00  0.00     0.049 A 
ATOM     30  N   UNL A   1      45.194  26.237  27.342  1.00  0.00    -0.248 NA
ATOM     31  C   UNL A   1      45.589  24.075  26.557  1.00  0.00    -0.034 C 
ATOM     32  C   UNL A   1      40.962  25.107  28.236  1.00  0.00    -0.036 A 
ATOM     33  N   UNL A   1      42.453  26.773  28.264  1.00  0.00    -0.354 N 
ATOM     34  C   UNL A   1      46.519  26.133  26.940  1.00  0.00     0.074 A 
ATOM     35  C   UNL A   1      46.719  24.768  26.501  1.00  0.00    -0.034 C 
ATOM     36  H   UNL A   1      45.412  23.099  26.274  1.00  0.00     0.065 H 
ATOM     37  C   UNL A   1      40.329  26.202  28.681  1.00  0.00    -0.036 A 
ATOM     38  H   UNL A   1      40.538  24.172  28.134  1.00  0.00     0.065 H 
ATOM     39  C   UNL A   1      41.279  27.306  28.739  1.00  0.00     0.049 A 
ATOM     40  H   UNL A   1      43.286  27.290  28.179  1.00  0.00     0.167 HD
ATOM     41  C   UNL A   1      47.475  27.094  26.929  1.00  0.00     0.037 A 
ATOM     42  H   UNL A   1      47.624  24.384  26.185  1.00  0.00     0.065 H 
ATOM     43  H   UNL A   1      39.331  26.254  28.940  1.00  0.00     0.065 H 
ATOM     44  C   UNL A   1      41.000  28.544  29.186  1.00  0.00     0.037 A 
ATOM     45  C   UNL A   1      47.269  28.452  27.367  1.00  0.00     0.049 A 
ATOM     46  C   UNL A   1      42.086  29.581  29.176  1.00  0.00     0.074 A 
ATOM     47  C   UNL A   1      48.174  29.500  27.391  1.00  0.00    -0.036 A 
ATOM     48  N   UNL A   1      46.071  28.950  27.860  1.00  0.00    -0.354 N 
ATOM     49  N   UNL A   1      43.327  29.475  28.770  1.00  0.00    -0.248 NA
ATOM     50  C   UNL A   1      41.730  30.912  29.686  1.00  0.00    -0.034 C 
ATOM     51  C   UNL A   1      47.535  30.621  27.932  1.00  0.00    -0.036 A 
ATOM     52  H   UNL A   1      49.153  29.462  27.064  1.00  0.00     0.065 H 
ATOM     53  C   UNL A   1      46.219  30.287  28.202  1.00  0.00     0.049 A 
ATOM     54  H   UNL A   1      45.240  28.432  27.953  1.00  0.00     0.167 HD
ATOM     55  C   UNL A   1      43.898  30.724  28.962  1.00  0.00     0.074 A 
ATOM     56  C   UNL A   1      42.858  31.581  29.492  1.00  0.00    -0.034 C 
ATOM     57  H   UNL A   1      40.839  31.239  30.088  1.00  0.00     0.065 H 
ATOM     58  H   UNL A   1      47.972  31.541  28.103  1.00  0.00     0.065 H 
ATOM     59  C   UNL A   1      45.172  31.124  28.730  1.00  0.00     0.037 A 
ATOM     60  H   UNL A   1      42.979  32.585  29.695  1.00  0.00     0.065 H 
BRANCH  41  61
ATOM     61  C   UNL A   1      48.840  26.716  26.427  1.00  0.00     0.064 A 
ATOM     62  C   UNL A   1      49.208  26.910  25.087  1.00  0.00     0.173 A 
ATOM     63  C   UNL A   1      49.812  26.212  27.306  1.00  0.00     0.173 A 
ATOM     64  F   UNL A   1      48.315  27.380  24.204  1.00  0.00    -0.203 F 
ATOM     65  C   UNL A   1      50.491  26.598  24.643  1.00  0.00     0.198 A 
ATOM     66  C   UNL A   1      51.101  25.925  26.864  1.00  0.00     0.198 A 
ATOM     67  F   UNL A   1      49.515  26.014  28.600  1.00  0.00    -0.203 F 
ATOM     68  F   UNL A   1      50.808  26.758  23.351  1.00  0.00    -0.200 F 
ATOM     69  C   UNL A   1      51.438  26.113  25.533  1.00  0.00     0.200 A 
ATOM     70  F   UNL A   1      52.019  25.469  27.728  1.00  0.00    -0.200 F 
ATOM     71  F   UNL A   1      52.675  25.825  25.105  1.00  0.00    -0.200 F 
ENDBRANCH  41  61
BRANCH  44  72
ATOM     72  C   UNL A   1      39.638  28.858  29.689  1.00  0.00     0.064 A 
ATOM     73  C   UNL A   1      39.285  28.623  31.024  1.00  0.00     0.173 A 
ATOM     74  C   UNL A   1      38.662  29.404  28.841  1.00  0.00     0.173 A 
ATOM     75  F   UNL A   1      40.178  28.087  31.868  1.00  0.00    -0.203 F 
ATOM     76  C   UNL A   1      38.002  28.901  31.487  1.00  0.00     0.198 A 
ATOM     77  C   UNL A   1      37.390  29.713  29.313  1.00  0.00     0.198 A 
ATOM     78  F   UNL A   1      38.953  29.655  27.555  1.00  0.00    -0.203 F 
ATOM     79  F   UNL A   1      37.675  28.622  32.756  1.00  0.00    -0.200 F 
ATOM     80  C   UNL A   1      37.057  29.452  30.633  1.00  0.00     0.200 A 
ATOM     81  F   UNL A   1      36.487  30.263  28.490  1.00  0.00    -0.200 F 
ATOM     82  F   UNL A   1      35.824  29.726  31.081  1.00  0.00    -0.200 F 
ENDBRANCH  44  72
BRANCH  59  83
ATOM     83  C   UNL A   1      45.497  32.557  29.030  1.00  0.00     0.064 A 
ATOM     84  C   UNL A   1      45.998  32.950  30.281  1.00  0.00     0.173 A 
ATOM     85  C   UNL A   1      45.312  33.548  28.055  1.00  0.00     0.173 A 
ATOM     86  F   UNL A   1      46.175  32.042  31.252  1.00  0.00    -0.203 F 
ATOM     87  C   UNL A   1      46.270  34.287  30.554  1.00  0.00     0.198 A 
ATOM     88  C   UNL A   1      45.614  34.880  28.322  1.00  0.00     0.198 A 
ATOM     89  F   UNL A   1      44.841  33.223  26.842  1.00  0.00    -0.203 F 
ATOM     90  F   UNL A   1      46.691  34.648  31.773  1.00  0.00    -0.200 F 
ATOM     91  C   UNL A   1      46.082  35.250  29.573  1.00  0.00     0.200 A 
ATOM     92  F   UNL A   1      45.442  35.808  27.370  1.00  0.00    -0.200 F 
ATOM     93  F   UNL A   1      46.342  36.537  29.838  1.00  0.00    -0.200 F 
ENDBRANCH  59  83
ENDBRANCH  24  27
ENDBRANCH  15  17
ENDBRANCH  10  13
ENDBRANCH   7  10
ENDBRANCH   4   7
ENDBRANCH   1   4
BRANCH   1  94
ATOM     94  C   UNL A   1      37.194  23.050  25.195  1.00  0.00    -0.036 C 
ATOM     95  H   UNL A   1      37.576  23.842  24.585  1.00  0.00     0.028 H 
ATOM     96  H   UNL A   1      37.896  22.688  25.916  1.00  0.00     0.028 H 
BRANCH  94  97
ATOM     97  C   UNL A   1      36.013  23.599  25.994  1.00  0.00     0.018 C 
ATOM     98  H   UNL A   1      36.352  23.867  26.972  1.00  0.00     0.049 H 
ATOM     99  H   UNL A   1      35.262  22.839  26.040  1.00  0.00     0.049 H 
BRANCH  97 100
ATOM    100  N   UNL A   1      35.430  24.768  25.362  1.00  0.00    -0.352 N 
ATOM    101  C   UNL A   1      34.183  24.928  24.818  1.00  0.00     0.251 C 
ATOM    102  H   UNL A   1      36.015  25.560  25.319  1.00  0.00     0.163 HD
ATOM    103  O   UNL A   1      33.922  25.926  24.153  1.00  0.00    -0.269 OA
BRANCH 101 104
ATOM    104  C   UNL A   1      33.149  23.895  25.027  1.00  0.00     0.041 A 
ATOM    105  C   UNL A   1      32.165  24.121  25.990  1.00  0.00    -0.049 A 
ATOM    106  C   UNL A   1      33.188  22.691  24.313  1.00  0.00    -0.026 A 
ATOM    107  C   UNL A   1      31.189  23.154  26.204  1.00  0.00    -0.059 A 
ATOM    108  H   UNL A   1      32.161  24.995  26.537  1.00  0.00     0.063 H 
ATOM    109  C   UNL A   1      32.214  21.708  24.523  1.00  0.00     0.039 A 
ATOM    110  H   UNL A   1      33.940  22.526  23.627  1.00  0.00     0.065 H 
ATOM    111  C   UNL A   1      31.211  21.965  25.468  1.00  0.00    -0.039 A 
ATOM    112  H   UNL A   1      30.449  23.314  26.905  1.00  0.00     0.062 H 
ATOM    113  H   UNL A   1      30.471  21.262  25.624  1.00  0.00     0.064 H 
BRANCH 109 114
ATOM    114  N   UNL A   1      32.265  20.525  23.761  1.00  0.00    -0.356 N 
ATOM    115  H   UNL A   1      32.040  20.634  22.809  1.00  0.00     0.167 HD
BRANCH 114 116
ATOM    116  C   UNL A   1      32.588  19.214  24.150  1.00  0.00     0.039 A 
ATOM    117  C   UNL A   1      32.751  18.234  23.161  1.00  0.00    -0.032 A 
ATOM    118  C   UNL A   1      32.859  18.876  25.482  1.00  0.00    -0.032 A 
ATOM    119  C   UNL A   1      33.214  16.957  23.488  1.00  0.00     0.018 A 
ATOM    120  H   UNL A   1      32.528  18.459  22.179  1.00  0.00     0.065 H 
ATOM    121  C   UNL A   1      33.313  17.598  25.821  1.00  0.00     0.018 A 
ATOM    122  H   UNL A   1      32.720  19.579  26.223  1.00  0.00     0.065 H 
ATOM    123  C   UNL A   1      33.511  16.647  24.818  1.00  0.00     0.269 A 
ATOM    124  H   UNL A   1      33.337  16.246  22.750  1.00  0.00     0.070 H 
ATOM    125  H   UNL A   1      33.503  17.359  26.807  1.00  0.00     0.070 H 
BRANCH 123 126
ATOM    126  N   UNL A   1      34.054  15.351  25.151  1.00  0.00     0.062 N 
ATOM    127  O   UNL A   1      35.250  15.187  25.274  1.00  0.00    -0.258 OA
ATOM    128  O   UNL A   1      33.229  14.274  25.378  1.00  0.00    -0.258 OA
ENDBRANCH 123 126
ENDBRANCH 114 116
ENDBRANCH 109 114
ENDBRANCH 101 104
ENDBRANCH  97 100
ENDBRANCH  94  97
ENDBRANCH   1  94
TORSDOF 16
ENDMDL
MODEL 2
REMARK VINA RESULT:     -12.3      0.850      7.458
REMARK SMILES O=C(NCCCCCCNC(=O)c1cccc(Nc2ccc([N+](=O)[O-])cc2)c1)c1ccc(-c2c3nc(c(-c4c(F)c(F)c(F)c(F)c4F)c4ccc([nH]4)c(-c4c(F)c(F)c(F)c(F)c4F)c4nc(c(-c5c(F)c(F)c(F)c(F)c5F)c5ccc2[nH]5)C=C4)C=C3)cc1
REMARK SMILES IDX 7 1 6 4 5 7 4 10 3 13 1 14 2 15 29 17 30 18 91 19 31 20
REMARK SMILES IDX 90 22 32 24 33 27 34 28 84 29 35 30 89 31 83 32 85 33 36 34
REMARK SMILES IDX 88 35 82 37 81 39 37 41 69 44 49 45 68 46 50 47 53 48 67 49
REMARK SMILES IDX 86 50 51 51 52 53 66 55 87 56 54 59 38 61 39 62 47 63 40 64
REMARK SMILES IDX 41 65 45 66 48 67 42 68 43 69 46 70 44 71 70 72 71 73 79 74
REMARK SMILES IDX 72 75 73 76 77 77 80 78 74 79 75 80 78 81 76 82 55 83 56 84
REMARK SMILES IDX 64 85 57 86 58 87 62 88 65 89 59 90 60 91 63 92 61 93 8 94
REMARK SMILES IDX 9 97 10 100 11 101 12 103 13 104 14 105 28 106 15 107 17 109
REMARK SMILES IDX 16 111 18 114 19 116 20 117 27 118 21 119 26 121 22 123
REMARK SMILES IDX 23 126 24 127 25 128
REMARK H PARENT 7 2 7 3 6 5 6 6 5 8 5 9 4 11 4 12 3 16 30 21 91 23 31 25 90 26
REMARK H PARENT 89 36 83 38 85 40 88 42 82 43 50 52 53 54 86 57 51 58 87 60
REMARK H PARENT 8 95 8 96 9 98 9 99 10 102 14 108 28 110 15 112 16 113 18 115
REMARK H PARENT 20 120 27 122 21 124 26 125
REMARK Flexibility Score: inf
ROOT
ATOM      1  C   UNL A   1      37.566  21.691  25.317  1.00  0.00    -0.052 C 
ATOM      2  H   UNL A   1      38.625  21.827  25.381  1.00  0.00     0.027 H 
ATOM      3  H   UNL A   1      37.066  21.702  26.263  1.00  0.00     0.027 H 
ENDROOT
BRANCH   1   4
ATOM      4  C   UNL A   1      37.307  20.302  24.728  1.00  0.00    -0.052 C 
ATOM      5  H   UNL A   1      36.357  19.963  25.087  1.00  0.00     0.027 H 
ATOM      6  H   UNL A   1      37.349  20.421  23.665  1.00  0.00     0.027 H 
BRANCH   4   7
ATOM      7  C   UNL A   1      38.346  19.236  25.072  1.00  0.00    -0.036 C 
ATOM      8  H   UNL A   1      37.853  18.452  25.607  1.00  0.00     0.028 H 
ATOM      9  H   UNL A   1      38.765  18.916  24.141  1.00  0.00     0.028 H 
BRANCH   7  10
ATOM     10  C   UNL A   1      39.513  19.723  25.918  1.00  0.00     0.018 C 
ATOM     11  H   UNL A   1      39.848  20.663  25.530  1.00  0.00     0.049 H 
ATOM     12  H   UNL A   1      39.164  19.810  26.926  1.00  0.00     0.049 H 
BRANCH  10  13
ATOM     13  N   UNL A   1      40.635  18.799  25.924  1.00  0.00    -0.352 N 
ATOM     14  O   UNL A   1      42.807  18.177  25.871  1.00  0.00    -0.269 OA
ATOM     15  C   UNL A   1      41.979  19.070  26.020  1.00  0.00     0.251 C 
ATOM     16  H   UNL A   1      40.399  17.845  25.850  1.00  0.00     0.163 HD
BRANCH  15  17
ATOM     17  C   UNL A   1      42.428  20.457  26.274  1.00  0.00     0.039 A 
ATOM     18  C   UNL A   1      42.497  20.953  27.577  1.00  0.00    -0.049 A 
ATOM     19  C   UNL A   1      42.782  21.271  25.194  1.00  0.00    -0.049 A 
ATOM     20  C   UNL A   1      42.771  22.299  27.788  1.00  0.00    -0.053 A 
ATOM     21  H   UNL A   1      42.345  20.323  28.380  1.00  0.00     0.063 H 
ATOM     22  C   UNL A   1      43.148  22.602  25.416  1.00  0.00    -0.053 A 
ATOM     23  H   UNL A   1      42.771  20.891  24.234  1.00  0.00     0.063 H 
ATOM     24  C   UNL A   1      43.116  23.135  26.713  1.00  0.00    -0.014 A 
ATOM     25  H   UNL A   1      42.719  22.687  28.743  1.00  0.00     0.063 H 
ATOM     26  H   UNL A   1      43.444  23.194  24.624  1.00  0.00     0.063 H 
BRANCH  24  27
ATOM     27  C   UNL A   1      43.504  24.542  26.995  1.00  0.00     0.031 A 
ATOM     28  C   UNL A   1      42.528  25.524  27.578  1.00  0.00     0.074 A 
ATOM     29  C   UNL A   1      44.779  24.911  26.762  1.00  0.00     0.049 A 
ATOM     30  N   UNL A   1      42.725  26.771  27.927  1.00  0.00    -0.248 NA
ATOM     31  C   UNL A   1      41.153  25.052  27.795  1.00  0.00    -0.034 C 
ATOM     32  C   UNL A   1      45.809  24.047  26.178  1.00  0.00    -0.036 A 
ATOM     33  N   UNL A   1      45.434  26.090  27.004  1.00  0.00    -0.354 N 
ATOM     34  C   UNL A   1      41.503  27.234  28.397  1.00  0.00     0.074 A 
ATOM     35  C   UNL A   1      40.559  26.145  28.257  1.00  0.00    -0.034 C 
ATOM     36  H   UNL A   1      40.752  24.115  27.630  1.00  0.00     0.065 H 
ATOM     37  C   UNL A   1      46.975  24.708  26.154  1.00  0.00    -0.036 A 
ATOM     38  H   UNL A   1      45.660  23.085  25.839  1.00  0.00     0.065 H 
ATOM     39  C   UNL A   1      46.763  26.058  26.661  1.00  0.00     0.049 A 
ATOM     40  H   UNL A   1      44.994  26.883  27.387  1.00  0.00     0.167 HD
ATOM     41  C   UNL A   1      41.202  28.452  28.909  1.00  0.00     0.037 A 
ATOM     42  H   UNL A   1      39.555  26.210  28.487  1.00  0.00     0.065 H 
ATOM     43  H   UNL A   1      47.876  24.322  25.829  1.00  0.00     0.065 H 
ATOM     44  C   UNL A   1      47.707  27.014  26.733  1.00  0.00     0.037 A 
ATOM     45  C   UNL A   1      42.147  29.533  29.046  1.00  0.00     0.049 A 
ATOM     46  C   UNL A   1      47.339  28.359  27.290  1.00  0.00     0.074 A 
ATOM     47  C   UNL A   1      41.940  30.804  29.557  1.00  0.00    -0.036 A 
ATOM     48  N   UNL A   1      43.481  29.469  28.670  1.00  0.00    -0.354 N 
ATOM     49  N   UNL A   1      46.185  28.773  27.754  1.00  0.00    -0.248 NA
ATOM     50  C   UNL A   1      48.404  29.368  27.335  1.00  0.00    -0.034 C 
ATOM     51  C   UNL A   1      43.138  31.520  29.455  1.00  0.00    -0.036 A 
ATOM     52  H   UNL A   1      41.054  31.162  29.947  1.00  0.00     0.065 H 
ATOM     53  C   UNL A   1      44.104  30.682  28.926  1.00  0.00     0.049 A 
ATOM     54  H   UNL A   1      43.921  28.679  28.280  1.00  0.00     0.167 HD
ATOM     55  C   UNL A   1      46.386  30.085  28.156  1.00  0.00     0.074 A 
ATOM     56  C   UNL A   1      47.781  30.386  27.911  1.00  0.00    -0.034 C 
ATOM     57  H   UNL A   1      49.379  29.302  27.005  1.00  0.00     0.065 H 
ATOM     58  H   UNL A   1      43.276  32.505  29.727  1.00  0.00     0.065 H 
ATOM     59  C   UNL A   1      45.495  30.964  28.673  1.00  0.00     0.037 A 
ATOM     60  H   UNL A   1      48.234  31.282  28.153  1.00  0.00     0.065 H 
BRANCH  41  61
ATOM     61  C   UNL A   1      39.790  28.691  29.362  1.00  0.00     0.064 A 
ATOM     62  C   UNL A   1      39.392  28.441  30.683  1.00  0.00     0.173 A 
ATOM     63  C   UNL A   1      38.839  29.234  28.483  1.00  0.00     0.173 A 
ATOM     64  F   UNL A   1      40.258  27.914  31.561  1.00  0.00    -0.203 F 
ATOM     65  C   UNL A   1      38.091  28.709  31.104  1.00  0.00     0.198 A 
ATOM     66  C   UNL A   1      37.546  29.523  28.913  1.00  0.00     0.198 A 
ATOM     67  F   UNL A   1      39.168  29.498  27.209  1.00  0.00    -0.203 F 
ATOM     68  F   UNL A   1      37.724  28.428  32.361  1.00  0.00    -0.200 F 
ATOM     69  C   UNL A   1      37.172  29.257  30.221  1.00  0.00     0.200 A 
ATOM     70  F   UNL A   1      36.663  30.065  28.063  1.00  0.00    -0.200 F 
ATOM     71  F   UNL A   1      35.924  29.524  30.631  1.00  0.00    -0.200 F 
ENDBRANCH  41  61
BRANCH  44  72
ATOM     72  C   UNL A   1      49.084  26.729  26.254  1.00  0.00     0.064 A 
ATOM     73  C   UNL A   1      49.468  27.015  24.937  1.00  0.00     0.173 A 
ATOM     74  C   UNL A   1      50.046  26.168  27.108  1.00  0.00     0.173 A 
ATOM     75  F   UNL A   1      48.580  27.537  24.079  1.00  0.00    -0.203 F 
ATOM     76  C   UNL A   1      50.754  26.729  24.486  1.00  0.00     0.198 A 
ATOM     77  C   UNL A   1      51.341  25.913  26.665  1.00  0.00     0.198 A 
ATOM     78  F   UNL A   1      49.731  25.883  28.380  1.00  0.00    -0.203 F 
ATOM     79  F   UNL A   1      51.082  26.967  23.209  1.00  0.00    -0.200 F 
ATOM     80  C   UNL A   1      51.692  26.185  25.352  1.00  0.00     0.200 A 
ATOM     81  F   UNL A   1      52.248  25.406  27.511  1.00  0.00    -0.200 F 
ATOM     82  F   UNL A   1      52.931  25.917  24.919  1.00  0.00    -0.200 F 
ENDBRANCH  44  72
BRANCH  59  83
ATOM     83  C   UNL A   1      46.014  32.326  29.027  1.00  0.00     0.064 A 
ATOM     84  C   UNL A   1      45.984  33.385  28.106  1.00  0.00     0.173 A 
ATOM     85  C   UNL A   1      46.542  32.578  30.302  1.00  0.00     0.173 A 
ATOM     86  F   UNL A   1      45.506  33.189  26.868  1.00  0.00    -0.203 F 
ATOM     87  C   UNL A   1      46.494  34.636  28.438  1.00  0.00     0.198 A 
ATOM     88  C   UNL A   1      47.023  33.839  30.640  1.00  0.00     0.198 A 
ATOM     89  F   UNL A   1      46.588  31.601  31.219  1.00  0.00    -0.203 F 
ATOM     90  F   UNL A   1      46.509  35.616  27.525  1.00  0.00    -0.200 F 
ATOM     91  C   UNL A   1      47.009  34.864  29.706  1.00  0.00     0.200 A 
ATOM     92  F   UNL A   1      47.511  34.060  31.870  1.00  0.00    -0.200 F 
ATOM     93  F   UNL A   1      47.501  36.069  30.024  1.00  0.00    -0.200 F 
ENDBRANCH  59  83
ENDBRANCH  24  27
ENDBRANCH  15  17
ENDBRANCH  10  13
ENDBRANCH   7  10
ENDBRANCH   4   7
ENDBRANCH   1   4
BRANCH   1  94
ATOM     94  C   UNL A   1      36.987  22.870  24.528  1.00  0.00    -0.036 C 
ATOM     95  H   UNL A   1      36.277  22.481  23.827  1.00  0.00     0.028 H 
ATOM     96  H   UNL A   1      37.821  23.356  24.067  1.00  0.00     0.028 H 
BRANCH  94  97
ATOM     97  C   UNL A   1      36.286  23.936  25.366  1.00  0.00     0.018 C 
ATOM     98  H   UNL A   1      35.539  24.412  24.767  1.00  0.00     0.049 H 
ATOM     99  H   UNL A   1      37.023  24.638  25.694  1.00  0.00     0.049 H 
BRANCH  97 100
ATOM    100  N   UNL A   1      35.653  23.369  26.543  1.00  0.00    -0.352 N 
ATOM    101  C   UNL A   1      34.362  22.942  26.712  1.00  0.00     0.251 C 
ATOM    102  H   UNL A   1      36.234  23.278  27.333  1.00  0.00     0.163 HD
ATOM    103  O   UNL A   1      33.943  22.667  27.832  1.00  0.00    -0.269 OA
BRANCH 101 104
ATOM    104  C   UNL A   1      33.468  22.817  25.544  1.00  0.00     0.041 A 
ATOM    105  C   UNL A   1      32.794  23.952  25.094  1.00  0.00    -0.049 A 
ATOM    106  C   UNL A   1      33.258  21.573  24.934  1.00  0.00    -0.026 A 
ATOM    107  C   UNL A   1      31.941  23.848  24.000  1.00  0.00    -0.059 A 
ATOM    108  H   UNL A   1      32.925  24.859  25.567  1.00  0.00     0.063 H 
ATOM    109  C   UNL A   1      32.400  21.454  23.835  1.00  0.00     0.039 A 
ATOM    110  H   UNL A   1      33.741  20.737  25.298  1.00  0.00     0.065 H 
ATOM    111  C   UNL A   1      31.758  22.611  23.373  1.00  0.00    -0.039 A 
ATOM    112  H   UNL A   1      31.446  24.684  23.650  1.00  0.00     0.062 H 
ATOM    113  H   UNL A   1      31.136  22.550  22.551  1.00  0.00     0.064 H 
BRANCH 109 114
ATOM    114  N   UNL A   1      32.242  20.194  23.227  1.00  0.00    -0.356 N 
ATOM    115  H   UNL A   1      31.841  20.213  22.329  1.00  0.00     0.167 HD
BRANCH 114 116
ATOM    116  C   UNL A   1      32.569  18.914  23.705  1.00  0.00     0.039 A 
ATOM    117  C   UNL A   1      33.197  18.008  22.841  1.00  0.00    -0.032 A 
ATOM    118  C   UNL A   1      32.387  18.549  25.045  1.00  0.00    -0.032 A 
ATOM    119  C   UNL A   1      33.672  16.781  23.312  1.00  0.00     0.018 A 
ATOM    120  H   UNL A   1      33.312  18.250  21.845  1.00  0.00     0.065 H 
ATOM    121  C   UNL A   1      32.850  17.320  25.525  1.00  0.00     0.018 A 
ATOM    122  H   UNL A   1      31.905  19.196  25.688  1.00  0.00     0.065 H 
ATOM    123  C   UNL A   1      33.512  16.447  24.659  1.00  0.00     0.269 A 
ATOM    124  H   UNL A   1      34.140  16.125  22.667  1.00  0.00     0.070 H 
ATOM    125  H   UNL A   1      32.704  17.060  26.513  1.00  0.00     0.070 H 
BRANCH 123 126
ATOM    126  N   UNL A   1      34.061  15.210  25.164  1.00  0.00     0.062 N 
ATOM    127  O   UNL A   1      35.258  15.066  25.297  1.00  0.00    -0.258 OA
ATOM    128  O   UNL A   1      33.241  14.176  25.550  1.00  0.00    -0.258 OA
ENDBRANCH 123 126
ENDBRANCH 114 116
ENDBRANCH 109 114
ENDBRANCH 101 104
ENDBRANCH  97 100
ENDBRANCH  94  97
ENDBRANCH   1  94
TORSDOF 16
ENDMDL
MODEL 3
REMARK VINA RESULT:     -12.3      0.839      2.209
REMARK SMILES O=C(NCCCCCCNC(=O)c1cccc(Nc2ccc([N+](=O)[O-])cc2)c1)c1ccc(-c2c3nc(c(-c4c(F)c(F)c(F)c(F)c4F)c4ccc([nH]4)c(-c4c(F)c(F)c(F)c(F)c4F)c4nc(c(-c5c(F)c(F)c(F)c(F)c5F)c5ccc2[nH]5)C=C4)C=C3)cc1
REMARK SMILES IDX 7 1 6 4 5 7 4 10 3 13 1 14 2 15 29 17 30 18 91 19 31 20
REMARK SMILES IDX 90 22 32 24 33 27 34 28 84 29 35 30 89 31 83 32 85 33 36 34
REMARK SMILES IDX 88 35 82 37 81 39 37 41 69 44 49 45 68 46 50 47 53 48 67 49
REMARK SMILES IDX 86 50 51 51 52 53 66 55 87 56 54 59 38 61 39 62 47 63 40 64
REMARK SMILES IDX 41 65 45 66 48 67 42 68 43 69 46 70 44 71 70 72 71 73 79 74
REMARK SMILES IDX 72 75 73 76 77 77 80 78 74 79 75 80 78 81 76 82 55 83 56 84
REMARK SMILES IDX 64 85 57 86 58 87 62 88 65 89 59 90 60 91 63 92 61 93 8 94
REMARK SMILES IDX 9 97 10 100 11 101 12 103 13 104 14 105 28 106 15 107 17 109
REMARK SMILES IDX 16 111 18 114 19 116 20 117 27 118 21 119 26 121 22 123
REMARK SMILES IDX 23 126 24 127 25 128
REMARK H PARENT 7 2 7 3 6 5 6 6 5 8 5 9 4 11 4 12 3 16 30 21 91 23 31 25 90 26
REMARK H PARENT 89 36 83 38 85 40 88 42 82 43 50 52 53 54 86 57 51 58 87 60
REMARK H PARENT 8 95 8 96 9 98 9 99 10 102 14 108 28 110 15 112 16 113 18 115
REMARK H PARENT 20 120 27 122 21 124 26 125
REMARK Flexibility Score: inf
ROOT
ATOM      1  C   UNL A   1      36.215  22.164  25.109  1.00  0.00    -0.052 C 
ATOM      2  H   UNL A   1      35.595  22.468  24.291  1.00  0.00     0.027 H 
ATOM      3  H   UNL A   1      37.228  22.499  25.037  1.00  0.00     0.027 H 
ENDROOT
BRANCH   1   4
ATOM      4  C   UNL A   1      36.281  20.635  25.106  1.00  0.00    -0.052 C 
ATOM      5  H   UNL A   1      35.993  20.290  26.078  1.00  0.00     0.027 H 
ATOM      6  H   UNL A   1      35.627  20.314  24.323  1.00  0.00     0.027 H 
BRANCH   4   7
ATOM      7  C   UNL A   1      37.648  20.036  24.782  1.00  0.00    -0.036 C 
ATOM      8  H   UNL A   1      37.558  18.970  24.807  1.00  0.00     0.028 H 
ATOM      9  H   UNL A   1      37.920  20.416  23.819  1.00  0.00     0.028 H 
BRANCH   7  10
ATOM     10  C   UNL A   1      38.769  20.437  25.729  1.00  0.00     0.018 C 
ATOM     11  H   UNL A   1      39.228  21.330  25.356  1.00  0.00     0.049 H 
ATOM     12  H   UNL A   1      38.335  20.586  26.695  1.00  0.00     0.049 H 
BRANCH  10  13
ATOM     13  N   UNL A   1      39.792  19.414  25.864  1.00  0.00    -0.352 N 
ATOM     14  O   UNL A   1      41.886  18.594  26.088  1.00  0.00    -0.269 OA
ATOM     15  C   UNL A   1      41.130  19.559  26.144  1.00  0.00     0.251 C 
ATOM     16  H   UNL A   1      39.484  18.486  25.738  1.00  0.00     0.163 HD
BRANCH  15  17
ATOM     17  C   UNL A   1      41.665  20.895  26.486  1.00  0.00     0.039 A 
ATOM     18  C   UNL A   1      41.864  21.261  27.818  1.00  0.00    -0.049 A 
ATOM     19  C   UNL A   1      41.966  21.795  25.459  1.00  0.00    -0.049 A 
ATOM     20  C   UNL A   1      42.218  22.568  28.128  1.00  0.00    -0.053 A 
ATOM     21  H   UNL A   1      41.750  20.563  28.570  1.00  0.00     0.063 H 
ATOM     22  C   UNL A   1      42.413  23.083  25.771  1.00  0.00    -0.053 A 
ATOM     23  H   UNL A   1      41.858  21.510  24.473  1.00  0.00     0.063 H 
ATOM     24  C   UNL A   1      42.513  23.490  27.110  1.00  0.00    -0.014 A 
ATOM     25  H   UNL A   1      42.264  22.864  29.116  1.00  0.00     0.063 H 
ATOM     26  H   UNL A   1      42.669  23.736  25.015  1.00  0.00     0.063 H 
BRANCH  24  27
ATOM     27  C   UNL A   1      42.990  24.846  27.486  1.00  0.00     0.031 A 
ATOM     28  C   UNL A   1      44.400  25.286  27.214  1.00  0.00     0.074 A 
ATOM     29  C   UNL A   1      42.108  25.702  28.037  1.00  0.00     0.049 A 
ATOM     30  N   UNL A   1      44.957  26.451  27.436  1.00  0.00    -0.248 NA
ATOM     31  C   UNL A   1      45.308  24.293  26.621  1.00  0.00    -0.034 C 
ATOM     32  C   UNL A   1      40.717  25.378  28.367  1.00  0.00    -0.036 A 
ATOM     33  N   UNL A   1      42.235  27.019  28.397  1.00  0.00    -0.354 N 
ATOM     34  C   UNL A   1      46.275  26.331  27.018  1.00  0.00     0.074 A 
ATOM     35  C   UNL A   1      46.448  24.969  26.560  1.00  0.00    -0.034 C 
ATOM     36  H   UNL A   1      45.112  23.323  26.328  1.00  0.00     0.065 H 
ATOM     37  C   UNL A   1      40.107  26.477  28.832  1.00  0.00    -0.036 A 
ATOM     38  H   UNL A   1      40.278  24.451  28.258  1.00  0.00     0.065 H 
ATOM     39  C   UNL A   1      41.076  27.565  28.892  1.00  0.00     0.049 A 
ATOM     40  H   UNL A   1      43.075  27.524  28.309  1.00  0.00     0.167 HD
ATOM     41  C   UNL A   1      47.246  27.277  27.007  1.00  0.00     0.037 A 
ATOM     42  H   UNL A   1      47.343  24.574  26.229  1.00  0.00     0.065 H 
ATOM     43  H   UNL A   1      39.113  26.542  29.103  1.00  0.00     0.065 H 
ATOM     44  C   UNL A   1      40.822  28.801  29.357  1.00  0.00     0.037 A 
ATOM     45  C   UNL A   1      47.067  28.633  27.464  1.00  0.00     0.049 A 
ATOM     46  C   UNL A   1      41.923  29.822  29.347  1.00  0.00     0.074 A 
ATOM     47  C   UNL A   1      47.988  29.666  27.490  1.00  0.00    -0.036 A 
ATOM     48  N   UNL A   1      45.883  29.144  27.978  1.00  0.00    -0.354 N 
ATOM     49  N   UNL A   1      43.158  29.701  28.925  1.00  0.00    -0.248 NA
ATOM     50  C   UNL A   1      41.595  31.151  29.877  1.00  0.00    -0.034 C 
ATOM     51  C   UNL A   1      47.374  30.790  28.052  1.00  0.00    -0.036 A 
ATOM     52  H   UNL A   1      48.963  29.616  27.152  1.00  0.00     0.065 H 
ATOM     53  C   UNL A   1      46.056  30.473  28.333  1.00  0.00     0.049 A 
ATOM     54  H   UNL A   1      45.044  28.638  28.074  1.00  0.00     0.167 HD
ATOM     55  C   UNL A   1      43.751  30.937  29.126  1.00  0.00     0.074 A 
ATOM     56  C   UNL A   1      42.731  31.804  29.679  1.00  0.00    -0.034 C 
ATOM     57  H   UNL A   1      40.713  31.487  30.293  1.00  0.00     0.065 H 
ATOM     58  H   UNL A   1      47.827  31.700  28.229  1.00  0.00     0.065 H 
ATOM     59  C   UNL A   1      45.028  31.320  28.884  1.00  0.00     0.037 A 
ATOM     60  H   UNL A   1      42.870  32.804  29.892  1.00  0.00     0.065 H 
BRANCH  41  61
ATOM     61  C   UNL A   1      48.599  26.884  26.485  1.00  0.00     0.064 A 
ATOM     62  C   UNL A   1      49.552  26.266  27.309  1.00  0.00     0.173 A 
ATOM     63  C   UNL A   1      48.925  27.070  25.132  1.00  0.00     0.173 A 
ATOM     64  F   UNL A   1      49.294  26.074  28.611  1.00  0.00    -0.203 F 
ATOM     65  C   UNL A   1      50.786  25.866  26.803  1.00  0.00     0.198 A 
ATOM     66  C   UNL A   1      50.151  26.646  24.624  1.00  0.00     0.198 A 
ATOM     67  F   UNL A   1      48.048  27.650  24.298  1.00  0.00    -0.203 F 
ATOM     68  F   UNL A   1      51.694  25.310  27.617  1.00  0.00    -0.200 F 
ATOM     69  C   UNL A   1      51.081  26.048  25.460  1.00  0.00     0.200 A 
ATOM     70  F   UNL A   1      50.429  26.811  23.323  1.00  0.00    -0.200 F 
ATOM     71  F   UNL A   1      52.265  25.652  24.972  1.00  0.00    -0.200 F 
ENDBRANCH  41  61
BRANCH  44  72
ATOM     72  C   UNL A   1      39.471  29.131  29.880  1.00  0.00     0.064 A 
ATOM     73  C   UNL A   1      38.501  29.725  29.061  1.00  0.00     0.173 A 
ATOM     74  C   UNL A   1      39.122  28.854  31.211  1.00  0.00     0.173 A 
ATOM     75  F   UNL A   1      38.792  30.024  27.787  1.00  0.00    -0.203 F 
ATOM     76  C   UNL A   1      37.242  30.050  29.560  1.00  0.00     0.198 A 
ATOM     77  C   UNL A   1      37.852  29.149  31.698  1.00  0.00     0.198 A 
ATOM     78  F   UNL A   1      40.013  28.279  32.033  1.00  0.00    -0.203 F 
ATOM     79  F   UNL A   1      36.349  30.661  28.770  1.00  0.00    -0.200 F 
ATOM     80  C   UNL A   1      36.916  29.756  30.876  1.00  0.00     0.200 A 
ATOM     81  F   UNL A   1      37.536  28.845  32.965  1.00  0.00    -0.200 F 
ATOM     82  F   UNL A   1      35.702  30.062  31.353  1.00  0.00    -0.200 F 
ENDBRANCH  44  72
BRANCH  59  83
ATOM     83  C   UNL A   1      45.379  32.744  29.197  1.00  0.00     0.064 A 
ATOM     84  C   UNL A   1      45.210  33.767  28.252  1.00  0.00     0.173 A 
ATOM     85  C   UNL A   1      45.884  33.092  30.459  1.00  0.00     0.173 A 
ATOM     86  F   UNL A   1      44.748  33.483  27.025  1.00  0.00    -0.203 F 
ATOM     87  C   UNL A   1      45.566  35.080  28.547  1.00  0.00     0.198 A 
ATOM     88  C   UNL A   1      46.210  34.411  30.761  1.00  0.00     0.198 A 
ATOM     89  F   UNL A   1      46.059  32.151  31.399  1.00  0.00    -0.203 F 
ATOM     90  F   UNL A   1      45.451  36.030  27.610  1.00  0.00    -0.200 F 
ATOM     91  C   UNL A   1      46.060  35.401  29.803  1.00  0.00     0.200 A 
ATOM     92  F   UNL A   1      46.679  34.721  31.978  1.00  0.00    -0.200 F 
ATOM     93  F   UNL A   1      46.404  36.665  30.085  1.00  0.00    -0.200 F 
ENDBRANCH  59  83
ENDBRANCH  24  27
ENDBRANCH  15  17
ENDBRANCH  10  13
ENDBRANCH   7  10
ENDBRANCH   4   7
ENDBRANCH   1   4
BRANCH   1  94
ATOM     94  C   UNL A   1      35.656  22.806  26.384  1.00  0.00    -0.036 C 
ATOM     95  H   UNL A   1      35.108  23.681  26.101  1.00  0.00     0.028 H 
ATOM     96  H   UNL A   1      36.500  23.011  27.007  1.00  0.00     0.028 H 
BRANCH  94  97
ATOM     97  C   UNL A   1      34.727  21.917  27.209  1.00  0.00     0.018 C 
ATOM     98  H   UNL A   1      35.240  21.611  28.097  1.00  0.00     0.049 H 
ATOM     99  H   UNL A   1      34.456  21.073  26.610  1.00  0.00     0.049 H 
BRANCH  97 100
ATOM    100  N   UNL A   1      33.509  22.610  27.586  1.00  0.00    -0.352 N 
ATOM    101  C   UNL A   1      32.545  23.164  26.786  1.00  0.00     0.251 C 
ATOM    102  H   UNL A   1      33.353  22.692  28.555  1.00  0.00     0.163 HD
ATOM    103  O   UNL A   1      31.675  23.881  27.272  1.00  0.00    -0.269 OA
BRANCH 101 104
ATOM    104  C   UNL A   1      32.553  22.904  25.333  1.00  0.00     0.041 A 
ATOM    105  C   UNL A   1      32.760  23.975  24.464  1.00  0.00    -0.049 A 
ATOM    106  C   UNL A   1      32.302  21.618  24.835  1.00  0.00    -0.026 A 
ATOM    107  C   UNL A   1      32.762  23.747  23.092  1.00  0.00    -0.059 A 
ATOM    108  H   UNL A   1      32.911  24.926  24.834  1.00  0.00     0.063 H 
ATOM    109  C   UNL A   1      32.296  21.377  23.456  1.00  0.00     0.039 A 
ATOM    110  H   UNL A   1      32.119  20.843  25.490  1.00  0.00     0.065 H 
ATOM    111  C   UNL A   1      32.543  22.458  22.598  1.00  0.00    -0.039 A 
ATOM    112  H   UNL A   1      32.926  24.530  22.439  1.00  0.00     0.062 H 
ATOM    113  H   UNL A   1      32.563  22.298  21.578  1.00  0.00     0.064 H 
BRANCH 109 114
ATOM    114  N   UNL A   1      32.075  20.065  22.996  1.00  0.00    -0.356 N 
ATOM    115  H   UNL A   1      31.559  20.000  22.161  1.00  0.00     0.167 HD
BRANCH 114 116
ATOM    116  C   UNL A   1      32.478  18.836  23.544  1.00  0.00     0.039 A 
ATOM    117  C   UNL A   1      33.111  17.900  22.716  1.00  0.00    -0.032 A 
ATOM    118  C   UNL A   1      32.367  18.557  24.912  1.00  0.00    -0.032 A 
ATOM    119  C   UNL A   1      33.659  16.729  23.247  1.00  0.00     0.018 A 
ATOM    120  H   UNL A   1      33.176  18.077  21.702  1.00  0.00     0.065 H 
ATOM    121  C   UNL A   1      32.903  17.384  25.453  1.00  0.00     0.018 A 
ATOM    122  H   UNL A   1      31.882  19.226  25.530  1.00  0.00     0.065 H 
ATOM    123  C   UNL A   1      33.568  16.482  24.620  1.00  0.00     0.269 A 
ATOM    124  H   UNL A   1      34.130  16.050  22.629  1.00  0.00     0.070 H 
ATOM    125  H   UNL A   1      32.809  17.187  26.461  1.00  0.00     0.070 H 
BRANCH 123 126
ATOM    126  N   UNL A   1      34.192  15.308  25.182  1.00  0.00     0.062 N 
ATOM    127  O   UNL A   1      33.530  14.347  25.517  1.00  0.00    -0.258 OA
ATOM    128  O   UNL A   1      35.558  15.226  25.317  1.00  0.00    -0.258 OA
ENDBRANCH 123 126
ENDBRANCH 114 116
ENDBRANCH 109 114
ENDBRANCH 101 104
ENDBRANCH  97 100
ENDBRANCH  94  97
ENDBRANCH   1  94
TORSDOF 16
ENDMDL
MODEL 4
REMARK VINA RESULT:     -12.2      4.371      9.461
REMARK SMILES O=C(NCCCCCCNC(=O)c1cccc(Nc2ccc([N+](=O)[O-])cc2)c1)c1ccc(-c2c3nc(c(-c4c(F)c(F)c(F)c(F)c4F)c4ccc([nH]4)c(-c4c(F)c(F)c(F)c(F)c4F)c4nc(c(-c5c(F)c(F)c(F)c(F)c5F)c5ccc2[nH]5)C=C4)C=C3)cc1
REMARK SMILES IDX 7 1 6 4 5 7 4 10 3 13 1 14 2 15 29 17 30 18 91 19 31 20
REMARK SMILES IDX 90 22 32 24 33 27 34 28 84 29 35 30 89 31 83 32 85 33 36 34
REMARK SMILES IDX 88 35 82 37 81 39 37 41 69 44 49 45 68 46 50 47 53 48 67 49
REMARK SMILES IDX 86 50 51 51 52 53 66 55 87 56 54 59 38 61 39 62 47 63 40 64
REMARK SMILES IDX 41 65 45 66 48 67 42 68 43 69 46 70 44 71 70 72 71 73 79 74
REMARK SMILES IDX 72 75 73 76 77 77 80 78 74 79 75 80 78 81 76 82 55 83 56 84
REMARK SMILES IDX 64 85 57 86 58 87 62 88 65 89 59 90 60 91 63 92 61 93 8 94
REMARK SMILES IDX 9 97 10 100 11 101 12 103 13 104 14 105 28 106 15 107 17 109
REMARK SMILES IDX 16 111 18 114 19 116 20 117 27 118 21 119 26 121 22 123
REMARK SMILES IDX 23 126 24 127 25 128
REMARK H PARENT 7 2 7 3 6 5 6 6 5 8 5 9 4 11 4 12 3 16 30 21 91 23 31 25 90 26
REMARK H PARENT 89 36 83 38 85 40 88 42 82 43 50 52 53 54 86 57 51 58 87 60
REMARK H PARENT 8 95 8 96 9 98 9 99 10 102 14 108 28 110 15 112 16 113 18 115
REMARK H PARENT 20 120 27 122 21 124 26 125
REMARK Flexibility Score: inf
ROOT
ATOM      1  C   UNL A   1      31.015  26.479  25.786  1.00  0.00    -0.052 C 
ATOM      2  H   UNL A   1      30.249  26.683  26.504  1.00  0.00     0.027 H 
ATOM      3  H   UNL A   1      31.371  25.470  25.802  1.00  0.00     0.027 H 
ENDROOT
BRANCH   1   4
ATOM      4  C   UNL A   1      32.226  27.351  26.129  1.00  0.00    -0.052 C 
ATOM      5  H   UNL A   1      31.863  28.267  26.549  1.00  0.00     0.027 H 
ATOM      6  H   UNL A   1      32.822  26.773  26.804  1.00  0.00     0.027 H 
BRANCH   4   7
ATOM      7  C   UNL A   1      33.139  27.701  24.956  1.00  0.00    -0.036 C 
ATOM      8  H   UNL A   1      33.780  26.864  24.773  1.00  0.00     0.028 H 
ATOM      9  H   UNL A   1      32.494  27.930  24.133  1.00  0.00     0.028 H 
BRANCH   7  10
ATOM     10  C   UNL A   1      34.014  28.929  25.164  1.00  0.00     0.018 C 
ATOM     11  H   UNL A   1      34.786  28.684  25.864  1.00  0.00     0.049 H 
ATOM     12  H   UNL A   1      34.413  29.203  24.210  1.00  0.00     0.049 H 
BRANCH  10  13
ATOM     13  N   UNL A   1      33.275  30.073  25.671  1.00  0.00    -0.352 N 
ATOM     14  O   UNL A   1      32.691  31.667  27.163  1.00  0.00    -0.269 OA
ATOM     15  C   UNL A   1      33.497  30.811  26.809  1.00  0.00     0.251 C 
ATOM     16  H   UNL A   1      32.508  30.361  25.122  1.00  0.00     0.163 HD
BRANCH  15  17
ATOM     17  C   UNL A   1      34.701  30.549  27.627  1.00  0.00     0.039 A 
ATOM     18  C   UNL A   1      35.720  31.499  27.715  1.00  0.00    -0.049 A 
ATOM     19  C   UNL A   1      34.814  29.335  28.311  1.00  0.00    -0.049 A 
ATOM     20  C   UNL A   1      36.909  31.177  28.358  1.00  0.00    -0.053 A 
ATOM     21  H   UNL A   1      35.591  32.438  27.305  1.00  0.00     0.063 H 
ATOM     22  C   UNL A   1      35.975  29.050  29.036  1.00  0.00    -0.053 A 
ATOM     23  H   UNL A   1      34.042  28.650  28.279  1.00  0.00     0.063 H 
ATOM     24  C   UNL A   1      37.045  29.957  29.040  1.00  0.00    -0.014 A 
ATOM     25  H   UNL A   1      37.699  31.841  28.333  1.00  0.00     0.063 H 
ATOM     26  H   UNL A   1      36.045  28.169  29.570  1.00  0.00     0.063 H 
BRANCH  24  27
ATOM     27  C   UNL A   1      38.293  29.697  29.803  1.00  0.00     0.031 A 
ATOM     28  C   UNL A   1      38.514  30.279  31.170  1.00  0.00     0.074 A 
ATOM     29  C   UNL A   1      39.214  28.877  29.260  1.00  0.00     0.049 A 
ATOM     30  N   UNL A   1      39.525  30.108  31.985  1.00  0.00    -0.248 NA
ATOM     31  C   UNL A   1      37.470  31.174  31.693  1.00  0.00    -0.034 C 
ATOM     32  C   UNL A   1      39.116  28.270  27.930  1.00  0.00    -0.036 A 
ATOM     33  N   UNL A   1      40.395  28.394  29.759  1.00  0.00    -0.354 N 
ATOM     34  C   UNL A   1      39.245  30.874  33.109  1.00  0.00     0.074 A 
ATOM     35  C   UNL A   1      37.984  31.540  32.859  1.00  0.00    -0.034 C 
ATOM     36  H   UNL A   1      36.571  31.446  31.265  1.00  0.00     0.065 H 
ATOM     37  C   UNL A   1      40.165  27.457  27.738  1.00  0.00    -0.036 A 
ATOM     38  H   UNL A   1      38.360  28.440  27.249  1.00  0.00     0.065 H 
ATOM     39  C   UNL A   1      41.039  27.533  28.903  1.00  0.00     0.049 A 
ATOM     40  H   UNL A   1      40.748  28.639  30.644  1.00  0.00     0.167 HD
ATOM     41  C   UNL A   1      39.970  30.998  34.248  1.00  0.00     0.037 A 
ATOM     42  H   UNL A   1      37.543  32.214  33.506  1.00  0.00     0.065 H 
ATOM     43  H   UNL A   1      40.327  26.874  26.903  1.00  0.00     0.065 H 
ATOM     44  C   UNL A   1      42.211  26.886  29.033  1.00  0.00     0.037 A 
ATOM     45  C   UNL A   1      41.225  30.330  34.490  1.00  0.00     0.049 A 
ATOM     46  C   UNL A   1      42.998  27.057  30.300  1.00  0.00     0.074 A 
ATOM     47  C   UNL A   1      42.033  30.388  35.613  1.00  0.00    -0.036 A 
ATOM     48  N   UNL A   1      41.855  29.481  33.591  1.00  0.00    -0.354 N 
ATOM     49  N   UNL A   1      42.708  27.764  31.364  1.00  0.00    -0.248 NA
ATOM     50  C   UNL A   1      44.276  26.337  30.385  1.00  0.00    -0.034 C 
ATOM     51  C   UNL A   1      43.168  29.605  35.380  1.00  0.00    -0.036 A 
ATOM     52  H   UNL A   1      41.831  30.918  36.476  1.00  0.00     0.065 H 
ATOM     53  C   UNL A   1      43.047  29.020  34.131  1.00  0.00     0.049 A 
ATOM     54  H   UNL A   1      41.507  29.241  32.702  1.00  0.00     0.167 HD
ATOM     55  C   UNL A   1      43.758  27.568  32.249  1.00  0.00     0.074 A 
ATOM     56  C   UNL A   1      44.676  26.649  31.609  1.00  0.00    -0.034 C 
ATOM     57  H   UNL A   1      44.738  25.746  29.678  1.00  0.00     0.065 H 
ATOM     58  H   UNL A   1      43.962  29.485  36.028  1.00  0.00     0.065 H 
ATOM     59  C   UNL A   1      43.949  28.106  33.478  1.00  0.00     0.037 A 
ATOM     60  H   UNL A   1      45.534  26.282  32.050  1.00  0.00     0.065 H 
BRANCH  41  61
ATOM     61  C   UNL A   1      39.428  31.891  35.327  1.00  0.00     0.064 A 
ATOM     62  C   UNL A   1      39.722  33.262  35.361  1.00  0.00     0.173 A 
ATOM     63  C   UNL A   1      38.557  31.384  36.305  1.00  0.00     0.173 A 
ATOM     64  F   UNL A   1      40.557  33.795  34.456  1.00  0.00    -0.203 F 
ATOM     65  C   UNL A   1      39.178  34.089  36.341  1.00  0.00     0.198 A 
ATOM     66  C   UNL A   1      37.995  32.219  37.268  1.00  0.00     0.198 A 
ATOM     67  F   UNL A   1      38.236  30.081  36.315  1.00  0.00    -0.203 F 
ATOM     68  F   UNL A   1      39.502  35.388  36.374  1.00  0.00    -0.200 F 
ATOM     69  C   UNL A   1      38.309  33.568  37.288  1.00  0.00     0.200 A 
ATOM     70  F   UNL A   1      37.145  31.717  38.175  1.00  0.00    -0.200 F 
ATOM     71  F   UNL A   1      37.778  34.368  38.223  1.00  0.00    -0.200 F 
ENDBRANCH  41  61
BRANCH  44  72
ATOM     72  C   UNL A   1      42.709  26.030  27.926  1.00  0.00     0.064 A 
ATOM     73  C   UNL A   1      42.328  24.685  27.821  1.00  0.00     0.173 A 
ATOM     74  C   UNL A   1      43.576  26.542  26.948  1.00  0.00     0.173 A 
ATOM     75  F   UNL A   1      41.515  24.145  28.740  1.00  0.00    -0.203 F 
ATOM     76  C   UNL A   1      42.812  23.881  26.792  1.00  0.00     0.198 A 
ATOM     77  C   UNL A   1      44.032  25.745  25.902  1.00  0.00     0.198 A 
ATOM     78  F   UNL A   1      43.964  27.825  27.000  1.00  0.00    -0.203 F 
ATOM     79  F   UNL A   1      42.470  22.586  26.741  1.00  0.00    -0.200 F 
ATOM     80  C   UNL A   1      43.658  24.412  25.830  1.00  0.00     0.200 A 
ATOM     81  F   UNL A   1      44.833  26.269  24.964  1.00  0.00    -0.200 F 
ATOM     82  F   UNL A   1      44.118  23.639  24.837  1.00  0.00    -0.200 F 
ENDBRANCH  44  72
BRANCH  59  83
ATOM     83  C   UNL A   1      45.190  27.693  34.212  1.00  0.00     0.064 A 
ATOM     84  C   UNL A   1      45.206  26.568  35.050  1.00  0.00     0.173 A 
ATOM     85  C   UNL A   1      46.378  28.425  34.070  1.00  0.00     0.173 A 
ATOM     86  F   UNL A   1      44.091  25.845  35.232  1.00  0.00    -0.203 F 
ATOM     87  C   UNL A   1      46.358  26.212  35.747  1.00  0.00     0.198 A 
ATOM     88  C   UNL A   1      47.536  28.049  34.745  1.00  0.00     0.198 A 
ATOM     89  F   UNL A   1      46.415  29.506  33.277  1.00  0.00    -0.203 F 
ATOM     90  F   UNL A   1      46.335  25.169  36.587  1.00  0.00    -0.200 F 
ATOM     91  C   UNL A   1      47.522  26.949  35.589  1.00  0.00     0.200 A 
ATOM     92  F   UNL A   1      48.663  28.757  34.584  1.00  0.00    -0.200 F 
ATOM     93  F   UNL A   1      48.630  26.607  36.262  1.00  0.00    -0.200 F 
ENDBRANCH  59  83
ENDBRANCH  24  27
ENDBRANCH  15  17
ENDBRANCH  10  13
ENDBRANCH   7  10
ENDBRANCH   4   7
ENDBRANCH   1   4
BRANCH   1  94
ATOM     94  C   UNL A   1      30.418  26.686  24.390  1.00  0.00    -0.036 C 
ATOM     95  H   UNL A   1      30.932  27.504  23.928  1.00  0.00     0.028 H 
ATOM     96  H   UNL A   1      29.374  26.865  24.538  1.00  0.00     0.028 H 
BRANCH  94  97
ATOM     97  C   UNL A   1      30.512  25.483  23.454  1.00  0.00     0.018 C 
ATOM     98  H   UNL A   1      29.539  25.273  23.061  1.00  0.00     0.049 H 
ATOM     99  H   UNL A   1      30.888  24.654  24.015  1.00  0.00     0.049 H 
BRANCH  97 100
ATOM    100  N   UNL A   1      31.421  25.726  22.349  1.00  0.00    -0.352 N 
ATOM    101  C   UNL A   1      32.642  25.161  22.091  1.00  0.00     0.251 C 
ATOM    102  H   UNL A   1      31.117  26.393  21.691  1.00  0.00     0.163 HD
ATOM    103  O   UNL A   1      33.365  25.624  21.214  1.00  0.00    -0.269 OA
BRANCH 101 104
ATOM    104  C   UNL A   1      33.096  23.995  22.874  1.00  0.00     0.041 A 
ATOM    105  C   UNL A   1      34.216  24.134  23.693  1.00  0.00    -0.049 A 
ATOM    106  C   UNL A   1      32.448  22.758  22.755  1.00  0.00    -0.026 A 
ATOM    107  C   UNL A   1      34.660  23.042  24.430  1.00  0.00    -0.059 A 
ATOM    108  H   UNL A   1      34.710  25.038  23.751  1.00  0.00     0.063 H 
ATOM    109  C   UNL A   1      32.887  21.650  23.488  1.00  0.00     0.039 A 
ATOM    110  H   UNL A   1      31.639  22.663  22.122  1.00  0.00     0.065 H 
ATOM    111  C   UNL A   1      33.993  21.817  24.334  1.00  0.00    -0.039 A 
ATOM    112  H   UNL A   1      35.482  23.136  25.048  1.00  0.00     0.062 H 
ATOM    113  H   UNL A   1      34.322  21.018  24.899  1.00  0.00     0.064 H 
BRANCH 109 114
ATOM    114  N   UNL A   1      32.189  20.434  23.369  1.00  0.00    -0.356 N 
ATOM    115  H   UNL A   1      31.335  20.491  22.882  1.00  0.00     0.167 HD
BRANCH 114 116
ATOM    116  C   UNL A   1      32.522  19.152  23.837  1.00  0.00     0.039 A 
ATOM    117  C   UNL A   1      32.967  18.190  22.920  1.00  0.00    -0.032 A 
ATOM    118  C   UNL A   1      32.528  18.834  25.201  1.00  0.00    -0.032 A 
ATOM    119  C   UNL A   1      33.447  16.953  23.357  1.00  0.00     0.018 A 
ATOM    120  H   UNL A   1      32.941  18.399  21.910  1.00  0.00     0.065 H 
ATOM    121  C   UNL A   1      32.998  17.596  25.649  1.00  0.00     0.018 A 
ATOM    122  H   UNL A   1      32.181  19.523  25.885  1.00  0.00     0.065 H 
ATOM    123  C   UNL A   1      33.478  16.665  24.725  1.00  0.00     0.269 A 
ATOM    124  H   UNL A   1      33.780  16.256  22.674  1.00  0.00     0.070 H 
ATOM    125  H   UNL A   1      32.991  17.371  26.656  1.00  0.00     0.070 H 
BRANCH 123 126
ATOM    126  N   UNL A   1      34.037  15.416  25.185  1.00  0.00     0.062 N 
ATOM    127  O   UNL A   1      33.330  14.449  25.380  1.00  0.00    -0.258 OA
ATOM    128  O   UNL A   1      35.391  15.273  25.375  1.00  0.00    -0.258 OA
ENDBRANCH 123 126
ENDBRANCH 114 116
ENDBRANCH 109 114
ENDBRANCH 101 104
ENDBRANCH  97 100
ENDBRANCH  94  97
ENDBRANCH   1  94
TORSDOF 16
ENDMDL
MODEL 5
REMARK VINA RESULT:     -12.2      5.235     10.872
REMARK SMILES O=C(NCCCCCCNC(=O)c1cccc(Nc2ccc([N+](=O)[O-])cc2)c1)c1ccc(-c2c3nc(c(-c4c(F)c(F)c(F)c(F)c4F)c4ccc([nH]4)c(-c4c(F)c(F)c(F)c(F)c4F)c4nc(c(-c5c(F)c(F)c(F)c(F)c5F)c5ccc2[nH]5)C=C4)C=C3)cc1
REMARK SMILES IDX 7 1 6 4 5 7 4 10 3 13 1 14 2 15 29 17 30 18 91 19 31 20
REMARK SMILES IDX 90 22 32 24 33 27 34 28 84 29 35 30 89 31 83 32 85 33 36 34
REMARK SMILES IDX 88 35 82 37 81 39 37 41 69 44 49 45 68 46 50 47 53 48 67 49
REMARK SMILES IDX 86 50 51 51 52 53 66 55 87 56 54 59 38 61 39 62 47 63 40 64
REMARK SMILES IDX 41 65 45 66 48 67 42 68 43 69 46 70 44 71 70 72 71 73 79 74
REMARK SMILES IDX 72 75 73 76 77 77 80 78 74 79 75 80 78 81 76 82 55 83 56 84
REMARK SMILES IDX 64 85 57 86 58 87 62 88 65 89 59 90 60 91 63 92 61 93 8 94
REMARK SMILES IDX 9 97 10 100 11 101 12 103 13 104 14 105 28 106 15 107 17 109
REMARK SMILES IDX 16 111 18 114 19 116 20 117 27 118 21 119 26 121 22 123
REMARK SMILES IDX 23 126 24 127 25 128
REMARK H PARENT 7 2 7 3 6 5 6 6 5 8 5 9 4 11 4 12 3 16 30 21 91 23 31 25 90 26
REMARK H PARENT 89 36 83 38 85 40 88 42 82 43 50 52 53 54 86 57 51 58 87 60
REMARK H PARENT 8 95 8 96 9 98 9 99 10 102 14 108 28 110 15 112 16 113 18 115
REMARK H PARENT 20 120 27 122 21 124 26 125
REMARK Flexibility Score: inf
ROOT
ATOM      1  C   UNL A   1      31.677  25.585  26.584  1.00  0.00    -0.052 C 
ATOM      2  H   UNL A   1      30.915  25.586  25.832  1.00  0.00     0.027 H 
ATOM      3  H   UNL A   1      31.319  25.811  27.567  1.00  0.00     0.027 H 
ENDROOT
BRANCH   1   4
ATOM      4  C   UNL A   1      32.677  26.692  26.241  1.00  0.00    -0.052 C 
ATOM      5  H   UNL A   1      33.421  26.714  27.010  1.00  0.00     0.027 H 
ATOM      6  H   UNL A   1      33.064  26.449  25.273  1.00  0.00     0.027 H 
BRANCH   4   7
ATOM      7  C   UNL A   1      32.088  28.096  26.117  1.00  0.00    -0.036 C 
ATOM      8  H   UNL A   1      31.323  28.070  25.369  1.00  0.00     0.028 H 
ATOM      9  H   UNL A   1      31.723  28.354  27.089  1.00  0.00     0.028 H 
BRANCH   7  10
ATOM     10  C   UNL A   1      33.083  29.181  25.735  1.00  0.00     0.018 C 
ATOM     11  H   UNL A   1      34.008  28.990  26.239  1.00  0.00     0.049 H 
ATOM     12  H   UNL A   1      33.196  29.153  24.671  1.00  0.00     0.049 H 
BRANCH  10  13
ATOM     13  N   UNL A   1      32.632  30.517  26.089  1.00  0.00    -0.352 N 
ATOM     14  O   UNL A   1      32.570  32.434  27.283  1.00  0.00    -0.269 OA
ATOM     15  C   UNL A   1      33.159  31.393  27.008  1.00  0.00     0.251 C 
ATOM     16  H   UNL A   1      31.837  30.838  25.604  1.00  0.00     0.163 HD
BRANCH  15  17
ATOM     17  C   UNL A   1      34.430  31.062  27.688  1.00  0.00     0.039 A 
ATOM     18  C   UNL A   1      34.622  29.803  28.259  1.00  0.00    -0.049 A 
ATOM     19  C   UNL A   1      35.441  32.026  27.758  1.00  0.00    -0.049 A 
ATOM     20  C   UNL A   1      35.755  29.560  29.026  1.00  0.00    -0.053 A 
ATOM     21  H   UNL A   1      33.926  29.055  28.112  1.00  0.00     0.063 H 
ATOM     22  C   UNL A   1      36.622  31.746  28.452  1.00  0.00    -0.053 A 
ATOM     23  H   UNL A   1      35.314  32.942  27.300  1.00  0.00     0.063 H 
ATOM     24  C   UNL A   1      36.776  30.521  29.118  1.00  0.00    -0.014 A 
ATOM     25  H   UNL A   1      35.847  28.665  29.532  1.00  0.00     0.063 H 
ATOM     26  H   UNL A   1      37.382  32.443  28.475  1.00  0.00     0.063 H 
BRANCH  24  27
ATOM     27  C   UNL A   1      38.017  30.180  29.860  1.00  0.00     0.031 A 
ATOM     28  C   UNL A   1      38.259  30.679  31.257  1.00  0.00     0.074 A 
ATOM     29  C   UNL A   1      38.910  29.363  29.269  1.00  0.00     0.049 A 
ATOM     30  N   UNL A   1      39.266  30.431  32.056  1.00  0.00    -0.248 NA
ATOM     31  C   UNL A   1      37.245  31.575  31.832  1.00  0.00    -0.034 C 
ATOM     32  C   UNL A   1      38.791  28.833  27.908  1.00  0.00    -0.036 A 
ATOM     33  N   UNL A   1      40.077  28.816  29.736  1.00  0.00    -0.354 N 
ATOM     34  C   UNL A   1      39.013  31.142  33.222  1.00  0.00     0.074 A 
ATOM     35  C   UNL A   1      37.773  31.861  33.015  1.00  0.00    -0.034 C 
ATOM     36  H   UNL A   1      36.355  31.900  31.422  1.00  0.00     0.065 H 
ATOM     37  C   UNL A   1      39.813  28.000  27.668  1.00  0.00    -0.036 A 
ATOM     38  H   UNL A   1      38.039  29.065  27.240  1.00  0.00     0.065 H 
ATOM     39  C   UNL A   1      40.692  27.984  28.832  1.00  0.00     0.049 A 
ATOM     40  H   UNL A   1      40.439  29.001  30.632  1.00  0.00     0.167 HD
ATOM     41  C   UNL A   1      39.743  31.180  34.363  1.00  0.00     0.037 A 
ATOM     42  H   UNL A   1      37.354  32.511  33.699  1.00  0.00     0.065 H 
ATOM     43  H   UNL A   1      39.954  27.459  26.801  1.00  0.00     0.065 H 
ATOM     44  C   UNL A   1      41.843  27.294  28.921  1.00  0.00     0.037 A 
ATOM     45  C   UNL A   1      40.977  30.461  34.564  1.00  0.00     0.049 A 
ATOM     46  C   UNL A   1      42.638  27.370  30.193  1.00  0.00     0.074 A 
ATOM     47  C   UNL A   1      41.789  30.432  35.685  1.00  0.00    -0.036 A 
ATOM     48  N   UNL A   1      41.578  29.644  33.617  1.00  0.00    -0.354 N 
ATOM     49  N   UNL A   1      42.372  28.026  31.296  1.00  0.00    -0.248 NA
ATOM     50  C   UNL A   1      43.892  26.607  30.233  1.00  0.00    -0.034 C 
ATOM     51  C   UNL A   1      42.899  29.627  35.405  1.00  0.00    -0.036 A 
ATOM     52  H   UNL A   1      41.606  30.919  36.577  1.00  0.00     0.065 H 
ATOM     53  C   UNL A   1      42.756  29.116  34.126  1.00  0.00     0.049 A 
ATOM     54  H   UNL A   1      41.221  29.464  32.718  1.00  0.00     0.167 HD
ATOM     55  C   UNL A   1      43.417  27.748  32.164  1.00  0.00     0.074 A 
ATOM     56  C   UNL A   1      44.304  26.838  31.471  1.00  0.00    -0.034 C 
ATOM     57  H   UNL A   1      44.334  26.042  29.492  1.00  0.00     0.065 H 
ATOM     58  H   UNL A   1      43.690  29.447  36.043  1.00  0.00     0.065 H 
ATOM     59  C   UNL A   1      43.628  28.212  33.420  1.00  0.00     0.037 A 
ATOM     60  H   UNL A   1      45.151  26.421  31.888  1.00  0.00     0.065 H 
BRANCH  41  61
ATOM     61  C   UNL A   1      39.232  32.029  35.493  1.00  0.00     0.064 A 
ATOM     62  C   UNL A   1      38.402  31.498  36.491  1.00  0.00     0.173 A 
ATOM     63  C   UNL A   1      39.625  33.371  35.613  1.00  0.00     0.173 A 
ATOM     64  F   UNL A   1      37.989  30.224  36.418  1.00  0.00    -0.203 F 
ATOM     65  C   UNL A   1      37.971  32.282  37.558  1.00  0.00     0.198 A 
ATOM     66  C   UNL A   1      39.212  34.146  36.695  1.00  0.00     0.198 A 
ATOM     67  F   UNL A   1      40.424  33.928  34.690  1.00  0.00    -0.203 F 
ATOM     68  F   UNL A   1      37.149  31.763  38.480  1.00  0.00    -0.200 F 
ATOM     69  C   UNL A   1      38.382  33.603  37.663  1.00  0.00     0.200 A 
ATOM     70  F   UNL A   1      39.622  35.417  36.802  1.00  0.00    -0.200 F 
ATOM     71  F   UNL A   1      37.976  34.353  38.697  1.00  0.00    -0.200 F 
ENDBRANCH  41  61
BRANCH  44  72
ATOM     72  C   UNL A   1      42.311  26.485  27.767  1.00  0.00     0.064 A 
ATOM     73  C   UNL A   1      41.834  25.185  27.550  1.00  0.00     0.173 A 
ATOM     74  C   UNL A   1      43.245  26.999  26.854  1.00  0.00     0.173 A 
ATOM     75  F   UNL A   1      40.953  24.644  28.404  1.00  0.00    -0.203 F 
ATOM     76  C   UNL A   1      42.290  24.423  26.478  1.00  0.00     0.198 A 
ATOM     77  C   UNL A   1      43.674  26.248  25.764  1.00  0.00     0.198 A 
ATOM     78  F   UNL A   1      43.727  28.241  27.013  1.00  0.00    -0.203 F 
ATOM     79  F   UNL A   1      41.854  23.166  26.320  1.00  0.00    -0.200 F 
ATOM     80  C   UNL A   1      43.204  24.957  25.582  1.00  0.00     0.200 A 
ATOM     81  F   UNL A   1      44.543  26.776  24.890  1.00  0.00    -0.200 F 
ATOM     82  F   UNL A   1      43.637  24.225  24.546  1.00  0.00    -0.200 F 
ENDBRANCH  44  72
BRANCH  59  83
ATOM     83  C   UNL A   1      44.857  27.720  34.125  1.00  0.00     0.064 A 
ATOM     84  C   UNL A   1      44.840  26.547  34.896  1.00  0.00     0.173 A 
ATOM     85  C   UNL A   1      46.065  28.424  34.024  1.00  0.00     0.173 A 
ATOM     86  F   UNL A   1      43.705  25.849  35.038  1.00  0.00    -0.203 F 
ATOM     87  C   UNL A   1      45.982  26.117  35.568  1.00  0.00     0.198 A 
ATOM     88  C   UNL A   1      47.212  27.975  34.673  1.00  0.00     0.198 A 
ATOM     89  F   UNL A   1      46.134  29.548  33.295  1.00  0.00    -0.203 F 
ATOM     90  F   UNL A   1      45.929  25.028  36.345  1.00  0.00    -0.200 F 
ATOM     91  C   UNL A   1      47.167  26.829  35.451  1.00  0.00     0.200 A 
ATOM     92  F   UNL A   1      48.360  28.658  34.551  1.00  0.00    -0.200 F 
ATOM     93  F   UNL A   1      48.264  26.415  36.100  1.00  0.00    -0.200 F 
ENDBRANCH  59  83
ENDBRANCH  24  27
ENDBRANCH  15  17
ENDBRANCH  10  13
ENDBRANCH   7  10
ENDBRANCH   4   7
ENDBRANCH   1   4
BRANCH   1  94
ATOM     94  C   UNL A   1      32.252  24.167  26.667  1.00  0.00    -0.036 C 
ATOM     95  H   UNL A   1      31.446  23.474  26.538  1.00  0.00     0.028 H 
ATOM     96  H   UNL A   1      32.729  24.096  27.621  1.00  0.00     0.028 H 
BRANCH  94  97
ATOM     97  C   UNL A   1      33.326  23.837  25.632  1.00  0.00     0.018 C 
ATOM     98  H   UNL A   1      34.114  23.295  26.112  1.00  0.00     0.049 H 
ATOM     99  H   UNL A   1      33.685  24.756  25.220  1.00  0.00     0.049 H 
BRANCH  97 100
ATOM    100  N   UNL A   1      32.800  23.033  24.544  1.00  0.00    -0.352 N 
ATOM    101  C   UNL A   1      32.181  23.436  23.390  1.00  0.00     0.251 C 
ATOM    102  H   UNL A   1      32.903  22.059  24.650  1.00  0.00     0.163 HD
ATOM    103  O   UNL A   1      31.625  22.614  22.667  1.00  0.00    -0.269 OA
BRANCH 101 104
ATOM    104  C   UNL A   1      32.175  24.864  23.016  1.00  0.00     0.041 A 
ATOM    105  C   UNL A   1      33.343  25.424  22.499  1.00  0.00    -0.049 A 
ATOM    106  C   UNL A   1      31.037  25.654  23.226  1.00  0.00    -0.026 A 
ATOM    107  C   UNL A   1      33.356  26.769  22.150  1.00  0.00    -0.059 A 
ATOM    108  H   UNL A   1      34.189  24.846  22.377  1.00  0.00     0.063 H 
ATOM    109  C   UNL A   1      31.038  27.010  22.883  1.00  0.00     0.039 A 
ATOM    110  H   UNL A   1      30.191  25.232  23.638  1.00  0.00     0.065 H 
ATOM    111  C   UNL A   1      32.209  27.549  22.331  1.00  0.00    -0.039 A 
ATOM    112  H   UNL A   1      34.211  27.192  21.755  1.00  0.00     0.062 H 
ATOM    113  H   UNL A   1      32.225  28.543  22.052  1.00  0.00     0.064 H 
BRANCH 109 114
ATOM    114  N   UNL A   1      29.864  27.763  23.077  1.00  0.00    -0.356 N 
ATOM    115  H   UNL A   1      29.090  27.249  23.401  1.00  0.00     0.167 HD
BRANCH 114 116
ATOM    116  C   UNL A   1      29.627  29.133  22.878  1.00  0.00     0.039 A 
ATOM    117  C   UNL A   1      29.160  29.566  21.629  1.00  0.00    -0.032 A 
ATOM    118  C   UNL A   1      29.737  30.068  23.915  1.00  0.00    -0.032 A 
ATOM    119  C   UNL A   1      28.772  30.893  21.431  1.00  0.00     0.018 A 
ATOM    120  H   UNL A   1      29.101  28.895  20.847  1.00  0.00     0.065 H 
ATOM    121  C   UNL A   1      29.360  31.401  23.725  1.00  0.00     0.018 A 
ATOM    122  H   UNL A   1      30.102  29.769  24.832  1.00  0.00     0.065 H 
ATOM    123  C   UNL A   1      28.857  31.805  22.486  1.00  0.00     0.269 A 
ATOM    124  H   UNL A   1      28.422  31.198  20.510  1.00  0.00     0.070 H 
ATOM    125  H   UNL A   1      29.453  32.081  24.495  1.00  0.00     0.070 H 
BRANCH 123 126
ATOM    126  N   UNL A   1      28.393  33.161  22.306  1.00  0.00     0.062 N 
ATOM    127  O   UNL A   1      27.661  33.454  21.383  1.00  0.00    -0.258 OA
ATOM    128  O   UNL A   1      28.732  34.151  23.198  1.00  0.00    -0.258 OA
ENDBRANCH 123 126
ENDBRANCH 114 116
ENDBRANCH 109 114
ENDBRANCH 101 104
ENDBRANCH  97 100
ENDBRANCH  94  97
ENDBRANCH   1  94
TORSDOF 16
ENDMDL
MODEL 6
REMARK VINA RESULT:     -12.1      4.536      9.962
REMARK SMILES O=C(NCCCCCCNC(=O)c1cccc(Nc2ccc([N+](=O)[O-])cc2)c1)c1ccc(-c2c3nc(c(-c4c(F)c(F)c(F)c(F)c4F)c4ccc([nH]4)c(-c4c(F)c(F)c(F)c(F)c4F)c4nc(c(-c5c(F)c(F)c(F)c(F)c5F)c5ccc2[nH]5)C=C4)C=C3)cc1
REMARK SMILES IDX 7 1 6 4 5 7 4 10 3 13 1 14 2 15 29 17 30 18 91 19 31 20
REMARK SMILES IDX 90 22 32 24 33 27 34 28 84 29 35 30 89 31 83 32 85 33 36 34
REMARK SMILES IDX 88 35 82 37 81 39 37 41 69 44 49 45 68 46 50 47 53 48 67 49
REMARK SMILES IDX 86 50 51 51 52 53 66 55 87 56 54 59 38 61 39 62 47 63 40 64
REMARK SMILES IDX 41 65 45 66 48 67 42 68 43 69 46 70 44 71 70 72 71 73 79 74
REMARK SMILES IDX 72 75 73 76 77 77 80 78 74 79 75 80 78 81 76 82 55 83 56 84
REMARK SMILES IDX 64 85 57 86 58 87 62 88 65 89 59 90 60 91 63 92 61 93 8 94
REMARK SMILES IDX 9 97 10 100 11 101 12 103 13 104 14 105 28 106 15 107 17 109
REMARK SMILES IDX 16 111 18 114 19 116 20 117 27 118 21 119 26 121 22 123
REMARK SMILES IDX 23 126 24 127 25 128
REMARK H PARENT 7 2 7 3 6 5 6 6 5 8 5 9 4 11 4 12 3 16 30 21 91 23 31 25 90 26
REMARK H PARENT 89 36 83 38 85 40 88 42 82 43 50 52 53 54 86 57 51 58 87 60
REMARK H PARENT 8 95 8 96 9 98 9 99 10 102 14 108 28 110 15 112 16 113 18 115
REMARK H PARENT 20 120 27 122 21 124 26 125
REMARK Flexibility Score: inf
ROOT
ATOM      1  C   UNL A   1      30.423  27.968  24.076  1.00  0.00    -0.052 C 
ATOM      2  H   UNL A   1      30.266  27.369  23.203  1.00  0.00     0.027 H 
ATOM      3  H   UNL A   1      29.551  28.489  24.411  1.00  0.00     0.027 H 
ENDROOT
BRANCH   1   4
ATOM      4  C   UNL A   1      31.444  29.053  23.722  1.00  0.00    -0.052 C 
ATOM      5  H   UNL A   1      31.294  29.325  22.698  1.00  0.00     0.027 H 
ATOM      6  H   UNL A   1      31.273  29.853  24.411  1.00  0.00     0.027 H 
BRANCH   4   7
ATOM      7  C   UNL A   1      32.910  28.658  23.893  1.00  0.00    -0.036 C 
ATOM      8  H   UNL A   1      32.969  27.589  23.889  1.00  0.00     0.028 H 
ATOM      9  H   UNL A   1      33.439  29.116  23.084  1.00  0.00     0.028 H 
BRANCH   7  10
ATOM     10  C   UNL A   1      33.569  29.161  25.169  1.00  0.00     0.018 C 
ATOM     11  H   UNL A   1      33.549  28.376  25.897  1.00  0.00     0.049 H 
ATOM     12  H   UNL A   1      34.568  29.450  24.922  1.00  0.00     0.049 H 
BRANCH  10  13
ATOM     13  N   UNL A   1      32.905  30.327  25.729  1.00  0.00    -0.352 N 
ATOM     14  O   UNL A   1      32.498  31.949  27.249  1.00  0.00    -0.269 OA
ATOM     15  C   UNL A   1      33.249  31.073  26.831  1.00  0.00     0.251 C 
ATOM     16  H   UNL A   1      32.095  30.624  25.253  1.00  0.00     0.163 HD
BRANCH  15  17
ATOM     17  C   UNL A   1      34.521  30.795  27.533  1.00  0.00     0.039 A 
ATOM     18  C   UNL A   1      34.777  29.530  28.064  1.00  0.00    -0.049 A 
ATOM     19  C   UNL A   1      35.468  31.816  27.664  1.00  0.00    -0.049 A 
ATOM     20  C   UNL A   1      35.904  29.328  28.852  1.00  0.00    -0.053 A 
ATOM     21  H   UNL A   1      34.132  28.747  27.872  1.00  0.00     0.063 H 
ATOM     22  C   UNL A   1      36.647  31.583  28.380  1.00  0.00    -0.053 A 
ATOM     23  H   UNL A   1      35.297  32.739  27.235  1.00  0.00     0.063 H 
ATOM     24  C   UNL A   1      36.860  30.346  29.005  1.00  0.00    -0.014 A 
ATOM     25  H   UNL A   1      36.038  28.423  29.329  1.00  0.00     0.063 H 
ATOM     26  H   UNL A   1      37.363  32.323  28.447  1.00  0.00     0.063 H 
BRANCH  24  27
ATOM     27  C   UNL A   1      38.102  30.054  29.768  1.00  0.00     0.031 A 
ATOM     28  C   UNL A   1      38.299  30.559  31.170  1.00  0.00     0.074 A 
ATOM     29  C   UNL A   1      39.037  29.276  29.191  1.00  0.00     0.049 A 
ATOM     30  N   UNL A   1      39.302  30.351  31.986  1.00  0.00    -0.248 NA
ATOM     31  C   UNL A   1      37.240  31.412  31.728  1.00  0.00    -0.034 C 
ATOM     32  C   UNL A   1      38.962  28.745  27.827  1.00  0.00    -0.036 A 
ATOM     33  N   UNL A   1      40.217  28.776  29.677  1.00  0.00    -0.354 N 
ATOM     34  C   UNL A   1      39.000  31.048  33.148  1.00  0.00     0.074 A 
ATOM     35  C   UNL A   1      37.736  31.716  32.921  1.00  0.00    -0.034 C 
ATOM     36  H   UNL A   1      36.344  31.701  31.305  1.00  0.00     0.065 H 
ATOM     37  C   UNL A   1      40.022  27.955  27.604  1.00  0.00    -0.036 A 
ATOM     38  H   UNL A   1      38.214  28.947  27.147  1.00  0.00     0.065 H 
ATOM     39  C   UNL A   1      40.881  27.972  28.782  1.00  0.00     0.049 A 
ATOM     40  H   UNL A   1      40.557  28.973  30.579  1.00  0.00     0.167 HD
ATOM     41  C   UNL A   1      39.709  31.114  34.302  1.00  0.00     0.037 A 
ATOM     42  H   UNL A   1      37.279  32.347  33.599  1.00  0.00     0.065 H 
ATOM     43  H   UNL A   1      40.200  27.422  26.738  1.00  0.00     0.065 H 
ATOM     44  C   UNL A   1      42.057  27.329  28.890  1.00  0.00     0.037 A 
ATOM     45  C   UNL A   1      40.967  30.445  34.522  1.00  0.00     0.049 A 
ATOM     46  C   UNL A   1      42.827  27.434  30.175  1.00  0.00     0.074 A 
ATOM     47  C   UNL A   1      41.761  30.446  35.657  1.00  0.00    -0.036 A 
ATOM     48  N   UNL A   1      41.618  29.655  33.584  1.00  0.00    -0.354 N 
ATOM     49  N   UNL A   1      42.516  28.077  31.274  1.00  0.00    -0.248 NA
ATOM     50  C   UNL A   1      44.110  26.723  30.235  1.00  0.00    -0.034 C 
ATOM     51  C   UNL A   1      42.907  29.688  35.394  1.00  0.00    -0.036 A 
ATOM     52  H   UNL A   1      41.543  30.924  36.546  1.00  0.00     0.065 H 
ATOM     53  C   UNL A   1      42.807  29.175  34.113  1.00  0.00     0.049 A 
ATOM     54  H   UNL A   1      41.283  29.463  32.679  1.00  0.00     0.167 HD
ATOM     55  C   UNL A   1      43.556  27.840  32.160  1.00  0.00     0.074 A 
ATOM     56  C   UNL A   1      44.492  26.968  31.481  1.00  0.00    -0.034 C 
ATOM     57  H   UNL A   1      44.588  26.178  29.502  1.00  0.00     0.065 H 
ATOM     58  H   UNL A   1      43.694  29.539  36.045  1.00  0.00     0.065 H 
ATOM     59  C   UNL A   1      43.727  28.308  33.420  1.00  0.00     0.037 A 
ATOM     60  H   UNL A   1      45.348  26.585  31.911  1.00  0.00     0.065 H 
BRANCH  41  61
ATOM     61  C   UNL A   1      39.145  31.938  35.423  1.00  0.00     0.064 A 
ATOM     62  C   UNL A   1      38.324  31.370  36.409  1.00  0.00     0.173 A 
ATOM     63  C   UNL A   1      39.476  33.296  35.550  1.00  0.00     0.173 A 
ATOM     64  F   UNL A   1      37.968  30.079  36.330  1.00  0.00    -0.203 F 
ATOM     65  C   UNL A   1      37.843  32.134  37.470  1.00  0.00     0.198 A 
ATOM     66  C   UNL A   1      39.014  34.051  36.626  1.00  0.00     0.198 A 
ATOM     67  F   UNL A   1      40.263  33.888  34.639  1.00  0.00    -0.203 F 
ATOM     68  F   UNL A   1      37.031  31.579  38.380  1.00  0.00    -0.200 F 
ATOM     69  C   UNL A   1      38.194  33.471  37.582  1.00  0.00     0.200 A 
ATOM     70  F   UNL A   1      39.366  35.339  36.740  1.00  0.00    -0.200 F 
ATOM     71  F   UNL A   1      37.740  34.202  38.609  1.00  0.00    -0.200 F 
ENDBRANCH  41  61
BRANCH  44  72
ATOM     72  C   UNL A   1      42.578  26.542  27.742  1.00  0.00     0.064 A 
ATOM     73  C   UNL A   1      42.167  25.221  27.523  1.00  0.00     0.173 A 
ATOM     74  C   UNL A   1      43.496  27.100  26.840  1.00  0.00     0.173 A 
ATOM     75  F   UNL A   1      41.304  24.638  28.367  1.00  0.00    -0.203 F 
ATOM     76  C   UNL A   1      42.672  24.481  26.457  1.00  0.00     0.198 A 
ATOM     77  C   UNL A   1      43.974  26.370  25.756  1.00  0.00     0.198 A 
ATOM     78  F   UNL A   1      43.915  28.365  27.002  1.00  0.00    -0.203 F 
ATOM     79  F   UNL A   1      42.300  23.204  26.296  1.00  0.00    -0.200 F 
ATOM     80  C   UNL A   1      43.570  25.057  25.570  1.00  0.00     0.200 A 
ATOM     81  F   UNL A   1      44.826  26.938  24.891  1.00  0.00    -0.200 F 
ATOM     82  F   UNL A   1      44.049  24.346  24.541  1.00  0.00    -0.200 F 
ENDBRANCH  44  72
BRANCH  59  83
ATOM     83  C   UNL A   1      44.963  27.866  34.145  1.00  0.00     0.064 A 
ATOM     84  C   UNL A   1      46.148  28.615  34.101  1.00  0.00     0.173 A 
ATOM     85  C   UNL A   1      44.960  26.683  34.899  1.00  0.00     0.173 A 
ATOM     86  F   UNL A   1      46.206  29.744  33.379  1.00  0.00    -0.203 F 
ATOM     87  C   UNL A   1      47.295  28.179  34.757  1.00  0.00     0.198 A 
ATOM     88  C   UNL A   1      46.101  26.265  35.579  1.00  0.00     0.198 A 
ATOM     89  F   UNL A   1      43.850  25.934  34.978  1.00  0.00    -0.203 F 
ATOM     90  F   UNL A   1      48.432  28.879  34.653  1.00  0.00    -0.200 F 
ATOM     91  C   UNL A   1      47.269  27.007  35.499  1.00  0.00     0.200 A 
ATOM     92  F   UNL A   1      46.071  25.138  36.304  1.00  0.00    -0.200 F 
ATOM     93  F   UNL A   1      48.375  26.586  36.129  1.00  0.00    -0.200 F 
ENDBRANCH  59  83
ENDBRANCH  24  27
ENDBRANCH  15  17
ENDBRANCH  10  13
ENDBRANCH   7  10
ENDBRANCH   4   7
ENDBRANCH   1   4
BRANCH   1  94
ATOM     94  C   UNL A   1      30.815  27.031  25.223  1.00  0.00    -0.036 C 
ATOM     95  H   UNL A   1      30.685  27.563  26.144  1.00  0.00     0.028 H 
ATOM     96  H   UNL A   1      31.827  26.740  25.036  1.00  0.00     0.028 H 
BRANCH  94  97
ATOM     97  C   UNL A   1      30.012  25.735  25.312  1.00  0.00     0.018 C 
ATOM     98  H   UNL A   1      30.202  25.150  24.437  1.00  0.00     0.049 H 
ATOM     99  H   UNL A   1      28.976  25.991  25.388  1.00  0.00     0.049 H 
BRANCH  97 100
ATOM    100  N   UNL A   1      30.368  24.957  26.484  1.00  0.00    -0.352 N 
ATOM    101  C   UNL A   1      31.264  23.927  26.601  1.00  0.00     0.251 C 
ATOM    102  H   UNL A   1      29.899  25.205  27.314  1.00  0.00     0.163 HD
ATOM    103  O   UNL A   1      31.301  23.253  27.626  1.00  0.00    -0.269 OA
BRANCH 101 104
ATOM    104  C   UNL A   1      32.185  23.621  25.489  1.00  0.00     0.041 A 
ATOM    105  C   UNL A   1      31.691  22.929  24.383  1.00  0.00    -0.049 A 
ATOM    106  C   UNL A   1      33.540  23.969  25.567  1.00  0.00    -0.026 A 
ATOM    107  C   UNL A   1      32.549  22.626  23.332  1.00  0.00    -0.059 A 
ATOM    108  H   UNL A   1      30.700  22.645  24.346  1.00  0.00     0.063 H 
ATOM    109  C   UNL A   1      34.415  23.666  24.517  1.00  0.00     0.039 A 
ATOM    110  H   UNL A   1      33.897  24.453  26.404  1.00  0.00     0.065 H 
ATOM    111  C   UNL A   1      33.894  23.003  23.397  1.00  0.00    -0.039 A 
ATOM    112  H   UNL A   1      32.192  22.125  22.502  1.00  0.00     0.062 H 
ATOM    113  H   UNL A   1      34.517  22.787  22.602  1.00  0.00     0.064 H 
BRANCH 109 114
ATOM    114  N   UNL A   1      35.762  24.064  24.616  1.00  0.00    -0.356 N 
ATOM    115  H   UNL A   1      35.940  24.995  24.355  1.00  0.00     0.167 HD
BRANCH 114 116
ATOM    116  C   UNL A   1      36.890  23.336  25.031  1.00  0.00     0.039 A 
ATOM    117  C   UNL A   1      37.778  23.922  25.942  1.00  0.00    -0.032 A 
ATOM    118  C   UNL A   1      37.100  22.004  24.650  1.00  0.00    -0.032 A 
ATOM    119  C   UNL A   1      38.828  23.185  26.494  1.00  0.00     0.018 A 
ATOM    120  H   UNL A   1      37.653  24.911  26.211  1.00  0.00     0.065 H 
ATOM    121  C   UNL A   1      38.154  21.260  25.188  1.00  0.00     0.018 A 
ATOM    122  H   UNL A   1      36.468  21.567  23.961  1.00  0.00     0.065 H 
ATOM    123  C   UNL A   1      39.004  21.848  26.127  1.00  0.00     0.269 A 
ATOM    124  H   UNL A   1      39.471  23.625  27.170  1.00  0.00     0.070 H 
ATOM    125  H   UNL A   1      38.302  20.282  24.894  1.00  0.00     0.070 H 
BRANCH 123 126
ATOM    126  N   UNL A   1      40.046  21.063  26.746  1.00  0.00     0.062 N 
ATOM    127  O   UNL A   1      40.474  21.346  27.845  1.00  0.00    -0.258 OA
ATOM    128  O   UNL A   1      40.555  19.946  26.125  1.00  0.00    -0.258 OA
ENDBRANCH 123 126
ENDBRANCH 114 116
ENDBRANCH 109 114
ENDBRANCH 101 104
ENDBRANCH  97 100
ENDBRANCH  94  97
ENDBRANCH   1  94
TORSDOF 16
ENDMDL
MODEL 7
REMARK VINA RESULT:     -12.1      4.458      9.633
REMARK SMILES O=C(NCCCCCCNC(=O)c1cccc(Nc2ccc([N+](=O)[O-])cc2)c1)c1ccc(-c2c3nc(c(-c4c(F)c(F)c(F)c(F)c4F)c4ccc([nH]4)c(-c4c(F)c(F)c(F)c(F)c4F)c4nc(c(-c5c(F)c(F)c(F)c(F)c5F)c5ccc2[nH]5)C=C4)C=C3)cc1
REMARK SMILES IDX 7 1 6 4 5 7 4 10 3 13 1 14 2 15 29 17 30 18 91 19 31 20
REMARK SMILES IDX 90 22 32 24 33 27 34 28 84 29 35 30 89 31 83 32 85 33 36 34
REMARK SMILES IDX 88 35 82 37 81 39 37 41 69 44 49 45 68 46 50 47 53 48 67 49
REMARK SMILES IDX 86 50 51 51 52 53 66 55 87 56 54 59 38 61 39 62 47 63 40 64
REMARK SMILES IDX 41 65 45 66 48 67 42 68 43 69 46 70 44 71 70 72 71 73 79 74
REMARK SMILES IDX 72 75 73 76 77 77 80 78 74 79 75 80 78 81 76 82 55 83 56 84
REMARK SMILES IDX 64 85 57 86 58 87 62 88 65 89 59 90 60 91 63 92 61 93 8 94
REMARK SMILES IDX 9 97 10 100 11 101 12 103 13 104 14 105 28 106 15 107 17 109
REMARK SMILES IDX 16 111 18 114 19 116 20 117 27 118 21 119 26 121 22 123
REMARK SMILES IDX 23 126 24 127 25 128
REMARK H PARENT 7 2 7 3 6 5 6 6 5 8 5 9 4 11 4 12 3 16 30 21 91 23 31 25 90 26
REMARK H PARENT 89 36 83 38 85 40 88 42 82 43 50 52 53 54 86 57 51 58 87 60
REMARK H PARENT 8 95 8 96 9 98 9 99 10 102 14 108 28 110 15 112 16 113 18 115
REMARK H PARENT 20 120 27 122 21 124 26 125
REMARK Flexibility Score: inf
ROOT
ATOM      1  C   UNL A   1      31.046  27.800  24.458  1.00  0.00    -0.052 C 
ATOM      2  H   UNL A   1      30.766  28.802  24.709  1.00  0.00     0.027 H 
ATOM      3  H   UNL A   1      31.320  27.199  25.300  1.00  0.00     0.027 H 
ENDROOT
BRANCH   1   4
ATOM      4  C   UNL A   1      32.293  27.869  23.573  1.00  0.00    -0.052 C 
ATOM      5  H   UNL A   1      32.791  26.923  23.630  1.00  0.00     0.027 H 
ATOM      6  H   UNL A   1      31.944  28.114  22.592  1.00  0.00     0.027 H 
BRANCH   4   7
ATOM      7  C   UNL A   1      33.303  28.954  23.942  1.00  0.00    -0.036 C 
ATOM      8  H   UNL A   1      34.242  28.698  23.498  1.00  0.00     0.028 H 
ATOM      9  H   UNL A   1      32.898  29.875  23.579  1.00  0.00     0.028 H 
BRANCH   7  10
ATOM     10  C   UNL A   1      33.525  29.147  25.435  1.00  0.00     0.018 C 
ATOM     11  H   UNL A   1      33.078  28.325  25.956  1.00  0.00     0.049 H 
ATOM     12  H   UNL A   1      34.581  29.196  25.599  1.00  0.00     0.049 H 
BRANCH  10  13
ATOM     13  N   UNL A   1      32.949  30.382  25.940  1.00  0.00    -0.352 N 
ATOM     14  O   UNL A   1      32.686  32.114  27.368  1.00  0.00    -0.269 OA
ATOM     15  C   UNL A   1      33.370  31.170  26.985  1.00  0.00     0.251 C 
ATOM     16  H   UNL A   1      32.146  30.700  25.467  1.00  0.00     0.163 HD
BRANCH  15  17
ATOM     17  C   UNL A   1      34.643  30.855  27.671  1.00  0.00     0.039 A 
ATOM     18  C   UNL A   1      34.826  29.621  28.296  1.00  0.00    -0.049 A 
ATOM     19  C   UNL A   1      35.664  31.810  27.690  1.00  0.00    -0.049 A 
ATOM     20  C   UNL A   1      35.962  29.400  29.065  1.00  0.00    -0.053 A 
ATOM     21  H   UNL A   1      34.121  28.875  28.188  1.00  0.00     0.063 H 
ATOM     22  C   UNL A   1      36.848  31.548  28.388  1.00  0.00    -0.053 A 
ATOM     23  H   UNL A   1      35.544  32.706  27.192  1.00  0.00     0.063 H 
ATOM     24  C   UNL A   1      36.994  30.353  29.106  1.00  0.00    -0.014 A 
ATOM     25  H   UNL A   1      36.048  28.528  29.610  1.00  0.00     0.063 H 
ATOM     26  H   UNL A   1      37.616  32.237  28.374  1.00  0.00     0.063 H 
BRANCH  24  27
ATOM     27  C   UNL A   1      38.237  30.032  29.855  1.00  0.00     0.031 A 
ATOM     28  C   UNL A   1      38.473  30.552  31.245  1.00  0.00     0.074 A 
ATOM     29  C   UNL A   1      39.137  29.215  29.275  1.00  0.00     0.049 A 
ATOM     30  N   UNL A   1      39.481  30.323  32.048  1.00  0.00    -0.248 NA
ATOM     31  C   UNL A   1      37.451  31.447  31.806  1.00  0.00    -0.034 C 
ATOM     32  C   UNL A   1      39.023  28.666  27.921  1.00  0.00    -0.036 A 
ATOM     33  N   UNL A   1      40.308  28.683  29.750  1.00  0.00    -0.354 N 
ATOM     34  C   UNL A   1      39.221  31.047  33.204  1.00  0.00     0.074 A 
ATOM     35  C   UNL A   1      37.976  31.753  32.986  1.00  0.00    -0.034 C 
ATOM     36  H   UNL A   1      36.559  31.759  31.392  1.00  0.00     0.065 H 
ATOM     37  C   UNL A   1      40.053  27.838  27.693  1.00  0.00    -0.036 A 
ATOM     38  H   UNL A   1      38.271  28.883  27.250  1.00  0.00     0.065 H 
ATOM     39  C   UNL A   1      40.930  27.845  28.858  1.00  0.00     0.049 A 
ATOM     40  H   UNL A   1      40.668  28.883  30.644  1.00  0.00     0.167 HD
ATOM     41  C   UNL A   1      39.950  31.106  34.345  1.00  0.00     0.037 A 
ATOM     42  H   UNL A   1      37.551  32.409  33.661  1.00  0.00     0.065 H 
ATOM     43  H   UNL A   1      40.199  27.287  26.833  1.00  0.00     0.065 H 
ATOM     44  C   UNL A   1      42.087  27.166  28.958  1.00  0.00     0.037 A 
ATOM     45  C   UNL A   1      41.189  30.400  34.557  1.00  0.00     0.049 A 
ATOM     46  C   UNL A   1      42.880  27.265  30.229  1.00  0.00     0.074 A 
ATOM     47  C   UNL A   1      42.000  30.392  35.679  1.00  0.00    -0.036 A 
ATOM     48  N   UNL A   1      41.798  29.575  33.622  1.00  0.00    -0.354 N 
ATOM     49  N   UNL A   1      42.608  27.933  31.323  1.00  0.00    -0.248 NA
ATOM     50  C   UNL A   1      44.140  26.513  30.280  1.00  0.00    -0.034 C 
ATOM     51  C   UNL A   1      43.117  29.593  35.410  1.00  0.00    -0.036 A 
ATOM     52  H   UNL A   1      41.813  30.890  36.564  1.00  0.00     0.065 H 
ATOM     53  C   UNL A   1      42.980  29.064  34.139  1.00  0.00     0.049 A 
ATOM     54  H   UNL A   1      41.444  29.380  32.724  1.00  0.00     0.167 HD
ATOM     55  C   UNL A   1      43.654  27.676  32.196  1.00  0.00     0.074 A 
ATOM     56  C   UNL A   1      44.549  26.763  31.515  1.00  0.00    -0.034 C 
ATOM     57  H   UNL A   1      44.588  25.941  29.548  1.00  0.00     0.065 H 
ATOM     58  H   UNL A   1      43.909  29.428  36.052  1.00  0.00     0.065 H 
ATOM     59  C   UNL A   1      43.860  28.157  33.445  1.00  0.00     0.037 A 
ATOM     60  H   UNL A   1      45.399  26.359  31.939  1.00  0.00     0.065 H 
BRANCH  41  61
ATOM     61  C   UNL A   1      39.431  31.966  35.463  1.00  0.00     0.064 A 
ATOM     62  C   UNL A   1      39.746  33.330  35.545  1.00  0.00     0.173 A 
ATOM     63  C   UNL A   1      38.560  31.435  36.428  1.00  0.00     0.173 A 
ATOM     64  F   UNL A   1      40.581  33.885  34.654  1.00  0.00    -0.203 F 
ATOM     65  C   UNL A   1      39.223  34.127  36.561  1.00  0.00     0.198 A 
ATOM     66  C   UNL A   1      38.019  32.241  37.428  1.00  0.00     0.198 A 
ATOM     67  F   UNL A   1      38.221  30.138  36.393  1.00  0.00    -0.203 F 
ATOM     68  F   UNL A   1      39.566  35.420  36.640  1.00  0.00    -0.200 F 
ATOM     69  C   UNL A   1      38.354  33.584  37.496  1.00  0.00     0.200 A 
ATOM     70  F   UNL A   1      37.170  31.718  38.322  1.00  0.00    -0.200 F 
ATOM     71  F   UNL A   1      37.843  34.356  38.465  1.00  0.00    -0.200 F 
ENDBRANCH  41  61
BRANCH  44  72
ATOM     72  C   UNL A   1      42.563  26.345  27.814  1.00  0.00     0.064 A 
ATOM     73  C   UNL A   1      43.407  26.885  26.835  1.00  0.00     0.173 A 
ATOM     74  C   UNL A   1      42.184  25.000  27.681  1.00  0.00     0.173 A 
ATOM     75  F   UNL A   1      43.783  28.170  26.910  1.00  0.00    -0.203 F 
ATOM     76  C   UNL A   1      43.836  26.118  25.755  1.00  0.00     0.198 A 
ATOM     77  C   UNL A   1      42.640  24.226  26.619  1.00  0.00     0.198 A 
ATOM     78  F   UNL A   1      41.383  24.434  28.597  1.00  0.00    -0.203 F 
ATOM     79  F   UNL A   1      44.603  26.671  24.807  1.00  0.00    -0.200 F 
ATOM     80  C   UNL A   1      43.457  24.787  25.651  1.00  0.00     0.200 A 
ATOM     81  F   UNL A   1      42.288  22.935  26.534  1.00  0.00    -0.200 F 
ATOM     82  F   UNL A   1      43.876  24.048  24.615  1.00  0.00    -0.200 F 
ENDBRANCH  44  72
BRANCH  59  83
ATOM     83  C   UNL A   1      45.092  27.685  34.158  1.00  0.00     0.064 A 
ATOM     84  C   UNL A   1      46.305  28.384  34.068  1.00  0.00     0.173 A 
ATOM     85  C   UNL A   1      45.057  26.525  34.946  1.00  0.00     0.173 A 
ATOM     86  F   UNL A   1      46.393  29.489  33.313  1.00  0.00    -0.203 F 
ATOM     87  C   UNL A   1      47.448  27.920  34.714  1.00  0.00     0.198 A 
ATOM     88  C   UNL A   1      46.195  26.081  35.615  1.00  0.00     0.198 A 
ATOM     89  F   UNL A   1      43.921  25.825  35.069  1.00  0.00    -0.203 F 
ATOM     90  F   UNL A   1      48.609  28.570  34.567  1.00  0.00    -0.200 F 
ATOM     91  C   UNL A   1      47.390  26.772  35.490  1.00  0.00     0.200 A 
ATOM     92  F   UNL A   1      46.135  24.976  36.373  1.00  0.00    -0.200 F 
ATOM     93  F   UNL A   1      48.491  26.324  36.109  1.00  0.00    -0.200 F 
ENDBRANCH  59  83
ENDBRANCH  24  27
ENDBRANCH  15  17
ENDBRANCH  10  13
ENDBRANCH   7  10
ENDBRANCH   4   7
ENDBRANCH   1   4
BRANCH   1  94
ATOM     94  C   UNL A   1      29.824  27.114  23.837  1.00  0.00    -0.036 C 
ATOM     95  H   UNL A   1      29.841  27.299  22.783  1.00  0.00     0.028 H 
ATOM     96  H   UNL A   1      28.970  27.526  24.331  1.00  0.00     0.028 H 
BRANCH  94  97
ATOM     97  C   UNL A   1      29.747  25.603  24.048  1.00  0.00     0.018 C 
ATOM     98  H   UNL A   1      30.548  25.137  23.514  1.00  0.00     0.049 H 
ATOM     99  H   UNL A   1      28.797  25.266  23.691  1.00  0.00     0.049 H 
BRANCH  97 100
ATOM    100  N   UNL A   1      29.849  25.247  25.452  1.00  0.00    -0.352 N 
ATOM    101  C   UNL A   1      30.656  24.317  26.053  1.00  0.00     0.251 C 
ATOM    102  H   UNL A   1      29.254  25.746  26.058  1.00  0.00     0.163 HD
ATOM    103  O   UNL A   1      30.476  24.010  27.228  1.00  0.00    -0.269 OA
BRANCH 101 104
ATOM    104  C   UNL A   1      31.742  23.677  25.286  1.00  0.00     0.041 A 
ATOM    105  C   UNL A   1      32.951  24.358  25.143  1.00  0.00    -0.049 A 
ATOM    106  C   UNL A   1      31.545  22.435  24.667  1.00  0.00    -0.026 A 
ATOM    107  C   UNL A   1      33.981  23.771  24.417  1.00  0.00    -0.059 A 
ATOM    108  H   UNL A   1      33.080  25.287  25.573  1.00  0.00     0.063 H 
ATOM    109  C   UNL A   1      32.572  21.836  23.930  1.00  0.00     0.039 A 
ATOM    110  H   UNL A   1      30.635  21.958  24.757  1.00  0.00     0.065 H 
ATOM    111  C   UNL A   1      33.793  22.517  23.826  1.00  0.00    -0.039 A 
ATOM    112  H   UNL A   1      34.884  24.260  24.314  1.00  0.00     0.062 H 
ATOM    113  H   UNL A   1      34.571  22.084  23.304  1.00  0.00     0.064 H 
BRANCH 109 114
ATOM    114  N   UNL A   1      32.347  20.572  23.353  1.00  0.00    -0.356 N 
ATOM    115  H   UNL A   1      31.877  20.587  22.488  1.00  0.00     0.167 HD
BRANCH 114 116
ATOM    116  C   UNL A   1      32.690  19.292  23.820  1.00  0.00     0.039 A 
ATOM    117  C   UNL A   1      32.631  19.035  25.197  1.00  0.00    -0.032 A 
ATOM    118  C   UNL A   1      32.983  18.233  22.951  1.00  0.00    -0.032 A 
ATOM    119  C   UNL A   1      32.819  17.743  25.693  1.00  0.00     0.018 A 
ATOM    120  H   UNL A   1      32.444  19.810  25.852  1.00  0.00     0.065 H 
ATOM    121  C   UNL A   1      33.183  16.938  23.438  1.00  0.00     0.018 A 
ATOM    122  H   UNL A   1      33.054  18.412  21.938  1.00  0.00     0.065 H 
ATOM    123  C   UNL A   1      33.078  16.692  24.808  1.00  0.00     0.269 A 
ATOM    124  H   UNL A   1      32.766  17.564  26.707  1.00  0.00     0.070 H 
ATOM    125  H   UNL A   1      33.405  16.168  22.788  1.00  0.00     0.070 H 
BRANCH 123 126
ATOM    126  N   UNL A   1      33.206  15.344  25.310  1.00  0.00     0.062 N 
ATOM    127  O   UNL A   1      34.276  14.772  25.301  1.00  0.00    -0.258 OA
ATOM    128  O   UNL A   1      32.127  14.684  25.850  1.00  0.00    -0.258 OA
ENDBRANCH 123 126
ENDBRANCH 114 116
ENDBRANCH 109 114
ENDBRANCH 101 104
ENDBRANCH  97 100
ENDBRANCH  94  97
ENDBRANCH   1  94
TORSDOF 16
ENDMDL
MODEL 8
REMARK VINA RESULT:     -12.0      1.619      7.601
REMARK SMILES O=C(NCCCCCCNC(=O)c1cccc(Nc2ccc([N+](=O)[O-])cc2)c1)c1ccc(-c2c3nc(c(-c4c(F)c(F)c(F)c(F)c4F)c4ccc([nH]4)c(-c4c(F)c(F)c(F)c(F)c4F)c4nc(c(-c5c(F)c(F)c(F)c(F)c5F)c5ccc2[nH]5)C=C4)C=C3)cc1
REMARK SMILES IDX 7 1 6 4 5 7 4 10 3 13 1 14 2 15 29 17 30 18 91 19 31 20
REMARK SMILES IDX 90 22 32 24 33 27 34 28 84 29 35 30 89 31 83 32 85 33 36 34
REMARK SMILES IDX 88 35 82 37 81 39 37 41 69 44 49 45 68 46 50 47 53 48 67 49
REMARK SMILES IDX 86 50 51 51 52 53 66 55 87 56 54 59 38 61 39 62 47 63 40 64
REMARK SMILES IDX 41 65 45 66 48 67 42 68 43 69 46 70 44 71 70 72 71 73 79 74
REMARK SMILES IDX 72 75 73 76 77 77 80 78 74 79 75 80 78 81 76 82 55 83 56 84
REMARK SMILES IDX 64 85 57 86 58 87 62 88 65 89 59 90 60 91 63 92 61 93 8 94
REMARK SMILES IDX 9 97 10 100 11 101 12 103 13 104 14 105 28 106 15 107 17 109
REMARK SMILES IDX 16 111 18 114 19 116 20 117 27 118 21 119 26 121 22 123
REMARK SMILES IDX 23 126 24 127 25 128
REMARK H PARENT 7 2 7 3 6 5 6 6 5 8 5 9 4 11 4 12 3 16 30 21 91 23 31 25 90 26
REMARK H PARENT 89 36 83 38 85 40 88 42 82 43 50 52 53 54 86 57 51 58 87 60
REMARK H PARENT 8 95 8 96 9 98 9 99 10 102 14 108 28 110 15 112 16 113 18 115
REMARK H PARENT 20 120 27 122 21 124 26 125
REMARK Flexibility Score: inf
ROOT
ATOM      1  C   UNL A   1      39.864  22.007  26.348  1.00  0.00    -0.052 C 
ATOM      2  H   UNL A   1      39.902  22.980  25.903  1.00  0.00     0.027 H 
ATOM      3  H   UNL A   1      39.621  22.013  27.390  1.00  0.00     0.027 H 
ENDROOT
BRANCH   1   4
ATOM      4  C   UNL A   1      41.263  21.392  26.251  1.00  0.00    -0.052 C 
ATOM      5  H   UNL A   1      41.779  21.872  25.446  1.00  0.00     0.027 H 
ATOM      6  H   UNL A   1      41.717  21.544  27.208  1.00  0.00     0.027 H 
BRANCH   4   7
ATOM      7  C   UNL A   1      41.303  19.885  26.002  1.00  0.00    -0.036 C 
ATOM      8  H   UNL A   1      40.476  19.441  26.517  1.00  0.00     0.028 H 
ATOM      9  H   UNL A   1      41.261  19.756  24.941  1.00  0.00     0.028 H 
BRANCH   7  10
ATOM     10  C   UNL A   1      42.575  19.189  26.465  1.00  0.00     0.018 C 
ATOM     11  H   UNL A   1      43.139  19.872  27.066  1.00  0.00     0.049 H 
ATOM     12  H   UNL A   1      42.283  18.320  27.016  1.00  0.00     0.049 H 
BRANCH  10  13
ATOM     13  N   UNL A   1      43.411  18.744  25.362  1.00  0.00    -0.352 N 
ATOM     14  O   UNL A   1      44.809  18.968  23.601  1.00  0.00    -0.269 OA
ATOM     15  C   UNL A   1      44.279  19.474  24.584  1.00  0.00     0.251 C 
ATOM     16  H   UNL A   1      43.348  17.786  25.142  1.00  0.00     0.163 HD
BRANCH  15  17
ATOM     17  C   UNL A   1      44.548  20.889  24.922  1.00  0.00     0.039 A 
ATOM     18  C   UNL A   1      45.172  21.225  26.125  1.00  0.00    -0.049 A 
ATOM     19  C   UNL A   1      44.169  21.891  24.024  1.00  0.00    -0.049 A 
ATOM     20  C   UNL A   1      45.278  22.560  26.496  1.00  0.00    -0.053 A 
ATOM     21  H   UNL A   1      45.552  20.486  26.736  1.00  0.00     0.063 H 
ATOM     22  C   UNL A   1      44.363  23.235  24.359  1.00  0.00    -0.053 A 
ATOM     23  H   UNL A   1      43.747  21.640  23.116  1.00  0.00     0.063 H 
ATOM     24  C   UNL A   1      44.891  23.581  25.612  1.00  0.00    -0.014 A 
ATOM     25  H   UNL A   1      45.644  22.803  27.430  1.00  0.00     0.063 H 
ATOM     26  H   UNL A   1      44.116  23.975  23.683  1.00  0.00     0.063 H 
BRANCH  24  27
ATOM     27  C   UNL A   1      45.120  24.995  26.005  1.00  0.00     0.031 A 
ATOM     28  C   UNL A   1      44.027  25.828  26.613  1.00  0.00     0.074 A 
ATOM     29  C   UNL A   1      46.355  25.509  25.851  1.00  0.00     0.049 A 
ATOM     30  N   UNL A   1      44.079  27.060  27.055  1.00  0.00    -0.248 NA
ATOM     31  C   UNL A   1      42.701  25.203  26.739  1.00  0.00    -0.034 C 
ATOM     32  C   UNL A   1      47.490  24.800  25.253  1.00  0.00    -0.036 A 
ATOM     33  N   UNL A   1      46.874  26.728  26.201  1.00  0.00    -0.354 N 
ATOM     34  C   UNL A   1      42.800  27.360  27.504  1.00  0.00     0.074 A 
ATOM     35  C   UNL A   1      41.981  26.193  27.250  1.00  0.00    -0.034 C 
ATOM     36  H   UNL A   1      42.407  24.245  26.494  1.00  0.00     0.065 H 
ATOM     37  C   UNL A   1      48.581  25.577  25.323  1.00  0.00    -0.036 A 
ATOM     38  H   UNL A   1      47.455  23.854  24.843  1.00  0.00     0.065 H 
ATOM     39  C   UNL A   1      48.211  26.858  25.913  1.00  0.00     0.049 A 
ATOM     40  H   UNL A   1      46.341  27.442  26.619  1.00  0.00     0.167 HD
ATOM     41  C   UNL A   1      42.355  28.501  28.085  1.00  0.00     0.037 A 
ATOM     42  H   UNL A   1      40.968  26.139  27.441  1.00  0.00     0.065 H 
ATOM     43  H   UNL A   1      49.528  25.310  25.010  1.00  0.00     0.065 H 
ATOM     44  C   UNL A   1      49.047  27.897  26.089  1.00  0.00     0.037 A 
ATOM     45  C   UNL A   1      43.176  29.660  28.336  1.00  0.00     0.049 A 
ATOM     46  C   UNL A   1      48.520  29.153  26.721  1.00  0.00     0.074 A 
ATOM     47  C   UNL A   1      42.820  30.862  28.923  1.00  0.00    -0.036 A 
ATOM     48  N   UNL A   1      44.522  29.760  28.012  1.00  0.00    -0.354 N 
ATOM     49  N   UNL A   1      47.314  29.412  27.164  1.00  0.00    -0.248 NA
ATOM     50  C   UNL A   1      49.471  30.260  26.880  1.00  0.00    -0.034 C 
ATOM     51  C   UNL A   1      43.939  31.702  28.921  1.00  0.00    -0.036 A 
ATOM     52  H   UNL A   1      41.888  31.098  29.300  1.00  0.00     0.065 H 
ATOM     53  C   UNL A   1      45.005  31.008  28.376  1.00  0.00     0.049 A 
ATOM     54  H   UNL A   1      45.055  29.050  27.587  1.00  0.00     0.167 HD
ATOM     55  C   UNL A   1      47.362  30.705  27.663  1.00  0.00     0.074 A 
ATOM     56  C   UNL A   1      48.726  31.165  27.498  1.00  0.00    -0.034 C 
ATOM     57  H   UNL A   1      50.458  30.318  26.587  1.00  0.00     0.065 H 
ATOM     58  H   UNL A   1      43.963  32.675  29.266  1.00  0.00     0.065 H 
ATOM     59  C   UNL A   1      46.366  31.449  28.202  1.00  0.00     0.037 A 
ATOM     60  H   UNL A   1      49.073  32.082  27.820  1.00  0.00     0.065 H 
BRANCH  41  61
ATOM     61  C   UNL A   1      40.911  28.561  28.494  1.00  0.00     0.064 A 
ATOM     62  C   UNL A   1      40.498  28.192  29.783  1.00  0.00     0.173 A 
ATOM     63  C   UNL A   1      39.937  29.049  27.609  1.00  0.00     0.173 A 
ATOM     64  F   UNL A   1      41.387  27.709  30.664  1.00  0.00    -0.203 F 
ATOM     65  C   UNL A   1      39.162  28.294  30.165  1.00  0.00     0.198 A 
ATOM     66  C   UNL A   1      38.606  29.174  28.003  1.00  0.00     0.198 A 
ATOM     67  F   UNL A   1      40.278  29.423  26.366  1.00  0.00    -0.203 F 
ATOM     68  F   UNL A   1      38.786  27.902  31.390  1.00  0.00    -0.200 F 
ATOM     69  C   UNL A   1      38.220  28.792  29.278  1.00  0.00     0.200 A 
ATOM     70  F   UNL A   1      37.699  29.668  27.149  1.00  0.00    -0.200 F 
ATOM     71  F   UNL A   1      36.937  28.900  29.652  1.00  0.00    -0.200 F 
ENDBRANCH  41  61
BRANCH  44  72
ATOM     72  C   UNL A   1      50.462  27.790  25.650  1.00  0.00     0.064 A 
ATOM     73  C   UNL A   1      51.489  27.533  26.567  1.00  0.00     0.173 A 
ATOM     74  C   UNL A   1      50.813  27.942  24.300  1.00  0.00     0.173 A 
ATOM     75  F   UNL A   1      51.205  27.397  27.870  1.00  0.00    -0.203 F 
ATOM     76  C   UNL A   1      52.816  27.452  26.153  1.00  0.00     0.198 A 
ATOM     77  C   UNL A   1      52.136  27.828  23.883  1.00  0.00     0.198 A 
ATOM     78  F   UNL A   1      49.865  28.182  23.381  1.00  0.00    -0.203 F 
ATOM     79  F   UNL A   1      53.785  27.253  27.057  1.00  0.00    -0.200 F 
ATOM     80  C   UNL A   1      53.139  27.594  24.812  1.00  0.00     0.200 A 
ATOM     81  F   UNL A   1      52.440  27.945  22.583  1.00  0.00    -0.200 F 
ATOM     82  F   UNL A   1      54.416  27.509  24.414  1.00  0.00    -0.200 F 
ENDBRANCH  44  72
BRANCH  59  83
ATOM     83  C   UNL A   1      46.727  32.828  28.670  1.00  0.00     0.064 A 
ATOM     84  C   UNL A   1      46.626  33.940  27.820  1.00  0.00     0.173 A 
ATOM     85  C   UNL A   1      47.173  33.040  29.982  1.00  0.00     0.173 A 
ATOM     86  F   UNL A   1      46.223  33.786  26.551  1.00  0.00    -0.203 F 
ATOM     87  C   UNL A   1      46.990  35.210  28.259  1.00  0.00     0.198 A 
ATOM     88  C   UNL A   1      47.507  34.316  30.427  1.00  0.00     0.198 A 
ATOM     89  F   UNL A   1      47.282  32.010  30.834  1.00  0.00    -0.203 F 
ATOM     90  F   UNL A   1      46.942  36.248  27.415  1.00  0.00    -0.200 F 
ATOM     91  C   UNL A   1      47.426  35.397  29.563  1.00  0.00     0.200 A 
ATOM     92  F   UNL A   1      47.918  34.497  31.690  1.00  0.00    -0.200 F 
ATOM     93  F   UNL A   1      47.778  36.620  29.984  1.00  0.00    -0.200 F 
ENDBRANCH  59  83
ENDBRANCH  24  27
ENDBRANCH  15  17
ENDBRANCH  10  13
ENDBRANCH   7  10
ENDBRANCH   4   7
ENDBRANCH   1   4
BRANCH   1  94
ATOM     94  C   UNL A   1      38.740  21.222  25.663  1.00  0.00    -0.036 C 
ATOM     95  H   UNL A   1      38.329  20.540  26.379  1.00  0.00     0.028 H 
ATOM     96  H   UNL A   1      39.187  20.740  24.820  1.00  0.00     0.028 H 
BRANCH  94  97
ATOM     97  C   UNL A   1      37.596  22.068  25.109  1.00  0.00     0.018 C 
ATOM     98  H   UNL A   1      36.983  21.454  24.483  1.00  0.00     0.049 H 
ATOM     99  H   UNL A   1      38.020  22.880  24.557  1.00  0.00     0.049 H 
BRANCH  97 100
ATOM    100  N   UNL A   1      36.775  22.627  26.168  1.00  0.00    -0.352 N 
ATOM    101  C   UNL A   1      35.492  23.104  26.109  1.00  0.00     0.251 C 
ATOM    102  H   UNL A   1      37.200  22.667  27.055  1.00  0.00     0.163 HD
ATOM    103  O   UNL A   1      35.017  23.718  27.059  1.00  0.00    -0.269 OA
BRANCH 101 104
ATOM    104  C   UNL A   1      34.678  22.886  24.896  1.00  0.00     0.041 A 
ATOM    105  C   UNL A   1      34.692  23.860  23.898  1.00  0.00    -0.049 A 
ATOM    106  C   UNL A   1      33.866  21.751  24.775  1.00  0.00    -0.026 A 
ATOM    107  C   UNL A   1      33.924  23.673  22.754  1.00  0.00    -0.059 A 
ATOM    108  H   UNL A   1      35.266  24.711  24.007  1.00  0.00     0.063 H 
ATOM    109  C   UNL A   1      33.086  21.552  23.631  1.00  0.00     0.039 A 
ATOM    110  H   UNL A   1      33.843  21.055  25.536  1.00  0.00     0.065 H 
ATOM    111  C   UNL A   1      33.139  22.523  22.621  1.00  0.00    -0.039 A 
ATOM    112  H   UNL A   1      33.935  24.381  22.003  1.00  0.00     0.062 H 
ATOM    113  H   UNL A   1      32.586  22.387  21.760  1.00  0.00     0.064 H 
BRANCH 109 114
ATOM    114  N   UNL A   1      32.310  20.382  23.531  1.00  0.00    -0.356 N 
ATOM    115  H   UNL A   1      31.431  20.502  23.105  1.00  0.00     0.167 HD
BRANCH 114 116
ATOM    116  C   UNL A   1      32.596  19.070  23.945  1.00  0.00     0.039 A 
ATOM    117  C   UNL A   1      33.076  18.152  23.002  1.00  0.00    -0.032 A 
ATOM    118  C   UNL A   1      32.523  18.679  25.288  1.00  0.00    -0.032 A 
ATOM    119  C   UNL A   1      33.512  16.884  23.395  1.00  0.00     0.018 A 
ATOM    120  H   UNL A   1      33.108  18.415  22.005  1.00  0.00     0.065 H 
ATOM    121  C   UNL A   1      32.949  17.410  25.691  1.00  0.00     0.018 A 
ATOM    122  H   UNL A   1      32.150  19.336  25.989  1.00  0.00     0.065 H 
ATOM    123  C   UNL A   1      33.463  16.522  24.744  1.00  0.00     0.269 A 
ATOM    124  H   UNL A   1      33.870  16.218  22.692  1.00  0.00     0.070 H 
ATOM    125  H   UNL A   1      32.884  17.131  26.682  1.00  0.00     0.070 H 
BRANCH 123 126
ATOM    126  N   UNL A   1      33.977  15.239  25.164  1.00  0.00     0.062 N 
ATOM    127  O   UNL A   1      35.161  15.077  25.375  1.00  0.00    -0.258 OA
ATOM    128  O   UNL A   1      33.134  14.174  25.377  1.00  0.00    -0.258 OA
ENDBRANCH 123 126
ENDBRANCH 114 116
ENDBRANCH 109 114
ENDBRANCH 101 104
ENDBRANCH  97 100
ENDBRANCH  94  97
ENDBRANCH   1  94
TORSDOF 16
ENDMDL
MODEL 9
REMARK VINA RESULT:     -12.0      1.790      2.526
REMARK SMILES O=C(NCCCCCCNC(=O)c1cccc(Nc2ccc([N+](=O)[O-])cc2)c1)c1ccc(-c2c3nc(c(-c4c(F)c(F)c(F)c(F)c4F)c4ccc([nH]4)c(-c4c(F)c(F)c(F)c(F)c4F)c4nc(c(-c5c(F)c(F)c(F)c(F)c5F)c5ccc2[nH]5)C=C4)C=C3)cc1
REMARK SMILES IDX 7 1 6 4 5 7 4 10 3 13 1 14 2 15 29 17 30 18 91 19 31 20
REMARK SMILES IDX 90 22 32 24 33 27 34 28 84 29 35 30 89 31 83 32 85 33 36 34
REMARK SMILES IDX 88 35 82 37 81 39 37 41 69 44 49 45 68 46 50 47 53 48 67 49
REMARK SMILES IDX 86 50 51 51 52 53 66 55 87 56 54 59 38 61 39 62 47 63 40 64
REMARK SMILES IDX 41 65 45 66 48 67 42 68 43 69 46 70 44 71 70 72 71 73 79 74
REMARK SMILES IDX 72 75 73 76 77 77 80 78 74 79 75 80 78 81 76 82 55 83 56 84
REMARK SMILES IDX 64 85 57 86 58 87 62 88 65 89 59 90 60 91 63 92 61 93 8 94
REMARK SMILES IDX 9 97 10 100 11 101 12 103 13 104 14 105 28 106 15 107 17 109
REMARK SMILES IDX 16 111 18 114 19 116 20 117 27 118 21 119 26 121 22 123
REMARK SMILES IDX 23 126 24 127 25 128
REMARK H PARENT 7 2 7 3 6 5 6 6 5 8 5 9 4 11 4 12 3 16 30 21 91 23 31 25 90 26
REMARK H PARENT 89 36 83 38 85 40 88 42 82 43 50 52 53 54 86 57 51 58 87 60
REMARK H PARENT 8 95 8 96 9 98 9 99 10 102 14 108 28 110 15 112 16 113 18 115
REMARK H PARENT 20 120 27 122 21 124 26 125
REMARK Flexibility Score: inf
ROOT
ATOM      1  C   UNL A   1      32.874  22.513  27.209  1.00  0.00    -0.052 C 
ATOM      2  H   UNL A   1      33.148  22.377  28.234  1.00  0.00     0.027 H 
ATOM      3  H   UNL A   1      32.662  21.602  26.689  1.00  0.00     0.027 H 
ENDROOT
BRANCH   1   4
ATOM      4  C   UNL A   1      34.069  23.137  26.482  1.00  0.00    -0.052 C 
ATOM      5  H   UNL A   1      33.690  23.808  25.740  1.00  0.00     0.027 H 
ATOM      6  H   UNL A   1      34.655  23.616  27.239  1.00  0.00     0.027 H 
BRANCH   4   7
ATOM      7  C   UNL A   1      35.006  22.149  25.789  1.00  0.00    -0.036 C 
ATOM      8  H   UNL A   1      34.942  21.213  26.304  1.00  0.00     0.028 H 
ATOM      9  H   UNL A   1      34.684  22.097  24.770  1.00  0.00     0.028 H 
BRANCH   7  10
ATOM     10  C   UNL A   1      36.469  22.567  25.752  1.00  0.00     0.018 C 
ATOM     11  H   UNL A   1      36.644  23.119  24.851  1.00  0.00     0.049 H 
ATOM     12  H   UNL A   1      36.657  23.157  26.624  1.00  0.00     0.049 H 
BRANCH  10  13
ATOM     13  N   UNL A   1      37.383  21.437  25.786  1.00  0.00    -0.352 N 
ATOM     14  O   UNL A   1      39.384  20.394  25.910  1.00  0.00    -0.269 OA
ATOM     15  C   UNL A   1      38.731  21.422  26.057  1.00  0.00     0.251 C 
ATOM     16  H   UNL A   1      36.981  20.560  25.588  1.00  0.00     0.163 HD
BRANCH  15  17
ATOM     17  C   UNL A   1      39.401  22.664  26.501  1.00  0.00     0.039 A 
ATOM     18  C   UNL A   1      39.056  23.895  25.942  1.00  0.00    -0.049 A 
ATOM     19  C   UNL A   1      40.389  22.594  27.487  1.00  0.00    -0.049 A 
ATOM     20  C   UNL A   1      39.798  25.027  26.256  1.00  0.00    -0.053 A 
ATOM     21  H   UNL A   1      38.252  23.966  25.298  1.00  0.00     0.063 H 
ATOM     22  C   UNL A   1      41.073  23.752  27.870  1.00  0.00    -0.053 A 
ATOM     23  H   UNL A   1      40.615  21.689  27.930  1.00  0.00     0.063 H 
ATOM     24  C   UNL A   1      40.804  24.973  27.235  1.00  0.00    -0.014 A 
ATOM     25  H   UNL A   1      39.609  25.915  25.764  1.00  0.00     0.063 H 
ATOM     26  H   UNL A   1      41.778  23.708  28.623  1.00  0.00     0.063 H 
BRANCH  24  27
ATOM     27  C   UNL A   1      41.501  26.229  27.616  1.00  0.00     0.031 A 
ATOM     28  C   UNL A   1      42.911  26.508  27.178  1.00  0.00     0.074 A 
ATOM     29  C   UNL A   1      40.820  27.146  28.329  1.00  0.00     0.049 A 
ATOM     30  N   UNL A   1      43.642  27.574  27.386  1.00  0.00    -0.248 NA
ATOM     31  C   UNL A   1      43.595  25.455  26.413  1.00  0.00    -0.034 C 
ATOM     32  C   UNL A   1      39.453  26.975  28.828  1.00  0.00    -0.036 A 
ATOM     33  N   UNL A   1      41.167  28.407  28.740  1.00  0.00    -0.354 N 
ATOM     34  C   UNL A   1      44.868  27.322  26.785  1.00  0.00     0.074 A 
ATOM     35  C   UNL A   1      44.797  25.985  26.234  1.00  0.00    -0.034 C 
ATOM     36  H   UNL A   1      43.234  24.540  26.097  1.00  0.00     0.065 H 
ATOM     37  C   UNL A   1      39.060  28.106  29.432  1.00  0.00    -0.036 A 
ATOM     38  H   UNL A   1      38.883  26.121  28.730  1.00  0.00     0.065 H 
ATOM     39  C   UNL A   1      40.164  29.057  29.419  1.00  0.00     0.049 A 
ATOM     40  H   UNL A   1      42.048  28.808  28.565  1.00  0.00     0.167 HD
ATOM     41  C   UNL A   1      45.947  28.137  26.693  1.00  0.00     0.037 A 
ATOM     42  H   UNL A   1      45.582  25.506  25.762  1.00  0.00     0.065 H 
ATOM     43  H   UNL A   1      38.126  28.274  29.840  1.00  0.00     0.065 H 
ATOM     44  C   UNL A   1      40.140  30.278  29.981  1.00  0.00     0.037 A 
ATOM     45  C   UNL A   1      46.011  29.468  27.244  1.00  0.00     0.049 A 
ATOM     46  C   UNL A   1      41.357  31.151  29.876  1.00  0.00     0.074 A 
ATOM     47  C   UNL A   1      47.057  30.373  27.200  1.00  0.00    -0.036 A 
ATOM     48  N   UNL A   1      44.981  30.085  27.942  1.00  0.00    -0.354 N 
ATOM     49  N   UNL A   1      42.500  30.908  29.283  1.00  0.00    -0.248 NA
ATOM     50  C   UNL A   1      41.280  32.469  30.518  1.00  0.00    -0.034 C 
ATOM     51  C   UNL A   1      46.676  31.522  27.902  1.00  0.00    -0.036 A 
ATOM     52  H   UNL A   1      47.964  30.227  26.729  1.00  0.00     0.065 H 
ATOM     53  C   UNL A   1      45.375  31.353  28.343  1.00  0.00     0.049 A 
ATOM     54  H   UNL A   1      44.102  29.681  28.124  1.00  0.00     0.167 HD
ATOM     55  C   UNL A   1      43.274  32.043  29.469  1.00  0.00     0.074 A 
ATOM     56  C   UNL A   1      42.458  32.988  30.202  1.00  0.00    -0.034 C 
ATOM     57  H   UNL A   1      40.512  32.882  31.069  1.00  0.00     0.065 H 
ATOM     58  H   UNL A   1      47.265  32.353  28.064  1.00  0.00     0.065 H 
ATOM     59  C   UNL A   1      44.548  32.280  29.075  1.00  0.00     0.037 A 
ATOM     60  H   UNL A   1      42.756  33.945  30.449  1.00  0.00     0.065 H 
BRANCH  41  61
ATOM     61  C   UNL A   1      47.156  27.617  25.970  1.00  0.00     0.064 A 
ATOM     62  C   UNL A   1      47.275  27.715  24.575  1.00  0.00     0.173 A 
ATOM     63  C   UNL A   1      48.236  27.070  26.682  1.00  0.00     0.173 A 
ATOM     64  F   UNL A   1      46.269  28.220  23.847  1.00  0.00    -0.203 F 
ATOM     65  C   UNL A   1      48.420  27.270  23.919  1.00  0.00     0.198 A 
ATOM     66  C   UNL A   1      49.390  26.649  26.025  1.00  0.00     0.198 A 
ATOM     67  F   UNL A   1      48.178  26.959  28.018  1.00  0.00    -0.203 F 
ATOM     68  F   UNL A   1      48.496  27.341  22.584  1.00  0.00    -0.200 F 
ATOM     69  C   UNL A   1      49.479  26.745  24.645  1.00  0.00     0.200 A 
ATOM     70  F   UNL A   1      50.418  26.155  26.729  1.00  0.00    -0.200 F 
ATOM     71  F   UNL A   1      50.586  26.328  24.013  1.00  0.00    -0.200 F 
ENDBRANCH  41  61
BRANCH  44  72
ATOM     72  C   UNL A   1      38.923  30.735  30.701  1.00  0.00     0.064 A 
ATOM     73  C   UNL A   1      38.788  30.556  32.084  1.00  0.00     0.173 A 
ATOM     74  C   UNL A   1      37.871  31.364  30.017  1.00  0.00     0.173 A 
ATOM     75  F   UNL A   1      39.759  29.946  32.779  1.00  0.00    -0.203 F 
ATOM     76  C   UNL A   1      37.638  30.970  32.752  1.00  0.00     0.198 A 
ATOM     77  C   UNL A   1      36.737  31.806  30.692  1.00  0.00     0.198 A 
ATOM     78  F   UNL A   1      37.956  31.566  28.694  1.00  0.00    -0.203 F 
ATOM     79  F   UNL A   1      37.513  30.743  34.067  1.00  0.00    -0.200 F 
ATOM     80  C   UNL A   1      36.616  31.600  32.057  1.00  0.00     0.200 A 
ATOM     81  F   UNL A   1      35.762  32.433  30.019  1.00  0.00    -0.200 F 
ATOM     82  F   UNL A   1      35.513  32.003  32.702  1.00  0.00    -0.200 F 
ENDBRANCH  44  72
BRANCH  59  83
ATOM     83  C   UNL A   1      45.124  33.622  29.415  1.00  0.00     0.064 A 
ATOM     84  C   UNL A   1      45.821  33.840  30.614  1.00  0.00     0.173 A 
ATOM     85  C   UNL A   1      44.984  34.701  28.530  1.00  0.00     0.173 A 
ATOM     86  F   UNL A   1      45.966  32.844  31.500  1.00  0.00    -0.203 F 
ATOM     87  C   UNL A   1      46.326  35.098  30.929  1.00  0.00     0.198 A 
ATOM     88  C   UNL A   1      45.517  35.951  28.835  1.00  0.00     0.198 A 
ATOM     89  F   UNL A   1      44.331  34.543  27.370  1.00  0.00    -0.203 F 
ATOM     90  F   UNL A   1      46.936  35.298  32.104  1.00  0.00    -0.200 F 
ATOM     91  C   UNL A   1      46.178  36.150  30.037  1.00  0.00     0.200 A 
ATOM     92  F   UNL A   1      45.382  36.964  27.968  1.00  0.00    -0.200 F 
ATOM     93  F   UNL A   1      46.664  37.362  30.342  1.00  0.00    -0.200 F 
ENDBRANCH  59  83
ENDBRANCH  24  27
ENDBRANCH  15  17
ENDBRANCH  10  13
ENDBRANCH   7  10
ENDBRANCH   4   7
ENDBRANCH   1   4
BRANCH   1  94
ATOM     94  C   UNL A   1      31.574  23.324  27.173  1.00  0.00    -0.036 C 
ATOM     95  H   UNL A   1      31.131  23.282  28.147  1.00  0.00     0.028 H 
ATOM     96  H   UNL A   1      30.970  22.883  26.408  1.00  0.00     0.028 H 
BRANCH  94  97
ATOM     97  C   UNL A   1      31.732  24.795  26.791  1.00  0.00     0.018 C 
ATOM     98  H   UNL A   1      32.683  24.930  26.320  1.00  0.00     0.049 H 
ATOM     99  H   UNL A   1      31.656  25.379  27.684  1.00  0.00     0.049 H 
BRANCH  97 100
ATOM    100  N   UNL A   1      30.690  25.231  25.880  1.00  0.00    -0.352 N 
ATOM    101  C   UNL A   1      30.628  25.118  24.516  1.00  0.00     0.251 C 
ATOM    102  H   UNL A   1      29.917  25.672  26.302  1.00  0.00     0.163 HD
ATOM    103  O   UNL A   1      29.762  25.714  23.884  1.00  0.00    -0.269 OA
BRANCH 101 104
ATOM    104  C   UNL A   1      31.611  24.279  23.800  1.00  0.00     0.041 A 
ATOM    105  C   UNL A   1      32.825  24.851  23.419  1.00  0.00    -0.049 A 
ATOM    106  C   UNL A   1      31.308  22.954  23.462  1.00  0.00    -0.026 A 
ATOM    107  C   UNL A   1      33.756  24.077  22.737  1.00  0.00    -0.059 A 
ATOM    108  H   UNL A   1      33.029  25.837  23.641  1.00  0.00     0.063 H 
ATOM    109  C   UNL A   1      32.235  22.165  22.772  1.00  0.00     0.039 A 
ATOM    110  H   UNL A   1      30.393  22.556  23.724  1.00  0.00     0.065 H 
ATOM    111  C   UNL A   1      33.465  22.744  22.428  1.00  0.00    -0.039 A 
ATOM    112  H   UNL A   1      34.664  24.485  22.460  1.00  0.00     0.062 H 
ATOM    113  H   UNL A   1      34.172  22.174  21.936  1.00  0.00     0.064 H 
BRANCH 109 114
ATOM    114  N   UNL A   1      31.908  20.828  22.481  1.00  0.00    -0.356 N 
ATOM    115  H   UNL A   1      31.321  20.704  21.700  1.00  0.00     0.167 HD
BRANCH 114 116
ATOM    116  C   UNL A   1      32.290  19.643  23.132  1.00  0.00     0.039 A 
ATOM    117  C   UNL A   1      32.528  18.494  22.365  1.00  0.00    -0.032 A 
ATOM    118  C   UNL A   1      32.545  19.596  24.508  1.00  0.00    -0.032 A 
ATOM    119  C   UNL A   1      33.050  17.338  22.950  1.00  0.00     0.018 A 
ATOM    120  H   UNL A   1      32.317  18.503  21.355  1.00  0.00     0.065 H 
ATOM    121  C   UNL A   1      33.059  18.442  25.106  1.00  0.00     0.018 A 
ATOM    122  H   UNL A   1      32.352  20.427  25.089  1.00  0.00     0.065 H 
ATOM    123  C   UNL A   1      33.330  17.320  24.319  1.00  0.00     0.269 A 
ATOM    124  H   UNL A   1      33.228  16.501  22.374  1.00  0.00     0.070 H 
ATOM    125  H   UNL A   1      33.237  18.418  26.122  1.00  0.00     0.070 H 
BRANCH 123 126
ATOM    126  N   UNL A   1      33.933  16.151  24.916  1.00  0.00     0.062 N 
ATOM    127  O   UNL A   1      35.055  16.192  25.376  1.00  0.00    -0.258 OA
ATOM    128  O   UNL A   1      33.238  14.969  25.017  1.00  0.00    -0.258 OA
ENDBRANCH 123 126
ENDBRANCH 114 116
ENDBRANCH 109 114
ENDBRANCH 101 104
ENDBRANCH  97 100
ENDBRANCH  94  97
ENDBRANCH   1  94
TORSDOF 16
ENDMDL
MODEL 10
REMARK VINA RESULT:     -12.0      1.564      2.363
REMARK SMILES O=C(NCCCCCCNC(=O)c1cccc(Nc2ccc([N+](=O)[O-])cc2)c1)c1ccc(-c2c3nc(c(-c4c(F)c(F)c(F)c(F)c4F)c4ccc([nH]4)c(-c4c(F)c(F)c(F)c(F)c4F)c4nc(c(-c5c(F)c(F)c(F)c(F)c5F)c5ccc2[nH]5)C=C4)C=C3)cc1
REMARK SMILES IDX 7 1 6 4 5 7 4 10 3 13 1 14 2 15 29 17 30 18 91 19 31 20
REMARK SMILES IDX 90 22 32 24 33 27 34 28 84 29 35 30 89 31 83 32 85 33 36 34
REMARK SMILES IDX 88 35 82 37 81 39 37 41 69 44 49 45 68 46 50 47 53 48 67 49
REMARK SMILES IDX 86 50 51 51 52 53 66 55 87 56 54 59 38 61 39 62 47 63 40 64
REMARK SMILES IDX 41 65 45 66 48 67 42 68 43 69 46 70 44 71 70 72 71 73 79 74
REMARK SMILES IDX 72 75 73 76 77 77 80 78 74 79 75 80 78 81 76 82 55 83 56 84
REMARK SMILES IDX 64 85 57 86 58 87 62 88 65 89 59 90 60 91 63 92 61 93 8 94
REMARK SMILES IDX 9 97 10 100 11 101 12 103 13 104 14 105 28 106 15 107 17 109
REMARK SMILES IDX 16 111 18 114 19 116 20 117 27 118 21 119 26 121 22 123
REMARK SMILES IDX 23 126 24 127 25 128
REMARK H PARENT 7 2 7 3 6 5 6 6 5 8 5 9 4 11 4 12 3 16 30 21 91 23 31 25 90 26
REMARK H PARENT 89 36 83 38 85 40 88 42 82 43 50 52 53 54 86 57 51 58 87 60
REMARK H PARENT 8 95 8 96 9 98 9 99 10 102 14 108 28 110 15 112 16 113 18 115
REMARK H PARENT 20 120 27 122 21 124 26 125
REMARK Flexibility Score: inf
ROOT
ATOM      1  C   UNL A   1      40.071  22.193  26.710  1.00  0.00    -0.052 C 
ATOM      2  H   UNL A   1      40.347  23.036  26.112  1.00  0.00     0.027 H 
ATOM      3  H   UNL A   1      39.705  22.448  27.682  1.00  0.00     0.027 H 
ENDROOT
BRANCH   1   4
ATOM      4  C   UNL A   1      41.330  21.354  26.947  1.00  0.00    -0.052 C 
ATOM      5  H   UNL A   1      42.181  21.971  26.744  1.00  0.00     0.027 H 
ATOM      6  H   UNL A   1      41.272  21.018  27.961  1.00  0.00     0.027 H 
BRANCH   4   7
ATOM      7  C   UNL A   1      41.451  20.092  26.093  1.00  0.00    -0.036 C 
ATOM      8  H   UNL A   1      40.582  19.492  26.264  1.00  0.00     0.028 H 
ATOM      9  H   UNL A   1      41.545  20.425  25.080  1.00  0.00     0.028 H 
BRANCH   7  10
ATOM     10  C   UNL A   1      42.678  19.238  26.375  1.00  0.00     0.018 C 
ATOM     11  H   UNL A   1      43.316  19.769  27.051  1.00  0.00     0.049 H 
ATOM     12  H   UNL A   1      42.336  18.314  26.792  1.00  0.00     0.049 H 
BRANCH  10  13
ATOM     13  N   UNL A   1      43.436  18.920  25.176  1.00  0.00    -0.352 N 
ATOM     14  O   UNL A   1      44.702  19.343  23.352  1.00  0.00    -0.269 OA
ATOM     15  C   UNL A   1      44.239  19.738  24.418  1.00  0.00     0.251 C 
ATOM     16  H   UNL A   1      43.365  17.989  24.864  1.00  0.00     0.163 HD
BRANCH  15  17
ATOM     17  C   UNL A   1      44.522  21.116  24.879  1.00  0.00     0.039 A 
ATOM     18  C   UNL A   1      45.307  21.338  26.011  1.00  0.00    -0.049 A 
ATOM     19  C   UNL A   1      43.992  22.197  24.169  1.00  0.00    -0.049 A 
ATOM     20  C   UNL A   1      45.434  22.625  26.519  1.00  0.00    -0.053 A 
ATOM     21  H   UNL A   1      45.791  20.550  26.470  1.00  0.00     0.063 H 
ATOM     22  C   UNL A   1      44.200  23.501  24.630  1.00  0.00    -0.053 A 
ATOM     23  H   UNL A   1      43.446  22.034  23.308  1.00  0.00     0.063 H 
ATOM     24  C   UNL A   1      44.898  23.723  25.827  1.00  0.00    -0.014 A 
ATOM     25  H   UNL A   1      45.928  22.775  27.413  1.00  0.00     0.063 H 
ATOM     26  H   UNL A   1      43.839  24.302  24.089  1.00  0.00     0.063 H 
BRANCH  24  27
ATOM     27  C   UNL A   1      45.148  25.092  26.348  1.00  0.00     0.031 A 
ATOM     28  C   UNL A   1      46.498  25.741  26.236  1.00  0.00     0.074 A 
ATOM     29  C   UNL A   1      44.114  25.768  26.886  1.00  0.00     0.049 A 
ATOM     30  N   UNL A   1      46.866  26.945  26.597  1.00  0.00    -0.248 NA
ATOM     31  C   UNL A   1      47.580  24.937  25.648  1.00  0.00    -0.034 C 
ATOM     32  C   UNL A   1      42.763  25.231  27.066  1.00  0.00    -0.036 A 
ATOM     33  N   UNL A   1      44.026  27.052  27.358  1.00  0.00    -0.354 N 
ATOM     34  C   UNL A   1      48.216  27.043  26.288  1.00  0.00     0.074 A 
ATOM     35  C   UNL A   1      48.614  25.762  25.741  1.00  0.00    -0.034 C 
ATOM     36  H   UNL A   1      47.545  23.980  25.264  1.00  0.00     0.065 H 
ATOM     37  C   UNL A   1      41.970  26.192  27.561  1.00  0.00    -0.036 A 
ATOM     38  H   UNL A   1      42.468  24.267  26.847  1.00  0.00     0.065 H 
ATOM     39  C   UNL A   1      42.767  27.391  27.791  1.00  0.00     0.049 A 
ATOM     40  H   UNL A   1      44.790  27.672  27.383  1.00  0.00     0.167 HD
ATOM     41  C   UNL A   1      49.041  28.107  26.436  1.00  0.00     0.037 A 
ATOM     42  H   UNL A   1      49.578  25.523  25.459  1.00  0.00     0.065 H 
ATOM     43  H   UNL A   1      40.959  26.097  27.749  1.00  0.00     0.065 H 
ATOM     44  C   UNL A   1      42.306  28.534  28.328  1.00  0.00     0.037 A 
ATOM     45  C   UNL A   1      48.638  29.380  26.981  1.00  0.00     0.049 A 
ATOM     46  C   UNL A   1      43.250  29.691  28.495  1.00  0.00     0.074 A 
ATOM     47  C   UNL A   1      49.399  30.521  27.169  1.00  0.00    -0.036 A 
ATOM     48  N   UNL A   1      47.358  29.679  27.427  1.00  0.00    -0.354 N 
ATOM     49  N   UNL A   1      44.517  29.776  28.174  1.00  0.00    -0.248 NA
ATOM     50  C   UNL A   1      42.697  30.910  29.097  1.00  0.00    -0.034 C 
ATOM     51  C   UNL A   1      48.590  31.497  27.762  1.00  0.00    -0.036 A 
ATOM     52  H   UNL A   1      50.393  30.634  26.913  1.00  0.00     0.065 H 
ATOM     53  C   UNL A   1      47.313  30.982  27.900  1.00  0.00     0.049 A 
ATOM     54  H   UNL A   1      46.594  29.057  27.410  1.00  0.00     0.167 HD
ATOM     55  C   UNL A   1      44.912  31.058  28.523  1.00  0.00     0.074 A 
ATOM     56  C   UNL A   1      43.741  31.726  29.051  1.00  0.00    -0.034 C 
ATOM     57  H   UNL A   1      41.748  31.086  29.460  1.00  0.00     0.065 H 
ATOM     58  H   UNL A   1      48.895  32.441  28.048  1.00  0.00     0.065 H 
ATOM     59  C   UNL A   1      46.137  31.630  28.424  1.00  0.00     0.037 A 
ATOM     60  H   UNL A   1      43.721  32.713  29.353  1.00  0.00     0.065 H 
BRANCH  41  61
ATOM     61  C   UNL A   1      50.471  27.949  26.005  1.00  0.00     0.064 A 
ATOM     62  C   UNL A   1      50.849  28.070  24.659  1.00  0.00     0.173 A 
ATOM     63  C   UNL A   1      51.485  27.734  26.952  1.00  0.00     0.173 A 
ATOM     64  F   UNL A   1      49.919  28.266  23.713  1.00  0.00    -0.203 F 
ATOM     65  C   UNL A   1      52.184  27.966  24.276  1.00  0.00     0.198 A 
ATOM     66  C   UNL A   1      52.822  27.655  26.568  1.00  0.00     0.198 A 
ATOM     67  F   UNL A   1      51.180  27.616  28.254  1.00  0.00    -0.203 F 
ATOM     68  F   UNL A   1      52.516  28.050  22.981  1.00  0.00    -0.200 F 
ATOM     69  C   UNL A   1      53.169  27.766  25.231  1.00  0.00     0.200 A 
ATOM     70  F   UNL A   1      53.774  27.476  27.494  1.00  0.00    -0.200 F 
ATOM     71  F   UNL A   1      54.455  27.678  24.862  1.00  0.00    -0.200 F 
ENDBRANCH  41  61
BRANCH  44  72
ATOM     72  C   UNL A   1      40.886  28.631  28.755  1.00  0.00     0.064 A 
ATOM     73  C   UNL A   1      40.495  28.287  30.056  1.00  0.00     0.173 A 
ATOM     74  C   UNL A   1      39.892  29.072  27.868  1.00  0.00     0.173 A 
ATOM     75  F   UNL A   1      41.405  27.844  30.935  1.00  0.00    -0.203 F 
ATOM     76  C   UNL A   1      39.160  28.361  30.446  1.00  0.00     0.198 A 
ATOM     77  C   UNL A   1      38.564  29.176  28.269  1.00  0.00     0.198 A 
ATOM     78  F   UNL A   1      40.217  29.419  26.613  1.00  0.00    -0.203 F 
ATOM     79  F   UNL A   1      38.804  27.981  31.681  1.00  0.00    -0.200 F 
ATOM     80  C   UNL A   1      38.197  28.811  29.555  1.00  0.00     0.200 A 
ATOM     81  F   UNL A   1      37.641  29.631  27.411  1.00  0.00    -0.200 F 
ATOM     82  F   UNL A   1      36.913  28.888  29.934  1.00  0.00    -0.200 F 
ENDBRANCH  44  72
BRANCH  59  83
ATOM     83  C   UNL A   1      46.258  33.054  28.878  1.00  0.00     0.064 A 
ATOM     84  C   UNL A   1      46.070  34.125  27.991  1.00  0.00     0.173 A 
ATOM     85  C   UNL A   1      46.559  33.351  30.215  1.00  0.00     0.173 A 
ATOM     86  F   UNL A   1      45.798  33.892  26.699  1.00  0.00    -0.203 F 
ATOM     87  C   UNL A   1      46.212  35.442  28.420  1.00  0.00     0.198 A 
ATOM     88  C   UNL A   1      46.671  34.670  30.647  1.00  0.00     0.198 A 
ATOM     89  F   UNL A   1      46.743  32.363  31.103  1.00  0.00    -0.203 F 
ATOM     90  F   UNL A   1      46.086  36.447  27.545  1.00  0.00    -0.200 F 
ATOM     91  C   UNL A   1      46.507  35.713  29.748  1.00  0.00     0.200 A 
ATOM     92  F   UNL A   1      46.946  34.931  31.933  1.00  0.00    -0.200 F 
ATOM     93  F   UNL A   1      46.646  36.981  30.160  1.00  0.00    -0.200 F 
ENDBRANCH  59  83
ENDBRANCH  24  27
ENDBRANCH  15  17
ENDBRANCH  10  13
ENDBRANCH   7  10
ENDBRANCH   4   7
ENDBRANCH   1   4
BRANCH   1  94
ATOM     94  C   UNL A   1      38.915  21.476  26.005  1.00  0.00    -0.036 C 
ATOM     95  H   UNL A   1      38.635  20.633  26.603  1.00  0.00     0.028 H 
ATOM     96  H   UNL A   1      39.277  21.212  25.034  1.00  0.00     0.028 H 
BRANCH  94  97
ATOM     97  C   UNL A   1      37.665  22.324  25.774  1.00  0.00     0.018 C 
ATOM     98  H   UNL A   1      37.685  23.159  26.443  1.00  0.00     0.049 H 
ATOM     99  H   UNL A   1      36.809  21.708  25.951  1.00  0.00     0.049 H 
BRANCH  97 100
ATOM    100  N   UNL A   1      37.590  22.816  24.411  1.00  0.00    -0.352 N 
ATOM    101  C   UNL A   1      36.490  22.999  23.615  1.00  0.00     0.251 C 
ATOM    102  H   UNL A   1      38.453  23.052  23.999  1.00  0.00     0.163 HD
ATOM    103  O   UNL A   1      36.625  23.242  22.420  1.00  0.00    -0.269 OA
BRANCH 101 104
ATOM    104  C   UNL A   1      35.136  22.899  24.194  1.00  0.00     0.041 A 
ATOM    105  C   UNL A   1      34.675  23.940  25.001  1.00  0.00    -0.049 A 
ATOM    106  C   UNL A   1      34.351  21.758  23.984  1.00  0.00    -0.026 A 
ATOM    107  C   UNL A   1      33.405  23.856  25.560  1.00  0.00    -0.059 A 
ATOM    108  H   UNL A   1      35.270  24.763  25.180  1.00  0.00     0.063 H 
ATOM    109  C   UNL A   1      33.073  21.659  24.545  1.00  0.00     0.039 A 
ATOM    110  H   UNL A   1      34.718  20.983  23.410  1.00  0.00     0.065 H 
ATOM    111  C   UNL A   1      32.610  22.729  25.323  1.00  0.00    -0.039 A 
ATOM    112  H   UNL A   1      33.048  24.625  26.149  1.00  0.00     0.062 H 
ATOM    113  H   UNL A   1      31.663  22.686  25.730  1.00  0.00     0.064 H 
BRANCH 109 114
ATOM    114  N   UNL A   1      32.300  20.512  24.281  1.00  0.00    -0.356 N 
ATOM    115  H   UNL A   1      31.421  20.687  23.877  1.00  0.00     0.167 HD
BRANCH 114 116
ATOM    116  C   UNL A   1      32.592  19.156  24.508  1.00  0.00     0.039 A 
ATOM    117  C   UNL A   1      33.016  18.365  23.431  1.00  0.00    -0.032 A 
ATOM    118  C   UNL A   1      32.578  18.593  25.790  1.00  0.00    -0.032 A 
ATOM    119  C   UNL A   1      33.456  17.055  23.635  1.00  0.00     0.018 A 
ATOM    120  H   UNL A   1      33.004  18.756  22.476  1.00  0.00     0.065 H 
ATOM    121  C   UNL A   1      33.008  17.280  26.004  1.00  0.00     0.018 A 
ATOM    122  H   UNL A   1      32.245  19.156  26.588  1.00  0.00     0.065 H 
ATOM    123  C   UNL A   1      33.467  16.520  24.926  1.00  0.00     0.269 A 
ATOM    124  H   UNL A   1      33.773  16.485  22.836  1.00  0.00     0.070 H 
ATOM    125  H   UNL A   1      32.986  16.875  26.953  1.00  0.00     0.070 H 
BRANCH 123 126
ATOM    126  N   UNL A   1      33.985  15.192  25.151  1.00  0.00     0.062 N 
ATOM    127  O   UNL A   1      35.179  14.974  25.131  1.00  0.00    -0.258 OA
ATOM    128  O   UNL A   1      33.144  14.141  25.435  1.00  0.00    -0.258 OA
ENDBRANCH 123 126
ENDBRANCH 114 116
ENDBRANCH 109 114
ENDBRANCH 101 104
ENDBRANCH  97 100
ENDBRANCH  94  97
ENDBRANCH   1  94
TORSDOF 16
ENDMDL
