MODEL 1
REMARK VINA RESULT:     -12.4      0.000      0.000
REMARK SMILES COc1ccc2cc([C@H](C)C(=O)NCCCCCCNC(=O)c3ccc(-c4c5nc(c(-c6c(F)c(F)c(F)c(F)c6F)c6ccc([nH]6)c(-c6c(F)c(F)c(F)c(F)c6F)c6nc(c(-c7c(F)c(F)c(F)c(F)c7F)c7ccc4[nH]7)C=C6)C=C5)cc3)ccc2c1
REMARK SMILES IDX 16 1 15 4 14 7 13 10 11 11 12 12 9 14 8 16 3 17 4 18 89 19
REMARK SMILES IDX 5 20 88 22 6 24 87 26 7 27 86 28 2 32 1 33 10 37 17 41 18 44
REMARK SMILES IDX 19 47 20 50 21 51 22 53 23 54 24 55 85 56 25 57 84 59 26 61
REMARK SMILES IDX 27 64 28 65 78 66 29 67 83 68 77 69 79 70 30 71 82 72 76 74
REMARK SMILES IDX 75 76 31 78 63 81 43 82 62 83 44 84 47 85 61 86 80 87 45 88
REMARK SMILES IDX 46 90 60 92 81 93 48 96 32 98 33 99 41 100 34 101 35 102
REMARK SMILES IDX 39 103 42 104 36 105 37 106 40 107 38 108 64 109 65 110
REMARK SMILES IDX 73 111 66 112 67 113 71 114 74 115 68 116 69 117 72 118
REMARK SMILES IDX 70 119 49 120 50 121 58 122 51 123 52 124 56 125 59 126
REMARK SMILES IDX 53 127 54 128 57 129 55 130
REMARK H PARENT 16 2 16 3 15 5 15 6 14 8 14 9 13 13 9 15 4 21 89 23 5 25 87 29
REMARK H PARENT 7 30 86 31 1 34 1 35 1 36 10 38 10 39 10 40 17 42 17 43 18 45
REMARK H PARENT 18 46 19 48 19 49 20 52 24 58 85 60 25 62 84 63 83 73 77 75
REMARK H PARENT 79 77 82 79 76 80 44 89 47 91 80 94 45 95 81 97
REMARK Flexibility Score: inf
ROOT
ATOM      1  C   UNL A   1      32.407  29.790  26.849  1.00  0.00    -0.052 C 
ATOM      2  H   UNL A   1      33.259  29.487  26.277  1.00  0.00     0.027 H 
ATOM      3  H   UNL A   1      32.646  30.354  27.726  1.00  0.00     0.027 H 
ENDROOT
BRANCH   1   4
ATOM      4  C   UNL A   1      31.704  28.527  27.347  1.00  0.00    -0.036 C 
ATOM      5  H   UNL A   1      31.942  28.406  28.383  1.00  0.00     0.028 H 
ATOM      6  H   UNL A   1      30.662  28.677  27.158  1.00  0.00     0.028 H 
BRANCH   4   7
ATOM      7  C   UNL A   1      32.081  27.238  26.625  1.00  0.00     0.017 C 
ATOM      8  H   UNL A   1      32.028  27.412  25.571  1.00  0.00     0.049 H 
ATOM      9  H   UNL A   1      33.068  26.974  26.941  1.00  0.00     0.049 H 
BRANCH   7  10
ATOM     10  N   UNL A   1      31.214  26.126  26.951  1.00  0.00    -0.356 N 
ATOM     11  C   UNL A   1      30.685  25.171  26.129  1.00  0.00     0.227 C 
ATOM     12  O   UNL A   1      30.064  24.245  26.661  1.00  0.00    -0.274 OA
ATOM     13  H   UNL A   1      30.971  26.046  27.902  1.00  0.00     0.163 HD
BRANCH  11  14
ATOM     14  C   UNL A   1      30.833  25.235  24.598  1.00  0.00     0.060 C 
ATOM     15  H   UNL A   1      31.805  25.607  24.349  1.00  0.00     0.045 H 
BRANCH  14  16
ATOM     16  C   UNL A   1      29.913  26.285  23.981  1.00  0.00    -0.035 A 
ATOM     17  C   UNL A   1      28.152  30.578  21.908  1.00  0.00     0.119 A 
ATOM     18  C   UNL A   1      29.518  30.570  21.645  1.00  0.00    -0.019 A 
ATOM     19  C   UNL A   1      27.559  29.525  22.601  1.00  0.00    -0.012 A 
ATOM     20  C   UNL A   1      30.300  29.499  22.086  1.00  0.00    -0.051 A 
ATOM     21  H   UNL A   1      29.952  31.351  21.128  1.00  0.00     0.066 H 
ATOM     22  C   UNL A   1      28.329  28.431  23.020  1.00  0.00    -0.015 A 
ATOM     23  H   UNL A   1      26.549  29.551  22.808  1.00  0.00     0.067 H 
ATOM     24  C   UNL A   1      29.721  28.428  22.789  1.00  0.00    -0.018 A 
ATOM     25  H   UNL A   1      31.313  29.493  21.893  1.00  0.00     0.063 H 
ATOM     26  C   UNL A   1      27.741  27.337  23.665  1.00  0.00    -0.054 A 
ATOM     27  C   UNL A   1      30.495  27.367  23.291  1.00  0.00    -0.050 A 
ATOM     28  C   UNL A   1      28.519  26.265  24.110  1.00  0.00    -0.058 A 
ATOM     29  H   UNL A   1      26.720  27.322  23.815  1.00  0.00     0.063 H 
ATOM     30  H   UNL A   1      31.517  27.380  23.150  1.00  0.00     0.063 H 
ATOM     31  H   UNL A   1      28.060  25.447  24.539  1.00  0.00     0.063 H 
BRANCH  17  32
ATOM     32  O   UNL A   1      27.355  31.641  21.579  1.00  0.00    -0.497 OA
BRANCH  32  33
ATOM     33  C   UNL A   1      27.889  32.370  20.476  1.00  0.00     0.078 C 
ATOM     34  H   UNL A   1      27.595  31.901  19.561  1.00  0.00     0.067 H 
ATOM     35  H   UNL A   1      28.958  32.384  20.542  1.00  0.00     0.067 H 
ATOM     36  H   UNL A   1      27.518  33.373  20.499  1.00  0.00     0.067 H 
ENDBRANCH  32  33
ENDBRANCH  17  32
ENDBRANCH  14  16
BRANCH  14  37
ATOM     37  C   UNL A   1      30.848  23.838  23.963  1.00  0.00    -0.049 C 
ATOM     38  H   UNL A   1      30.730  23.928  22.903  1.00  0.00     0.024 H 
ATOM     39  H   UNL A   1      30.044  23.256  24.363  1.00  0.00     0.024 H 
ATOM     40  H   UNL A   1      31.779  23.359  24.180  1.00  0.00     0.024 H 
ENDBRANCH  14  37
ENDBRANCH  11  14
ENDBRANCH   7  10
ENDBRANCH   4   7
ENDBRANCH   1   4
BRANCH   1  41
ATOM     41  C   UNL A   1      31.565  30.724  25.974  1.00  0.00    -0.052 C 
ATOM     42  H   UNL A   1      30.604  30.271  25.844  1.00  0.00     0.027 H 
ATOM     43  H   UNL A   1      32.120  30.846  25.068  1.00  0.00     0.027 H 
BRANCH  41  44
ATOM     44  C   UNL A   1      31.343  32.139  26.513  1.00  0.00    -0.036 C 
ATOM     45  H   UNL A   1      30.513  32.108  27.187  1.00  0.00     0.028 H 
ATOM     46  H   UNL A   1      31.183  32.756  25.653  1.00  0.00     0.028 H 
BRANCH  44  47
ATOM     47  C   UNL A   1      32.525  32.761  27.253  1.00  0.00     0.018 C 
ATOM     48  H   UNL A   1      33.388  32.708  26.623  1.00  0.00     0.049 H 
ATOM     49  H   UNL A   1      32.661  32.211  28.161  1.00  0.00     0.049 H 
BRANCH  47  50
ATOM     50  N   UNL A   1      32.300  34.149  27.613  1.00  0.00    -0.352 N 
ATOM     51  C   UNL A   1      32.946  34.936  28.534  1.00  0.00     0.251 C 
ATOM     52  H   UNL A   1      31.572  34.594  27.123  1.00  0.00     0.163 HD
ATOM     53  O   UNL A   1      32.517  36.056  28.794  1.00  0.00    -0.269 OA
BRANCH  51  54
ATOM     54  C   UNL A   1      34.145  34.433  29.240  1.00  0.00     0.039 A 
ATOM     55  C   UNL A   1      33.978  33.805  30.478  1.00  0.00    -0.049 A 
ATOM     56  C   UNL A   1      35.426  34.592  28.705  1.00  0.00    -0.049 A 
ATOM     57  C   UNL A   1      35.084  33.274  31.144  1.00  0.00    -0.053 A 
ATOM     58  H   UNL A   1      33.038  33.735  30.898  1.00  0.00     0.063 H 
ATOM     59  C   UNL A   1      36.522  34.007  29.340  1.00  0.00    -0.053 A 
ATOM     60  H   UNL A   1      35.561  35.140  27.841  1.00  0.00     0.063 H 
ATOM     61  C   UNL A   1      36.360  33.337  30.562  1.00  0.00    -0.014 A 
ATOM     62  H   UNL A   1      34.964  32.832  32.070  1.00  0.00     0.063 H 
ATOM     63  H   UNL A   1      37.456  34.067  28.907  1.00  0.00     0.063 H 
BRANCH  61  64
ATOM     64  C   UNL A   1      37.532  32.688  31.206  1.00  0.00     0.031 A 
ATOM     65  C   UNL A   1      38.236  31.548  30.527  1.00  0.00     0.074 A 
ATOM     66  C   UNL A   1      37.917  33.084  32.434  1.00  0.00     0.049 A 
ATOM     67  N   UNL A   1      39.214  30.797  30.970  1.00  0.00    -0.248 NA
ATOM     68  C   UNL A   1      37.767  31.189  29.180  1.00  0.00    -0.034 C 
ATOM     69  C   UNL A   1      37.292  34.155  33.212  1.00  0.00    -0.036 A 
ATOM     70  N   UNL A   1      38.918  32.622  33.253  1.00  0.00    -0.354 N 
ATOM     71  C   UNL A   1      39.469  29.874  29.964  1.00  0.00     0.074 A 
ATOM     72  C   UNL A   1      38.513  30.128  28.907  1.00  0.00    -0.034 C 
ATOM     73  H   UNL A   1      37.045  31.644  28.600  1.00  0.00     0.065 H 
ATOM     74  C   UNL A   1      37.929  34.274  34.387  1.00  0.00    -0.036 A 
ATOM     75  H   UNL A   1      36.489  34.726  32.906  1.00  0.00     0.065 H 
ATOM     76  C   UNL A   1      38.980  33.264  34.465  1.00  0.00     0.049 A 
ATOM     77  H   UNL A   1      39.534  31.898  32.995  1.00  0.00     0.167 HD
ATOM     78  C   UNL A   1      40.426  28.917  29.918  1.00  0.00     0.037 A 
ATOM     79  H   UNL A   1      38.424  29.557  28.051  1.00  0.00     0.065 H 
ATOM     80  H   UNL A   1      37.711  34.969  35.120  1.00  0.00     0.065 H 
ATOM     81  C   UNL A   1      39.781  33.053  35.526  1.00  0.00     0.037 A 
ATOM     82  C   UNL A   1      41.388  28.679  30.964  1.00  0.00     0.049 A 
ATOM     83  C   UNL A   1      40.821  31.966  35.457  1.00  0.00     0.074 A 
ATOM     84  C   UNL A   1      42.426  27.764  30.988  1.00  0.00    -0.036 A 
ATOM     85  N   UNL A   1      41.427  29.360  32.171  1.00  0.00    -0.354 N 
ATOM     86  N   UNL A   1      41.089  31.139  34.476  1.00  0.00    -0.248 NA
ATOM     87  C   UNL A   1      41.673  31.790  36.641  1.00  0.00    -0.034 C 
ATOM     88  C   UNL A   1      43.067  27.861  32.229  1.00  0.00    -0.036 A 
ATOM     89  H   UNL A   1      42.685  27.122  30.224  1.00  0.00     0.065 H 
ATOM     90  C   UNL A   1      42.458  28.871  32.957  1.00  0.00     0.049 A 
ATOM     91  H   UNL A   1      40.813  30.084  32.432  1.00  0.00     0.167 HD
ATOM     92  C   UNL A   1      42.155  30.363  34.913  1.00  0.00     0.074 A 
ATOM     93  C   UNL A   1      42.496  30.830  36.240  1.00  0.00    -0.034 C 
ATOM     94  H   UNL A   1      41.640  32.282  37.547  1.00  0.00     0.065 H 
ATOM     95  H   UNL A   1      43.857  27.279  32.548  1.00  0.00     0.065 H 
ATOM     96  C   UNL A   1      42.791  29.352  34.273  1.00  0.00     0.037 A 
ATOM     97  H   UNL A   1      43.281  30.465  36.801  1.00  0.00     0.065 H 
BRANCH  78  98
ATOM     98  C   UNL A   1      40.489  28.050  28.694  1.00  0.00     0.064 A 
ATOM     99  C   UNL A   1      41.256  28.413  27.577  1.00  0.00     0.173 A 
ATOM    100  C   UNL A   1      39.820  26.817  28.656  1.00  0.00     0.173 A 
ATOM    101  F   UNL A   1      41.907  29.587  27.559  1.00  0.00    -0.203 F 
ATOM    102  C   UNL A   1      41.335  27.586  26.461  1.00  0.00     0.198 A 
ATOM    103  C   UNL A   1      39.924  25.978  27.551  1.00  0.00     0.198 A 
ATOM    104  F   UNL A   1      39.077  26.419  29.701  1.00  0.00    -0.203 F 
ATOM    105  F   UNL A   1      42.043  27.971  25.390  1.00  0.00    -0.200 F 
ATOM    106  C   UNL A   1      40.676  26.365  26.452  1.00  0.00     0.200 A 
ATOM    107  F   UNL A   1      39.298  24.793  27.549  1.00  0.00    -0.200 F 
ATOM    108  F   UNL A   1      40.764  25.563  25.382  1.00  0.00    -0.200 F 
ENDBRANCH  78  98
BRANCH  81 109
ATOM    109  C   UNL A   1      39.638  33.887  36.748  1.00  0.00     0.064 A 
ATOM    110  C   UNL A   1      38.840  33.465  37.820  1.00  0.00     0.173 A 
ATOM    111  C   UNL A   1      40.276  35.132  36.860  1.00  0.00     0.173 A 
ATOM    112  F   UNL A   1      38.191  32.293  37.749  1.00  0.00    -0.203 F 
ATOM    113  C   UNL A   1      38.664  34.266  38.947  1.00  0.00     0.198 A 
ATOM    114  C   UNL A   1      40.124  35.918  38.000  1.00  0.00     0.198 A 
ATOM    115  F   UNL A   1      41.053  35.581  35.864  1.00  0.00    -0.203 F 
ATOM    116  F   UNL A   1      37.852  33.861  39.933  1.00  0.00    -0.200 F 
ATOM    117  C   UNL A   1      39.310  35.489  39.038  1.00  0.00     0.200 A 
ATOM    118  F   UNL A   1      40.761  37.093  38.091  1.00  0.00    -0.200 F 
ATOM    119  F   UNL A   1      39.140  36.260  40.121  1.00  0.00    -0.200 F 
ENDBRANCH  81 109
BRANCH  96 120
ATOM    120  C   UNL A   1      43.943  28.705  34.986  1.00  0.00     0.064 A 
ATOM    121  C   UNL A   1      43.764  27.581  35.807  1.00  0.00     0.173 A 
ATOM    122  C   UNL A   1      45.248  29.196  34.819  1.00  0.00     0.173 A 
ATOM    123  F   UNL A   1      42.535  27.085  36.011  1.00  0.00    -0.203 F 
ATOM    124  C   UNL A   1      44.845  26.990  36.455  1.00  0.00     0.198 A 
ATOM    125  C   UNL A   1      46.329  28.582  35.444  1.00  0.00     0.198 A 
ATOM    126  F   UNL A   1      45.473  30.263  34.039  1.00  0.00    -0.203 F 
ATOM    127  F   UNL A   1      44.643  25.947  37.274  1.00  0.00    -0.200 F 
ATOM    128  C   UNL A   1      46.126  27.485  36.267  1.00  0.00     0.200 A 
ATOM    129  F   UNL A   1      47.569  29.054  35.250  1.00  0.00    -0.200 F 
ATOM    130  F   UNL A   1      47.165  26.909  36.887  1.00  0.00    -0.200 F 
ENDBRANCH  96 120
ENDBRANCH  61  64
ENDBRANCH  51  54
ENDBRANCH  47  50
ENDBRANCH  44  47
ENDBRANCH  41  44
ENDBRANCH   1  41
TORSDOF 17
ENDMDL
MODEL 2
REMARK VINA RESULT:     -12.2      6.034     11.639
REMARK SMILES COc1ccc2cc([C@H](C)C(=O)NCCCCCCNC(=O)c3ccc(-c4c5nc(c(-c6c(F)c(F)c(F)c(F)c6F)c6ccc([nH]6)c(-c6c(F)c(F)c(F)c(F)c6F)c6nc(c(-c7c(F)c(F)c(F)c(F)c7F)c7ccc4[nH]7)C=C6)C=C5)cc3)ccc2c1
REMARK SMILES IDX 16 1 15 4 14 7 13 10 11 11 12 12 9 14 8 16 3 17 4 18 89 19
REMARK SMILES IDX 5 20 88 22 6 24 87 26 7 27 86 28 2 32 1 33 10 37 17 41 18 44
REMARK SMILES IDX 19 47 20 50 21 51 22 53 23 54 24 55 85 56 25 57 84 59 26 61
REMARK SMILES IDX 27 64 28 65 78 66 29 67 83 68 77 69 79 70 30 71 82 72 76 74
REMARK SMILES IDX 75 76 31 78 63 81 43 82 62 83 44 84 47 85 61 86 80 87 45 88
REMARK SMILES IDX 46 90 60 92 81 93 48 96 32 98 33 99 41 100 34 101 35 102
REMARK SMILES IDX 39 103 42 104 36 105 37 106 40 107 38 108 64 109 65 110
REMARK SMILES IDX 73 111 66 112 67 113 71 114 74 115 68 116 69 117 72 118
REMARK SMILES IDX 70 119 49 120 50 121 58 122 51 123 52 124 56 125 59 126
REMARK SMILES IDX 53 127 54 128 57 129 55 130
REMARK H PARENT 16 2 16 3 15 5 15 6 14 8 14 9 13 13 9 15 4 21 89 23 5 25 87 29
REMARK H PARENT 7 30 86 31 1 34 1 35 1 36 10 38 10 39 10 40 17 42 17 43 18 45
REMARK H PARENT 18 46 19 48 19 49 20 52 24 58 85 60 25 62 84 63 83 73 77 75
REMARK H PARENT 79 77 82 79 76 80 44 89 47 91 80 94 45 95 81 97
REMARK Flexibility Score: inf
ROOT
ATOM      1  C   UNL A   1      36.301  22.121  24.849  1.00  0.00    -0.052 C 
ATOM      2  H   UNL A   1      37.294  22.518  24.868  1.00  0.00     0.027 H 
ATOM      3  H   UNL A   1      35.782  22.283  23.927  1.00  0.00     0.027 H 
ENDROOT
BRANCH   1   4
ATOM      4  C   UNL A   1      35.484  22.849  25.917  1.00  0.00    -0.036 C 
ATOM      5  H   UNL A   1      34.718  22.183  26.254  1.00  0.00     0.028 H 
ATOM      6  H   UNL A   1      36.180  23.128  26.679  1.00  0.00     0.028 H 
BRANCH   4   7
ATOM      7  C   UNL A   1      34.817  24.142  25.464  1.00  0.00     0.017 C 
ATOM      8  H   UNL A   1      33.843  24.194  25.903  1.00  0.00     0.049 H 
ATOM      9  H   UNL A   1      35.445  24.950  25.778  1.00  0.00     0.049 H 
BRANCH   7  10
ATOM     10  N   UNL A   1      34.678  24.241  24.026  1.00  0.00    -0.356 N 
ATOM     11  C   UNL A   1      33.590  23.981  23.242  1.00  0.00     0.227 C 
ATOM     12  O   UNL A   1      33.678  24.255  22.040  1.00  0.00    -0.274 OA
ATOM     13  H   UNL A   1      35.484  24.538  23.545  1.00  0.00     0.163 HD
BRANCH  11  14
ATOM     14  C   UNL A   1      32.300  23.362  23.810  1.00  0.00     0.060 C 
ATOM     15  H   UNL A   1      32.285  23.482  24.874  1.00  0.00     0.045 H 
BRANCH  14  16
ATOM     16  C   UNL A   1      32.280  21.844  23.651  1.00  0.00    -0.035 A 
ATOM     17  C   UNL A   1      32.974  16.873  24.444  1.00  0.00     0.119 A 
ATOM     18  C   UNL A   1      33.065  17.467  25.699  1.00  0.00    -0.019 A 
ATOM     19  C   UNL A   1      32.721  17.645  23.313  1.00  0.00    -0.012 A 
ATOM     20  C   UNL A   1      32.909  18.850  25.821  1.00  0.00    -0.051 A 
ATOM     21  H   UNL A   1      33.248  16.889  26.535  1.00  0.00     0.066 H 
ATOM     22  C   UNL A   1      32.531  19.029  23.429  1.00  0.00    -0.015 A 
ATOM     23  H   UNL A   1      32.675  17.197  22.385  1.00  0.00     0.067 H 
ATOM     24  C   UNL A   1      32.656  19.647  24.691  1.00  0.00    -0.018 A 
ATOM     25  H   UNL A   1      32.978  19.291  26.751  1.00  0.00     0.063 H 
ATOM     26  C   UNL A   1      32.218  19.813  22.313  1.00  0.00    -0.054 A 
ATOM     27  C   UNL A   1      32.550  21.046  24.780  1.00  0.00    -0.050 A 
ATOM     28  C   UNL A   1      32.063  21.196  22.429  1.00  0.00    -0.058 A 
ATOM     29  H   UNL A   1      32.101  19.363  21.390  1.00  0.00     0.063 H 
ATOM     30  H   UNL A   1      32.673  21.502  25.698  1.00  0.00     0.063 H 
ATOM     31  H   UNL A   1      31.785  21.748  21.603  1.00  0.00     0.063 H 
BRANCH  17  32
ATOM     32  O   UNL A   1      33.206  15.538  24.254  1.00  0.00    -0.497 OA
BRANCH  32  33
ATOM     33  C   UNL A   1      32.897  14.783  25.424  1.00  0.00     0.078 C 
ATOM     34  H   UNL A   1      33.673  14.913  26.149  1.00  0.00     0.067 H 
ATOM     35  H   UNL A   1      32.817  13.746  25.169  1.00  0.00     0.067 H 
ATOM     36  H   UNL A   1      31.968  15.122  25.832  1.00  0.00     0.067 H 
ENDBRANCH  32  33
ENDBRANCH  17  32
ENDBRANCH  14  16
BRANCH  14  37
ATOM     37  C   UNL A   1      31.050  24.140  23.379  1.00  0.00    -0.049 C 
ATOM     38  H   UNL A   1      30.282  24.020  24.115  1.00  0.00     0.024 H 
ATOM     39  H   UNL A   1      30.704  23.766  22.438  1.00  0.00     0.024 H 
ATOM     40  H   UNL A   1      31.292  25.178  23.282  1.00  0.00     0.024 H 
ENDBRANCH  14  37
ENDBRANCH  11  14
ENDBRANCH   7  10
ENDBRANCH   4   7
ENDBRANCH   1   4
BRANCH   1  41
ATOM     41  C   UNL A   1      36.402  20.600  25.004  1.00  0.00    -0.052 C 
ATOM     42  H   UNL A   1      35.698  20.155  24.331  1.00  0.00     0.027 H 
ATOM     43  H   UNL A   1      36.207  20.405  26.037  1.00  0.00     0.027 H 
BRANCH  41  44
ATOM     44  C   UNL A   1      37.773  19.980  24.722  1.00  0.00    -0.036 C 
ATOM     45  H   UNL A   1      38.085  20.301  23.750  1.00  0.00     0.028 H 
ATOM     46  H   UNL A   1      37.637  18.923  24.808  1.00  0.00     0.028 H 
BRANCH  44  47
ATOM     47  C   UNL A   1      38.880  20.337  25.711  1.00  0.00     0.018 C 
ATOM     48  H   UNL A   1      38.436  20.528  26.666  1.00  0.00     0.049 H 
ATOM     49  H   UNL A   1      39.387  21.197  25.329  1.00  0.00     0.049 H 
BRANCH  47  50
ATOM     50  N   UNL A   1      39.865  19.281  25.862  1.00  0.00    -0.352 N 
ATOM     51  C   UNL A   1      41.209  19.362  26.129  1.00  0.00     0.251 C 
ATOM     52  H   UNL A   1      39.515  18.367  25.758  1.00  0.00     0.163 HD
ATOM     53  O   UNL A   1      41.906  18.353  26.083  1.00  0.00    -0.269 OA
BRANCH  51  54
ATOM     54  C   UNL A   1      41.833  20.666  26.443  1.00  0.00     0.039 A 
ATOM     55  C   UNL A   1      42.168  21.519  25.388  1.00  0.00    -0.049 A 
ATOM     56  C   UNL A   1      42.108  21.043  27.761  1.00  0.00    -0.049 A 
ATOM     57  C   UNL A   1      42.711  22.778  25.655  1.00  0.00    -0.053 A 
ATOM     58  H   UNL A   1      42.014  21.219  24.412  1.00  0.00     0.063 H 
ATOM     59  C   UNL A   1      42.592  22.323  28.030  1.00  0.00    -0.053 A 
ATOM     60  H   UNL A   1      41.953  20.376  28.532  1.00  0.00     0.063 H 
ATOM     61  C   UNL A   1      42.892  23.205  26.980  1.00  0.00    -0.014 A 
ATOM     62  H   UNL A   1      42.981  23.398  24.875  1.00  0.00     0.063 H 
ATOM     63  H   UNL A   1      42.729  22.624  29.007  1.00  0.00     0.063 H 
BRANCH  61  64
ATOM     64  C   UNL A   1      43.371  24.578  27.287  1.00  0.00     0.031 A 
ATOM     65  C   UNL A   1      42.425  25.608  27.836  1.00  0.00     0.074 A 
ATOM     66  C   UNL A   1      44.644  24.914  27.005  1.00  0.00     0.049 A 
ATOM     67  N   UNL A   1      42.633  26.878  28.078  1.00  0.00    -0.248 NA
ATOM     68  C   UNL A   1      41.057  25.156  28.135  1.00  0.00    -0.034 C 
ATOM     69  C   UNL A   1      45.650  24.015  26.435  1.00  0.00    -0.036 A 
ATOM     70  N   UNL A   1      45.308  26.108  27.143  1.00  0.00    -0.354 N 
ATOM     71  C   UNL A   1      41.424  27.378  28.546  1.00  0.00     0.074 A 
ATOM     72  C   UNL A   1      40.475  26.286  28.510  1.00  0.00    -0.034 C 
ATOM     73  H   UNL A   1      40.656  24.207  28.068  1.00  0.00     0.065 H 
ATOM     74  C   UNL A   1      46.803  24.685  26.284  1.00  0.00    -0.036 A 
ATOM     75  H   UNL A   1      45.496  23.025  26.189  1.00  0.00     0.065 H 
ATOM     76  C   UNL A   1      46.610  26.069  26.705  1.00  0.00     0.049 A 
ATOM     77  H   UNL A   1      44.891  26.917  27.520  1.00  0.00     0.167 HD
ATOM     78  C   UNL A   1      41.139  28.627  28.983  1.00  0.00     0.037 A 
ATOM     79  H   UNL A   1      39.473  26.375  28.746  1.00  0.00     0.065 H 
ATOM     80  H   UNL A   1      47.686  24.286  25.926  1.00  0.00     0.065 H 
ATOM     81  C   UNL A   1      47.538  27.042  26.636  1.00  0.00     0.037 A 
ATOM     82  C   UNL A   1      42.092  29.706  29.036  1.00  0.00     0.049 A 
ATOM     83  C   UNL A   1      47.187  28.428  27.108  1.00  0.00     0.074 A 
ATOM     84  C   UNL A   1      41.910  30.995  29.509  1.00  0.00    -0.036 A 
ATOM     85  N   UNL A   1      43.404  29.625  28.596  1.00  0.00    -0.354 N 
ATOM     86  N   UNL A   1      46.057  28.872  27.602  1.00  0.00    -0.248 NA
ATOM     87  C   UNL A   1      48.244  29.445  27.018  1.00  0.00    -0.034 C 
ATOM     88  C   UNL A   1      43.100  31.705  29.315  1.00  0.00    -0.036 A 
ATOM     89  H   UNL A   1      41.046  31.367  29.932  1.00  0.00     0.065 H 
ATOM     90  C   UNL A   1      44.038  30.845  28.768  1.00  0.00     0.049 A 
ATOM     91  H   UNL A   1      43.824  28.818  28.219  1.00  0.00     0.167 HD
ATOM     92  C   UNL A   1      46.274  30.209  27.906  1.00  0.00     0.074 A 
ATOM     93  C   UNL A   1      47.649  30.500  27.557  1.00  0.00    -0.034 C 
ATOM     94  H   UNL A   1      49.198  29.360  26.636  1.00  0.00     0.065 H 
ATOM     95  H   UNL A   1      43.253  32.700  29.541  1.00  0.00     0.065 H 
ATOM     96  C   UNL A   1      45.410  31.116  28.424  1.00  0.00     0.037 A 
ATOM     97  H   UNL A   1      48.107  31.411  27.710  1.00  0.00     0.065 H 
BRANCH  78  98
ATOM     98  C   UNL A   1      39.739  28.901  29.449  1.00  0.00     0.064 A 
ATOM     99  C   UNL A   1      39.348  28.668  30.776  1.00  0.00     0.173 A 
ATOM    100  C   UNL A   1      38.791  29.455  28.575  1.00  0.00     0.173 A 
ATOM    101  F   UNL A   1      40.214  28.129  31.649  1.00  0.00    -0.203 F 
ATOM    102  C   UNL A   1      38.056  28.958  31.206  1.00  0.00     0.198 A 
ATOM    103  C   UNL A   1      37.509  29.773  29.015  1.00  0.00     0.198 A 
ATOM    104  F   UNL A   1      39.115  29.705  27.297  1.00  0.00    -0.203 F 
ATOM    105  F   UNL A   1      37.694  28.689  32.468  1.00  0.00    -0.200 F 
ATOM    106  C   UNL A   1      37.141  29.518  30.327  1.00  0.00     0.200 A 
ATOM    107  F   UNL A   1      36.629  30.326  28.169  1.00  0.00    -0.200 F 
ATOM    108  F   UNL A   1      35.901  29.809  30.745  1.00  0.00    -0.200 F 
ENDBRANCH  78  98
BRANCH  81 109
ATOM    109  C   UNL A   1      48.893  26.744  26.101  1.00  0.00     0.064 A 
ATOM    110  C   UNL A   1      49.898  26.227  26.930  1.00  0.00     0.173 A 
ATOM    111  C   UNL A   1      49.217  26.990  24.758  1.00  0.00     0.173 A 
ATOM    112  F   UNL A   1      49.642  25.998  28.227  1.00  0.00    -0.203 F 
ATOM    113  C   UNL A   1      51.183  25.992  26.444  1.00  0.00     0.198 A 
ATOM    114  C   UNL A   1      50.493  26.725  24.266  1.00  0.00     0.198 A 
ATOM    115  F   UNL A   1      48.291  27.482  23.922  1.00  0.00    -0.203 F 
ATOM    116  F   UNL A   1      52.138  25.549  27.272  1.00  0.00    -0.200 F 
ATOM    117  C   UNL A   1      51.478  26.236  25.112  1.00  0.00     0.200 A 
ATOM    118  F   UNL A   1      50.771  26.950  22.974  1.00  0.00    -0.200 F 
ATOM    119  F   UNL A   1      52.714  26.011  24.645  1.00  0.00    -0.200 F 
ENDBRANCH  81 109
BRANCH  96 120
ATOM    120  C   UNL A   1      45.936  32.499  28.676  1.00  0.00     0.064 A 
ATOM    121  C   UNL A   1      46.573  32.837  29.879  1.00  0.00     0.173 A 
ATOM    122  C   UNL A   1      45.831  33.490  27.687  1.00  0.00     0.173 A 
ATOM    123  F   UNL A   1      46.683  31.930  30.862  1.00  0.00    -0.203 F 
ATOM    124  C   UNL A   1      47.060  34.123  30.095  1.00  0.00     0.198 A 
ATOM    125  C   UNL A   1      46.348  34.766  27.894  1.00  0.00     0.198 A 
ATOM    126  F   UNL A   1      45.238  33.216  26.516  1.00  0.00    -0.203 F 
ATOM    127  F   UNL A   1      47.620  34.437  31.272  1.00  0.00    -0.200 F 
ATOM    128  C   UNL A   1      46.955  35.083  29.099  1.00  0.00     0.200 A 
ATOM    129  F   UNL A   1      46.257  35.689  26.926  1.00  0.00    -0.200 F 
ATOM    130  F   UNL A   1      47.432  36.319  29.306  1.00  0.00    -0.200 F 
ENDBRANCH  96 120
ENDBRANCH  61  64
ENDBRANCH  51  54
ENDBRANCH  47  50
ENDBRANCH  44  47
ENDBRANCH  41  44
ENDBRANCH   1  41
TORSDOF 17
ENDMDL
MODEL 3
REMARK VINA RESULT:     -12.1      6.089     11.715
REMARK SMILES COc1ccc2cc([C@H](C)C(=O)NCCCCCCNC(=O)c3ccc(-c4c5nc(c(-c6c(F)c(F)c(F)c(F)c6F)c6ccc([nH]6)c(-c6c(F)c(F)c(F)c(F)c6F)c6nc(c(-c7c(F)c(F)c(F)c(F)c7F)c7ccc4[nH]7)C=C6)C=C5)cc3)ccc2c1
REMARK SMILES IDX 16 1 15 4 14 7 13 10 11 11 12 12 9 14 8 16 3 17 4 18 89 19
REMARK SMILES IDX 5 20 88 22 6 24 87 26 7 27 86 28 2 32 1 33 10 37 17 41 18 44
REMARK SMILES IDX 19 47 20 50 21 51 22 53 23 54 24 55 85 56 25 57 84 59 26 61
REMARK SMILES IDX 27 64 28 65 78 66 29 67 83 68 77 69 79 70 30 71 82 72 76 74
REMARK SMILES IDX 75 76 31 78 63 81 43 82 62 83 44 84 47 85 61 86 80 87 45 88
REMARK SMILES IDX 46 90 60 92 81 93 48 96 32 98 33 99 41 100 34 101 35 102
REMARK SMILES IDX 39 103 42 104 36 105 37 106 40 107 38 108 64 109 65 110
REMARK SMILES IDX 73 111 66 112 67 113 71 114 74 115 68 116 69 117 72 118
REMARK SMILES IDX 70 119 49 120 50 121 58 122 51 123 52 124 56 125 59 126
REMARK SMILES IDX 53 127 54 128 57 129 55 130
REMARK H PARENT 16 2 16 3 15 5 15 6 14 8 14 9 13 13 9 15 4 21 89 23 5 25 87 29
REMARK H PARENT 7 30 86 31 1 34 1 35 1 36 10 38 10 39 10 40 17 42 17 43 18 45
REMARK H PARENT 18 46 19 48 19 49 20 52 24 58 85 60 25 62 84 63 83 73 77 75
REMARK H PARENT 79 77 82 79 76 80 44 89 47 91 80 94 45 95 81 97
REMARK Flexibility Score: inf
ROOT
ATOM      1  C   UNL A   1      36.800  22.030  24.880  1.00  0.00    -0.052 C 
ATOM      2  H   UNL A   1      36.522  22.549  25.773  1.00  0.00     0.027 H 
ATOM      3  H   UNL A   1      37.832  22.136  24.615  1.00  0.00     0.027 H 
ENDROOT
BRANCH   1   4
ATOM      4  C   UNL A   1      36.011  22.638  23.719  1.00  0.00    -0.036 C 
ATOM      5  H   UNL A   1      36.709  22.919  22.959  1.00  0.00     0.028 H 
ATOM      6  H   UNL A   1      35.316  21.886  23.411  1.00  0.00     0.028 H 
BRANCH   4   7
ATOM      7  C   UNL A   1      35.174  23.864  24.066  1.00  0.00     0.017 C 
ATOM      8  H   UNL A   1      34.519  23.610  24.872  1.00  0.00     0.049 H 
ATOM      9  H   UNL A   1      35.854  24.648  24.330  1.00  0.00     0.049 H 
BRANCH   7  10
ATOM     10  N   UNL A   1      34.376  24.344  22.958  1.00  0.00    -0.356 N 
ATOM     11  C   UNL A   1      33.019  24.327  22.798  1.00  0.00     0.227 C 
ATOM     12  O   UNL A   1      32.556  24.907  21.810  1.00  0.00    -0.274 OA
ATOM     13  H   UNL A   1      34.884  24.739  22.213  1.00  0.00     0.163 HD
BRANCH  11  14
ATOM     14  C   UNL A   1      32.087  23.608  23.790  1.00  0.00     0.060 C 
ATOM     15  H   UNL A   1      32.457  23.738  24.786  1.00  0.00     0.045 H 
BRANCH  14  16
ATOM     16  C   UNL A   1      32.133  22.092  23.618  1.00  0.00    -0.035 A 
ATOM     17  C   UNL A   1      33.047  17.150  24.366  1.00  0.00     0.119 A 
ATOM     18  C   UNL A   1      33.117  17.737  25.626  1.00  0.00    -0.019 A 
ATOM     19  C   UNL A   1      32.756  17.920  23.243  1.00  0.00    -0.012 A 
ATOM     20  C   UNL A   1      32.902  19.110  25.760  1.00  0.00    -0.051 A 
ATOM     21  H   UNL A   1      33.330  17.161  26.456  1.00  0.00     0.066 H 
ATOM     22  C   UNL A   1      32.506  19.293  23.372  1.00  0.00    -0.015 A 
ATOM     23  H   UNL A   1      32.724  17.477  22.312  1.00  0.00     0.067 H 
ATOM     24  C   UNL A   1      32.609  19.906  24.638  1.00  0.00    -0.018 A 
ATOM     25  H   UNL A   1      32.956  19.547  26.694  1.00  0.00     0.063 H 
ATOM     26  C   UNL A   1      32.154  20.072  22.263  1.00  0.00    -0.054 A 
ATOM     27  C   UNL A   1      32.442  21.298  24.740  1.00  0.00    -0.050 A 
ATOM     28  C   UNL A   1      31.939  21.445  22.392  1.00  0.00    -0.058 A 
ATOM     29  H   UNL A   1      32.052  19.625  21.338  1.00  0.00     0.063 H 
ATOM     30  H   UNL A   1      32.549  21.751  25.661  1.00  0.00     0.063 H 
ATOM     31  H   UNL A   1      31.632  21.992  21.572  1.00  0.00     0.063 H 
BRANCH  17  32
ATOM     32  O   UNL A   1      33.337  15.828  24.164  1.00  0.00    -0.497 OA
BRANCH  32  33
ATOM     33  C   UNL A   1      33.215  15.077  25.370  1.00  0.00     0.078 C 
ATOM     34  H   UNL A   1      34.110  15.181  25.947  1.00  0.00     0.067 H 
ATOM     35  H   UNL A   1      33.062  14.044  25.133  1.00  0.00     0.067 H 
ATOM     36  H   UNL A   1      32.382  15.440  25.934  1.00  0.00     0.067 H 
ENDBRANCH  32  33
ENDBRANCH  17  32
ENDBRANCH  14  16
BRANCH  14  37
ATOM     37  C   UNL A   1      30.706  24.275  23.869  1.00  0.00    -0.049 C 
ATOM     38  H   UNL A   1      30.803  25.321  23.664  1.00  0.00     0.024 H 
ATOM     39  H   UNL A   1      30.300  24.140  24.849  1.00  0.00     0.024 H 
ATOM     40  H   UNL A   1      30.055  23.829  23.147  1.00  0.00     0.024 H 
ENDBRANCH  14  37
ENDBRANCH  11  14
ENDBRANCH   7  10
ENDBRANCH   4   7
ENDBRANCH   1   4
BRANCH   1  41
ATOM     41  C   UNL A   1      36.586  20.533  25.122  1.00  0.00    -0.052 C 
ATOM     42  H   UNL A   1      35.858  20.188  24.418  1.00  0.00     0.027 H 
ATOM     43  H   UNL A   1      36.284  20.449  26.145  1.00  0.00     0.027 H 
BRANCH  41  44
ATOM     44  C   UNL A   1      37.824  19.642  24.986  1.00  0.00    -0.036 C 
ATOM     45  H   UNL A   1      38.063  19.569  23.945  1.00  0.00     0.028 H 
ATOM     46  H   UNL A   1      37.562  18.709  25.439  1.00  0.00     0.028 H 
BRANCH  44  47
ATOM     47  C   UNL A   1      39.073  20.122  25.721  1.00  0.00     0.018 C 
ATOM     48  H   UNL A   1      38.787  20.459  26.695  1.00  0.00     0.049 H 
ATOM     49  H   UNL A   1      39.505  20.909  25.139  1.00  0.00     0.049 H 
BRANCH  47  50
ATOM     50  N   UNL A   1      40.077  19.084  25.867  1.00  0.00    -0.352 N 
ATOM     51  C   UNL A   1      41.422  19.189  26.119  1.00  0.00     0.251 C 
ATOM     52  H   UNL A   1      39.743  18.164  25.770  1.00  0.00     0.163 HD
ATOM     53  O   UNL A   1      42.136  18.193  26.072  1.00  0.00    -0.269 OA
BRANCH  51  54
ATOM     54  C   UNL A   1      42.027  20.506  26.422  1.00  0.00     0.039 A 
ATOM     55  C   UNL A   1      42.402  21.330  25.357  1.00  0.00    -0.049 A 
ATOM     56  C   UNL A   1      42.244  20.922  27.738  1.00  0.00    -0.049 A 
ATOM     57  C   UNL A   1      42.928  22.598  25.610  1.00  0.00    -0.053 A 
ATOM     58  H   UNL A   1      42.291  21.001  24.385  1.00  0.00     0.063 H 
ATOM     59  C   UNL A   1      42.711  22.212  27.990  1.00  0.00    -0.053 A 
ATOM     60  H   UNL A   1      42.060  20.277  28.522  1.00  0.00     0.063 H 
ATOM     61  C   UNL A   1      43.051  23.065  26.929  1.00  0.00    -0.014 A 
ATOM     62  H   UNL A   1      43.228  23.197  24.824  1.00  0.00     0.063 H 
ATOM     63  H   UNL A   1      42.806  22.542  28.963  1.00  0.00     0.063 H 
BRANCH  61  64
ATOM     64  C   UNL A   1      43.511  24.449  27.215  1.00  0.00     0.031 A 
ATOM     65  C   UNL A   1      42.549  25.474  27.746  1.00  0.00     0.074 A 
ATOM     66  C   UNL A   1      44.780  24.798  26.931  1.00  0.00     0.049 A 
ATOM     67  N   UNL A   1      42.740  26.750  27.969  1.00  0.00    -0.248 NA
ATOM     68  C   UNL A   1      41.187  25.008  28.049  1.00  0.00    -0.034 C 
ATOM     69  C   UNL A   1      45.800  23.904  26.378  1.00  0.00    -0.036 A 
ATOM     70  N   UNL A   1      45.428  26.003  27.052  1.00  0.00    -0.354 N 
ATOM     71  C   UNL A   1      41.523  27.241  28.426  1.00  0.00     0.074 A 
ATOM     72  C   UNL A   1      40.589  26.136  28.405  1.00  0.00    -0.034 C 
ATOM     73  H   UNL A   1      40.800  24.054  27.996  1.00  0.00     0.065 H 
ATOM     74  C   UNL A   1      46.944  24.586  26.219  1.00  0.00    -0.036 A 
ATOM     75  H   UNL A   1      45.659  22.908  26.147  1.00  0.00     0.065 H 
ATOM     76  C   UNL A   1      46.731  25.974  26.618  1.00  0.00     0.049 A 
ATOM     77  H   UNL A   1      44.999  26.811  27.416  1.00  0.00     0.167 HD
ATOM     78  C   UNL A   1      41.220  28.493  28.844  1.00  0.00     0.037 A 
ATOM     79  H   UNL A   1      39.586  26.216  28.637  1.00  0.00     0.065 H 
ATOM     80  H   UNL A   1      47.833  24.194  25.869  1.00  0.00     0.065 H 
ATOM     81  C   UNL A   1      47.646  26.959  26.536  1.00  0.00     0.037 A 
ATOM     82  C   UNL A   1      42.158  29.586  28.881  1.00  0.00     0.049 A 
ATOM     83  C   UNL A   1      47.275  28.347  26.986  1.00  0.00     0.074 A 
ATOM     84  C   UNL A   1      41.958  30.879  29.334  1.00  0.00    -0.036 A 
ATOM     85  N   UNL A   1      43.473  29.515  28.447  1.00  0.00    -0.354 N 
ATOM     86  N   UNL A   1      46.138  28.783  27.471  1.00  0.00    -0.248 NA
ATOM     87  C   UNL A   1      48.318  29.376  26.883  1.00  0.00    -0.034 C 
ATOM     88  C   UNL A   1      43.139  31.602  29.133  1.00  0.00    -0.036 A 
ATOM     89  H   UNL A   1      41.088  31.246  29.750  1.00  0.00     0.065 H 
ATOM     90  C   UNL A   1      44.089  30.746  28.601  1.00  0.00     0.049 A 
ATOM     91  H   UNL A   1      43.905  28.708  28.083  1.00  0.00     0.167 HD
ATOM     92  C   UNL A   1      46.336  30.128  27.754  1.00  0.00     0.074 A 
ATOM     93  C   UNL A   1      47.708  30.432  27.404  1.00  0.00    -0.034 C 
ATOM     94  H   UNL A   1      49.275  29.299  26.504  1.00  0.00     0.065 H 
ATOM     95  H   UNL A   1      43.277  32.602  29.343  1.00  0.00     0.065 H 
ATOM     96  C   UNL A   1      45.459  31.031  28.255  1.00  0.00     0.037 A 
ATOM     97  H   UNL A   1      48.153  31.351  27.544  1.00  0.00     0.065 H 
BRANCH  78  98
ATOM     98  C   UNL A   1      39.815  28.755  29.302  1.00  0.00     0.064 A 
ATOM     99  C   UNL A   1      38.824  29.196  28.412  1.00  0.00     0.173 A 
ATOM    100  C   UNL A   1      39.440  28.511  30.632  1.00  0.00     0.173 A 
ATOM    101  F   UNL A   1      39.133  29.454  27.132  1.00  0.00    -0.203 F 
ATOM    102  C   UNL A   1      37.515  29.403  28.840  1.00  0.00     0.198 A 
ATOM    103  C   UNL A   1      38.124  28.690  31.051  1.00  0.00     0.198 A 
ATOM    104  F   UNL A   1      40.348  28.081  31.522  1.00  0.00    -0.203 F 
ATOM    105  F   UNL A   1      36.595  29.862  27.982  1.00  0.00    -0.200 F 
ATOM    106  C   UNL A   1      37.165  29.142  30.157  1.00  0.00     0.200 A 
ATOM    107  F   UNL A   1      37.784  28.424  32.319  1.00  0.00    -0.200 F 
ATOM    108  F   UNL A   1      35.902  29.328  30.565  1.00  0.00    -0.200 F 
ENDBRANCH  78  98
BRANCH  81 109
ATOM    109  C   UNL A   1      49.006  26.671  26.009  1.00  0.00     0.064 A 
ATOM    110  C   UNL A   1      49.999  26.126  26.835  1.00  0.00     0.173 A 
ATOM    111  C   UNL A   1      49.347  26.954  24.678  1.00  0.00     0.173 A 
ATOM    112  F   UNL A   1      49.727  25.861  28.121  1.00  0.00    -0.203 F 
ATOM    113  C   UNL A   1      51.289  25.900  26.358  1.00  0.00     0.198 A 
ATOM    114  C   UNL A   1      50.628  26.699  24.194  1.00  0.00     0.198 A 
ATOM    115  F   UNL A   1      48.434  27.474  23.845  1.00  0.00    -0.203 F 
ATOM    116  F   UNL A   1      52.232  25.429  27.184  1.00  0.00    -0.200 F 
ATOM    117  C   UNL A   1      51.601  26.181  25.037  1.00  0.00     0.200 A 
ATOM    118  F   UNL A   1      50.922  26.959  22.913  1.00  0.00    -0.200 F 
ATOM    119  F   UNL A   1      52.842  25.965  24.578  1.00  0.00    -0.200 F 
ENDBRANCH  81 109
BRANCH  96 120
ATOM    120  C   UNL A   1      45.965  32.425  28.488  1.00  0.00     0.064 A 
ATOM    121  C   UNL A   1      45.860  33.420  27.505  1.00  0.00     0.173 A 
ATOM    122  C   UNL A   1      46.533  32.778  29.723  1.00  0.00     0.173 A 
ATOM    123  F   UNL A   1      45.341  33.128  26.303  1.00  0.00    -0.203 F 
ATOM    124  C   UNL A   1      46.329  34.710  27.740  1.00  0.00     0.198 A 
ATOM    125  C   UNL A   1      46.972  34.076  29.965  1.00  0.00     0.198 A 
ATOM    126  F   UNL A   1      46.649  31.864  30.698  1.00  0.00    -0.203 F 
ATOM    127  F   UNL A   1      46.264  35.631  26.768  1.00  0.00    -0.200 F 
ATOM    128  C   UNL A   1      46.876  35.039  28.971  1.00  0.00     0.200 A 
ATOM    129  F   UNL A   1      47.488  34.395  31.159  1.00  0.00    -0.200 F 
ATOM    130  F   UNL A   1      47.321  36.282  29.197  1.00  0.00    -0.200 F 
ENDBRANCH  96 120
ENDBRANCH  61  64
ENDBRANCH  51  54
ENDBRANCH  47  50
ENDBRANCH  44  47
ENDBRANCH  41  44
ENDBRANCH   1  41
TORSDOF 17
ENDMDL
MODEL 4
REMARK VINA RESULT:     -12.1      5.884     10.368
REMARK SMILES COc1ccc2cc([C@H](C)C(=O)NCCCCCCNC(=O)c3ccc(-c4c5nc(c(-c6c(F)c(F)c(F)c(F)c6F)c6ccc([nH]6)c(-c6c(F)c(F)c(F)c(F)c6F)c6nc(c(-c7c(F)c(F)c(F)c(F)c7F)c7ccc4[nH]7)C=C6)C=C5)cc3)ccc2c1
REMARK SMILES IDX 16 1 15 4 14 7 13 10 11 11 12 12 9 14 8 16 3 17 4 18 89 19
REMARK SMILES IDX 5 20 88 22 6 24 87 26 7 27 86 28 2 32 1 33 10 37 17 41 18 44
REMARK SMILES IDX 19 47 20 50 21 51 22 53 23 54 24 55 85 56 25 57 84 59 26 61
REMARK SMILES IDX 27 64 28 65 78 66 29 67 83 68 77 69 79 70 30 71 82 72 76 74
REMARK SMILES IDX 75 76 31 78 63 81 43 82 62 83 44 84 47 85 61 86 80 87 45 88
REMARK SMILES IDX 46 90 60 92 81 93 48 96 32 98 33 99 41 100 34 101 35 102
REMARK SMILES IDX 39 103 42 104 36 105 37 106 40 107 38 108 64 109 65 110
REMARK SMILES IDX 73 111 66 112 67 113 71 114 74 115 68 116 69 117 72 118
REMARK SMILES IDX 70 119 49 120 50 121 58 122 51 123 52 124 56 125 59 126
REMARK SMILES IDX 53 127 54 128 57 129 55 130
REMARK H PARENT 16 2 16 3 15 5 15 6 14 8 14 9 13 13 9 15 4 21 89 23 5 25 87 29
REMARK H PARENT 7 30 86 31 1 34 1 35 1 36 10 38 10 39 10 40 17 42 17 43 18 45
REMARK H PARENT 18 46 19 48 19 49 20 52 24 58 85 60 25 62 84 63 83 73 77 75
REMARK H PARENT 79 77 82 79 76 80 44 89 47 91 80 94 45 95 81 97
REMARK Flexibility Score: inf
ROOT
ATOM      1  C   UNL A   1      36.684  21.948  24.856  1.00  0.00    -0.052 C 
ATOM      2  H   UNL A   1      36.329  22.412  25.752  1.00  0.00     0.027 H 
ATOM      3  H   UNL A   1      37.726  22.102  24.667  1.00  0.00     0.027 H 
ENDROOT
BRANCH   1   4
ATOM      4  C   UNL A   1      35.950  22.585  23.675  1.00  0.00    -0.036 C 
ATOM      5  H   UNL A   1      36.682  22.873  22.950  1.00  0.00     0.028 H 
ATOM      6  H   UNL A   1      35.261  21.846  23.324  1.00  0.00     0.028 H 
BRANCH   4   7
ATOM      7  C   UNL A   1      35.112  23.814  24.010  1.00  0.00     0.017 C 
ATOM      8  H   UNL A   1      34.441  23.561  24.803  1.00  0.00     0.049 H 
ATOM      9  H   UNL A   1      35.790  24.594  24.288  1.00  0.00     0.049 H 
BRANCH   7  10
ATOM     10  N   UNL A   1      34.336  24.299  22.889  1.00  0.00    -0.356 N 
ATOM     11  C   UNL A   1      32.982  24.291  22.705  1.00  0.00     0.227 C 
ATOM     12  O   UNL A   1      32.540  24.874  21.710  1.00  0.00    -0.274 OA
ATOM     13  H   UNL A   1      34.859  24.692  22.153  1.00  0.00     0.163 HD
BRANCH  11  14
ATOM     14  C   UNL A   1      32.028  23.577  23.681  1.00  0.00     0.060 C 
ATOM     15  H   UNL A   1      32.366  23.728  24.685  1.00  0.00     0.045 H 
BRANCH  14  16
ATOM     16  C   UNL A   1      32.098  22.059  23.536  1.00  0.00    -0.035 A 
ATOM     17  C   UNL A   1      33.023  17.139  24.408  1.00  0.00     0.119 A 
ATOM     18  C   UNL A   1      33.026  17.747  25.660  1.00  0.00    -0.019 A 
ATOM     19  C   UNL A   1      32.779  17.888  23.259  1.00  0.00    -0.012 A 
ATOM     20  C   UNL A   1      32.791  19.120  25.761  1.00  0.00    -0.051 A 
ATOM     21  H   UNL A   1      33.204  17.186  26.508  1.00  0.00     0.066 H 
ATOM     22  C   UNL A   1      32.510  19.261  23.353  1.00  0.00    -0.015 A 
ATOM     23  H   UNL A   1      32.798  17.431  22.335  1.00  0.00     0.067 H 
ATOM     24  C   UNL A   1      32.546  19.894  24.613  1.00  0.00    -0.018 A 
ATOM     25  H   UNL A   1      32.795  19.572  26.689  1.00  0.00     0.063 H 
ATOM     26  C   UNL A   1      32.204  20.018  22.216  1.00  0.00    -0.054 A 
ATOM     27  C   UNL A   1      32.360  21.286  24.684  1.00  0.00    -0.050 A 
ATOM     28  C   UNL A   1      31.970  21.391  22.313  1.00  0.00    -0.058 A 
ATOM     29  H   UNL A   1      32.152  19.555  21.294  1.00  0.00     0.063 H 
ATOM     30  H   UNL A   1      32.417  21.755  25.602  1.00  0.00     0.063 H 
ATOM     31  H   UNL A   1      31.698  21.921  21.470  1.00  0.00     0.063 H 
BRANCH  17  32
ATOM     32  O   UNL A   1      33.335  15.817  24.241  1.00  0.00    -0.497 OA
BRANCH  32  33
ATOM     33  C   UNL A   1      32.860  15.028  25.330  1.00  0.00     0.078 C 
ATOM     34  H   UNL A   1      33.684  14.533  25.799  1.00  0.00     0.067 H 
ATOM     35  H   UNL A   1      32.166  14.299  24.965  1.00  0.00     0.067 H 
ATOM     36  H   UNL A   1      32.371  15.660  26.041  1.00  0.00     0.067 H 
ENDBRANCH  32  33
ENDBRANCH  17  32
ENDBRANCH  14  16
BRANCH  14  37
ATOM     37  C   UNL A   1      30.638  24.228  23.706  1.00  0.00    -0.049 C 
ATOM     38  H   UNL A   1      30.072  23.830  24.522  1.00  0.00     0.024 H 
ATOM     39  H   UNL A   1      30.132  24.023  22.786  1.00  0.00     0.024 H 
ATOM     40  H   UNL A   1      30.743  25.286  23.827  1.00  0.00     0.024 H 
ENDBRANCH  14  37
ENDBRANCH  11  14
ENDBRANCH   7  10
ENDBRANCH   4   7
ENDBRANCH   1   4
BRANCH   1  41
ATOM     41  C   UNL A   1      36.512  20.434  25.012  1.00  0.00    -0.052 C 
ATOM     42  H   UNL A   1      35.858  20.097  24.234  1.00  0.00     0.027 H 
ATOM     43  H   UNL A   1      36.130  20.290  26.000  1.00  0.00     0.027 H 
BRANCH  41  44
ATOM     44  C   UNL A   1      37.791  19.596  24.941  1.00  0.00    -0.036 C 
ATOM     45  H   UNL A   1      38.076  19.518  23.913  1.00  0.00     0.028 H 
ATOM     46  H   UNL A   1      37.551  18.659  25.398  1.00  0.00     0.028 H 
BRANCH  44  47
ATOM     47  C   UNL A   1      38.986  20.142  25.718  1.00  0.00     0.018 C 
ATOM     48  H   UNL A   1      38.655  20.433  26.693  1.00  0.00     0.049 H 
ATOM     49  H   UNL A   1      39.377  20.971  25.167  1.00  0.00     0.049 H 
BRANCH  47  50
ATOM     50  N   UNL A   1      40.057  19.172  25.864  1.00  0.00    -0.352 N 
ATOM     51  C   UNL A   1      41.392  19.365  26.118  1.00  0.00     0.251 C 
ATOM     52  H   UNL A   1      39.784  18.232  25.765  1.00  0.00     0.163 HD
ATOM     53  O   UNL A   1      42.170  18.418  26.070  1.00  0.00    -0.269 OA
BRANCH  51  54
ATOM     54  C   UNL A   1      41.908  20.718  26.423  1.00  0.00     0.039 A 
ATOM     55  C   UNL A   1      42.233  21.565  25.360  1.00  0.00    -0.049 A 
ATOM     56  C   UNL A   1      42.094  21.147  27.740  1.00  0.00    -0.049 A 
ATOM     57  C   UNL A   1      42.674  22.865  25.615  1.00  0.00    -0.053 A 
ATOM     58  H   UNL A   1      42.146  21.230  24.387  1.00  0.00     0.063 H 
ATOM     59  C   UNL A   1      42.475  22.464  27.994  1.00  0.00    -0.053 A 
ATOM     60  H   UNL A   1      41.949  20.490  28.523  1.00  0.00     0.063 H 
ATOM     61  C   UNL A   1      42.762  23.338  26.934  1.00  0.00    -0.014 A 
ATOM     62  H   UNL A   1      42.937  23.483  24.830  1.00  0.00     0.063 H 
ATOM     63  H   UNL A   1      42.545  22.799  28.967  1.00  0.00     0.063 H 
BRANCH  61  64
ATOM     64  C   UNL A   1      43.130  24.749  27.223  1.00  0.00     0.031 A 
ATOM     65  C   UNL A   1      44.534  25.230  26.993  1.00  0.00     0.074 A 
ATOM     66  C   UNL A   1      42.212  25.577  27.757  1.00  0.00     0.049 A 
ATOM     67  N   UNL A   1      45.067  26.393  27.271  1.00  0.00    -0.248 NA
ATOM     68  C   UNL A   1      45.471  24.270  26.389  1.00  0.00    -0.034 C 
ATOM     69  C   UNL A   1      40.825  25.219  28.061  1.00  0.00    -0.036 A 
ATOM     70  N   UNL A   1      42.310  26.887  28.156  1.00  0.00    -0.354 N 
ATOM     71  C   UNL A   1      46.399  26.303  26.887  1.00  0.00     0.074 A 
ATOM     72  C   UNL A   1      46.605  24.956  26.399  1.00  0.00    -0.034 C 
ATOM     73  H   UNL A   1      45.292  23.313  26.048  1.00  0.00     0.065 H 
ATOM     74  C   UNL A   1      40.200  26.284  28.587  1.00  0.00    -0.036 A 
ATOM     75  H   UNL A   1      40.397  24.295  27.898  1.00  0.00     0.065 H 
ATOM     76  C   UNL A   1      41.150  27.388  28.696  1.00  0.00     0.049 A 
ATOM     77  H   UNL A   1      43.134  27.419  28.063  1.00  0.00     0.167 HD
ATOM     78  C   UNL A   1      47.354  27.261  26.920  1.00  0.00     0.037 A 
ATOM     79  H   UNL A   1      47.518  24.578  26.099  1.00  0.00     0.065 H 
ATOM     80  H   UNL A   1      39.208  26.319  28.869  1.00  0.00     0.065 H 
ATOM     81  C   UNL A   1      40.886  28.594  29.233  1.00  0.00     0.037 A 
ATOM     82  C   UNL A   1      47.140  28.606  27.388  1.00  0.00     0.049 A 
ATOM     83  C   UNL A   1      41.974  29.633  29.276  1.00  0.00     0.074 A 
ATOM     84  C   UNL A   1      48.035  29.663  27.414  1.00  0.00    -0.036 A 
ATOM     85  N   UNL A   1      45.948  29.080  27.915  1.00  0.00    -0.354 N 
ATOM     86  N   UNL A   1      43.213  29.552  28.857  1.00  0.00    -0.248 NA
ATOM     87  C   UNL A   1      41.623  30.934  29.864  1.00  0.00    -0.034 C 
ATOM     88  C   UNL A   1      47.397  30.763  27.998  1.00  0.00    -0.036 A 
ATOM     89  H   UNL A   1      49.005  29.643  27.064  1.00  0.00     0.065 H 
ATOM     90  C   UNL A   1      46.090  30.406  28.288  1.00  0.00     0.049 A 
ATOM     91  H   UNL A   1      45.123  28.551  28.008  1.00  0.00     0.167 HD
ATOM     92  C   UNL A   1      43.781  30.795  29.105  1.00  0.00     0.074 A 
ATOM     93  C   UNL A   1      42.747  31.618  29.695  1.00  0.00    -0.034 C 
ATOM     94  H   UNL A   1      40.736  31.235  30.296  1.00  0.00     0.065 H 
ATOM     95  H   UNL A   1      47.826  31.683  28.181  1.00  0.00     0.065 H 
ATOM     96  C   UNL A   1      45.047  31.215  28.867  1.00  0.00     0.037 A 
ATOM     97  H   UNL A   1      42.868  32.610  29.949  1.00  0.00     0.065 H 
BRANCH  78  98
ATOM     98  C   UNL A   1      48.726  26.896  26.431  1.00  0.00     0.064 A 
ATOM     99  C   UNL A   1      49.685  26.334  27.287  1.00  0.00     0.173 A 
ATOM    100  C   UNL A   1      49.069  27.057  25.079  1.00  0.00     0.173 A 
ATOM    101  F   UNL A   1      49.411  26.169  28.590  1.00  0.00    -0.203 F 
ATOM    102  C   UNL A   1      50.942  25.968  26.815  1.00  0.00     0.198 A 
ATOM    103  C   UNL A   1      50.316  26.662  24.603  1.00  0.00     0.198 A 
ATOM    104  F   UNL A   1      48.186  27.583  24.216  1.00  0.00    -0.203 F 
ATOM    105  F   UNL A   1      51.855  25.470  27.659  1.00  0.00    -0.200 F 
ATOM    106  C   UNL A   1      51.253  26.124  25.472  1.00  0.00     0.200 A 
ATOM    107  F   UNL A   1      50.610  26.801  23.304  1.00  0.00    -0.200 F 
ATOM    108  F   UNL A   1      52.459  25.758  25.016  1.00  0.00    -0.200 F 
ENDBRANCH  78  98
BRANCH  81 109
ATOM    109  C   UNL A   1      39.533  28.891  29.771  1.00  0.00     0.064 A 
ATOM    110  C   UNL A   1      38.552  29.492  28.969  1.00  0.00     0.173 A 
ATOM    111  C   UNL A   1      39.198  28.600  31.103  1.00  0.00     0.173 A 
ATOM    112  F   UNL A   1      38.834  29.810  27.697  1.00  0.00    -0.203 F 
ATOM    113  C   UNL A   1      37.299  29.815  29.483  1.00  0.00     0.198 A 
ATOM    114  C   UNL A   1      37.933  28.896  31.607  1.00  0.00     0.198 A 
ATOM    115  F   UNL A   1      40.097  28.022  31.912  1.00  0.00    -0.203 F 
ATOM    116  F   UNL A   1      36.401  30.438  28.709  1.00  0.00    -0.200 F 
ATOM    117  C   UNL A   1      36.988  29.512  30.800  1.00  0.00     0.200 A 
ATOM    118  F   UNL A   1      37.632  28.589  32.877  1.00  0.00    -0.200 F 
ATOM    119  F   UNL A   1      35.783  29.825  31.296  1.00  0.00    -0.200 F 
ENDBRANCH  81 109
BRANCH  96 120
ATOM    120  C   UNL A   1      45.375  32.638  29.215  1.00  0.00     0.064 A 
ATOM    121  C   UNL A   1      45.915  32.986  30.462  1.00  0.00     0.173 A 
ATOM    122  C   UNL A   1      45.179  33.662  28.275  1.00  0.00     0.173 A 
ATOM    123  F   UNL A   1      46.105  32.046  31.400  1.00  0.00    -0.203 F 
ATOM    124  C   UNL A   1      46.219  34.310  30.766  1.00  0.00     0.198 A 
ATOM    125  C   UNL A   1      45.514  34.980  28.571  1.00  0.00     0.198 A 
ATOM    126  F   UNL A   1      44.673  33.381  27.065  1.00  0.00    -0.203 F 
ATOM    127  F   UNL A   1      46.686  34.626  31.982  1.00  0.00    -0.200 F 
ATOM    128  C   UNL A   1      46.027  35.304  29.818  1.00  0.00     0.200 A 
ATOM    129  F   UNL A   1      45.340  35.937  27.649  1.00  0.00    -0.200 F 
ATOM    130  F   UNL A   1      46.327  36.577  30.110  1.00  0.00    -0.200 F 
ENDBRANCH  96 120
ENDBRANCH  61  64
ENDBRANCH  51  54
ENDBRANCH  47  50
ENDBRANCH  44  47
ENDBRANCH  41  44
ENDBRANCH   1  41
TORSDOF 17
ENDMDL
MODEL 5
REMARK VINA RESULT:     -12.1      6.930     11.748
REMARK SMILES COc1ccc2cc([C@H](C)C(=O)NCCCCCCNC(=O)c3ccc(-c4c5nc(c(-c6c(F)c(F)c(F)c(F)c6F)c6ccc([nH]6)c(-c6c(F)c(F)c(F)c(F)c6F)c6nc(c(-c7c(F)c(F)c(F)c(F)c7F)c7ccc4[nH]7)C=C6)C=C5)cc3)ccc2c1
REMARK SMILES IDX 16 1 15 4 14 7 13 10 11 11 12 12 9 14 8 16 3 17 4 18 89 19
REMARK SMILES IDX 5 20 88 22 6 24 87 26 7 27 86 28 2 32 1 33 10 37 17 41 18 44
REMARK SMILES IDX 19 47 20 50 21 51 22 53 23 54 24 55 85 56 25 57 84 59 26 61
REMARK SMILES IDX 27 64 28 65 78 66 29 67 83 68 77 69 79 70 30 71 82 72 76 74
REMARK SMILES IDX 75 76 31 78 63 81 43 82 62 83 44 84 47 85 61 86 80 87 45 88
REMARK SMILES IDX 46 90 60 92 81 93 48 96 32 98 33 99 41 100 34 101 35 102
REMARK SMILES IDX 39 103 42 104 36 105 37 106 40 107 38 108 64 109 65 110
REMARK SMILES IDX 73 111 66 112 67 113 71 114 74 115 68 116 69 117 72 118
REMARK SMILES IDX 70 119 49 120 50 121 58 122 51 123 52 124 56 125 59 126
REMARK SMILES IDX 53 127 54 128 57 129 55 130
REMARK H PARENT 16 2 16 3 15 5 15 6 14 8 14 9 13 13 9 15 4 21 89 23 5 25 87 29
REMARK H PARENT 7 30 86 31 1 34 1 35 1 36 10 38 10 39 10 40 17 42 17 43 18 45
REMARK H PARENT 18 46 19 48 19 49 20 52 24 58 85 60 25 62 84 63 83 73 77 75
REMARK H PARENT 79 77 82 79 76 80 44 89 47 91 80 94 45 95 81 97
REMARK Flexibility Score: inf
ROOT
ATOM      1  C   UNL A   1      39.732  21.808  26.493  1.00  0.00    -0.052 C 
ATOM      2  H   UNL A   1      39.204  21.600  25.587  1.00  0.00     0.027 H 
ATOM      3  H   UNL A   1      39.352  21.290  27.350  1.00  0.00     0.027 H 
ENDROOT
BRANCH   1   4
ATOM      4  C   UNL A   1      39.566  23.296  26.802  1.00  0.00    -0.036 C 
ATOM      5  H   UNL A   1      39.698  23.430  27.855  1.00  0.00     0.028 H 
ATOM      6  H   UNL A   1      40.297  23.802  26.207  1.00  0.00     0.028 H 
BRANCH   4   7
ATOM      7  C   UNL A   1      38.221  23.900  26.416  1.00  0.00     0.017 C 
ATOM      8  H   UNL A   1      37.453  23.391  26.959  1.00  0.00     0.049 H 
ATOM      9  H   UNL A   1      38.261  24.943  26.655  1.00  0.00     0.049 H 
BRANCH   7  10
ATOM     10  N   UNL A   1      37.931  23.795  25.002  1.00  0.00    -0.356 N 
ATOM     11  C   UNL A   1      36.784  23.385  24.382  1.00  0.00     0.227 C 
ATOM     12  O   UNL A   1      36.734  23.494  23.152  1.00  0.00    -0.274 OA
ATOM     13  H   UNL A   1      38.666  24.056  24.401  1.00  0.00     0.163 HD
BRANCH  11  14
ATOM     14  C   UNL A   1      35.596  22.797  25.164  1.00  0.00     0.060 C 
ATOM     15  H   UNL A   1      35.803  22.838  26.213  1.00  0.00     0.045 H 
BRANCH  14  16
ATOM     16  C   UNL A   1      35.441  21.298  24.919  1.00  0.00    -0.035 A 
ATOM     17  C   UNL A   1      33.490  16.621  24.533  1.00  0.00     0.119 A 
ATOM     18  C   UNL A   1      32.406  17.487  24.429  1.00  0.00    -0.019 A 
ATOM     19  C   UNL A   1      34.781  17.120  24.690  1.00  0.00    -0.012 A 
ATOM     20  C   UNL A   1      32.616  18.867  24.492  1.00  0.00    -0.051 A 
ATOM     21  H   UNL A   1      31.452  17.112  24.309  1.00  0.00     0.066 H 
ATOM     22  C   UNL A   1      35.006  18.504  24.721  1.00  0.00    -0.015 A 
ATOM     23  H   UNL A   1      35.575  16.469  24.785  1.00  0.00     0.067 H 
ATOM     24  C   UNL A   1      33.911  19.391  24.653  1.00  0.00    -0.018 A 
ATOM     25  H   UNL A   1      31.812  19.510  24.417  1.00  0.00     0.063 H 
ATOM     26  C   UNL A   1      36.301  19.024  24.820  1.00  0.00    -0.054 A 
ATOM     27  C   UNL A   1      34.142  20.772  24.773  1.00  0.00    -0.050 A 
ATOM     28  C   UNL A   1      36.516  20.403  24.885  1.00  0.00    -0.058 A 
ATOM     29  H   UNL A   1      37.109  18.381  24.845  1.00  0.00     0.063 H 
ATOM     30  H   UNL A   1      33.338  21.419  24.755  1.00  0.00     0.063 H 
ATOM     31  H   UNL A   1      37.481  20.767  24.907  1.00  0.00     0.063 H 
BRANCH  17  32
ATOM     32  O   UNL A   1      33.334  15.262  24.567  1.00  0.00    -0.497 OA
BRANCH  32  33
ATOM     33  C   UNL A   1      32.427  14.868  25.595  1.00  0.00     0.078 C 
ATOM     34  H   UNL A   1      31.606  14.335  25.163  1.00  0.00     0.067 H 
ATOM     35  H   UNL A   1      32.061  15.738  26.100  1.00  0.00     0.067 H 
ATOM     36  H   UNL A   1      32.934  14.237  26.295  1.00  0.00     0.067 H 
ENDBRANCH  32  33
ENDBRANCH  17  32
ENDBRANCH  14  16
BRANCH  14  37
ATOM     37  C   UNL A   1      34.341  23.672  25.048  1.00  0.00    -0.049 C 
ATOM     38  H   UNL A   1      34.611  24.634  24.663  1.00  0.00     0.024 H 
ATOM     39  H   UNL A   1      33.895  23.786  26.013  1.00  0.00     0.024 H 
ATOM     40  H   UNL A   1      33.642  23.206  24.385  1.00  0.00     0.024 H 
ENDBRANCH  14  37
ENDBRANCH  11  14
ENDBRANCH   7  10
ENDBRANCH   4   7
ENDBRANCH   1   4
BRANCH   1  41
ATOM     41  C   UNL A   1      41.173  21.317  26.319  1.00  0.00    -0.052 C 
ATOM     42  H   UNL A   1      41.686  21.476  27.245  1.00  0.00     0.027 H 
ATOM     43  H   UNL A   1      41.567  21.873  25.495  1.00  0.00     0.027 H 
BRANCH  41  44
ATOM     44  C   UNL A   1      41.344  19.844  25.938  1.00  0.00    -0.036 C 
ATOM     45  H   UNL A   1      41.281  19.770  24.873  1.00  0.00     0.028 H 
ATOM     46  H   UNL A   1      40.572  19.317  26.458  1.00  0.00     0.028 H 
BRANCH  44  47
ATOM     47  C   UNL A   1      42.655  19.193  26.376  1.00  0.00     0.018 C 
ATOM     48  H   UNL A   1      42.427  18.328  26.962  1.00  0.00     0.049 H 
ATOM     49  H   UNL A   1      43.203  19.921  26.936  1.00  0.00     0.049 H 
BRANCH  47  50
ATOM     50  N   UNL A   1      43.486  18.788  25.256  1.00  0.00    -0.352 N 
ATOM     51  C   UNL A   1      44.362  19.523  24.497  1.00  0.00     0.251 C 
ATOM     52  H   UNL A   1      43.409  17.840  25.002  1.00  0.00     0.163 HD
ATOM     53  O   UNL A   1      44.874  19.029  23.499  1.00  0.00    -0.269 OA
BRANCH  51  54
ATOM     54  C   UNL A   1      44.673  20.924  24.860  1.00  0.00     0.039 A 
ATOM     55  C   UNL A   1      44.237  21.946  24.011  1.00  0.00    -0.049 A 
ATOM     56  C   UNL A   1      45.404  21.234  26.010  1.00  0.00    -0.049 A 
ATOM     57  C   UNL A   1      44.471  23.280  24.352  1.00  0.00    -0.053 A 
ATOM     58  H   UNL A   1      43.744  21.715  23.134  1.00  0.00     0.063 H 
ATOM     59  C   UNL A   1      45.582  22.567  26.381  1.00  0.00    -0.053 A 
ATOM     60  H   UNL A   1      45.810  20.478  26.583  1.00  0.00     0.063 H 
ATOM     61  C   UNL A   1      45.112  23.602  25.559  1.00  0.00    -0.014 A 
ATOM     62  H   UNL A   1      44.171  24.034  23.713  1.00  0.00     0.063 H 
ATOM     63  H   UNL A   1      46.062  22.792  27.265  1.00  0.00     0.063 H 
BRANCH  61  64
ATOM     64  C   UNL A   1      45.278  25.015  25.988  1.00  0.00     0.031 A 
ATOM     65  C   UNL A   1      46.627  25.674  25.928  1.00  0.00     0.074 A 
ATOM     66  C   UNL A   1      44.224  25.681  26.497  1.00  0.00     0.049 A 
ATOM     67  N   UNL A   1      46.988  26.862  26.344  1.00  0.00    -0.248 NA
ATOM     68  C   UNL A   1      47.722  24.885  25.342  1.00  0.00    -0.034 C 
ATOM     69  C   UNL A   1      42.871  25.140  26.642  1.00  0.00    -0.036 A 
ATOM     70  N   UNL A   1      44.127  26.954  27.003  1.00  0.00    -0.354 N 
ATOM     71  C   UNL A   1      48.348  26.960  26.080  1.00  0.00     0.074 A 
ATOM     72  C   UNL A   1      48.758  25.694  25.511  1.00  0.00    -0.034 C 
ATOM     73  H   UNL A   1      47.691  23.947  24.913  1.00  0.00     0.065 H 
ATOM     74  C   UNL A   1      42.079  26.076  27.188  1.00  0.00    -0.036 A 
ATOM     75  H   UNL A   1      42.575  24.190  26.369  1.00  0.00     0.065 H 
ATOM     76  C   UNL A   1      42.873  27.268  27.470  1.00  0.00     0.049 A 
ATOM     77  H   UNL A   1      44.884  27.584  27.029  1.00  0.00     0.167 HD
ATOM     78  C   UNL A   1      49.172  28.016  26.275  1.00  0.00     0.037 A 
ATOM     79  H   UNL A   1      49.733  25.452  25.269  1.00  0.00     0.065 H 
ATOM     80  H   UNL A   1      41.070  25.971  27.378  1.00  0.00     0.065 H 
ATOM     81  C   UNL A   1      42.419  28.384  28.071  1.00  0.00     0.037 A 
ATOM     82  C   UNL A   1      48.756  29.281  26.824  1.00  0.00     0.049 A 
ATOM     83  C   UNL A   1      43.364  29.534  28.296  1.00  0.00     0.074 A 
ATOM     84  C   UNL A   1      49.509  30.427  27.015  1.00  0.00    -0.036 A 
ATOM     85  N   UNL A   1      47.475  29.566  27.272  1.00  0.00    -0.354 N 
ATOM     86  N   UNL A   1      44.634  29.634  27.989  1.00  0.00    -0.248 NA
ATOM     87  C   UNL A   1      42.808  30.729  28.947  1.00  0.00    -0.034 C 
ATOM     88  C   UNL A   1      48.694  31.391  27.620  1.00  0.00    -0.036 A 
ATOM     89  H   UNL A   1      50.499  30.551  26.756  1.00  0.00     0.065 H 
ATOM     90  C   UNL A   1      47.421  30.862  27.759  1.00  0.00     0.049 A 
ATOM     91  H   UNL A   1      46.716  28.939  27.247  1.00  0.00     0.167 HD
ATOM     92  C   UNL A   1      45.022  30.907  28.384  1.00  0.00     0.074 A 
ATOM     93  C   UNL A   1      43.849  31.550  28.936  1.00  0.00    -0.034 C 
ATOM     94  H   UNL A   1      41.858  30.887  29.317  1.00  0.00     0.065 H 
ATOM     95  H   UNL A   1      48.990  32.335  27.913  1.00  0.00     0.065 H 
ATOM     96  C   UNL A   1      46.242  31.490  28.299  1.00  0.00     0.037 A 
ATOM     97  H   UNL A   1      43.825  32.524  29.277  1.00  0.00     0.065 H 
BRANCH  78  98
ATOM     98  C   UNL A   1      50.614  27.856  25.889  1.00  0.00     0.064 A 
ATOM     99  C   UNL A   1      51.036  27.990  24.558  1.00  0.00     0.173 A 
ATOM    100  C   UNL A   1      51.594  27.623  26.867  1.00  0.00     0.173 A 
ATOM    101  F   UNL A   1      50.138  28.203  23.584  1.00  0.00    -0.203 F 
ATOM    102  C   UNL A   1      52.381  27.874  24.216  1.00  0.00     0.198 A 
ATOM    103  C   UNL A   1      52.941  27.537  26.527  1.00  0.00     0.198 A 
ATOM    104  F   UNL A   1      51.245  27.495  28.156  1.00  0.00    -0.203 F 
ATOM    105  F   UNL A   1      52.756  27.965  22.933  1.00  0.00    -0.200 F 
ATOM    106  C   UNL A   1      53.333  27.656  25.202  1.00  0.00     0.200 A 
ATOM    107  F   UNL A   1      53.861  27.341  27.481  1.00  0.00    -0.200 F 
ATOM    108  F   UNL A   1      54.628  27.558  24.873  1.00  0.00    -0.200 F 
ENDBRANCH  78  98
BRANCH  81 109
ATOM    109  C   UNL A   1      40.999  28.474  28.503  1.00  0.00     0.064 A 
ATOM    110  C   UNL A   1      40.009  28.952  27.632  1.00  0.00     0.173 A 
ATOM    111  C   UNL A   1      40.606  28.105  29.798  1.00  0.00     0.173 A 
ATOM    112  F   UNL A   1      40.342  29.339  26.392  1.00  0.00    -0.203 F 
ATOM    113  C   UNL A   1      38.686  29.083  28.048  1.00  0.00     0.198 A 
ATOM    114  C   UNL A   1      39.277  28.207  30.202  1.00  0.00     0.198 A 
ATOM    115  F   UNL A   1      41.512  27.638  30.669  1.00  0.00    -0.203 F 
ATOM    116  F   UNL A   1      37.772  29.594  27.213  1.00  0.00    -0.200 F 
ATOM    117  C   UNL A   1      38.320  28.705  29.331  1.00  0.00     0.200 A 
ATOM    118  F   UNL A   1      38.924  27.828  31.439  1.00  0.00    -0.200 F 
ATOM    119  F   UNL A   1      37.047  28.833  29.731  1.00  0.00    -0.200 F 
ENDBRANCH  81 109
BRANCH  96 120
ATOM    120  C   UNL A   1      46.363  32.906  28.784  1.00  0.00     0.064 A 
ATOM    121  C   UNL A   1      46.134  33.998  27.935  1.00  0.00     0.173 A 
ATOM    122  C   UNL A   1      46.679  33.172  30.126  1.00  0.00     0.173 A 
ATOM    123  F   UNL A   1      45.846  33.797  26.640  1.00  0.00    -0.203 F 
ATOM    124  C   UNL A   1      46.244  35.305  28.404  1.00  0.00     0.198 A 
ATOM    125  C   UNL A   1      46.757  34.478  30.599  1.00  0.00     0.198 A 
ATOM    126  F   UNL A   1      46.900  32.162  30.981  1.00  0.00    -0.203 F 
ATOM    127  F   UNL A   1      46.070  36.333  27.562  1.00  0.00    -0.200 F 
ATOM    128  C   UNL A   1      46.546  35.543  29.736  1.00  0.00     0.200 A 
ATOM    129  F   UNL A   1      47.036  34.707  31.889  1.00  0.00    -0.200 F 
ATOM    130  F   UNL A   1      46.644  36.801  30.186  1.00  0.00    -0.200 F 
ENDBRANCH  96 120
ENDBRANCH  61  64
ENDBRANCH  51  54
ENDBRANCH  47  50
ENDBRANCH  44  47
ENDBRANCH  41  44
ENDBRANCH   1  41
TORSDOF 17
ENDMDL
MODEL 6
REMARK VINA RESULT:     -12.0      1.976      4.247
REMARK SMILES COc1ccc2cc([C@H](C)C(=O)NCCCCCCNC(=O)c3ccc(-c4c5nc(c(-c6c(F)c(F)c(F)c(F)c6F)c6ccc([nH]6)c(-c6c(F)c(F)c(F)c(F)c6F)c6nc(c(-c7c(F)c(F)c(F)c(F)c7F)c7ccc4[nH]7)C=C6)C=C5)cc3)ccc2c1
REMARK SMILES IDX 16 1 15 4 14 7 13 10 11 11 12 12 9 14 8 16 3 17 4 18 89 19
REMARK SMILES IDX 5 20 88 22 6 24 87 26 7 27 86 28 2 32 1 33 10 37 17 41 18 44
REMARK SMILES IDX 19 47 20 50 21 51 22 53 23 54 24 55 85 56 25 57 84 59 26 61
REMARK SMILES IDX 27 64 28 65 78 66 29 67 83 68 77 69 79 70 30 71 82 72 76 74
REMARK SMILES IDX 75 76 31 78 63 81 43 82 62 83 44 84 47 85 61 86 80 87 45 88
REMARK SMILES IDX 46 90 60 92 81 93 48 96 32 98 33 99 41 100 34 101 35 102
REMARK SMILES IDX 39 103 42 104 36 105 37 106 40 107 38 108 64 109 65 110
REMARK SMILES IDX 73 111 66 112 67 113 71 114 74 115 68 116 69 117 72 118
REMARK SMILES IDX 70 119 49 120 50 121 58 122 51 123 52 124 56 125 59 126
REMARK SMILES IDX 53 127 54 128 57 129 55 130
REMARK H PARENT 16 2 16 3 15 5 15 6 14 8 14 9 13 13 9 15 4 21 89 23 5 25 87 29
REMARK H PARENT 7 30 86 31 1 34 1 35 1 36 10 38 10 39 10 40 17 42 17 43 18 45
REMARK H PARENT 18 46 19 48 19 49 20 52 24 58 85 60 25 62 84 63 83 73 77 75
REMARK H PARENT 79 77 82 79 76 80 44 89 47 91 80 94 45 95 81 97
REMARK Flexibility Score: inf
ROOT
ATOM      1  C   UNL A   1      32.463  29.856  26.787  1.00  0.00    -0.052 C 
ATOM      2  H   UNL A   1      33.281  29.551  26.168  1.00  0.00     0.027 H 
ATOM      3  H   UNL A   1      32.752  30.416  27.651  1.00  0.00     0.027 H 
ENDROOT
BRANCH   1   4
ATOM      4  C   UNL A   1      31.783  28.594  27.320  1.00  0.00    -0.036 C 
ATOM      5  H   UNL A   1      32.451  28.129  28.014  1.00  0.00     0.028 H 
ATOM      6  H   UNL A   1      30.862  28.919  27.757  1.00  0.00     0.028 H 
BRANCH   4   7
ATOM      7  C   UNL A   1      31.403  27.559  26.267  1.00  0.00     0.017 C 
ATOM      8  H   UNL A   1      30.556  27.922  25.724  1.00  0.00     0.049 H 
ATOM      9  H   UNL A   1      32.257  27.420  25.636  1.00  0.00     0.049 H 
BRANCH   7  10
ATOM     10  N   UNL A   1      31.071  26.267  26.828  1.00  0.00    -0.356 N 
ATOM     11  C   UNL A   1      31.592  25.037  26.538  1.00  0.00     0.227 C 
ATOM     12  O   UNL A   1      31.228  24.087  27.239  1.00  0.00    -0.274 OA
ATOM     13  H   UNL A   1      30.367  26.276  27.517  1.00  0.00     0.163 HD
BRANCH  11  14
ATOM     14  C   UNL A   1      32.584  24.821  25.381  1.00  0.00     0.060 C 
ATOM     15  H   UNL A   1      32.360  25.501  24.586  1.00  0.00     0.045 H 
BRANCH  14  16
ATOM     16  C   UNL A   1      32.392  23.461  24.715  1.00  0.00    -0.035 A 
ATOM     17  C   UNL A   1      32.899  18.569  23.435  1.00  0.00     0.119 A 
ATOM     18  C   UNL A   1      33.435  18.678  24.715  1.00  0.00    -0.019 A 
ATOM     19  C   UNL A   1      32.360  19.684  22.798  1.00  0.00    -0.012 A 
ATOM     20  C   UNL A   1      33.439  19.917  25.359  1.00  0.00    -0.051 A 
ATOM     21  H   UNL A   1      33.829  17.847  25.184  1.00  0.00     0.066 H 
ATOM     22  C   UNL A   1      32.330  20.926  23.449  1.00  0.00    -0.015 A 
ATOM     23  H   UNL A   1      31.983  19.596  21.842  1.00  0.00     0.067 H 
ATOM     24  C   UNL A   1      32.903  21.055  24.732  1.00  0.00    -0.018 A 
ATOM     25  H   UNL A   1      33.838  19.999  26.307  1.00  0.00     0.063 H 
ATOM     26  C   UNL A   1      31.740  22.044  22.847  1.00  0.00    -0.054 A 
ATOM     27  C   UNL A   1      32.944  22.324  25.336  1.00  0.00    -0.050 A 
ATOM     28  C   UNL A   1      31.743  23.285  23.487  1.00  0.00    -0.058 A 
ATOM     29  H   UNL A   1      31.297  21.949  21.919  1.00  0.00     0.063 H 
ATOM     30  H   UNL A   1      33.391  22.425  26.261  1.00  0.00     0.063 H 
ATOM     31  H   UNL A   1      31.260  24.084  23.048  1.00  0.00     0.063 H 
BRANCH  17  32
ATOM     32  O   UNL A   1      32.949  17.402  22.723  1.00  0.00    -0.497 OA
BRANCH  32  33
ATOM     33  C   UNL A   1      34.030  16.576  23.152  1.00  0.00     0.078 C 
ATOM     34  H   UNL A   1      33.653  15.782  23.762  1.00  0.00     0.067 H 
ATOM     35  H   UNL A   1      34.724  17.162  23.719  1.00  0.00     0.067 H 
ATOM     36  H   UNL A   1      34.525  16.165  22.298  1.00  0.00     0.067 H 
ENDBRANCH  32  33
ENDBRANCH  17  32
ENDBRANCH  14  16
BRANCH  14  37
ATOM     37  C   UNL A   1      34.013  25.231  25.765  1.00  0.00    -0.049 C 
ATOM     38  H   UNL A   1      34.006  25.684  26.735  1.00  0.00     0.024 H 
ATOM     39  H   UNL A   1      34.388  25.930  25.047  1.00  0.00     0.024 H 
ATOM     40  H   UNL A   1      34.640  24.365  25.780  1.00  0.00     0.024 H 
ENDBRANCH  14  37
ENDBRANCH  11  14
ENDBRANCH   7  10
ENDBRANCH   4   7
ENDBRANCH   1   4
BRANCH   1  41
ATOM     41  C   UNL A   1      31.577  30.796  25.963  1.00  0.00    -0.052 C 
ATOM     42  H   UNL A   1      30.619  30.330  25.854  1.00  0.00     0.027 H 
ATOM     43  H   UNL A   1      32.100  30.948  25.042  1.00  0.00     0.027 H 
BRANCH  41  44
ATOM     44  C   UNL A   1      31.352  32.194  26.542  1.00  0.00    -0.036 C 
ATOM     45  H   UNL A   1      30.550  32.133  27.249  1.00  0.00     0.028 H 
ATOM     46  H   UNL A   1      31.146  32.827  25.704  1.00  0.00     0.028 H 
BRANCH  44  47
ATOM     47  C   UNL A   1      32.551  32.822  27.249  1.00  0.00     0.018 C 
ATOM     48  H   UNL A   1      33.394  32.781  26.591  1.00  0.00     0.049 H 
ATOM     49  H   UNL A   1      32.721  32.267  28.148  1.00  0.00     0.049 H 
BRANCH  47  50
ATOM     50  N   UNL A   1      32.325  34.205  27.627  1.00  0.00    -0.352 N 
ATOM     51  C   UNL A   1      32.955  34.975  28.572  1.00  0.00     0.251 C 
ATOM     52  H   UNL A   1      31.610  34.662  27.128  1.00  0.00     0.163 HD
ATOM     53  O   UNL A   1      32.527  36.092  28.841  1.00  0.00    -0.269 OA
BRANCH  51  54
ATOM     54  C   UNL A   1      34.137  34.454  29.295  1.00  0.00     0.039 A 
ATOM     55  C   UNL A   1      33.949  33.874  30.553  1.00  0.00    -0.049 A 
ATOM     56  C   UNL A   1      35.423  34.552  28.756  1.00  0.00    -0.049 A 
ATOM     57  C   UNL A   1      35.037  33.327  31.237  1.00  0.00    -0.053 A 
ATOM     58  H   UNL A   1      33.008  33.849  30.975  1.00  0.00     0.063 H 
ATOM     59  C   UNL A   1      36.498  33.952  29.410  1.00  0.00    -0.053 A 
ATOM     60  H   UNL A   1      35.576  35.067  27.875  1.00  0.00     0.063 H 
ATOM     61  C   UNL A   1      36.315  33.328  30.654  1.00  0.00    -0.014 A 
ATOM     62  H   UNL A   1      34.903  32.921  32.177  1.00  0.00     0.063 H 
ATOM     63  H   UNL A   1      37.434  33.966  28.977  1.00  0.00     0.063 H 
BRANCH  61  64
ATOM     64  C   UNL A   1      37.464  32.661  31.319  1.00  0.00     0.031 A 
ATOM     65  C   UNL A   1      38.158  31.505  30.657  1.00  0.00     0.074 A 
ATOM     66  C   UNL A   1      37.837  33.056  32.551  1.00  0.00     0.049 A 
ATOM     67  N   UNL A   1      39.115  30.739  31.119  1.00  0.00    -0.248 NA
ATOM     68  C   UNL A   1      37.703  31.147  29.304  1.00  0.00    -0.034 C 
ATOM     69  C   UNL A   1      37.219  34.143  33.315  1.00  0.00    -0.036 A 
ATOM     70  N   UNL A   1      38.816  32.580  33.388  1.00  0.00    -0.354 N 
ATOM     71  C   UNL A   1      39.368  29.806  30.122  1.00  0.00     0.074 A 
ATOM     72  C   UNL A   1      38.434  30.072  29.049  1.00  0.00    -0.034 C 
ATOM     73  H   UNL A   1      36.999  31.613  28.711  1.00  0.00     0.065 H 
ATOM     74  C   UNL A   1      37.840  34.256  34.499  1.00  0.00    -0.036 A 
ATOM     75  H   UNL A   1      36.432  34.726  32.993  1.00  0.00     0.065 H 
ATOM     76  C   UNL A   1      38.871  33.227  34.598  1.00  0.00     0.049 A 
ATOM     77  H   UNL A   1      39.423  31.843  33.144  1.00  0.00     0.167 HD
ATOM     78  C   UNL A   1      40.308  28.831  30.096  1.00  0.00     0.037 A 
ATOM     79  H   UNL A   1      38.348  29.498  28.194  1.00  0.00     0.065 H 
ATOM     80  H   UNL A   1      37.623  34.958  35.225  1.00  0.00     0.065 H 
ATOM     81  C   UNL A   1      39.652  33.007  35.673  1.00  0.00     0.037 A 
ATOM     82  C   UNL A   1      41.249  28.581  31.158  1.00  0.00     0.049 A 
ATOM     83  C   UNL A   1      40.672  31.901  35.625  1.00  0.00     0.074 A 
ATOM     84  C   UNL A   1      42.270  27.648  31.203  1.00  0.00    -0.036 A 
ATOM     85  N   UNL A   1      41.282  29.267  32.362  1.00  0.00    -0.354 N 
ATOM     86  N   UNL A   1      40.941  31.064  34.653  1.00  0.00    -0.248 NA
ATOM     87  C   UNL A   1      41.503  31.715  36.823  1.00  0.00    -0.034 C 
ATOM     88  C   UNL A   1      42.893  27.739  32.453  1.00  0.00    -0.036 A 
ATOM     89  H   UNL A   1      42.528  26.997  30.446  1.00  0.00     0.065 H 
ATOM     90  C   UNL A   1      42.292  28.763  33.166  1.00  0.00     0.049 A 
ATOM     91  H   UNL A   1      40.677  30.004  32.610  1.00  0.00     0.167 HD
ATOM     92  C   UNL A   1      41.985  30.271  35.110  1.00  0.00     0.074 A 
ATOM     93  C   UNL A   1      42.314  30.739  36.440  1.00  0.00    -0.034 C 
ATOM     94  H   UNL A   1      41.464  32.213  37.726  1.00  0.00     0.065 H 
ATOM     95  H   UNL A   1      43.666  27.144  32.787  1.00  0.00     0.065 H 
ATOM     96  C   UNL A   1      42.612  29.245  34.485  1.00  0.00     0.037 A 
ATOM     97  H   UNL A   1      43.083  30.362  37.015  1.00  0.00     0.065 H 
BRANCH  78  98
ATOM     98  C   UNL A   1      40.374  27.957  28.877  1.00  0.00     0.064 A 
ATOM     99  C   UNL A   1      41.165  28.301  27.770  1.00  0.00     0.173 A 
ATOM    100  C   UNL A   1      39.685  26.736  28.835  1.00  0.00     0.173 A 
ATOM    101  F   UNL A   1      41.836  29.464  27.755  1.00  0.00    -0.203 F 
ATOM    102  C   UNL A   1      41.246  27.467  26.659  1.00  0.00     0.198 A 
ATOM    103  C   UNL A   1      39.791  25.889  27.736  1.00  0.00     0.198 A 
ATOM    104  F   UNL A   1      38.920  26.356  29.871  1.00  0.00    -0.203 F 
ATOM    105  F   UNL A   1      41.976  27.834  25.597  1.00  0.00    -0.200 F 
ATOM    106  C   UNL A   1      40.566  26.258  26.646  1.00  0.00     0.200 A 
ATOM    107  F   UNL A   1      39.145  24.715  27.730  1.00  0.00    -0.200 F 
ATOM    108  F   UNL A   1      40.655  25.449  25.581  1.00  0.00    -0.200 F 
ENDBRANCH  78  98
BRANCH  81 109
ATOM    109  C   UNL A   1      39.504  33.850  36.888  1.00  0.00     0.064 A 
ATOM    110  C   UNL A   1      40.181  35.073  37.003  1.00  0.00     0.173 A 
ATOM    111  C   UNL A   1      38.704  33.443  37.966  1.00  0.00     0.173 A 
ATOM    112  F   UNL A   1      40.976  35.493  36.008  1.00  0.00    -0.203 F 
ATOM    113  C   UNL A   1      40.084  35.844  38.160  1.00  0.00     0.198 A 
ATOM    114  C   UNL A   1      38.584  34.230  39.109  1.00  0.00     0.198 A 
ATOM    115  F   UNL A   1      38.034  32.283  37.906  1.00  0.00    -0.203 F 
ATOM    116  F   UNL A   1      40.783  36.981  38.264  1.00  0.00    -0.200 F 
ATOM    117  C   UNL A   1      39.281  35.424  39.210  1.00  0.00     0.200 A 
ATOM    118  F   UNL A   1      37.796  33.827  40.117  1.00  0.00    -0.200 F 
ATOM    119  F   UNL A   1      39.189  36.165  40.323  1.00  0.00    -0.200 F 
ENDBRANCH  81 109
BRANCH  96 120
ATOM    120  C   UNL A   1      43.741  28.581  35.220  1.00  0.00     0.064 A 
ATOM    121  C   UNL A   1      45.059  29.050  35.124  1.00  0.00     0.173 A 
ATOM    122  C   UNL A   1      43.493  27.481  36.056  1.00  0.00     0.173 A 
ATOM    123  F   UNL A   1      45.349  30.088  34.325  1.00  0.00    -0.203 F 
ATOM    124  C   UNL A   1      46.093  28.426  35.817  1.00  0.00     0.198 A 
ATOM    125  C   UNL A   1      44.524  26.879  36.772  1.00  0.00     0.198 A 
ATOM    126  F   UNL A   1      42.249  26.998  36.187  1.00  0.00    -0.203 F 
ATOM    127  F   UNL A   1      47.353  28.861  35.672  1.00  0.00    -0.200 F 
ATOM    128  C   UNL A   1      45.824  27.347  36.646  1.00  0.00     0.200 A 
ATOM    129  F   UNL A   1      44.260  25.845  37.582  1.00  0.00    -0.200 F 
ATOM    130  F   UNL A   1      46.819  26.752  37.318  1.00  0.00    -0.200 F 
ENDBRANCH  96 120
ENDBRANCH  61  64
ENDBRANCH  51  54
ENDBRANCH  47  50
ENDBRANCH  44  47
ENDBRANCH  41  44
ENDBRANCH   1  41
TORSDOF 17
ENDMDL
MODEL 7
REMARK VINA RESULT:     -12.0      2.650      8.198
REMARK SMILES COc1ccc2cc([C@H](C)C(=O)NCCCCCCNC(=O)c3ccc(-c4c5nc(c(-c6c(F)c(F)c(F)c(F)c6F)c6ccc([nH]6)c(-c6c(F)c(F)c(F)c(F)c6F)c6nc(c(-c7c(F)c(F)c(F)c(F)c7F)c7ccc4[nH]7)C=C6)C=C5)cc3)ccc2c1
REMARK SMILES IDX 16 1 15 4 14 7 13 10 11 11 12 12 9 14 8 16 3 17 4 18 89 19
REMARK SMILES IDX 5 20 88 22 6 24 87 26 7 27 86 28 2 32 1 33 10 37 17 41 18 44
REMARK SMILES IDX 19 47 20 50 21 51 22 53 23 54 24 55 85 56 25 57 84 59 26 61
REMARK SMILES IDX 27 64 28 65 78 66 29 67 83 68 77 69 79 70 30 71 82 72 76 74
REMARK SMILES IDX 75 76 31 78 63 81 43 82 62 83 44 84 47 85 61 86 80 87 45 88
REMARK SMILES IDX 46 90 60 92 81 93 48 96 32 98 33 99 41 100 34 101 35 102
REMARK SMILES IDX 39 103 42 104 36 105 37 106 40 107 38 108 64 109 65 110
REMARK SMILES IDX 73 111 66 112 67 113 71 114 74 115 68 116 69 117 72 118
REMARK SMILES IDX 70 119 49 120 50 121 58 122 51 123 52 124 56 125 59 126
REMARK SMILES IDX 53 127 54 128 57 129 55 130
REMARK H PARENT 16 2 16 3 15 5 15 6 14 8 14 9 13 13 9 15 4 21 89 23 5 25 87 29
REMARK H PARENT 7 30 86 31 1 34 1 35 1 36 10 38 10 39 10 40 17 42 17 43 18 45
REMARK H PARENT 18 46 19 48 19 49 20 52 24 58 85 60 25 62 84 63 83 73 77 75
REMARK H PARENT 79 77 82 79 76 80 44 89 47 91 80 94 45 95 81 97
REMARK Flexibility Score: inf
ROOT
ATOM      1  C   UNL A   1      34.397  32.097  28.816  1.00  0.00    -0.052 C 
ATOM      2  H   UNL A   1      34.335  31.576  29.748  1.00  0.00     0.027 H 
ATOM      3  H   UNL A   1      33.512  32.031  28.218  1.00  0.00     0.027 H 
ENDROOT
BRANCH   1   4
ATOM      4  C   UNL A   1      35.506  31.446  27.988  1.00  0.00    -0.036 C 
ATOM      5  H   UNL A   1      35.651  32.039  27.109  1.00  0.00     0.028 H 
ATOM      6  H   UNL A   1      36.363  31.403  28.627  1.00  0.00     0.028 H 
BRANCH   4   7
ATOM      7  C   UNL A   1      35.239  30.011  27.548  1.00  0.00     0.017 C 
ATOM      8  H   UNL A   1      36.178  29.518  27.411  1.00  0.00     0.049 H 
ATOM      9  H   UNL A   1      34.648  29.550  28.311  1.00  0.00     0.049 H 
BRANCH   7  10
ATOM     10  N   UNL A   1      34.489  29.922  26.313  1.00  0.00    -0.356 N 
ATOM     11  C   UNL A   1      33.385  29.169  26.023  1.00  0.00     0.227 C 
ATOM     12  O   UNL A   1      32.845  29.352  24.927  1.00  0.00    -0.274 OA
ATOM     13  H   UNL A   1      34.821  30.484  25.576  1.00  0.00     0.163 HD
BRANCH  11  14
ATOM     14  C   UNL A   1      32.828  28.122  27.004  1.00  0.00     0.060 C 
ATOM     15  H   UNL A   1      33.487  28.032  27.843  1.00  0.00     0.045 H 
BRANCH  14  16
ATOM     16  C   UNL A   1      32.857  26.716  26.411  1.00  0.00    -0.035 A 
ATOM     17  C   UNL A   1      31.793  21.848  25.414  1.00  0.00     0.119 A 
ATOM     18  C   UNL A   1      30.626  22.382  25.951  1.00  0.00    -0.019 A 
ATOM     19  C   UNL A   1      32.922  22.645  25.243  1.00  0.00    -0.012 A 
ATOM     20  C   UNL A   1      30.592  23.727  26.328  1.00  0.00    -0.051 A 
ATOM     21  H   UNL A   1      29.790  21.788  26.072  1.00  0.00     0.066 H 
ATOM     22  C   UNL A   1      32.888  24.003  25.588  1.00  0.00    -0.015 A 
ATOM     23  H   UNL A   1      33.787  22.234  24.862  1.00  0.00     0.067 H 
ATOM     24  C   UNL A   1      31.722  24.548  26.167  1.00  0.00    -0.018 A 
ATOM     25  H   UNL A   1      29.727  24.123  26.728  1.00  0.00     0.063 H 
ATOM     26  C   UNL A   1      33.993  24.833  25.369  1.00  0.00    -0.054 A 
ATOM     27  C   UNL A   1      31.730  25.889  26.588  1.00  0.00    -0.050 A 
ATOM     28  C   UNL A   1      33.965  26.178  25.746  1.00  0.00    -0.058 A 
ATOM     29  H   UNL A   1      34.841  24.447  24.923  1.00  0.00     0.063 H 
ATOM     30  H   UNL A   1      30.888  26.278  27.040  1.00  0.00     0.063 H 
ATOM     31  H   UNL A   1      34.772  26.784  25.531  1.00  0.00     0.063 H 
BRANCH  17  32
ATOM     32  O   UNL A   1      31.910  20.519  25.111  1.00  0.00    -0.497 OA
BRANCH  32  33
ATOM     33  C   UNL A   1      33.276  20.109  25.085  1.00  0.00     0.078 C 
ATOM     34  H   UNL A   1      33.701  20.222  26.061  1.00  0.00     0.067 H 
ATOM     35  H   UNL A   1      33.817  20.715  24.388  1.00  0.00     0.067 H 
ATOM     36  H   UNL A   1      33.335  19.083  24.786  1.00  0.00     0.067 H 
ENDBRANCH  32  33
ENDBRANCH  17  32
ENDBRANCH  14  16
BRANCH  14  37
ATOM     37  C   UNL A   1      31.524  28.590  27.666  1.00  0.00    -0.049 C 
ATOM     38  H   UNL A   1      30.778  27.830  27.561  1.00  0.00     0.024 H 
ATOM     39  H   UNL A   1      31.188  29.489  27.194  1.00  0.00     0.024 H 
ATOM     40  H   UNL A   1      31.700  28.777  28.704  1.00  0.00     0.024 H 
ENDBRANCH  14  37
ENDBRANCH  11  14
ENDBRANCH   7  10
ENDBRANCH   4   7
ENDBRANCH   1   4
BRANCH   1  41
ATOM     41  C   UNL A   1      34.579  33.587  29.123  1.00  0.00    -0.052 C 
ATOM     42  H   UNL A   1      35.364  33.956  28.496  1.00  0.00     0.027 H 
ATOM     43  H   UNL A   1      34.790  33.640  30.170  1.00  0.00     0.027 H 
BRANCH  41  44
ATOM     44  C   UNL A   1      33.352  34.476  28.907  1.00  0.00    -0.036 C 
ATOM     45  H   UNL A   1      32.514  33.998  29.369  1.00  0.00     0.028 H 
ATOM     46  H   UNL A   1      33.258  34.590  27.848  1.00  0.00     0.028 H 
BRANCH  44  47
ATOM     47  C   UNL A   1      33.451  35.893  29.469  1.00  0.00     0.018 C 
ATOM     48  H   UNL A   1      33.228  36.587  28.685  1.00  0.00     0.049 H 
ATOM     49  H   UNL A   1      34.445  36.021  29.842  1.00  0.00     0.049 H 
BRANCH  47  50
ATOM     50  N   UNL A   1      32.537  36.130  30.571  1.00  0.00    -0.352 N 
ATOM     51  C   UNL A   1      32.610  35.722  31.880  1.00  0.00     0.251 C 
ATOM     52  H   UNL A   1      31.742  36.665  30.346  1.00  0.00     0.163 HD
ATOM     53  O   UNL A   1      31.662  35.908  32.635  1.00  0.00    -0.269 OA
BRANCH  51  54
ATOM     54  C   UNL A   1      33.818  35.029  32.382  1.00  0.00     0.039 A 
ATOM     55  C   UNL A   1      33.679  33.742  32.909  1.00  0.00    -0.049 A 
ATOM     56  C   UNL A   1      35.073  35.643  32.357  1.00  0.00    -0.049 A 
ATOM     57  C   UNL A   1      34.808  33.043  33.343  1.00  0.00    -0.053 A 
ATOM     58  H   UNL A   1      32.745  33.308  32.976  1.00  0.00     0.063 H 
ATOM     59  C   UNL A   1      36.206  34.922  32.732  1.00  0.00    -0.053 A 
ATOM     60  H   UNL A   1      35.161  36.628  32.060  1.00  0.00     0.063 H 
ATOM     61  C   UNL A   1      36.085  33.613  33.223  1.00  0.00    -0.014 A 
ATOM     62  H   UNL A   1      34.703  32.102  33.755  1.00  0.00     0.063 H 
ATOM     63  H   UNL A   1      37.139  35.354  32.648  1.00  0.00     0.063 H 
BRANCH  61  64
ATOM     64  C   UNL A   1      37.307  32.847  33.583  1.00  0.00     0.031 A 
ATOM     65  C   UNL A   1      38.041  33.145  34.860  1.00  0.00     0.074 A 
ATOM     66  C   UNL A   1      37.791  31.929  32.725  1.00  0.00     0.049 A 
ATOM     67  N   UNL A   1      39.171  32.650  35.299  1.00  0.00    -0.248 NA
ATOM     68  C   UNL A   1      37.437  34.147  35.752  1.00  0.00    -0.034 C 
ATOM     69  C   UNL A   1      37.189  31.575  31.437  1.00  0.00    -0.036 A 
ATOM     70  N   UNL A   1      38.910  31.137  32.796  1.00  0.00    -0.354 N 
ATOM     71  C   UNL A   1      39.418  33.286  36.510  1.00  0.00     0.074 A 
ATOM     72  C   UNL A   1      38.345  34.235  36.713  1.00  0.00    -0.034 C 
ATOM     73  H   UNL A   1      36.541  34.649  35.653  1.00  0.00     0.065 H 
ATOM     74  C   UNL A   1      37.938  30.631  30.847  1.00  0.00    -0.036 A 
ATOM     75  H   UNL A   1      36.328  31.987  31.047  1.00  0.00     0.065 H 
ATOM     76  C   UNL A   1      39.093  30.341  31.691  1.00  0.00     0.049 A 
ATOM     77  H   UNL A   1      39.524  31.138  33.566  1.00  0.00     0.167 HD
ATOM     78  C   UNL A   1      40.435  33.080  37.379  1.00  0.00     0.037 A 
ATOM     79  H   UNL A   1      38.293  34.896  37.505  1.00  0.00     0.065 H 
ATOM     80  H   UNL A   1      37.731  30.181  29.941  1.00  0.00     0.065 H 
ATOM     81  C   UNL A   1      40.087  29.486  31.385  1.00  0.00     0.037 A 
ATOM     82  C   UNL A   1      41.491  32.121  37.183  1.00  0.00     0.049 A 
ATOM     83  C   UNL A   1      41.218  29.294  32.361  1.00  0.00     0.074 A 
ATOM     84  C   UNL A   1      42.539  31.806  38.031  1.00  0.00    -0.036 A 
ATOM     85  N   UNL A   1      41.635  31.323  36.058  1.00  0.00    -0.354 N 
ATOM     86  N   UNL A   1      41.408  29.859  33.529  1.00  0.00    -0.248 NA
ATOM     87  C   UNL A   1      42.268  28.341  31.978  1.00  0.00    -0.034 C 
ATOM     88  C   UNL A   1      43.342  30.849  37.399  1.00  0.00    -0.036 A 
ATOM     89  H   UNL A   1      42.701  32.207  38.967  1.00  0.00     0.065 H 
ATOM     90  C   UNL A   1      42.766  30.532  36.180  1.00  0.00     0.049 A 
ATOM     91  H   UNL A   1      41.023  31.319  35.286  1.00  0.00     0.167 HD
ATOM     92  C   UNL A   1      42.582  29.312  34.029  1.00  0.00     0.074 A 
ATOM     93  C   UNL A   1      43.051  28.357  33.048  1.00  0.00    -0.034 C 
ATOM     94  H   UNL A   1      42.370  27.800  31.105  1.00  0.00     0.065 H 
ATOM     95  H   UNL A   1      44.215  30.449  37.777  1.00  0.00     0.065 H 
ATOM     96  C   UNL A   1      43.215  29.580  35.197  1.00  0.00     0.037 A 
ATOM     97  H   UNL A   1      43.886  27.764  33.167  1.00  0.00     0.065 H 
BRANCH  78  98
ATOM     98  C   UNL A   1      40.458  33.905  38.633  1.00  0.00     0.064 A 
ATOM     99  C   UNL A   1      41.185  35.103  38.710  1.00  0.00     0.173 A 
ATOM    100  C   UNL A   1      39.703  33.525  39.753  1.00  0.00     0.173 A 
ATOM    101  F   UNL A   1      41.932  35.506  37.671  1.00  0.00    -0.203 F 
ATOM    102  C   UNL A   1      41.171  35.878  39.866  1.00  0.00     0.198 A 
ATOM    103  C   UNL A   1      39.667  34.316  40.898  1.00  0.00     0.198 A 
ATOM    104  F   UNL A   1      38.984  32.392  39.730  1.00  0.00    -0.203 F 
ATOM    105  F   UNL A   1      41.904  36.998  39.930  1.00  0.00    -0.200 F 
ATOM    106  C   UNL A   1      40.406  35.488  40.956  1.00  0.00     0.200 A 
ATOM    107  F   UNL A   1      38.917  33.946  41.944  1.00  0.00    -0.200 F 
ATOM    108  F   UNL A   1      40.383  36.242  42.064  1.00  0.00    -0.200 F 
ENDBRANCH  78  98
BRANCH  81 109
ATOM    109  C   UNL A   1      40.062  28.741  30.099  1.00  0.00     0.064 A 
ATOM    110  C   UNL A   1      39.448  27.484  30.006  1.00  0.00     0.173 A 
ATOM    111  C   UNL A   1      40.668  29.258  28.945  1.00  0.00     0.173 A 
ATOM    112  F   UNL A   1      38.876  26.938  31.089  1.00  0.00    -0.203 F 
ATOM    113  C   UNL A   1      39.464  26.761  28.815  1.00  0.00     0.198 A 
ATOM    114  C   UNL A   1      40.656  28.548  27.746  1.00  0.00     0.198 A 
ATOM    115  F   UNL A   1      41.267  30.458  28.979  1.00  0.00    -0.203 F 
ATOM    116  F   UNL A   1      38.917  25.539  28.769  1.00  0.00    -0.200 F 
ATOM    117  C   UNL A   1      40.063  27.296  27.685  1.00  0.00     0.200 A 
ATOM    118  F   UNL A   1      41.225  29.074  26.653  1.00  0.00    -0.200 F 
ATOM    119  F   UNL A   1      40.079  26.600  26.539  1.00  0.00    -0.200 F 
ENDBRANCH  81 109
BRANCH  96 120
ATOM    120  C   UNL A   1      44.468  28.805  35.492  1.00  0.00     0.064 A 
ATOM    121  C   UNL A   1      44.431  27.574  36.163  1.00  0.00     0.173 A 
ATOM    122  C   UNL A   1      45.716  29.286  35.068  1.00  0.00     0.173 A 
ATOM    123  F   UNL A   1      43.264  27.080  36.603  1.00  0.00    -0.203 F 
ATOM    124  C   UNL A   1      45.601  26.865  36.422  1.00  0.00     0.198 A 
ATOM    125  C   UNL A   1      46.881  28.560  35.302  1.00  0.00     0.198 A 
ATOM    126  F   UNL A   1      45.805  30.455  34.416  1.00  0.00    -0.203 F 
ATOM    127  F   UNL A   1      45.547  25.715  37.109  1.00  0.00    -0.200 F 
ATOM    128  C   UNL A   1      46.823  27.354  35.985  1.00  0.00     0.200 A 
ATOM    129  F   UNL A   1      48.059  29.027  34.867  1.00  0.00    -0.200 F 
ATOM    130  F   UNL A   1      47.947  26.668  36.230  1.00  0.00    -0.200 F 
ENDBRANCH  96 120
ENDBRANCH  61  64
ENDBRANCH  51  54
ENDBRANCH  47  50
ENDBRANCH  44  47
ENDBRANCH  41  44
ENDBRANCH   1  41
TORSDOF 17
ENDMDL
MODEL 8
REMARK VINA RESULT:     -11.9      4.164      8.273
REMARK SMILES COc1ccc2cc([C@H](C)C(=O)NCCCCCCNC(=O)c3ccc(-c4c5nc(c(-c6c(F)c(F)c(F)c(F)c6F)c6ccc([nH]6)c(-c6c(F)c(F)c(F)c(F)c6F)c6nc(c(-c7c(F)c(F)c(F)c(F)c7F)c7ccc4[nH]7)C=C6)C=C5)cc3)ccc2c1
REMARK SMILES IDX 16 1 15 4 14 7 13 10 11 11 12 12 9 14 8 16 3 17 4 18 89 19
REMARK SMILES IDX 5 20 88 22 6 24 87 26 7 27 86 28 2 32 1 33 10 37 17 41 18 44
REMARK SMILES IDX 19 47 20 50 21 51 22 53 23 54 24 55 85 56 25 57 84 59 26 61
REMARK SMILES IDX 27 64 28 65 78 66 29 67 83 68 77 69 79 70 30 71 82 72 76 74
REMARK SMILES IDX 75 76 31 78 63 81 43 82 62 83 44 84 47 85 61 86 80 87 45 88
REMARK SMILES IDX 46 90 60 92 81 93 48 96 32 98 33 99 41 100 34 101 35 102
REMARK SMILES IDX 39 103 42 104 36 105 37 106 40 107 38 108 64 109 65 110
REMARK SMILES IDX 73 111 66 112 67 113 71 114 74 115 68 116 69 117 72 118
REMARK SMILES IDX 70 119 49 120 50 121 58 122 51 123 52 124 56 125 59 126
REMARK SMILES IDX 53 127 54 128 57 129 55 130
REMARK H PARENT 16 2 16 3 15 5 15 6 14 8 14 9 13 13 9 15 4 21 89 23 5 25 87 29
REMARK H PARENT 7 30 86 31 1 34 1 35 1 36 10 38 10 39 10 40 17 42 17 43 18 45
REMARK H PARENT 18 46 19 48 19 49 20 52 24 58 85 60 25 62 84 63 83 73 77 75
REMARK H PARENT 79 77 82 79 76 80 44 89 47 91 80 94 45 95 81 97
REMARK Flexibility Score: inf
ROOT
ATOM      1  C   UNL A   1      34.007  26.018  24.735  1.00  0.00    -0.052 C 
ATOM      2  H   UNL A   1      34.919  25.927  24.184  1.00  0.00     0.027 H 
ATOM      3  H   UNL A   1      33.129  25.770  24.175  1.00  0.00     0.027 H 
ENDROOT
BRANCH   1   4
ATOM      4  C   UNL A   1      33.844  27.486  25.131  1.00  0.00    -0.036 C 
ATOM      5  H   UNL A   1      34.206  27.599  26.132  1.00  0.00     0.028 H 
ATOM      6  H   UNL A   1      34.394  28.049  24.407  1.00  0.00     0.028 H 
BRANCH   4   7
ATOM      7  C   UNL A   1      32.418  28.024  25.084  1.00  0.00     0.017 C 
ATOM      8  H   UNL A   1      31.815  27.444  25.751  1.00  0.00     0.049 H 
ATOM      9  H   UNL A   1      32.458  29.055  25.369  1.00  0.00     0.049 H 
BRANCH   7  10
ATOM     10  N   UNL A   1      31.829  27.966  23.763  1.00  0.00    -0.356 N 
ATOM     11  C   UNL A   1      30.616  27.468  23.378  1.00  0.00     0.227 C 
ATOM     12  O   UNL A   1      30.279  27.639  22.201  1.00  0.00    -0.274 OA
ATOM     13  H   UNL A   1      32.381  28.339  23.039  1.00  0.00     0.163 HD
BRANCH  11  14
ATOM     14  C   UNL A   1      29.695  26.711  24.352  1.00  0.00     0.060 C 
ATOM     15  H   UNL A   1      29.629  27.250  25.274  1.00  0.00     0.045 H 
BRANCH  14  16
ATOM     16  C   UNL A   1      30.303  25.382  24.791  1.00  0.00    -0.035 A 
ATOM     17  C   UNL A   1      32.166  20.654  24.766  1.00  0.00     0.119 A 
ATOM     18  C   UNL A   1      32.306  21.117  23.461  1.00  0.00    -0.019 A 
ATOM     19  C   UNL A   1      31.617  21.471  25.751  1.00  0.00    -0.012 A 
ATOM     20  C   UNL A   1      31.886  22.409  23.139  1.00  0.00    -0.051 A 
ATOM     21  H   UNL A   1      32.717  20.508  22.736  1.00  0.00     0.066 H 
ATOM     22  C   UNL A   1      31.223  22.781  25.445  1.00  0.00    -0.015 A 
ATOM     23  H   UNL A   1      31.501  21.111  26.710  1.00  0.00     0.067 H 
ATOM     24  C   UNL A   1      31.328  23.249  24.118  1.00  0.00    -0.018 A 
ATOM     25  H   UNL A   1      31.988  22.753  22.171  1.00  0.00     0.063 H 
ATOM     26  C   UNL A   1      30.725  23.637  26.434  1.00  0.00    -0.054 A 
ATOM     27  C   UNL A   1      30.848  24.534  23.807  1.00  0.00    -0.050 A 
ATOM     28  C   UNL A   1      30.302  24.929  26.116  1.00  0.00    -0.058 A 
ATOM     29  H   UNL A   1      30.669  23.308  27.411  1.00  0.00     0.063 H 
ATOM     30  H   UNL A   1      30.896  24.865  22.830  1.00  0.00     0.063 H 
ATOM     31  H   UNL A   1      29.984  25.560  26.868  1.00  0.00     0.063 H 
BRANCH  17  32
ATOM     32  O   UNL A   1      32.477  19.368  25.118  1.00  0.00    -0.497 OA
BRANCH  32  33
ATOM     33  C   UNL A   1      33.693  18.941  24.508  1.00  0.00     0.078 C 
ATOM     34  H   UNL A   1      33.471  18.338  23.652  1.00  0.00     0.067 H 
ATOM     35  H   UNL A   1      34.262  18.367  25.210  1.00  0.00     0.067 H 
ATOM     36  H   UNL A   1      34.260  19.796  24.205  1.00  0.00     0.067 H 
ENDBRANCH  32  33
ENDBRANCH  17  32
ENDBRANCH  14  16
BRANCH  14  37
ATOM     37  C   UNL A   1      28.235  26.704  23.876  1.00  0.00    -0.049 C 
ATOM     38  H   UNL A   1      27.588  26.892  24.707  1.00  0.00     0.024 H 
ATOM     39  H   UNL A   1      28.003  25.750  23.451  1.00  0.00     0.024 H 
ATOM     40  H   UNL A   1      28.098  27.466  23.138  1.00  0.00     0.024 H 
ENDBRANCH  14  37
ENDBRANCH  11  14
ENDBRANCH   7  10
ENDBRANCH   4   7
ENDBRANCH   1   4
BRANCH   1  41
ATOM     41  C   UNL A   1      34.056  25.015  25.892  1.00  0.00    -0.052 C 
ATOM     42  H   UNL A   1      33.059  24.667  26.065  1.00  0.00     0.027 H 
ATOM     43  H   UNL A   1      34.486  25.547  26.714  1.00  0.00     0.027 H 
BRANCH  41  44
ATOM     44  C   UNL A   1      34.948  23.788  25.686  1.00  0.00    -0.036 C 
ATOM     45  H   UNL A   1      34.530  23.207  24.891  1.00  0.00     0.028 H 
ATOM     46  H   UNL A   1      34.970  23.284  26.629  1.00  0.00     0.028 H 
BRANCH  44  47
ATOM     47  C   UNL A   1      36.406  24.078  25.338  1.00  0.00     0.018 C 
ATOM     48  H   UNL A   1      36.739  24.909  25.925  1.00  0.00     0.049 H 
ATOM     49  H   UNL A   1      36.451  24.289  24.290  1.00  0.00     0.049 H 
BRANCH  47  50
ATOM     50  N   UNL A   1      37.284  22.950  25.594  1.00  0.00    -0.352 N 
ATOM     51  C   UNL A   1      38.525  22.915  26.178  1.00  0.00     0.251 C 
ATOM     52  H   UNL A   1      36.935  22.077  25.304  1.00  0.00     0.163 HD
ATOM     53  O   UNL A   1      39.173  21.873  26.182  1.00  0.00    -0.269 OA
BRANCH  51  54
ATOM     54  C   UNL A   1      39.104  24.136  26.781  1.00  0.00     0.039 A 
ATOM     55  C   UNL A   1      39.884  24.973  25.978  1.00  0.00    -0.049 A 
ATOM     56  C   UNL A   1      38.904  24.449  28.128  1.00  0.00    -0.049 A 
ATOM     57  C   UNL A   1      40.402  26.158  26.504  1.00  0.00    -0.053 A 
ATOM     58  H   UNL A   1      40.077  24.715  24.997  1.00  0.00     0.063 H 
ATOM     59  C   UNL A   1      39.368  25.662  28.636  1.00  0.00    -0.053 A 
ATOM     60  H   UNL A   1      38.412  23.784  28.746  1.00  0.00     0.063 H 
ATOM     61  C   UNL A   1      40.116  26.531  27.827  1.00  0.00    -0.014 A 
ATOM     62  H   UNL A   1      40.998  26.764  25.918  1.00  0.00     0.063 H 
ATOM     63  H   UNL A   1      39.159  25.922  29.612  1.00  0.00     0.063 H 
BRANCH  61  64
ATOM     64  C   UNL A   1      40.570  27.836  28.374  1.00  0.00     0.031 A 
ATOM     65  C   UNL A   1      42.012  28.045  28.742  1.00  0.00     0.074 A 
ATOM     66  C   UNL A   1      39.668  28.810  28.603  1.00  0.00     0.049 A 
ATOM     67  N   UNL A   1      42.579  29.077  29.316  1.00  0.00    -0.248 NA
ATOM     68  C   UNL A   1      42.937  26.941  28.443  1.00  0.00    -0.034 C 
ATOM     69  C   UNL A   1      38.233  28.716  28.322  1.00  0.00    -0.036 A 
ATOM     70  N   UNL A   1      39.818  30.065  29.139  1.00  0.00    -0.354 N 
ATOM     71  C   UNL A   1      43.920  28.743  29.457  1.00  0.00     0.074 A 
ATOM     72  C   UNL A   1      44.074  27.396  28.950  1.00  0.00    -0.034 C 
ATOM     73  H   UNL A   1      42.749  26.046  27.965  1.00  0.00     0.065 H 
ATOM     74  C   UNL A   1      37.640  29.866  28.677  1.00  0.00    -0.036 A 
ATOM     75  H   UNL A   1      37.756  27.896  27.918  1.00  0.00     0.065 H 
ATOM     76  C   UNL A   1      38.641  30.763  29.248  1.00  0.00     0.049 A 
ATOM     77  H   UNL A   1      40.689  30.431  29.418  1.00  0.00     0.167 HD
ATOM     78  C   UNL A   1      44.932  29.499  29.945  1.00  0.00     0.037 A 
ATOM     79  H   UNL A   1      44.955  26.858  28.981  1.00  0.00     0.065 H 
ATOM     80  H   UNL A   1      36.636  30.082  28.566  1.00  0.00     0.065 H 
ATOM     81  C   UNL A   1      38.392  31.982  29.764  1.00  0.00     0.037 A 
ATOM     82  C   UNL A   1      44.778  30.846  30.430  1.00  0.00     0.049 A 
ATOM     83  C   UNL A   1      39.533  32.791  30.320  1.00  0.00     0.074 A 
ATOM     84  C   UNL A   1      45.753  31.710  30.899  1.00  0.00    -0.036 A 
ATOM     85  N   UNL A   1      43.572  31.524  30.512  1.00  0.00    -0.354 N 
ATOM     86  N   UNL A   1      40.805  32.486  30.394  1.00  0.00    -0.248 NA
ATOM     87  C   UNL A   1      39.202  34.117  30.859  1.00  0.00    -0.034 C 
ATOM     88  C   UNL A   1      45.130  32.895  31.306  1.00  0.00    -0.036 A 
ATOM     89  H   UNL A   1      46.765  31.515  30.941  1.00  0.00     0.065 H 
ATOM     90  C   UNL A   1      43.774  32.788  31.043  1.00  0.00     0.049 A 
ATOM     91  H   UNL A   1      42.700  31.162  30.233  1.00  0.00     0.167 HD
ATOM     92  C   UNL A   1      41.429  33.589  30.962  1.00  0.00     0.074 A 
ATOM     93  C   UNL A   1      40.398  34.578  31.197  1.00  0.00    -0.034 C 
ATOM     94  H   UNL A   1      38.280  34.571  30.952  1.00  0.00     0.065 H 
ATOM     95  H   UNL A   1      45.600  33.710  31.729  1.00  0.00     0.065 H 
ATOM     96  C   UNL A   1      42.738  33.765  31.264  1.00  0.00     0.037 A 
ATOM     97  H   UNL A   1      40.573  35.521  31.577  1.00  0.00     0.065 H 
BRANCH  78  98
ATOM     98  C   UNL A   1      46.304  28.891  29.976  1.00  0.00     0.064 A 
ATOM     99  C   UNL A   1      46.761  28.169  31.088  1.00  0.00     0.173 A 
ATOM    100  C   UNL A   1      47.152  28.984  28.861  1.00  0.00     0.173 A 
ATOM    101  F   UNL A   1      45.994  28.060  32.184  1.00  0.00    -0.203 F 
ATOM    102  C   UNL A   1      48.023  27.581  31.092  1.00  0.00     0.198 A 
ATOM    103  C   UNL A   1      48.401  28.370  28.857  1.00  0.00     0.198 A 
ATOM    104  F   UNL A   1      46.760  29.658  27.768  1.00  0.00    -0.203 F 
ATOM    105  F   UNL A   1      48.454  26.929  32.181  1.00  0.00    -0.200 F 
ATOM    106  C   UNL A   1      48.838  27.674  29.974  1.00  0.00     0.200 A 
ATOM    107  F   UNL A   1      49.182  28.449  27.771  1.00  0.00    -0.200 F 
ATOM    108  F   UNL A   1      50.047  27.096  29.974  1.00  0.00    -0.200 F 
ENDBRANCH  78  98
BRANCH  81 109
ATOM    109  C   UNL A   1      37.005  32.517  29.778  1.00  0.00     0.064 A 
ATOM    110  C   UNL A   1      36.498  33.237  28.687  1.00  0.00     0.173 A 
ATOM    111  C   UNL A   1      36.166  32.340  30.889  1.00  0.00     0.173 A 
ATOM    112  F   UNL A   1      37.271  33.452  27.612  1.00  0.00    -0.203 F 
ATOM    113  C   UNL A   1      35.216  33.781  28.715  1.00  0.00     0.198 A 
ATOM    114  C   UNL A   1      34.873  32.859  30.904  1.00  0.00     0.198 A 
ATOM    115  F   UNL A   1      36.601  31.657  31.958  1.00  0.00    -0.203 F 
ATOM    116  F   UNL A   1      34.778  34.510  27.681  1.00  0.00    -0.200 F 
ATOM    117  C   UNL A   1      34.403  33.587  29.822  1.00  0.00     0.200 A 
ATOM    118  F   UNL A   1      34.086  32.658  31.969  1.00  0.00    -0.200 F 
ATOM    119  F   UNL A   1      33.170  34.112  29.850  1.00  0.00    -0.200 F 
ENDBRANCH  81 109
BRANCH  96 120
ATOM    120  C   UNL A   1      43.136  35.088  31.851  1.00  0.00     0.064 A 
ATOM    121  C   UNL A   1      43.063  35.333  33.231  1.00  0.00     0.173 A 
ATOM    122  C   UNL A   1      43.628  36.112  31.027  1.00  0.00     0.173 A 
ATOM    123  F   UNL A   1      42.583  34.393  34.058  1.00  0.00    -0.203 F 
ATOM    124  C   UNL A   1      43.441  36.564  33.759  1.00  0.00     0.198 A 
ATOM    125  C   UNL A   1      44.036  37.330  31.563  1.00  0.00     0.198 A 
ATOM    126  F   UNL A   1      43.725  35.925  29.702  1.00  0.00    -0.203 F 
ATOM    127  F   UNL A   1      43.315  36.794  35.074  1.00  0.00    -0.200 F 
ATOM    128  C   UNL A   1      43.935  37.558  32.927  1.00  0.00     0.200 A 
ATOM    129  F   UNL A   1      44.525  38.284  30.759  1.00  0.00    -0.200 F 
ATOM    130  F   UNL A   1      44.306  38.739  33.439  1.00  0.00    -0.200 F 
ENDBRANCH  96 120
ENDBRANCH  61  64
ENDBRANCH  51  54
ENDBRANCH  47  50
ENDBRANCH  44  47
ENDBRANCH  41  44
ENDBRANCH   1  41
TORSDOF 17
ENDMDL
MODEL 9
REMARK VINA RESULT:     -11.8      5.942     10.386
REMARK SMILES COc1ccc2cc([C@H](C)C(=O)NCCCCCCNC(=O)c3ccc(-c4c5nc(c(-c6c(F)c(F)c(F)c(F)c6F)c6ccc([nH]6)c(-c6c(F)c(F)c(F)c(F)c6F)c6nc(c(-c7c(F)c(F)c(F)c(F)c7F)c7ccc4[nH]7)C=C6)C=C5)cc3)ccc2c1
REMARK SMILES IDX 16 1 15 4 14 7 13 10 11 11 12 12 9 14 8 16 3 17 4 18 89 19
REMARK SMILES IDX 5 20 88 22 6 24 87 26 7 27 86 28 2 32 1 33 10 37 17 41 18 44
REMARK SMILES IDX 19 47 20 50 21 51 22 53 23 54 24 55 85 56 25 57 84 59 26 61
REMARK SMILES IDX 27 64 28 65 78 66 29 67 83 68 77 69 79 70 30 71 82 72 76 74
REMARK SMILES IDX 75 76 31 78 63 81 43 82 62 83 44 84 47 85 61 86 80 87 45 88
REMARK SMILES IDX 46 90 60 92 81 93 48 96 32 98 33 99 41 100 34 101 35 102
REMARK SMILES IDX 39 103 42 104 36 105 37 106 40 107 38 108 64 109 65 110
REMARK SMILES IDX 73 111 66 112 67 113 71 114 74 115 68 116 69 117 72 118
REMARK SMILES IDX 70 119 49 120 50 121 58 122 51 123 52 124 56 125 59 126
REMARK SMILES IDX 53 127 54 128 57 129 55 130
REMARK H PARENT 16 2 16 3 15 5 15 6 14 8 14 9 13 13 9 15 4 21 89 23 5 25 87 29
REMARK H PARENT 7 30 86 31 1 34 1 35 1 36 10 38 10 39 10 40 17 42 17 43 18 45
REMARK H PARENT 18 46 19 48 19 49 20 52 24 58 85 60 25 62 84 63 83 73 77 75
REMARK H PARENT 79 77 82 79 76 80 44 89 47 91 80 94 45 95 81 97
REMARK Flexibility Score: inf
ROOT
ATOM      1  C   UNL A   1      36.404  21.851  24.268  1.00  0.00    -0.052 C 
ATOM      2  H   UNL A   1      37.069  21.871  23.431  1.00  0.00     0.027 H 
ATOM      3  H   UNL A   1      35.367  21.873  24.004  1.00  0.00     0.027 H 
ENDROOT
BRANCH   1   4
ATOM      4  C   UNL A   1      36.647  23.116  25.092  1.00  0.00    -0.036 C 
ATOM      5  H   UNL A   1      36.722  22.830  26.120  1.00  0.00     0.028 H 
ATOM      6  H   UNL A   1      37.540  23.555  24.699  1.00  0.00     0.028 H 
BRANCH   4   7
ATOM      7  C   UNL A   1      35.570  24.189  24.980  1.00  0.00     0.017 C 
ATOM      8  H   UNL A   1      34.745  23.907  25.599  1.00  0.00     0.049 H 
ATOM      9  H   UNL A   1      36.009  25.114  25.289  1.00  0.00     0.049 H 
BRANCH   7  10
ATOM     10  N   UNL A   1      35.086  24.375  23.628  1.00  0.00    -0.356 N 
ATOM     11  C   UNL A   1      33.809  24.303  23.148  1.00  0.00     0.227 C 
ATOM     12  O   UNL A   1      33.627  24.620  21.968  1.00  0.00    -0.274 OA
ATOM     13  H   UNL A   1      35.777  24.584  22.958  1.00  0.00     0.163 HD
BRANCH  11  14
ATOM     14  C   UNL A   1      32.631  23.836  24.023  1.00  0.00     0.060 C 
ATOM     15  H   UNL A   1      32.626  24.388  24.940  1.00  0.00     0.045 H 
BRANCH  14  16
ATOM     16  C   UNL A   1      32.816  22.399  24.505  1.00  0.00    -0.035 A 
ATOM     17  C   UNL A   1      32.674  17.329  24.814  1.00  0.00     0.119 A 
ATOM     18  C   UNL A   1      32.525  17.624  23.463  1.00  0.00    -0.019 A 
ATOM     19  C   UNL A   1      32.834  18.350  25.747  1.00  0.00    -0.012 A 
ATOM     20  C   UNL A   1      32.529  18.957  23.042  1.00  0.00    -0.051 A 
ATOM     21  H   UNL A   1      32.410  16.863  22.774  1.00  0.00     0.066 H 
ATOM     22  C   UNL A   1      32.873  19.689  25.332  1.00  0.00    -0.015 A 
ATOM     23  H   UNL A   1      32.925  18.121  26.749  1.00  0.00     0.067 H 
ATOM     24  C   UNL A   1      32.687  20.002  23.969  1.00  0.00    -0.018 A 
ATOM     25  H   UNL A   1      32.417  19.177  22.041  1.00  0.00     0.063 H 
ATOM     26  C   UNL A   1      33.092  20.724  26.248  1.00  0.00    -0.054 A 
ATOM     27  C   UNL A   1      32.641  21.352  23.579  1.00  0.00    -0.050 A 
ATOM     28  C   UNL A   1      33.096  22.058  25.833  1.00  0.00    -0.058 A 
ATOM     29  H   UNL A   1      33.254  20.500  27.243  1.00  0.00     0.063 H 
ATOM     30  H   UNL A   1      32.473  21.582  22.587  1.00  0.00     0.063 H 
ATOM     31  H   UNL A   1      33.309  22.802  26.515  1.00  0.00     0.063 H 
BRANCH  17  32
ATOM     32  O   UNL A   1      32.588  16.049  25.291  1.00  0.00    -0.497 OA
BRANCH  32  33
ATOM     33  C   UNL A   1      33.873  15.437  25.376  1.00  0.00     0.078 C 
ATOM     34  H   UNL A   1      33.918  14.607  24.701  1.00  0.00     0.067 H 
ATOM     35  H   UNL A   1      34.038  15.093  26.376  1.00  0.00     0.067 H 
ATOM     36  H   UNL A   1      34.626  16.150  25.115  1.00  0.00     0.067 H 
ENDBRANCH  32  33
ENDBRANCH  17  32
ENDBRANCH  14  16
BRANCH  14  37
ATOM     37  C   UNL A   1      31.275  24.214  23.411  1.00  0.00    -0.049 C 
ATOM     38  H   UNL A   1      30.970  25.170  23.782  1.00  0.00     0.024 H 
ATOM     39  H   UNL A   1      30.546  23.478  23.677  1.00  0.00     0.024 H 
ATOM     40  H   UNL A   1      31.365  24.257  22.346  1.00  0.00     0.024 H 
ENDBRANCH  14  37
ENDBRANCH  11  14
ENDBRANCH   7  10
ENDBRANCH   4   7
ENDBRANCH   1   4
BRANCH   1  41
ATOM     41  C   UNL A   1      36.615  20.524  25.003  1.00  0.00    -0.052 C 
ATOM     42  H   UNL A   1      35.879  19.832  24.647  1.00  0.00     0.027 H 
ATOM     43  H   UNL A   1      36.532  20.756  26.044  1.00  0.00     0.027 H 
BRANCH  41  44
ATOM     44  C   UNL A   1      37.988  19.869  24.837  1.00  0.00    -0.036 C 
ATOM     45  H   UNL A   1      38.403  20.205  23.909  1.00  0.00     0.028 H 
ATOM     46  H   UNL A   1      37.815  18.814  24.880  1.00  0.00     0.028 H 
BRANCH  44  47
ATOM     47  C   UNL A   1      39.004  20.167  25.938  1.00  0.00     0.018 C 
ATOM     48  H   UNL A   1      38.497  20.157  26.880  1.00  0.00     0.049 H 
ATOM     49  H   UNL A   1      39.434  21.123  25.728  1.00  0.00     0.049 H 
BRANCH  47  50
ATOM     50  N   UNL A   1      40.087  19.201  25.984  1.00  0.00    -0.352 N 
ATOM     51  C   UNL A   1      41.438  19.399  26.127  1.00  0.00     0.251 C 
ATOM     52  H   UNL A   1      39.811  18.260  25.900  1.00  0.00     0.163 HD
ATOM     53  O   UNL A   1      42.213  18.456  26.005  1.00  0.00    -0.269 OA
BRANCH  51  54
ATOM     54  C   UNL A   1      41.972  20.752  26.401  1.00  0.00     0.039 A 
ATOM     55  C   UNL A   1      42.204  21.609  25.322  1.00  0.00    -0.049 A 
ATOM     56  C   UNL A   1      42.263  21.171  27.702  1.00  0.00    -0.049 A 
ATOM     57  C   UNL A   1      42.659  22.910  25.551  1.00  0.00    -0.053 A 
ATOM     58  H   UNL A   1      42.039  21.282  24.356  1.00  0.00     0.063 H 
ATOM     59  C   UNL A   1      42.658  22.488  27.935  1.00  0.00    -0.053 A 
ATOM     60  H   UNL A   1      42.187  20.507  28.488  1.00  0.00     0.063 H 
ATOM     61  C   UNL A   1      42.853  23.372  26.862  1.00  0.00    -0.014 A 
ATOM     62  H   UNL A   1      42.853  23.535  24.753  1.00  0.00     0.063 H 
ATOM     63  H   UNL A   1      42.807  22.815  28.902  1.00  0.00     0.063 H 
BRANCH  61  64
ATOM     64  C   UNL A   1      43.237  24.782  27.132  1.00  0.00     0.031 A 
ATOM     65  C   UNL A   1      44.646  25.245  26.890  1.00  0.00     0.074 A 
ATOM     66  C   UNL A   1      42.331  25.627  27.661  1.00  0.00     0.049 A 
ATOM     67  N   UNL A   1      45.192  26.406  27.152  1.00  0.00    -0.248 NA
ATOM     68  C   UNL A   1      45.570  24.268  26.294  1.00  0.00    -0.034 C 
ATOM     69  C   UNL A   1      40.941  25.287  27.975  1.00  0.00    -0.036 A 
ATOM     70  N   UNL A   1      42.445  26.941  28.043  1.00  0.00    -0.354 N 
ATOM     71  C   UNL A   1      46.521  26.296  26.763  1.00  0.00     0.074 A 
ATOM     72  C   UNL A   1      46.711  24.941  26.291  1.00  0.00    -0.034 C 
ATOM     73  H   UNL A   1      45.378  23.309  25.965  1.00  0.00     0.065 H 
ATOM     74  C   UNL A   1      40.331  26.366  28.490  1.00  0.00    -0.036 A 
ATOM     75  H   UNL A   1      40.503  24.366  27.825  1.00  0.00     0.065 H 
ATOM     76  C   UNL A   1      41.293  27.460  28.581  1.00  0.00     0.049 A 
ATOM     77  H   UNL A   1      43.274  27.462  27.940  1.00  0.00     0.167 HD
ATOM     78  C   UNL A   1      47.487  27.245  26.780  1.00  0.00     0.037 A 
ATOM     79  H   UNL A   1      47.619  24.550  25.991  1.00  0.00     0.065 H 
ATOM     80  H   UNL A   1      39.340  26.415  28.777  1.00  0.00     0.065 H 
ATOM     81  C   UNL A   1      41.044  28.676  29.105  1.00  0.00     0.037 A 
ATOM     82  C   UNL A   1      47.290  28.598  27.232  1.00  0.00     0.049 A 
ATOM     83  C   UNL A   1      42.144  29.704  29.131  1.00  0.00     0.074 A 
ATOM     84  C   UNL A   1      48.196  29.645  27.242  1.00  0.00    -0.036 A 
ATOM     85  N   UNL A   1      46.106  29.091  27.758  1.00  0.00    -0.354 N 
ATOM     86  N   UNL A   1      43.380  29.604  28.707  1.00  0.00    -0.248 NA
ATOM     87  C   UNL A   1      41.810  31.015  29.704  1.00  0.00    -0.034 C 
ATOM     88  C   UNL A   1      47.572  30.759  27.814  1.00  0.00    -0.036 A 
ATOM     89  H   UNL A   1      49.164  29.610  26.887  1.00  0.00     0.065 H 
ATOM     90  C   UNL A   1      46.263  30.420  28.115  1.00  0.00     0.049 A 
ATOM     91  H   UNL A   1      45.275  28.572  27.862  1.00  0.00     0.167 HD
ATOM     92  C   UNL A   1      43.963  30.843  28.937  1.00  0.00     0.074 A 
ATOM     93  C   UNL A   1      42.940  31.685  29.521  1.00  0.00    -0.034 C 
ATOM     94  H   UNL A   1      40.928  31.331  30.136  1.00  0.00     0.065 H 
ATOM     95  H   UNL A   1      48.012  31.676  27.985  1.00  0.00     0.065 H 
ATOM     96  C   UNL A   1      45.232  31.247  28.689  1.00  0.00     0.037 A 
ATOM     97  H   UNL A   1      43.072  32.678  29.763  1.00  0.00     0.065 H 
BRANCH  78  98
ATOM     98  C   UNL A   1      48.853  26.859  26.289  1.00  0.00     0.064 A 
ATOM     99  C   UNL A   1      49.225  27.030  24.947  1.00  0.00     0.173 A 
ATOM    100  C   UNL A   1      49.819  26.365  27.179  1.00  0.00     0.173 A 
ATOM    101  F   UNL A   1      48.335  27.490  24.053  1.00  0.00    -0.203 F 
ATOM    102  C   UNL A   1      50.505  26.701  24.510  1.00  0.00     0.198 A 
ATOM    103  C   UNL A   1      51.107  26.065  26.746  1.00  0.00     0.198 A 
ATOM    104  F   UNL A   1      49.516  26.189  28.475  1.00  0.00    -0.203 F 
ATOM    105  F   UNL A   1      50.826  26.836  23.216  1.00  0.00    -0.200 F 
ATOM    106  C   UNL A   1      51.447  26.227  25.411  1.00  0.00     0.200 A 
ATOM    107  F   UNL A   1      52.020  25.620  27.619  1.00  0.00    -0.200 F 
ATOM    108  F   UNL A   1      52.684  25.924  24.992  1.00  0.00    -0.200 F 
ENDBRANCH  78  98
BRANCH  81 109
ATOM    109  C   UNL A   1      39.697  28.993  29.646  1.00  0.00     0.064 A 
ATOM    110  C   UNL A   1      39.397  28.788  31.000  1.00  0.00     0.173 A 
ATOM    111  C   UNL A   1      38.676  29.487  28.819  1.00  0.00     0.173 A 
ATOM    112  F   UNL A   1      40.333  28.295  31.824  1.00  0.00    -0.203 F 
ATOM    113  C   UNL A   1      38.121  29.038  31.502  1.00  0.00     0.198 A 
ATOM    114  C   UNL A   1      37.410  29.766  29.329  1.00  0.00     0.198 A 
ATOM    115  F   UNL A   1      38.911  29.704  27.517  1.00  0.00    -0.203 F 
ATOM    116  F   UNL A   1      37.848  28.782  32.788  1.00  0.00    -0.200 F 
ATOM    117  C   UNL A   1      37.131  29.532  30.667  1.00  0.00     0.200 A 
ATOM    118  F   UNL A   1      36.459  30.257  28.522  1.00  0.00    -0.200 F 
ATOM    119  F   UNL A   1      35.903  29.772  31.149  1.00  0.00    -0.200 F 
ENDBRANCH  81 109
BRANCH  96 120
ATOM    120  C   UNL A   1      45.577  32.671  29.018  1.00  0.00     0.064 A 
ATOM    121  C   UNL A   1      45.369  33.710  28.099  1.00  0.00     0.173 A 
ATOM    122  C   UNL A   1      46.091  33.003  30.281  1.00  0.00     0.173 A 
ATOM    123  F   UNL A   1      44.897  33.441  26.873  1.00  0.00    -0.203 F 
ATOM    124  C   UNL A   1      45.689  35.026  28.423  1.00  0.00     0.198 A 
ATOM    125  C   UNL A   1      46.379  34.323  30.613  1.00  0.00     0.198 A 
ATOM    126  F   UNL A   1      46.300  32.047  31.198  1.00  0.00    -0.203 F 
ATOM    127  F   UNL A   1      45.529  35.996  27.512  1.00  0.00    -0.200 F 
ATOM    128  C   UNL A   1      46.185  35.332  29.681  1.00  0.00     0.200 A 
ATOM    129  F   UNL A   1      46.846  34.619  31.833  1.00  0.00    -0.200 F 
ATOM    130  F   UNL A   1      46.485  36.600  29.994  1.00  0.00    -0.200 F 
ENDBRANCH  96 120
ENDBRANCH  61  64
ENDBRANCH  51  54
ENDBRANCH  47  50
ENDBRANCH  44  47
ENDBRANCH  41  44
ENDBRANCH   1  41
TORSDOF 17
ENDMDL
MODEL 10
REMARK VINA RESULT:     -11.8      0.920      7.493
REMARK SMILES COc1ccc2cc([C@H](C)C(=O)NCCCCCCNC(=O)c3ccc(-c4c5nc(c(-c6c(F)c(F)c(F)c(F)c6F)c6ccc([nH]6)c(-c6c(F)c(F)c(F)c(F)c6F)c6nc(c(-c7c(F)c(F)c(F)c(F)c7F)c7ccc4[nH]7)C=C6)C=C5)cc3)ccc2c1
REMARK SMILES IDX 16 1 15 4 14 7 13 10 11 11 12 12 9 14 8 16 3 17 4 18 89 19
REMARK SMILES IDX 5 20 88 22 6 24 87 26 7 27 86 28 2 32 1 33 10 37 17 41 18 44
REMARK SMILES IDX 19 47 20 50 21 51 22 53 23 54 24 55 85 56 25 57 84 59 26 61
REMARK SMILES IDX 27 64 28 65 78 66 29 67 83 68 77 69 79 70 30 71 82 72 76 74
REMARK SMILES IDX 75 76 31 78 63 81 43 82 62 83 44 84 47 85 61 86 80 87 45 88
REMARK SMILES IDX 46 90 60 92 81 93 48 96 32 98 33 99 41 100 34 101 35 102
REMARK SMILES IDX 39 103 42 104 36 105 37 106 40 107 38 108 64 109 65 110
REMARK SMILES IDX 73 111 66 112 67 113 71 114 74 115 68 116 69 117 72 118
REMARK SMILES IDX 70 119 49 120 50 121 58 122 51 123 52 124 56 125 59 126
REMARK SMILES IDX 53 127 54 128 57 129 55 130
REMARK H PARENT 16 2 16 3 15 5 15 6 14 8 14 9 13 13 9 15 4 21 89 23 5 25 87 29
REMARK H PARENT 7 30 86 31 1 34 1 35 1 36 10 38 10 39 10 40 17 42 17 43 18 45
REMARK H PARENT 18 46 19 48 19 49 20 52 24 58 85 60 25 62 84 63 83 73 77 75
REMARK H PARENT 79 77 82 79 76 80 44 89 47 91 80 94 45 95 81 97
REMARK Flexibility Score: inf
ROOT
ATOM      1  C   UNL A   1      31.813  29.352  26.901  1.00  0.00    -0.052 C 
ATOM      2  H   UNL A   1      32.021  29.790  27.854  1.00  0.00     0.027 H 
ATOM      3  H   UNL A   1      30.931  28.746  26.881  1.00  0.00     0.027 H 
ENDROOT
BRANCH   1   4
ATOM      4  C   UNL A   1      32.969  28.413  26.554  1.00  0.00    -0.036 C 
ATOM      5  H   UNL A   1      33.286  28.637  25.557  1.00  0.00     0.028 H 
ATOM      6  H   UNL A   1      33.720  28.585  27.295  1.00  0.00     0.028 H 
BRANCH   4   7
ATOM      7  C   UNL A   1      32.647  26.925  26.621  1.00  0.00     0.017 C 
ATOM      8  H   UNL A   1      32.636  26.626  27.648  1.00  0.00     0.049 H 
ATOM      9  H   UNL A   1      31.696  26.784  26.150  1.00  0.00     0.049 H 
BRANCH   7  10
ATOM     10  N   UNL A   1      33.602  26.100  25.912  1.00  0.00    -0.356 N 
ATOM     11  C   UNL A   1      33.440  25.386  24.757  1.00  0.00     0.227 C 
ATOM     12  O   UNL A   1      34.443  24.849  24.277  1.00  0.00    -0.274 OA
ATOM     13  H   UNL A   1      34.496  26.045  26.320  1.00  0.00     0.163 HD
BRANCH  11  14
ATOM     14  C   UNL A   1      32.069  25.235  24.073  1.00  0.00     0.060 C 
ATOM     15  H   UNL A   1      32.185  24.695  23.157  1.00  0.00     0.045 H 
BRANCH  14  16
ATOM     16  C   UNL A   1      31.521  26.578  23.596  1.00  0.00    -0.035 A 
ATOM     17  C   UNL A   1      28.390  30.256  22.018  1.00  0.00     0.119 A 
ATOM     18  C   UNL A   1      27.585  29.347  22.698  1.00  0.00    -0.019 A 
ATOM     19  C   UNL A   1      29.762  30.042  21.909  1.00  0.00    -0.012 A 
ATOM     20  C   UNL A   1      28.159  28.208  23.268  1.00  0.00    -0.051 A 
ATOM     21  H   UNL A   1      26.569  29.513  22.780  1.00  0.00     0.066 H 
ATOM     22  C   UNL A   1      30.352  28.918  22.505  1.00  0.00    -0.015 A 
ATOM     23  H   UNL A   1      30.346  30.712  21.386  1.00  0.00     0.067 H 
ATOM     24  C   UNL A   1      29.541  27.972  23.166  1.00  0.00    -0.018 A 
ATOM     25  H   UNL A   1      27.562  27.533  23.771  1.00  0.00     0.063 H 
ATOM     26  C   UNL A   1      31.736  28.717  22.456  1.00  0.00    -0.054 A 
ATOM     27  C   UNL A   1      30.134  26.807  23.683  1.00  0.00    -0.050 A 
ATOM     28  C   UNL A   1      32.314  27.578  23.022  1.00  0.00    -0.058 A 
ATOM     29  H   UNL A   1      32.338  29.418  21.995  1.00  0.00     0.063 H 
ATOM     30  H   UNL A   1      29.537  26.099  24.140  1.00  0.00     0.063 H 
ATOM     31  H   UNL A   1      33.341  27.474  23.018  1.00  0.00     0.063 H 
BRANCH  17  32
ATOM     32  O   UNL A   1      27.870  31.340  21.366  1.00  0.00    -0.497 OA
BRANCH  32  33
ATOM     33  C   UNL A   1      28.336  32.563  21.932  1.00  0.00     0.078 C 
ATOM     34  H   UNL A   1      29.403  32.536  22.010  1.00  0.00     0.067 H 
ATOM     35  H   UNL A   1      27.910  32.689  22.907  1.00  0.00     0.067 H 
ATOM     36  H   UNL A   1      28.044  33.380  21.307  1.00  0.00     0.067 H 
ENDBRANCH  32  33
ENDBRANCH  17  32
ENDBRANCH  14  16
BRANCH  14  37
ATOM     37  C   UNL A   1      31.126  24.323  24.871  1.00  0.00    -0.049 C 
ATOM     38  H   UNL A   1      30.702  24.874  25.685  1.00  0.00     0.024 H 
ATOM     39  H   UNL A   1      31.676  23.489  25.252  1.00  0.00     0.024 H 
ATOM     40  H   UNL A   1      30.344  23.974  24.230  1.00  0.00     0.024 H 
ENDBRANCH  14  37
ENDBRANCH  11  14
ENDBRANCH   7  10
ENDBRANCH   4   7
ENDBRANCH   1   4
BRANCH   1  41
ATOM     41  C   UNL A   1      31.555  30.491  25.909  1.00  0.00    -0.052 C 
ATOM     42  H   UNL A   1      30.663  30.255  25.366  1.00  0.00     0.027 H 
ATOM     43  H   UNL A   1      32.436  30.550  25.306  1.00  0.00     0.027 H 
BRANCH  41  44
ATOM     44  C   UNL A   1      31.377  31.887  26.512  1.00  0.00    -0.036 C 
ATOM     45  H   UNL A   1      30.663  31.814  27.306  1.00  0.00     0.028 H 
ATOM     46  H   UNL A   1      31.067  32.515  25.704  1.00  0.00     0.028 H 
BRANCH  44  47
ATOM     47  C   UNL A   1      32.641  32.532  27.077  1.00  0.00     0.018 C 
ATOM     48  H   UNL A   1      33.397  32.522  26.320  1.00  0.00     0.049 H 
ATOM     49  H   UNL A   1      32.932  31.968  27.938  1.00  0.00     0.049 H 
BRANCH  47  50
ATOM     50  N   UNL A   1      32.432  33.904  27.504  1.00  0.00    -0.352 N 
ATOM     51  C   UNL A   1      33.062  34.626  28.487  1.00  0.00     0.251 C 
ATOM     52  H   UNL A   1      31.732  34.391  27.013  1.00  0.00     0.163 HD
ATOM     53  O   UNL A   1      32.648  35.739  28.792  1.00  0.00    -0.269 OA
BRANCH  51  54
ATOM     54  C   UNL A   1      34.224  34.057  29.206  1.00  0.00     0.039 A 
ATOM     55  C   UNL A   1      33.989  33.203  30.286  1.00  0.00    -0.049 A 
ATOM     56  C   UNL A   1      35.534  34.375  28.838  1.00  0.00    -0.049 A 
ATOM     57  C   UNL A   1      35.064  32.610  30.952  1.00  0.00    -0.053 A 
ATOM     58  H   UNL A   1      33.022  33.010  30.592  1.00  0.00     0.063 H 
ATOM     59  C   UNL A   1      36.605  33.735  29.463  1.00  0.00    -0.053 A 
ATOM     60  H   UNL A   1      35.709  35.081  28.106  1.00  0.00     0.063 H 
ATOM     61  C   UNL A   1      36.380  32.842  30.521  1.00  0.00    -0.014 A 
ATOM     62  H   UNL A   1      34.891  31.999  31.766  1.00  0.00     0.063 H 
ATOM     63  H   UNL A   1      37.568  33.920  29.143  1.00  0.00     0.063 H 
BRANCH  61  64
ATOM     64  C   UNL A   1      37.530  32.142  31.149  1.00  0.00     0.031 A 
ATOM     65  C   UNL A   1      38.019  32.553  32.509  1.00  0.00     0.074 A 
ATOM     66  C   UNL A   1      38.176  31.180  30.463  1.00  0.00     0.049 A 
ATOM     67  N   UNL A   1      39.060  32.126  33.179  1.00  0.00    -0.248 NA
ATOM     68  C   UNL A   1      37.247  33.597  33.201  1.00  0.00    -0.034 C 
ATOM     69  C   UNL A   1      37.821  30.716  29.120  1.00  0.00    -0.036 A 
ATOM     70  N   UNL A   1      39.278  30.429  30.791  1.00  0.00    -0.354 N 
ATOM     71  C   UNL A   1      39.075  32.854  34.362  1.00  0.00     0.074 A 
ATOM     72  C   UNL A   1      37.967  33.782  34.299  1.00  0.00    -0.034 C 
ATOM     73  H   UNL A   1      36.375  34.064  32.907  1.00  0.00     0.065 H 
ATOM     74  C   UNL A   1      38.680  29.755  28.745  1.00  0.00    -0.036 A 
ATOM     75  H   UNL A   1      37.037  31.073  28.552  1.00  0.00     0.065 H 
ATOM     76  C   UNL A   1      39.670  29.562  29.800  1.00  0.00     0.049 A 
ATOM     77  H   UNL A   1      39.744  30.505  31.656  1.00  0.00     0.167 HD
ATOM     78  C   UNL A   1      39.923  32.743  35.411  1.00  0.00     0.037 A 
ATOM     79  H   UNL A   1      37.762  34.496  35.017  1.00  0.00     0.065 H 
ATOM     80  H   UNL A   1      38.646  29.236  27.853  1.00  0.00     0.065 H 
ATOM     81  C   UNL A   1      40.718  28.718  29.742  1.00  0.00     0.037 A 
ATOM     82  C   UNL A   1      41.014  31.804  35.479  1.00  0.00     0.049 A 
ATOM     83  C   UNL A   1      41.658  28.632  30.915  1.00  0.00     0.074 A 
ATOM     84  C   UNL A   1      41.899  31.584  36.521  1.00  0.00    -0.036 A 
ATOM     85  N   UNL A   1      41.371  30.933  34.461  1.00  0.00    -0.354 N 
ATOM     86  N   UNL A   1      41.626  29.285  32.051  1.00  0.00    -0.248 NA
ATOM     87  C   UNL A   1      42.776  27.686  30.797  1.00  0.00    -0.034 C 
ATOM     88  C   UNL A   1      42.818  30.609  36.116  1.00  0.00    -0.036 A 
ATOM     89  H   UNL A   1      41.883  32.055  37.438  1.00  0.00     0.065 H 
ATOM     90  C   UNL A   1      42.475  30.188  34.842  1.00  0.00     0.049 A 
ATOM     91  H   UNL A   1      40.908  30.854  33.596  1.00  0.00     0.167 HD
ATOM     92  C   UNL A   1      42.701  28.811  32.792  1.00  0.00     0.074 A 
ATOM     93  C   UNL A   1      43.354  27.803  31.985  1.00  0.00    -0.034 C 
ATOM     94  H   UNL A   1      43.043  27.088  30.000  1.00  0.00     0.065 H 
ATOM     95  H   UNL A   1      43.616  30.264  36.672  1.00  0.00     0.065 H 
ATOM     96  C   UNL A   1      43.110  29.181  34.029  1.00  0.00     0.037 A 
ATOM     97  H   UNL A   1      44.165  27.246  32.294  1.00  0.00     0.065 H 
BRANCH  78  98
ATOM     98  C   UNL A   1      39.707  33.656  36.583  1.00  0.00     0.064 A 
ATOM     99  C   UNL A   1      38.919  33.271  37.677  1.00  0.00     0.173 A 
ATOM    100  C   UNL A   1      40.340  34.907  36.640  1.00  0.00     0.173 A 
ATOM    101  F   UNL A   1      38.283  32.089  37.668  1.00  0.00    -0.203 F 
ATOM    102  C   UNL A   1      38.753  34.112  38.774  1.00  0.00     0.198 A 
ATOM    103  C   UNL A   1      40.197  35.734  37.751  1.00  0.00     0.198 A 
ATOM    104  F   UNL A   1      41.112  35.321  35.623  1.00  0.00    -0.203 F 
ATOM    105  F   UNL A   1      37.963  33.740  39.790  1.00  0.00    -0.200 F 
ATOM    106  C   UNL A   1      39.399  35.339  38.814  1.00  0.00     0.200 A 
ATOM    107  F   UNL A   1      40.833  36.913  37.794  1.00  0.00    -0.200 F 
ATOM    108  F   UNL A   1      39.250  36.142  39.876  1.00  0.00    -0.200 F 
ENDBRANCH  78  98
BRANCH  81 109
ATOM    109  C   UNL A   1      40.936  27.883  28.532  1.00  0.00     0.064 A 
ATOM    110  C   UNL A   1      41.721  28.347  27.467  1.00  0.00     0.173 A 
ATOM    111  C   UNL A   1      40.348  26.615  28.405  1.00  0.00     0.173 A 
ATOM    112  F   UNL A   1      42.284  29.563  27.533  1.00  0.00    -0.203 F 
ATOM    113  C   UNL A   1      41.889  27.588  26.311  1.00  0.00     0.198 A 
ATOM    114  C   UNL A   1      40.543  25.844  27.261  1.00  0.00     0.198 A 
ATOM    115  F   UNL A   1      39.591  26.123  29.396  1.00  0.00    -0.203 F 
ATOM    116  F   UNL A   1      42.600  28.079  25.288  1.00  0.00    -0.200 F 
ATOM    117  C   UNL A   1      41.304  26.335  26.211  1.00  0.00     0.200 A 
ATOM    118  F   UNL A   1      39.987  24.627  27.174  1.00  0.00    -0.200 F 
ATOM    119  F   UNL A   1      41.464  25.605  25.099  1.00  0.00    -0.200 F 
ENDBRANCH  81 109
BRANCH  96 120
ATOM    120  C   UNL A   1      44.302  28.469  34.600  1.00  0.00     0.064 A 
ATOM    121  C   UNL A   1      44.170  27.271  35.318  1.00  0.00     0.173 A 
ATOM    122  C   UNL A   1      45.596  28.974  34.396  1.00  0.00     0.173 A 
ATOM    123  F   UNL A   1      42.954  26.757  35.554  1.00  0.00    -0.203 F 
ATOM    124  C   UNL A   1      45.287  26.620  35.835  1.00  0.00     0.198 A 
ATOM    125  C   UNL A   1      46.712  28.303  34.887  1.00  0.00     0.198 A 
ATOM    126  F   UNL A   1      45.777  30.111  33.709  1.00  0.00    -0.203 F 
ATOM    127  F   UNL A   1      45.133  25.504  36.561  1.00  0.00    -0.200 F 
ATOM    128  C   UNL A   1      46.557  27.131  35.612  1.00  0.00     0.200 A 
ATOM    129  F   UNL A   1      47.939  28.792  34.659  1.00  0.00    -0.200 F 
ATOM    130  F   UNL A   1      47.631  26.499  36.104  1.00  0.00    -0.200 F 
ENDBRANCH  96 120
ENDBRANCH  61  64
ENDBRANCH  51  54
ENDBRANCH  47  50
ENDBRANCH  44  47
ENDBRANCH  41  44
ENDBRANCH   1  41
TORSDOF 17
ENDMDL
