MODEL 1
REMARK VINA RESULT:     -12.5      0.000      0.000
REMARK SMILES C[C@@H](C(=O)NCCCCCCNC(=O)c1ccc(-c2c3nc(c(-c4c(F)c(F)c(F)c(F)c4F)c4ccc([nH]4)c(-c4c(F)c(F)c(F)c(F)c4F)c4nc(c(-c5c(F)c(F)c(F)c(F)c5F)c5ccc2[nH]5)C=C4)C=C3)cc1)c1ccc(OC2CCCC2)cc1F
REMARK SMILES IDX 8 1 7 4 6 7 5 10 3 11 4 12 2 14 1 16 78 20 79 21 89 22 80 23
REMARK SMILES IDX 88 25 90 26 81 27 82 30 83 31 84 32 87 33 85 35 86 38 9 45
REMARK SMILES IDX 10 48 11 51 12 54 13 55 14 57 15 58 16 59 77 60 17 61 76 63
REMARK SMILES IDX 18 65 19 68 20 69 70 70 21 71 75 72 69 73 71 74 22 75 74 76
REMARK SMILES IDX 68 78 67 80 23 82 55 85 35 86 54 87 36 88 39 89 53 90 72 91
REMARK SMILES IDX 37 92 38 94 52 96 73 97 40 100 24 102 25 103 33 104 26 105
REMARK SMILES IDX 27 106 31 107 34 108 28 109 29 110 32 111 30 112 56 113
REMARK SMILES IDX 57 114 65 115 58 116 59 117 63 118 66 119 60 120 61 121
REMARK SMILES IDX 64 122 62 123 41 124 42 125 50 126 43 127 44 128 48 129
REMARK SMILES IDX 51 130 45 131 46 132 49 133 47 134
REMARK H PARENT 8 2 8 3 7 5 7 6 6 8 6 9 5 13 2 15 1 17 1 18 1 19 79 24 80 28
REMARK H PARENT 88 29 83 34 84 36 84 37 87 39 87 40 85 41 85 42 86 43 86 44
REMARK H PARENT 9 46 9 47 10 49 10 50 11 52 11 53 12 56 16 62 77 64 17 66
REMARK H PARENT 76 67 75 77 69 79 71 81 74 83 68 84 36 93 39 95 72 98 37 99
REMARK H PARENT 73 101
REMARK Flexibility Score: inf
ROOT
ATOM      1  C   UNL A   1      32.450  29.835  27.161  1.00  0.00    -0.052 C 
ATOM      2  H   UNL A   1      33.415  29.660  26.733  1.00  0.00     0.027 H 
ATOM      3  H   UNL A   1      32.484  30.405  28.067  1.00  0.00     0.027 H 
ENDROOT
BRANCH   1   4
ATOM      4  C   UNL A   1      31.839  28.476  27.531  1.00  0.00    -0.036 C 
ATOM      5  H   UNL A   1      32.504  27.982  28.208  1.00  0.00     0.028 H 
ATOM      6  H   UNL A   1      30.882  28.676  27.965  1.00  0.00     0.028 H 
BRANCH   4   7
ATOM      7  C   UNL A   1      31.598  27.555  26.334  1.00  0.00     0.017 C 
ATOM      8  H   UNL A   1      31.001  28.066  25.609  1.00  0.00     0.049 H 
ATOM      9  H   UNL A   1      32.542  27.286  25.906  1.00  0.00     0.049 H 
BRANCH   7  10
ATOM     10  N   UNL A   1      30.912  26.353  26.756  1.00  0.00    -0.356 N 
ATOM     11  C   UNL A   1      30.750  25.162  26.113  1.00  0.00     0.227 C 
ATOM     12  O   UNL A   1      29.962  24.370  26.630  1.00  0.00    -0.274 OA
ATOM     13  H   UNL A   1      30.499  26.403  27.648  1.00  0.00     0.163 HD
BRANCH  11  14
ATOM     14  C   UNL A   1      31.563  24.868  24.843  1.00  0.00     0.063 C 
ATOM     15  H   UNL A   1      32.313  25.631  24.854  1.00  0.00     0.045 H 
BRANCH  14  16
ATOM     16  C   UNL A   1      30.738  24.987  23.560  1.00  0.00    -0.049 C 
ATOM     17  H   UNL A   1      31.395  25.032  22.717  1.00  0.00     0.024 H 
ATOM     18  H   UNL A   1      30.145  25.877  23.598  1.00  0.00     0.024 H 
ATOM     19  H   UNL A   1      30.097  24.135  23.468  1.00  0.00     0.024 H 
ENDBRANCH  14  16
BRANCH  14  20
ATOM     20  C   UNL A   1      32.256  23.515  24.848  1.00  0.00     0.000 A 
ATOM     21  C   UNL A   1      31.919  22.488  23.957  1.00  0.00    -0.052 A 
ATOM     22  C   UNL A   1      33.328  23.298  25.715  1.00  0.00     0.130 A 
ATOM     23  C   UNL A   1      32.624  21.282  23.965  1.00  0.00    -0.019 A 
ATOM     24  H   UNL A   1      31.145  22.624  23.289  1.00  0.00     0.063 H 
ATOM     25  C   UNL A   1      34.044  22.104  25.715  1.00  0.00     0.016 A 
ATOM     26  F   UNL A   1      33.713  24.269  26.558  1.00  0.00    -0.207 F 
ATOM     27  C   UNL A   1      33.703  21.089  24.829  1.00  0.00     0.122 A 
ATOM     28  H   UNL A   1      32.343  20.524  23.325  1.00  0.00     0.066 H 
ATOM     29  H   UNL A   1      34.828  21.973  26.373  1.00  0.00     0.069 H 
BRANCH  27  30
ATOM     30  O   UNL A   1      34.311  19.877  24.700  1.00  0.00    -0.490 OA
BRANCH  30  31
ATOM     31  C   UNL A   1      33.580  18.677  24.486  1.00  0.00     0.099 C 
ATOM     32  C   UNL A   1      34.353  17.489  23.921  1.00  0.00    -0.016 C 
ATOM     33  C   UNL A   1      32.795  18.163  25.690  1.00  0.00    -0.016 C 
ATOM     34  H   UNL A   1      32.910  19.035  23.733  1.00  0.00     0.074 H 
ATOM     35  C   UNL A   1      33.449  16.304  24.215  1.00  0.00    -0.050 C 
ATOM     36  H   UNL A   1      35.298  17.379  24.411  1.00  0.00     0.030 H 
ATOM     37  H   UNL A   1      34.575  17.594  22.879  1.00  0.00     0.030 H 
ATOM     38  C   UNL A   1      32.697  16.651  25.499  1.00  0.00    -0.050 C 
ATOM     39  H   UNL A   1      31.819  18.601  25.715  1.00  0.00     0.030 H 
ATOM     40  H   UNL A   1      33.274  18.415  26.613  1.00  0.00     0.030 H 
ATOM     41  H   UNL A   1      34.032  15.417  24.355  1.00  0.00     0.027 H 
ATOM     42  H   UNL A   1      32.774  16.116  23.406  1.00  0.00     0.027 H 
ATOM     43  H   UNL A   1      33.142  16.148  26.332  1.00  0.00     0.027 H 
ATOM     44  H   UNL A   1      31.674  16.344  25.432  1.00  0.00     0.027 H 
ENDBRANCH  30  31
ENDBRANCH  27  30
ENDBRANCH  14  20
ENDBRANCH  11  14
ENDBRANCH   7  10
ENDBRANCH   4   7
ENDBRANCH   1   4
BRANCH   1  45
ATOM     45  C   UNL A   1      31.631  30.662  26.166  1.00  0.00    -0.052 C 
ATOM     46  H   UNL A   1      30.676  30.192  26.048  1.00  0.00     0.027 H 
ATOM     47  H   UNL A   1      32.199  30.692  25.259  1.00  0.00     0.027 H 
BRANCH  45  48
ATOM     48  C   UNL A   1      31.399  32.115  26.580  1.00  0.00    -0.036 C 
ATOM     49  H   UNL A   1      30.537  32.148  27.213  1.00  0.00     0.028 H 
ATOM     50  H   UNL A   1      31.274  32.674  25.676  1.00  0.00     0.028 H 
BRANCH  48  51
ATOM     51  C   UNL A   1      32.565  32.752  27.328  1.00  0.00     0.018 C 
ATOM     52  H   UNL A   1      33.448  32.664  26.729  1.00  0.00     0.049 H 
ATOM     53  H   UNL A   1      32.678  32.240  28.260  1.00  0.00     0.049 H 
BRANCH  51  54
ATOM     54  N   UNL A   1      32.328  34.158  27.614  1.00  0.00    -0.352 N 
ATOM     55  C   UNL A   1      32.927  34.967  28.543  1.00  0.00     0.251 C 
ATOM     56  H   UNL A   1      31.639  34.590  27.059  1.00  0.00     0.163 HD
ATOM     57  O   UNL A   1      32.463  36.079  28.790  1.00  0.00    -0.269 OA
BRANCH  55  58
ATOM     58  C   UNL A   1      34.121  34.493  29.272  1.00  0.00     0.039 A 
ATOM     59  C   UNL A   1      33.958  33.921  30.535  1.00  0.00    -0.049 A 
ATOM     60  C   UNL A   1      35.396  34.602  28.708  1.00  0.00    -0.049 A 
ATOM     61  C   UNL A   1      35.063  33.391  31.202  1.00  0.00    -0.053 A 
ATOM     62  H   UNL A   1      33.024  33.890  30.973  1.00  0.00     0.063 H 
ATOM     63  C   UNL A   1      36.487  34.012  29.343  1.00  0.00    -0.053 A 
ATOM     64  H   UNL A   1      35.529  35.119  27.825  1.00  0.00     0.063 H 
ATOM     65  C   UNL A   1      36.328  33.392  30.591  1.00  0.00    -0.014 A 
ATOM     66  H   UNL A   1      34.950  32.995  32.149  1.00  0.00     0.063 H 
ATOM     67  H   UNL A   1      37.415  34.030  28.892  1.00  0.00     0.063 H 
BRANCH  65  68
ATOM     68  C   UNL A   1      37.484  32.710  31.229  1.00  0.00     0.031 A 
ATOM     69  C   UNL A   1      38.153  31.546  30.553  1.00  0.00     0.074 A 
ATOM     70  C   UNL A   1      37.885  33.103  32.455  1.00  0.00     0.049 A 
ATOM     71  N   UNL A   1      39.131  30.791  30.985  1.00  0.00    -0.248 NA
ATOM     72  C   UNL A   1      37.644  31.165  29.225  1.00  0.00    -0.034 C 
ATOM     73  C   UNL A   1      37.281  34.186  33.235  1.00  0.00    -0.036 A 
ATOM     74  N   UNL A   1      38.886  32.629  33.268  1.00  0.00    -0.354 N 
ATOM     75  C   UNL A   1      39.346  29.843  29.995  1.00  0.00     0.074 A 
ATOM     76  C   UNL A   1      38.370  30.088  28.954  1.00  0.00    -0.034 C 
ATOM     77  H   UNL A   1      36.914  31.617  28.655  1.00  0.00     0.065 H 
ATOM     78  C   UNL A   1      37.932  34.304  34.402  1.00  0.00    -0.036 A 
ATOM     79  H   UNL A   1      36.483  34.765  32.934  1.00  0.00     0.065 H 
ATOM     80  C   UNL A   1      38.969  33.280  34.475  1.00  0.00     0.049 A 
ATOM     81  H   UNL A   1      39.486  31.893  33.010  1.00  0.00     0.167 HD
ATOM     82  C   UNL A   1      40.286  28.868  29.950  1.00  0.00     0.037 A 
ATOM     83  H   UNL A   1      38.255  29.504  28.113  1.00  0.00     0.065 H 
ATOM     84  H   UNL A   1      37.731  35.006  35.132  1.00  0.00     0.065 H 
ATOM     85  C   UNL A   1      39.780  33.064  35.529  1.00  0.00     0.037 A 
ATOM     86  C   UNL A   1      41.273  28.646  30.974  1.00  0.00     0.049 A 
ATOM     87  C   UNL A   1      40.805  31.964  35.452  1.00  0.00     0.074 A 
ATOM     88  C   UNL A   1      42.316  27.736  30.979  1.00  0.00    -0.036 A 
ATOM     89  N   UNL A   1      41.336  29.334  32.176  1.00  0.00    -0.354 N 
ATOM     90  N   UNL A   1      41.056  31.133  34.469  1.00  0.00    -0.248 NA
ATOM     91  C   UNL A   1      41.662  31.773  36.631  1.00  0.00    -0.034 C 
ATOM     92  C   UNL A   1      42.974  27.832  32.209  1.00  0.00    -0.036 A 
ATOM     93  H   UNL A   1      42.566  27.098  30.208  1.00  0.00     0.065 H 
ATOM     94  C   UNL A   1      42.378  28.842  32.946  1.00  0.00     0.049 A 
ATOM     95  H   UNL A   1      40.730  30.062  32.444  1.00  0.00     0.167 HD
ATOM     96  C   UNL A   1      42.114  30.344  34.899  1.00  0.00     0.074 A 
ATOM     97  C   UNL A   1      42.473  30.810  36.221  1.00  0.00    -0.034 C 
ATOM     98  H   UNL A   1      41.639  32.262  37.539  1.00  0.00     0.065 H 
ATOM     99  H   UNL A   1      43.769  27.249  32.516  1.00  0.00     0.065 H 
ATOM    100  C   UNL A   1      42.729  29.320  34.259  1.00  0.00     0.037 A 
ATOM    101  H   UNL A   1      43.262  30.438  36.774  1.00  0.00     0.065 H 
BRANCH  82 102
ATOM    102  C   UNL A   1      40.307  27.960  28.755  1.00  0.00     0.064 A 
ATOM    103  C   UNL A   1      41.043  28.276  27.604  1.00  0.00     0.173 A 
ATOM    104  C   UNL A   1      39.658  26.716  28.799  1.00  0.00     0.173 A 
ATOM    105  F   UNL A   1      41.675  29.455  27.509  1.00  0.00    -0.203 F 
ATOM    106  C   UNL A   1      41.122  27.383  26.538  1.00  0.00     0.198 A 
ATOM    107  C   UNL A   1      39.761  25.816  27.743  1.00  0.00     0.198 A 
ATOM    108  F   UNL A   1      38.945  26.364  29.880  1.00  0.00    -0.203 F 
ATOM    109  F   UNL A   1      41.810  27.717  25.437  1.00  0.00    -0.200 F 
ATOM    110  C   UNL A   1      40.491  26.151  26.613  1.00  0.00     0.200 A 
ATOM    111  F   UNL A   1      39.164  24.619  27.824  1.00  0.00    -0.200 F 
ATOM    112  F   UNL A   1      40.586  25.284  25.594  1.00  0.00    -0.200 F 
ENDBRANCH  82 102
BRANCH  85 113
ATOM    113  C   UNL A   1      39.656  33.897  36.757  1.00  0.00     0.064 A 
ATOM    114  C   UNL A   1      38.865  33.479  37.837  1.00  0.00     0.173 A 
ATOM    115  C   UNL A   1      40.289  35.144  36.858  1.00  0.00     0.173 A 
ATOM    116  F   UNL A   1      38.222  32.304  37.781  1.00  0.00    -0.203 F 
ATOM    117  C   UNL A   1      38.681  34.294  38.952  1.00  0.00     0.198 A 
ATOM    118  C   UNL A   1      40.133  35.941  37.989  1.00  0.00     0.198 A 
ATOM    119  F   UNL A   1      41.061  35.589  35.856  1.00  0.00    -0.203 F 
ATOM    120  F   UNL A   1      37.865  33.900  39.940  1.00  0.00    -0.200 F 
ATOM    121  C   UNL A   1      39.318  35.523  39.030  1.00  0.00     0.200 A 
ATOM    122  F   UNL A   1      40.763  37.122  38.065  1.00  0.00    -0.200 F 
ATOM    123  F   UNL A   1      39.136  36.308  40.100  1.00  0.00    -0.200 F 
ENDBRANCH  85 113
BRANCH 100 124
ATOM    124  C   UNL A   1      43.872  28.652  34.967  1.00  0.00     0.064 A 
ATOM    125  C   UNL A   1      45.193  29.097  34.814  1.00  0.00     0.173 A 
ATOM    126  C   UNL A   1      43.639  27.573  35.834  1.00  0.00     0.173 A 
ATOM    127  F   UNL A   1      45.471  30.115  33.985  1.00  0.00    -0.203 F 
ATOM    128  C   UNL A   1      46.242  28.470  35.482  1.00  0.00     0.198 A 
ATOM    129  C   UNL A   1      44.685  26.970  36.525  1.00  0.00     0.198 A 
ATOM    130  F   UNL A   1      42.393  27.112  36.021  1.00  0.00    -0.203 F 
ATOM    131  F   UNL A   1      47.502  28.879  35.279  1.00  0.00    -0.200 F 
ATOM    132  C   UNL A   1      45.986  27.413  36.342  1.00  0.00     0.200 A 
ATOM    133  F   UNL A   1      44.435  25.960  37.370  1.00  0.00    -0.200 F 
ATOM    134  F   UNL A   1      46.997  26.816  36.989  1.00  0.00    -0.200 F 
ENDBRANCH 100 124
ENDBRANCH  65  68
ENDBRANCH  55  58
ENDBRANCH  51  54
ENDBRANCH  48  51
ENDBRANCH  45  48
ENDBRANCH   1  45
TORSDOF 17
ENDMDL
MODEL 2
REMARK VINA RESULT:     -12.4      2.347      4.302
REMARK SMILES C[C@@H](C(=O)NCCCCCCNC(=O)c1ccc(-c2c3nc(c(-c4c(F)c(F)c(F)c(F)c4F)c4ccc([nH]4)c(-c4c(F)c(F)c(F)c(F)c4F)c4nc(c(-c5c(F)c(F)c(F)c(F)c5F)c5ccc2[nH]5)C=C4)C=C3)cc1)c1ccc(OC2CCCC2)cc1F
REMARK SMILES IDX 8 1 7 4 6 7 5 10 3 11 4 12 2 14 1 16 78 20 79 21 89 22 80 23
REMARK SMILES IDX 88 25 90 26 81 27 82 30 83 31 84 32 87 33 85 35 86 38 9 45
REMARK SMILES IDX 10 48 11 51 12 54 13 55 14 57 15 58 16 59 77 60 17 61 76 63
REMARK SMILES IDX 18 65 19 68 20 69 70 70 21 71 75 72 69 73 71 74 22 75 74 76
REMARK SMILES IDX 68 78 67 80 23 82 55 85 35 86 54 87 36 88 39 89 53 90 72 91
REMARK SMILES IDX 37 92 38 94 52 96 73 97 40 100 24 102 25 103 33 104 26 105
REMARK SMILES IDX 27 106 31 107 34 108 28 109 29 110 32 111 30 112 56 113
REMARK SMILES IDX 57 114 65 115 58 116 59 117 63 118 66 119 60 120 61 121
REMARK SMILES IDX 64 122 62 123 41 124 42 125 50 126 43 127 44 128 48 129
REMARK SMILES IDX 51 130 45 131 46 132 49 133 47 134
REMARK H PARENT 8 2 8 3 7 5 7 6 6 8 6 9 5 13 2 15 1 17 1 18 1 19 79 24 80 28
REMARK H PARENT 88 29 83 34 84 36 84 37 87 39 87 40 85 41 85 42 86 43 86 44
REMARK H PARENT 9 46 9 47 10 49 10 50 11 52 11 53 12 56 16 62 77 64 17 66
REMARK H PARENT 76 67 75 77 69 79 71 81 74 83 68 84 36 93 39 95 72 98 37 99
REMARK H PARENT 73 101
REMARK Flexibility Score: inf
ROOT
ATOM      1  C   UNL A   1      32.971  30.094  26.645  1.00  0.00    -0.052 C 
ATOM      2  H   UNL A   1      33.668  30.002  25.838  1.00  0.00     0.027 H 
ATOM      3  H   UNL A   1      33.313  30.735  27.431  1.00  0.00     0.027 H 
ENDROOT
BRANCH   1   4
ATOM      4  C   UNL A   1      32.783  28.706  27.273  1.00  0.00    -0.036 C 
ATOM      5  H   UNL A   1      33.598  28.085  26.964  1.00  0.00     0.028 H 
ATOM      6  H   UNL A   1      32.752  28.849  28.333  1.00  0.00     0.028 H 
BRANCH   4   7
ATOM      7  C   UNL A   1      31.476  28.016  26.881  1.00  0.00     0.017 C 
ATOM      8  H   UNL A   1      30.658  28.511  27.361  1.00  0.00     0.049 H 
ATOM      9  H   UNL A   1      31.361  28.067  25.818  1.00  0.00     0.049 H 
BRANCH   7  10
ATOM     10  N   UNL A   1      31.499  26.628  27.287  1.00  0.00    -0.356 N 
ATOM     11  C   UNL A   1      31.785  25.506  26.567  1.00  0.00     0.227 C 
ATOM     12  O   UNL A   1      31.551  24.432  27.121  1.00  0.00    -0.274 OA
ATOM     13  H   UNL A   1      31.274  26.469  28.232  1.00  0.00     0.163 HD
BRANCH  11  14
ATOM     14  C   UNL A   1      32.402  25.640  25.167  1.00  0.00     0.063 C 
ATOM     15  H   UNL A   1      32.263  24.666  24.747  1.00  0.00     0.045 H 
BRANCH  14  16
ATOM     16  C   UNL A   1      33.896  25.971  25.196  1.00  0.00    -0.049 C 
ATOM     17  H   UNL A   1      34.071  26.877  24.655  1.00  0.00     0.024 H 
ATOM     18  H   UNL A   1      34.447  25.173  24.744  1.00  0.00     0.024 H 
ATOM     19  H   UNL A   1      34.214  26.093  26.210  1.00  0.00     0.024 H 
ENDBRANCH  14  16
BRANCH  14  20
ATOM     20  C   UNL A   1      31.701  26.651  24.273  1.00  0.00     0.000 A 
ATOM     21  C   UNL A   1      32.380  27.700  23.640  1.00  0.00    -0.052 A 
ATOM     22  C   UNL A   1      30.342  26.494  23.997  1.00  0.00     0.130 A 
ATOM     23  C   UNL A   1      31.700  28.570  22.784  1.00  0.00    -0.019 A 
ATOM     24  H   UNL A   1      33.389  27.831  23.806  1.00  0.00     0.063 H 
ATOM     25  C   UNL A   1      29.664  27.348  23.131  1.00  0.00     0.016 A 
ATOM     26  F   UNL A   1      29.661  25.479  24.549  1.00  0.00    -0.207 F 
ATOM     27  C   UNL A   1      30.343  28.389  22.508  1.00  0.00     0.122 A 
ATOM     28  H   UNL A   1      32.207  29.357  22.350  1.00  0.00     0.066 H 
ATOM     29  H   UNL A   1      28.658  27.209  22.952  1.00  0.00     0.069 H 
BRANCH  27  30
ATOM     30  O   UNL A   1      29.827  29.295  21.632  1.00  0.00    -0.490 OA
BRANCH  30  31
ATOM     31  C   UNL A   1      28.831  30.236  22.008  1.00  0.00     0.099 C 
ATOM     32  C   UNL A   1      28.988  30.898  23.374  1.00  0.00    -0.016 C 
ATOM     33  C   UNL A   1      28.571  31.354  21.001  1.00  0.00    -0.016 C 
ATOM     34  H   UNL A   1      27.995  29.571  22.047  1.00  0.00     0.074 H 
ATOM     35  C   UNL A   1      28.071  32.107  23.291  1.00  0.00    -0.050 C 
ATOM     36  H   UNL A   1      30.002  31.198  23.540  1.00  0.00     0.030 H 
ATOM     37  H   UNL A   1      28.741  30.244  24.184  1.00  0.00     0.030 H 
ATOM     38  C   UNL A   1      28.065  32.536  21.825  1.00  0.00    -0.050 C 
ATOM     39  H   UNL A   1      27.832  31.050  20.290  1.00  0.00     0.030 H 
ATOM     40  H   UNL A   1      29.452  31.604  20.449  1.00  0.00     0.030 H 
ATOM     41  H   UNL A   1      28.442  32.898  23.908  1.00  0.00     0.027 H 
ATOM     42  H   UNL A   1      27.084  31.873  23.633  1.00  0.00     0.027 H 
ATOM     43  H   UNL A   1      28.710  33.379  21.688  1.00  0.00     0.027 H 
ATOM     44  H   UNL A   1      27.079  32.817  21.518  1.00  0.00     0.027 H 
ENDBRANCH  30  31
ENDBRANCH  27  30
ENDBRANCH  14  20
ENDBRANCH  11  14
ENDBRANCH   7  10
ENDBRANCH   4   7
ENDBRANCH   1   4
BRANCH   1  45
ATOM     45  C   UNL A   1      31.692  30.734  26.098  1.00  0.00    -0.052 C 
ATOM     46  H   UNL A   1      30.863  30.120  26.386  1.00  0.00     0.027 H 
ATOM     47  H   UNL A   1      31.817  30.801  25.037  1.00  0.00     0.027 H 
BRANCH  45  48
ATOM     48  C   UNL A   1      31.425  32.156  26.593  1.00  0.00    -0.036 C 
ATOM     49  H   UNL A   1      30.572  32.130  27.238  1.00  0.00     0.028 H 
ATOM     50  H   UNL A   1      31.272  32.759  25.723  1.00  0.00     0.028 H 
BRANCH  48  51
ATOM     51  C   UNL A   1      32.584  32.784  27.359  1.00  0.00     0.018 C 
ATOM     52  H   UNL A   1      33.475  32.695  26.773  1.00  0.00     0.049 H 
ATOM     53  H   UNL A   1      32.682  32.269  28.291  1.00  0.00     0.049 H 
BRANCH  51  54
ATOM     54  N   UNL A   1      32.350  34.190  27.646  1.00  0.00    -0.352 N 
ATOM     55  C   UNL A   1      32.952  34.998  28.576  1.00  0.00     0.251 C 
ATOM     56  H   UNL A   1      31.661  34.624  27.093  1.00  0.00     0.163 HD
ATOM     57  O   UNL A   1      32.490  36.111  28.824  1.00  0.00    -0.269 OA
BRANCH  55  58
ATOM     58  C   UNL A   1      34.146  34.521  29.303  1.00  0.00     0.039 A 
ATOM     59  C   UNL A   1      33.985  33.964  30.573  1.00  0.00    -0.049 A 
ATOM     60  C   UNL A   1      35.418  34.613  28.730  1.00  0.00    -0.049 A 
ATOM     61  C   UNL A   1      35.090  33.432  31.239  1.00  0.00    -0.053 A 
ATOM     62  H   UNL A   1      33.054  33.946  31.017  1.00  0.00     0.063 H 
ATOM     63  C   UNL A   1      36.508  34.020  29.365  1.00  0.00    -0.053 A 
ATOM     64  H   UNL A   1      35.551  35.119  27.840  1.00  0.00     0.063 H 
ATOM     65  C   UNL A   1      36.352  33.415  30.620  1.00  0.00    -0.014 A 
ATOM     66  H   UNL A   1      34.980  33.047  32.190  1.00  0.00     0.063 H 
ATOM     67  H   UNL A   1      37.433  34.026  28.908  1.00  0.00     0.063 H 
BRANCH  65  68
ATOM     68  C   UNL A   1      37.506  32.730  31.258  1.00  0.00     0.031 A 
ATOM     69  C   UNL A   1      38.171  31.563  30.583  1.00  0.00     0.074 A 
ATOM     70  C   UNL A   1      37.908  33.122  32.483  1.00  0.00     0.049 A 
ATOM     71  N   UNL A   1      39.146  30.805  31.016  1.00  0.00    -0.248 NA
ATOM     72  C   UNL A   1      37.660  31.183  29.256  1.00  0.00    -0.034 C 
ATOM     73  C   UNL A   1      37.307  34.208  33.263  1.00  0.00    -0.036 A 
ATOM     74  N   UNL A   1      38.907  32.646  33.297  1.00  0.00    -0.354 N 
ATOM     75  C   UNL A   1      39.358  29.856  30.026  1.00  0.00     0.074 A 
ATOM     76  C   UNL A   1      38.383  30.104  28.985  1.00  0.00    -0.034 C 
ATOM     77  H   UNL A   1      36.931  31.638  28.685  1.00  0.00     0.065 H 
ATOM     78  C   UNL A   1      37.959  34.325  34.430  1.00  0.00    -0.036 A 
ATOM     79  H   UNL A   1      36.511  34.790  32.962  1.00  0.00     0.065 H 
ATOM     80  C   UNL A   1      38.993  33.298  34.504  1.00  0.00     0.049 A 
ATOM     81  H   UNL A   1      39.505  31.908  33.039  1.00  0.00     0.167 HD
ATOM     82  C   UNL A   1      40.295  28.879  29.981  1.00  0.00     0.037 A 
ATOM     83  H   UNL A   1      38.265  29.519  28.144  1.00  0.00     0.065 H 
ATOM     84  H   UNL A   1      37.760  35.028  35.159  1.00  0.00     0.065 H 
ATOM     85  C   UNL A   1      39.803  33.080  35.558  1.00  0.00     0.037 A 
ATOM     86  C   UNL A   1      41.282  28.654  31.005  1.00  0.00     0.049 A 
ATOM     87  C   UNL A   1      40.824  31.977  35.481  1.00  0.00     0.074 A 
ATOM     88  C   UNL A   1      42.322  27.741  31.011  1.00  0.00    -0.036 A 
ATOM     89  N   UNL A   1      41.347  29.342  32.207  1.00  0.00    -0.354 N 
ATOM     90  N   UNL A   1      41.073  31.145  34.499  1.00  0.00    -0.248 NA
ATOM     91  C   UNL A   1      41.681  31.784  36.660  1.00  0.00    -0.034 C 
ATOM     92  C   UNL A   1      42.981  27.836  32.241  1.00  0.00    -0.036 A 
ATOM     93  H   UNL A   1      42.569  27.101  30.241  1.00  0.00     0.065 H 
ATOM     94  C   UNL A   1      42.387  28.848  32.978  1.00  0.00     0.049 A 
ATOM     95  H   UNL A   1      40.743  30.073  32.474  1.00  0.00     0.167 HD
ATOM     96  C   UNL A   1      42.129  30.352  34.929  1.00  0.00     0.074 A 
ATOM     97  C   UNL A   1      42.489  30.818  36.251  1.00  0.00    -0.034 C 
ATOM     98  H   UNL A   1      41.660  32.274  37.568  1.00  0.00     0.065 H 
ATOM     99  H   UNL A   1      43.773  27.250  32.548  1.00  0.00     0.065 H 
ATOM    100  C   UNL A   1      42.740  29.326  34.290  1.00  0.00     0.037 A 
ATOM    101  H   UNL A   1      43.277  30.444  36.804  1.00  0.00     0.065 H 
BRANCH  82 102
ATOM    102  C   UNL A   1      40.313  27.970  28.787  1.00  0.00     0.064 A 
ATOM    103  C   UNL A   1      41.051  28.282  27.636  1.00  0.00     0.173 A 
ATOM    104  C   UNL A   1      39.660  26.729  28.832  1.00  0.00     0.173 A 
ATOM    105  F   UNL A   1      41.687  29.459  27.540  1.00  0.00    -0.203 F 
ATOM    106  C   UNL A   1      41.126  27.388  26.570  1.00  0.00     0.198 A 
ATOM    107  C   UNL A   1      39.760  25.827  27.776  1.00  0.00     0.198 A 
ATOM    108  F   UNL A   1      38.945  26.379  29.913  1.00  0.00    -0.203 F 
ATOM    109  F   UNL A   1      41.816  27.719  25.470  1.00  0.00    -0.200 F 
ATOM    110  C   UNL A   1      40.491  26.158  26.646  1.00  0.00     0.200 A 
ATOM    111  F   UNL A   1      39.158  24.632  27.858  1.00  0.00    -0.200 F 
ATOM    112  F   UNL A   1      40.583  25.291  25.628  1.00  0.00    -0.200 F 
ENDBRANCH  82 102
BRANCH  85 113
ATOM    113  C   UNL A   1      39.682  33.914  36.785  1.00  0.00     0.064 A 
ATOM    114  C   UNL A   1      38.879  33.506  37.860  1.00  0.00     0.173 A 
ATOM    115  C   UNL A   1      40.329  35.154  36.890  1.00  0.00     0.173 A 
ATOM    116  F   UNL A   1      38.223  32.338  37.801  1.00  0.00    -0.203 F 
ATOM    117  C   UNL A   1      38.699  34.322  38.975  1.00  0.00     0.198 A 
ATOM    118  C   UNL A   1      40.176  35.953  38.021  1.00  0.00     0.198 A 
ATOM    119  F   UNL A   1      41.112  35.590  35.893  1.00  0.00    -0.203 F 
ATOM    120  F   UNL A   1      37.873  33.937  39.957  1.00  0.00    -0.200 F 
ATOM    121  C   UNL A   1      39.350  35.544  39.056  1.00  0.00     0.200 A 
ATOM    122  F   UNL A   1      40.819  37.126  38.100  1.00  0.00    -0.200 F 
ATOM    123  F   UNL A   1      39.171  36.331  40.125  1.00  0.00    -0.200 F 
ENDBRANCH  85 113
BRANCH 100 124
ATOM    124  C   UNL A   1      43.881  28.655  34.998  1.00  0.00     0.064 A 
ATOM    125  C   UNL A   1      43.682  27.533  35.816  1.00  0.00     0.173 A 
ATOM    126  C   UNL A   1      45.195  29.120  34.831  1.00  0.00     0.173 A 
ATOM    127  F   UNL A   1      42.443  27.058  36.021  1.00  0.00    -0.203 F 
ATOM    128  C   UNL A   1      44.751  26.919  36.463  1.00  0.00     0.198 A 
ATOM    129  C   UNL A   1      46.265  28.484  35.452  1.00  0.00     0.198 A 
ATOM    130  F   UNL A   1      45.442  30.186  34.054  1.00  0.00    -0.203 F 
ATOM    131  F   UNL A   1      44.530  25.882  37.281  1.00  0.00    -0.200 F 
ATOM    132  C   UNL A   1      46.042  27.390  36.274  1.00  0.00     0.200 A 
ATOM    133  F   UNL A   1      47.514  28.930  35.255  1.00  0.00    -0.200 F 
ATOM    134  F   UNL A   1      47.071  26.793  36.891  1.00  0.00    -0.200 F 
ENDBRANCH 100 124
ENDBRANCH  65  68
ENDBRANCH  55  58
ENDBRANCH  51  54
ENDBRANCH  48  51
ENDBRANCH  45  48
ENDBRANCH   1  45
TORSDOF 17
ENDMDL
MODEL 3
REMARK VINA RESULT:     -12.3      2.031      8.384
REMARK SMILES C[C@@H](C(=O)NCCCCCCNC(=O)c1ccc(-c2c3nc(c(-c4c(F)c(F)c(F)c(F)c4F)c4ccc([nH]4)c(-c4c(F)c(F)c(F)c(F)c4F)c4nc(c(-c5c(F)c(F)c(F)c(F)c5F)c5ccc2[nH]5)C=C4)C=C3)cc1)c1ccc(OC2CCCC2)cc1F
REMARK SMILES IDX 8 1 7 4 6 7 5 10 3 11 4 12 2 14 1 16 78 20 79 21 89 22 80 23
REMARK SMILES IDX 88 25 90 26 81 27 82 30 83 31 84 32 87 33 85 35 86 38 9 45
REMARK SMILES IDX 10 48 11 51 12 54 13 55 14 57 15 58 16 59 77 60 17 61 76 63
REMARK SMILES IDX 18 65 19 68 20 69 70 70 21 71 75 72 69 73 71 74 22 75 74 76
REMARK SMILES IDX 68 78 67 80 23 82 55 85 35 86 54 87 36 88 39 89 53 90 72 91
REMARK SMILES IDX 37 92 38 94 52 96 73 97 40 100 24 102 25 103 33 104 26 105
REMARK SMILES IDX 27 106 31 107 34 108 28 109 29 110 32 111 30 112 56 113
REMARK SMILES IDX 57 114 65 115 58 116 59 117 63 118 66 119 60 120 61 121
REMARK SMILES IDX 64 122 62 123 41 124 42 125 50 126 43 127 44 128 48 129
REMARK SMILES IDX 51 130 45 131 46 132 49 133 47 134
REMARK H PARENT 8 2 8 3 7 5 7 6 6 8 6 9 5 13 2 15 1 17 1 18 1 19 79 24 80 28
REMARK H PARENT 88 29 83 34 84 36 84 37 87 39 87 40 85 41 85 42 86 43 86 44
REMARK H PARENT 9 46 9 47 10 49 10 50 11 52 11 53 12 56 16 62 77 64 17 66
REMARK H PARENT 76 67 75 77 69 79 71 81 74 83 68 84 36 93 39 95 72 98 37 99
REMARK H PARENT 73 101
REMARK Flexibility Score: inf
ROOT
ATOM      1  C   UNL A   1      31.806  29.448  26.422  1.00  0.00    -0.052 C 
ATOM      2  H   UNL A   1      31.801  29.539  27.488  1.00  0.00     0.027 H 
ATOM      3  H   UNL A   1      31.030  28.813  26.046  1.00  0.00     0.027 H 
ENDROOT
BRANCH   1   4
ATOM      4  C   UNL A   1      33.133  28.799  26.006  1.00  0.00    -0.036 C 
ATOM      5  H   UNL A   1      33.149  28.721  24.938  1.00  0.00     0.028 H 
ATOM      6  H   UNL A   1      33.915  29.422  26.386  1.00  0.00     0.028 H 
BRANCH   4   7
ATOM      7  C   UNL A   1      33.355  27.403  26.592  1.00  0.00     0.017 C 
ATOM      8  H   UNL A   1      33.927  27.486  27.492  1.00  0.00     0.049 H 
ATOM      9  H   UNL A   1      32.405  26.959  26.803  1.00  0.00     0.049 H 
BRANCH   7  10
ATOM     10  N   UNL A   1      34.067  26.570  25.649  1.00  0.00    -0.356 N 
ATOM     11  C   UNL A   1      33.639  25.493  24.929  1.00  0.00     0.227 C 
ATOM     12  O   UNL A   1      34.509  24.857  24.336  1.00  0.00    -0.274 OA
ATOM     13  H   UNL A   1      35.007  26.819  25.502  1.00  0.00     0.163 HD
BRANCH  11  14
ATOM     14  C   UNL A   1      32.138  25.170  24.868  1.00  0.00     0.063 C 
ATOM     15  H   UNL A   1      31.848  25.171  25.898  1.00  0.00     0.045 H 
BRANCH  14  16
ATOM     16  C   UNL A   1      31.843  23.797  24.260  1.00  0.00    -0.049 C 
ATOM     17  H   UNL A   1      31.890  23.863  23.193  1.00  0.00     0.024 H 
ATOM     18  H   UNL A   1      30.864  23.480  24.555  1.00  0.00     0.024 H 
ATOM     19  H   UNL A   1      32.566  23.090  24.607  1.00  0.00     0.024 H 
ENDBRANCH  14  16
BRANCH  14  20
ATOM     20  C   UNL A   1      31.307  26.212  24.137  1.00  0.00     0.000 A 
ATOM     21  C   UNL A   1      31.791  26.929  23.035  1.00  0.00    -0.052 A 
ATOM     22  C   UNL A   1      29.979  26.417  24.515  1.00  0.00     0.130 A 
ATOM     23  C   UNL A   1      30.968  27.837  22.363  1.00  0.00    -0.019 A 
ATOM     24  H   UNL A   1      32.762  26.786  22.717  1.00  0.00     0.063 H 
ATOM     25  C   UNL A   1      29.151  27.308  23.837  1.00  0.00     0.016 A 
ATOM     26  F   UNL A   1      29.461  25.722  25.538  1.00  0.00    -0.207 F 
ATOM     27  C   UNL A   1      29.638  28.018  22.746  1.00  0.00     0.122 A 
ATOM     28  H   UNL A   1      31.349  28.381  21.574  1.00  0.00     0.066 H 
ATOM     29  H   UNL A   1      28.175  27.441  24.145  1.00  0.00     0.069 H 
BRANCH  27  30
ATOM     30  O   UNL A   1      28.953  28.910  21.978  1.00  0.00    -0.490 OA
BRANCH  30  31
ATOM     31  C   UNL A   1      29.119  30.315  22.111  1.00  0.00     0.099 C 
ATOM     32  C   UNL A   1      28.370  31.196  21.115  1.00  0.00    -0.016 C 
ATOM     33  C   UNL A   1      28.841  30.881  23.500  1.00  0.00    -0.016 C 
ATOM     34  H   UNL A   1      30.165  30.369  21.892  1.00  0.00     0.074 H 
ATOM     35  C   UNL A   1      28.396  32.569  21.765  1.00  0.00    -0.050 C 
ATOM     36  H   UNL A   1      27.364  30.855  20.983  1.00  0.00     0.030 H 
ATOM     37  H   UNL A   1      28.810  31.190  20.139  1.00  0.00     0.030 H 
ATOM     38  C   UNL A   1      28.401  32.325  23.273  1.00  0.00    -0.050 C 
ATOM     39  H   UNL A   1      29.726  30.849  24.101  1.00  0.00     0.030 H 
ATOM     40  H   UNL A   1      28.092  30.315  24.016  1.00  0.00     0.030 H 
ATOM     41  H   UNL A   1      27.530  33.131  21.482  1.00  0.00     0.027 H 
ATOM     42  H   UNL A   1      29.254  33.131  21.458  1.00  0.00     0.027 H 
ATOM     43  H   UNL A   1      27.419  32.475  23.671  1.00  0.00     0.027 H 
ATOM     44  H   UNL A   1      29.067  33.004  23.763  1.00  0.00     0.027 H 
ENDBRANCH  30  31
ENDBRANCH  27  30
ENDBRANCH  14  20
ENDBRANCH  11  14
ENDBRANCH   7  10
ENDBRANCH   4   7
ENDBRANCH   1   4
BRANCH   1  45
ATOM     45  C   UNL A   1      31.551  30.835  25.826  1.00  0.00    -0.052 C 
ATOM     46  H   UNL A   1      30.650  30.789  25.249  1.00  0.00     0.027 H 
ATOM     47  H   UNL A   1      32.414  31.076  25.239  1.00  0.00     0.027 H 
BRANCH  45  48
ATOM     48  C   UNL A   1      31.401  31.957  26.854  1.00  0.00    -0.036 C 
ATOM     49  H   UNL A   1      30.981  31.538  27.745  1.00  0.00     0.028 H 
ATOM     50  H   UNL A   1      30.776  32.700  26.407  1.00  0.00     0.028 H 
BRANCH  48  51
ATOM     51  C   UNL A   1      32.707  32.651  27.224  1.00  0.00     0.018 C 
ATOM     52  H   UNL A   1      33.374  32.600  26.388  1.00  0.00     0.049 H 
ATOM     53  H   UNL A   1      33.117  32.153  28.076  1.00  0.00     0.049 H 
BRANCH  51  54
ATOM     54  N   UNL A   1      32.502  34.048  27.576  1.00  0.00    -0.352 N 
ATOM     55  C   UNL A   1      33.092  34.789  28.566  1.00  0.00     0.251 C 
ATOM     56  H   UNL A   1      31.845  34.529  27.023  1.00  0.00     0.163 HD
ATOM     57  O   UNL A   1      32.652  35.900  28.856  1.00  0.00    -0.269 OA
BRANCH  55  58
ATOM     58  C   UNL A   1      34.246  34.240  29.308  1.00  0.00     0.039 A 
ATOM     59  C   UNL A   1      34.011  33.476  30.453  1.00  0.00    -0.049 A 
ATOM     60  C   UNL A   1      35.554  34.468  28.870  1.00  0.00    -0.049 A 
ATOM     61  C   UNL A   1      35.083  32.880  31.118  1.00  0.00    -0.053 A 
ATOM     62  H   UNL A   1      33.049  33.354  30.805  1.00  0.00     0.063 H 
ATOM     63  C   UNL A   1      36.616  33.817  29.493  1.00  0.00    -0.053 A 
ATOM     64  H   UNL A   1      35.733  35.118  28.088  1.00  0.00     0.063 H 
ATOM     65  C   UNL A   1      36.389  33.009  30.617  1.00  0.00    -0.014 A 
ATOM     66  H   UNL A   1      34.915  32.340  31.981  1.00  0.00     0.063 H 
ATOM     67  H   UNL A   1      37.574  33.929  29.126  1.00  0.00     0.063 H 
BRANCH  65  68
ATOM     68  C   UNL A   1      37.520  32.268  31.234  1.00  0.00     0.031 A 
ATOM     69  C   UNL A   1      38.028  32.646  32.598  1.00  0.00     0.074 A 
ATOM     70  C   UNL A   1      38.132  31.296  30.529  1.00  0.00     0.049 A 
ATOM     71  N   UNL A   1      39.041  32.156  33.266  1.00  0.00    -0.248 NA
ATOM     72  C   UNL A   1      37.319  33.731  33.294  1.00  0.00    -0.034 C 
ATOM     73  C   UNL A   1      37.764  30.874  29.175  1.00  0.00    -0.036 A 
ATOM     74  N   UNL A   1      39.202  30.494  30.845  1.00  0.00    -0.354 N 
ATOM     75  C   UNL A   1      39.098  32.876  34.451  1.00  0.00     0.074 A 
ATOM     76  C   UNL A   1      38.045  33.867  34.396  1.00  0.00    -0.034 C 
ATOM     77  H   UNL A   1      36.476  34.250  33.003  1.00  0.00     0.065 H 
ATOM     78  C   UNL A   1      38.581  29.883  28.785  1.00  0.00    -0.036 A 
ATOM     79  H   UNL A   1      36.999  31.274  28.612  1.00  0.00     0.065 H 
ATOM     80  C   UNL A   1      39.557  29.628  29.839  1.00  0.00     0.049 A 
ATOM     81  H   UNL A   1      39.669  30.536  31.710  1.00  0.00     0.167 HD
ATOM     82  C   UNL A   1      39.942  32.711  35.498  1.00  0.00     0.037 A 
ATOM     83  H   UNL A   1      37.881  34.585  35.118  1.00  0.00     0.065 H 
ATOM     84  H   UNL A   1      38.528  29.382  27.884  1.00  0.00     0.065 H 
ATOM     85  C   UNL A   1      40.568  28.740  29.768  1.00  0.00     0.037 A 
ATOM     86  C   UNL A   1      40.970  31.705  35.560  1.00  0.00     0.049 A 
ATOM     87  C   UNL A   1      41.496  28.591  30.944  1.00  0.00     0.074 A 
ATOM     88  C   UNL A   1      41.820  31.408  36.612  1.00  0.00    -0.036 A 
ATOM     89  N   UNL A   1      41.292  30.837  34.528  1.00  0.00    -0.354 N 
ATOM     90  N   UNL A   1      41.482  29.218  32.096  1.00  0.00    -0.248 NA
ATOM     91  C   UNL A   1      42.581  27.608  30.812  1.00  0.00    -0.034 C 
ATOM     92  C   UNL A   1      42.696  30.401  36.196  1.00  0.00    -0.036 A 
ATOM     93  H   UNL A   1      41.809  31.854  37.542  1.00  0.00     0.065 H 
ATOM     94  C   UNL A   1      42.354  30.029  34.906  1.00  0.00     0.049 A 
ATOM     95  H   UNL A   1      40.836  30.800  33.657  1.00  0.00     0.167 HD
ATOM     96  C   UNL A   1      42.532  28.687  32.832  1.00  0.00     0.074 A 
ATOM     97  C   UNL A   1      43.149  27.670  32.007  1.00  0.00    -0.034 C 
ATOM     98  H   UNL A   1      42.833  27.022  30.001  1.00  0.00     0.065 H 
ATOM     99  H   UNL A   1      43.468  30.003  36.754  1.00  0.00     0.065 H 
ATOM    100  C   UNL A   1      42.954  29.016  34.077  1.00  0.00     0.037 A 
ATOM    101  H   UNL A   1      43.932  27.071  32.311  1.00  0.00     0.065 H 
BRANCH  82 102
ATOM    102  C   UNL A   1      39.799  33.633  36.674  1.00  0.00     0.064 A 
ATOM    103  C   UNL A   1      40.434  34.882  36.710  1.00  0.00     0.173 A 
ATOM    104  C   UNL A   1      38.940  33.302  37.733  1.00  0.00     0.173 A 
ATOM    105  F   UNL A   1      41.271  35.244  35.726  1.00  0.00    -0.203 F 
ATOM    106  C   UNL A   1      40.223  35.762  37.770  1.00  0.00     0.198 A 
ATOM    107  C   UNL A   1      38.710  34.194  38.776  1.00  0.00     0.198 A 
ATOM    108  F   UNL A   1      38.303  32.120  37.742  1.00  0.00    -0.203 F 
ATOM    109  F   UNL A   1      40.862  36.940  37.797  1.00  0.00    -0.200 F 
ATOM    110  C   UNL A   1      39.353  35.422  38.794  1.00  0.00     0.200 A 
ATOM    111  F   UNL A   1      37.857  33.870  39.757  1.00  0.00    -0.200 F 
ATOM    112  F   UNL A   1      39.134  36.279  39.802  1.00  0.00    -0.200 F 
ENDBRANCH  82 102
BRANCH  85 113
ATOM    113  C   UNL A   1      40.769  27.924  28.539  1.00  0.00     0.064 A 
ATOM    114  C   UNL A   1      41.532  28.409  27.467  1.00  0.00     0.173 A 
ATOM    115  C   UNL A   1      40.167  26.666  28.394  1.00  0.00     0.173 A 
ATOM    116  F   UNL A   1      42.111  29.615  27.548  1.00  0.00    -0.203 F 
ATOM    117  C   UNL A   1      41.653  27.683  26.284  1.00  0.00     0.198 A 
ATOM    118  C   UNL A   1      40.318  25.926  27.223  1.00  0.00     0.198 A 
ATOM    119  F   UNL A   1      39.431  26.154  29.390  1.00  0.00    -0.203 F 
ATOM    120  F   UNL A   1      42.331  28.200  25.250  1.00  0.00    -0.200 F 
ATOM    121  C   UNL A   1      41.049  26.441  26.163  1.00  0.00     0.200 A 
ATOM    122  F   UNL A   1      39.745  24.719  27.118  1.00  0.00    -0.200 F 
ATOM    123  F   UNL A   1      41.161  25.746  25.023  1.00  0.00    -0.200 F 
ENDBRANCH  85 113
BRANCH 100 124
ATOM    124  C   UNL A   1      44.119  28.251  34.635  1.00  0.00     0.064 A 
ATOM    125  C   UNL A   1      45.435  28.713  34.497  1.00  0.00     0.173 A 
ATOM    126  C   UNL A   1      43.912  27.057  35.343  1.00  0.00     0.173 A 
ATOM    127  F   UNL A   1      45.688  29.841  33.815  1.00  0.00    -0.203 F 
ATOM    128  C   UNL A   1      46.506  27.994  35.024  1.00  0.00     0.198 A 
ATOM    129  C   UNL A   1      44.981  26.359  35.898  1.00  0.00     0.198 A 
ATOM    130  F   UNL A   1      42.671  26.574  35.509  1.00  0.00    -0.203 F 
ATOM    131  F   UNL A   1      47.759  28.428  34.835  1.00  0.00    -0.200 F 
ATOM    132  C   UNL A   1      46.277  26.823  35.731  1.00  0.00     0.200 A 
ATOM    133  F   UNL A   1      44.757  25.236  36.594  1.00  0.00    -0.200 F 
ATOM    134  F   UNL A   1      47.307  26.137  36.244  1.00  0.00    -0.200 F 
ENDBRANCH 100 124
ENDBRANCH  65  68
ENDBRANCH  55  58
ENDBRANCH  51  54
ENDBRANCH  48  51
ENDBRANCH  45  48
ENDBRANCH   1  45
TORSDOF 17
ENDMDL
MODEL 4
REMARK VINA RESULT:     -12.3      2.300      4.567
REMARK SMILES C[C@@H](C(=O)NCCCCCCNC(=O)c1ccc(-c2c3nc(c(-c4c(F)c(F)c(F)c(F)c4F)c4ccc([nH]4)c(-c4c(F)c(F)c(F)c(F)c4F)c4nc(c(-c5c(F)c(F)c(F)c(F)c5F)c5ccc2[nH]5)C=C4)C=C3)cc1)c1ccc(OC2CCCC2)cc1F
REMARK SMILES IDX 8 1 7 4 6 7 5 10 3 11 4 12 2 14 1 16 78 20 79 21 89 22 80 23
REMARK SMILES IDX 88 25 90 26 81 27 82 30 83 31 84 32 87 33 85 35 86 38 9 45
REMARK SMILES IDX 10 48 11 51 12 54 13 55 14 57 15 58 16 59 77 60 17 61 76 63
REMARK SMILES IDX 18 65 19 68 20 69 70 70 21 71 75 72 69 73 71 74 22 75 74 76
REMARK SMILES IDX 68 78 67 80 23 82 55 85 35 86 54 87 36 88 39 89 53 90 72 91
REMARK SMILES IDX 37 92 38 94 52 96 73 97 40 100 24 102 25 103 33 104 26 105
REMARK SMILES IDX 27 106 31 107 34 108 28 109 29 110 32 111 30 112 56 113
REMARK SMILES IDX 57 114 65 115 58 116 59 117 63 118 66 119 60 120 61 121
REMARK SMILES IDX 64 122 62 123 41 124 42 125 50 126 43 127 44 128 48 129
REMARK SMILES IDX 51 130 45 131 46 132 49 133 47 134
REMARK H PARENT 8 2 8 3 7 5 7 6 6 8 6 9 5 13 2 15 1 17 1 18 1 19 79 24 80 28
REMARK H PARENT 88 29 83 34 84 36 84 37 87 39 87 40 85 41 85 42 86 43 86 44
REMARK H PARENT 9 46 9 47 10 49 10 50 11 52 11 53 12 56 16 62 77 64 17 66
REMARK H PARENT 76 67 75 77 69 79 71 81 74 83 68 84 36 93 39 95 72 98 37 99
REMARK H PARENT 73 101
REMARK Flexibility Score: inf
ROOT
ATOM      1  C   UNL A   1      32.875  30.013  27.230  1.00  0.00    -0.052 C 
ATOM      2  H   UNL A   1      33.799  30.363  26.820  1.00  0.00     0.027 H 
ATOM      3  H   UNL A   1      32.725  30.302  28.249  1.00  0.00     0.027 H 
ENDROOT
BRANCH   1   4
ATOM      4  C   UNL A   1      32.899  28.478  27.218  1.00  0.00    -0.036 C 
ATOM      5  H   UNL A   1      33.637  28.159  26.512  1.00  0.00     0.028 H 
ATOM      6  H   UNL A   1      33.121  28.165  28.217  1.00  0.00     0.028 H 
BRANCH   4   7
ATOM      7  C   UNL A   1      31.563  27.836  26.840  1.00  0.00     0.017 C 
ATOM      8  H   UNL A   1      30.769  28.362  27.326  1.00  0.00     0.049 H 
ATOM      9  H   UNL A   1      31.440  27.889  25.778  1.00  0.00     0.049 H 
BRANCH   7  10
ATOM     10  N   UNL A   1      31.539  26.450  27.249  1.00  0.00    -0.356 N 
ATOM     11  C   UNL A   1      31.752  25.315  26.524  1.00  0.00     0.227 C 
ATOM     12  O   UNL A   1      31.489  24.253  27.088  1.00  0.00    -0.274 OA
ATOM     13  H   UNL A   1      31.338  26.301  28.201  1.00  0.00     0.163 HD
BRANCH  11  14
ATOM     14  C   UNL A   1      32.329  25.419  25.104  1.00  0.00     0.063 C 
ATOM     15  H   UNL A   1      32.119  24.457  24.686  1.00  0.00     0.045 H 
BRANCH  14  16
ATOM     16  C   UNL A   1      33.839  25.663  25.085  1.00  0.00    -0.049 C 
ATOM     17  H   UNL A   1      34.347  24.780  25.413  1.00  0.00     0.024 H 
ATOM     18  H   UNL A   1      34.078  26.476  25.739  1.00  0.00     0.024 H 
ATOM     19  H   UNL A   1      34.148  25.904  24.089  1.00  0.00     0.024 H 
ENDBRANCH  14  16
BRANCH  14  20
ATOM     20  C   UNL A   1      31.658  26.473  24.237  1.00  0.00     0.000 A 
ATOM     21  C   UNL A   1      32.372  27.500  23.606  1.00  0.00    -0.052 A 
ATOM     22  C   UNL A   1      30.289  26.382  23.984  1.00  0.00     0.130 A 
ATOM     23  C   UNL A   1      31.718  28.412  22.774  1.00  0.00    -0.019 A 
ATOM     24  H   UNL A   1      33.390  27.583  23.755  1.00  0.00     0.063 H 
ATOM     25  C   UNL A   1      29.635  27.278  23.143  1.00  0.00     0.016 A 
ATOM     26  F   UNL A   1      29.573  25.391  24.534  1.00  0.00    -0.207 F 
ATOM     27  C   UNL A   1      30.350  28.296  22.521  1.00  0.00     0.122 A 
ATOM     28  H   UNL A   1      32.252  29.181  22.343  1.00  0.00     0.066 H 
ATOM     29  H   UNL A   1      28.621  27.187  22.980  1.00  0.00     0.069 H 
BRANCH  27  30
ATOM     30  O   UNL A   1      29.859  29.237  21.667  1.00  0.00    -0.490 OA
BRANCH  30  31
ATOM     31  C   UNL A   1      28.864  30.174  22.055  1.00  0.00     0.099 C 
ATOM     32  C   UNL A   1      29.045  30.852  23.411  1.00  0.00    -0.016 C 
ATOM     33  C   UNL A   1      28.570  31.278  21.043  1.00  0.00    -0.016 C 
ATOM     34  H   UNL A   1      28.035  29.501  22.120  1.00  0.00     0.074 H 
ATOM     35  C   UNL A   1      28.116  32.051  23.335  1.00  0.00    -0.050 C 
ATOM     36  H   UNL A   1      30.060  31.163  23.550  1.00  0.00     0.030 H 
ATOM     37  H   UNL A   1      28.823  30.205  24.233  1.00  0.00     0.030 H 
ATOM     38  C   UNL A   1      28.073  32.464  21.865  1.00  0.00    -0.050 C 
ATOM     39  H   UNL A   1      27.818  30.960  20.352  1.00  0.00     0.030 H 
ATOM     40  H   UNL A   1      29.437  31.529  20.468  1.00  0.00     0.030 H 
ATOM     41  H   UNL A   1      28.494  32.852  23.935  1.00  0.00     0.027 H 
ATOM     42  H   UNL A   1      27.139  31.813  23.703  1.00  0.00     0.027 H 
ATOM     43  H   UNL A   1      28.707  33.311  21.704  1.00  0.00     0.027 H 
ATOM     44  H   UNL A   1      27.078  32.733  21.577  1.00  0.00     0.027 H 
ENDBRANCH  30  31
ENDBRANCH  27  30
ENDBRANCH  14  20
ENDBRANCH  11  14
ENDBRANCH   7  10
ENDBRANCH   4   7
ENDBRANCH   1   4
BRANCH   1  45
ATOM     45  C   UNL A   1      31.731  30.646  26.433  1.00  0.00    -0.052 C 
ATOM     46  H   UNL A   1      30.820  30.158  26.712  1.00  0.00     0.027 H 
ATOM     47  H   UNL A   1      31.975  30.519  25.399  1.00  0.00     0.027 H 
BRANCH  45  48
ATOM     48  C   UNL A   1      31.552  32.149  26.654  1.00  0.00    -0.036 C 
ATOM     49  H   UNL A   1      30.680  32.297  27.255  1.00  0.00     0.028 H 
ATOM     50  H   UNL A   1      31.471  32.593  25.684  1.00  0.00     0.028 H 
BRANCH  48  51
ATOM     51  C   UNL A   1      32.729  32.828  27.346  1.00  0.00     0.018 C 
ATOM     52  H   UNL A   1      33.584  32.774  26.705  1.00  0.00     0.049 H 
ATOM     53  H   UNL A   1      32.906  32.321  28.271  1.00  0.00     0.049 H 
BRANCH  51  54
ATOM     54  N   UNL A   1      32.454  34.225  27.645  1.00  0.00    -0.352 N 
ATOM     55  C   UNL A   1      33.005  35.030  28.608  1.00  0.00     0.251 C 
ATOM     56  H   UNL A   1      31.775  34.652  27.075  1.00  0.00     0.163 HD
ATOM     57  O   UNL A   1      32.510  36.129  28.856  1.00  0.00    -0.269 OA
BRANCH  55  58
ATOM     58  C   UNL A   1      34.183  34.567  29.369  1.00  0.00     0.039 A 
ATOM     59  C   UNL A   1      33.998  34.064  30.658  1.00  0.00    -0.049 A 
ATOM     60  C   UNL A   1      35.464  34.620  28.811  1.00  0.00    -0.049 A 
ATOM     61  C   UNL A   1      35.087  33.545  31.360  1.00  0.00    -0.053 A 
ATOM     62  H   UNL A   1      33.061  34.076  31.090  1.00  0.00     0.063 H 
ATOM     63  C   UNL A   1      36.537  34.039  29.484  1.00  0.00    -0.053 A 
ATOM     64  H   UNL A   1      35.615  35.088  27.903  1.00  0.00     0.063 H 
ATOM     65  C   UNL A   1      36.356  33.487  30.760  1.00  0.00    -0.014 A 
ATOM     66  H   UNL A   1      34.959  33.200  32.324  1.00  0.00     0.063 H 
ATOM     67  H   UNL A   1      37.468  34.015  29.040  1.00  0.00     0.063 H 
BRANCH  65  68
ATOM     68  C   UNL A   1      37.493  32.814  31.441  1.00  0.00     0.031 A 
ATOM     69  C   UNL A   1      38.176  31.636  30.804  1.00  0.00     0.074 A 
ATOM     70  C   UNL A   1      37.861  33.227  32.669  1.00  0.00     0.049 A 
ATOM     71  N   UNL A   1      39.139  30.886  31.276  1.00  0.00    -0.248 NA
ATOM     72  C   UNL A   1      37.701  31.233  29.470  1.00  0.00    -0.034 C 
ATOM     73  C   UNL A   1      37.240  34.326  33.413  1.00  0.00    -0.036 A 
ATOM     74  N   UNL A   1      38.838  32.765  33.517  1.00  0.00    -0.354 N 
ATOM     75  C   UNL A   1      39.377  29.920  30.308  1.00  0.00     0.074 A 
ATOM     76  C   UNL A   1      38.430  30.149  29.238  1.00  0.00    -0.034 C 
ATOM     77  H   UNL A   1      36.988  31.677  28.872  1.00  0.00     0.065 H 
ATOM     78  C   UNL A   1      37.860  34.463  34.596  1.00  0.00    -0.036 A 
ATOM     79  H   UNL A   1      36.453  34.902  33.081  1.00  0.00     0.065 H 
ATOM     80  C   UNL A   1      38.891  33.438  34.715  1.00  0.00     0.049 A 
ATOM     81  H   UNL A   1      39.443  32.023  33.289  1.00  0.00     0.167 HD
ATOM     82  C   UNL A   1      40.315  28.942  30.306  1.00  0.00     0.037 A 
ATOM     83  H   UNL A   1      38.335  29.550  28.404  1.00  0.00     0.065 H 
ATOM     84  H   UNL A   1      37.642  35.178  35.307  1.00  0.00     0.065 H 
ATOM     85  C   UNL A   1      39.673  33.238  35.794  1.00  0.00     0.037 A 
ATOM     86  C   UNL A   1      41.273  28.735  31.360  1.00  0.00     0.049 A 
ATOM     87  C   UNL A   1      40.696  32.135  35.764  1.00  0.00     0.074 A 
ATOM     88  C   UNL A   1      42.313  27.823  31.410  1.00  0.00    -0.036 A 
ATOM     89  N   UNL A   1      41.306  29.444  32.551  1.00  0.00    -0.354 N 
ATOM     90  N   UNL A   1      40.971  31.285  34.803  1.00  0.00    -0.248 NA
ATOM     91  C   UNL A   1      41.521  31.962  36.968  1.00  0.00    -0.034 C 
ATOM     92  C   UNL A   1      42.938  27.938  32.655  1.00  0.00    -0.036 A 
ATOM     93  H   UNL A   1      42.581  27.170  30.657  1.00  0.00     0.065 H 
ATOM     94  C   UNL A   1      42.326  28.963  33.358  1.00  0.00     0.049 A 
ATOM     95  H   UNL A   1      40.695  30.179  32.789  1.00  0.00     0.167 HD
ATOM     96  C   UNL A   1      42.014  30.501  35.275  1.00  0.00     0.074 A 
ATOM     97  C   UNL A   1      42.339  30.989  36.598  1.00  0.00    -0.034 C 
ATOM     98  H   UNL A   1      41.474  32.467  37.867  1.00  0.00     0.065 H 
ATOM     99  H   UNL A   1      43.722  27.359  32.994  1.00  0.00     0.065 H 
ATOM    100  C   UNL A   1      42.643  29.464  34.671  1.00  0.00     0.037 A 
ATOM    101  H   UNL A   1      43.111  30.625  37.178  1.00  0.00     0.065 H 
BRANCH  82 102
ATOM    102  C   UNL A   1      40.364  28.012  29.128  1.00  0.00     0.064 A 
ATOM    103  C   UNL A   1      39.612  26.830  29.093  1.00  0.00     0.173 A 
ATOM    104  C   UNL A   1      41.101  28.358  27.984  1.00  0.00     0.173 A 
ATOM    105  F   UNL A   1      38.897  26.451  30.163  1.00  0.00    -0.203 F 
ATOM    106  C   UNL A   1      39.602  26.022  27.958  1.00  0.00     0.198 A 
ATOM    107  C   UNL A   1      41.067  27.562  26.843  1.00  0.00     0.198 A 
ATOM    108  F   UNL A   1      41.833  29.482  27.965  1.00  0.00    -0.203 F 
ATOM    109  F   UNL A   1      38.897  24.882  27.956  1.00  0.00    -0.200 F 
ATOM    110  C   UNL A   1      40.320  26.394  26.832  1.00  0.00     0.200 A 
ATOM    111  F   UNL A   1      41.749  27.931  25.750  1.00  0.00    -0.200 F 
ATOM    112  F   UNL A   1      40.292  25.626  25.733  1.00  0.00    -0.200 F 
ENDBRANCH  82 102
BRANCH  85 113
ATOM    113  C   UNL A   1      39.519  34.093  37.003  1.00  0.00     0.064 A 
ATOM    114  C   UNL A   1      40.171  35.331  37.100  1.00  0.00     0.173 A 
ATOM    115  C   UNL A   1      38.755  33.672  38.101  1.00  0.00     0.173 A 
ATOM    116  F   UNL A   1      40.929  35.770  36.085  1.00  0.00    -0.203 F 
ATOM    117  C   UNL A   1      40.094  36.096  38.262  1.00  0.00     0.198 A 
ATOM    118  C   UNL A   1      38.652  34.454  39.249  1.00  0.00     0.198 A 
ATOM    119  F   UNL A   1      38.107  32.499  38.059  1.00  0.00    -0.203 F 
ATOM    120  F   UNL A   1      40.782  37.242  38.353  1.00  0.00    -0.200 F 
ATOM    121  C   UNL A   1      39.333  35.659  39.335  1.00  0.00     0.200 A 
ATOM    122  F   UNL A   1      37.901  34.034  40.277  1.00  0.00    -0.200 F 
ATOM    123  F   UNL A   1      39.265  36.391  40.455  1.00  0.00    -0.200 F 
ENDBRANCH  85 113
BRANCH 100 124
ATOM    124  C   UNL A   1      43.764  28.805  35.421  1.00  0.00     0.064 A 
ATOM    125  C   UNL A   1      43.528  27.770  36.337  1.00  0.00     0.173 A 
ATOM    126  C   UNL A   1      45.095  29.194  35.197  1.00  0.00     0.173 A 
ATOM    127  F   UNL A   1      42.273  27.372  36.598  1.00  0.00    -0.203 F 
ATOM    128  C   UNL A   1      44.580  27.166  37.022  1.00  0.00     0.198 A 
ATOM    129  C   UNL A   1      46.145  28.565  35.858  1.00  0.00     0.198 A 
ATOM    130  F   UNL A   1      45.376  30.175  34.326  1.00  0.00    -0.203 F 
ATOM    131  F   UNL A   1      44.325  26.215  37.931  1.00  0.00    -0.200 F 
ATOM    132  C   UNL A   1      45.887  27.559  36.776  1.00  0.00     0.200 A 
ATOM    133  F   UNL A   1      47.409  28.934  35.608  1.00  0.00    -0.200 F 
ATOM    134  F   UNL A   1      46.898  26.971  37.431  1.00  0.00    -0.200 F 
ENDBRANCH 100 124
ENDBRANCH  65  68
ENDBRANCH  55  58
ENDBRANCH  51  54
ENDBRANCH  48  51
ENDBRANCH  45  48
ENDBRANCH   1  45
TORSDOF 17
ENDMDL
MODEL 5
REMARK VINA RESULT:     -12.2      2.369      8.447
REMARK SMILES C[C@@H](C(=O)NCCCCCCNC(=O)c1ccc(-c2c3nc(c(-c4c(F)c(F)c(F)c(F)c4F)c4ccc([nH]4)c(-c4c(F)c(F)c(F)c(F)c4F)c4nc(c(-c5c(F)c(F)c(F)c(F)c5F)c5ccc2[nH]5)C=C4)C=C3)cc1)c1ccc(OC2CCCC2)cc1F
REMARK SMILES IDX 8 1 7 4 6 7 5 10 3 11 4 12 2 14 1 16 78 20 79 21 89 22 80 23
REMARK SMILES IDX 88 25 90 26 81 27 82 30 83 31 84 32 87 33 85 35 86 38 9 45
REMARK SMILES IDX 10 48 11 51 12 54 13 55 14 57 15 58 16 59 77 60 17 61 76 63
REMARK SMILES IDX 18 65 19 68 20 69 70 70 21 71 75 72 69 73 71 74 22 75 74 76
REMARK SMILES IDX 68 78 67 80 23 82 55 85 35 86 54 87 36 88 39 89 53 90 72 91
REMARK SMILES IDX 37 92 38 94 52 96 73 97 40 100 24 102 25 103 33 104 26 105
REMARK SMILES IDX 27 106 31 107 34 108 28 109 29 110 32 111 30 112 56 113
REMARK SMILES IDX 57 114 65 115 58 116 59 117 63 118 66 119 60 120 61 121
REMARK SMILES IDX 64 122 62 123 41 124 42 125 50 126 43 127 44 128 48 129
REMARK SMILES IDX 51 130 45 131 46 132 49 133 47 134
REMARK H PARENT 8 2 8 3 7 5 7 6 6 8 6 9 5 13 2 15 1 17 1 18 1 19 79 24 80 28
REMARK H PARENT 88 29 83 34 84 36 84 37 87 39 87 40 85 41 85 42 86 43 86 44
REMARK H PARENT 9 46 9 47 10 49 10 50 11 52 11 53 12 56 16 62 77 64 17 66
REMARK H PARENT 76 67 75 77 69 79 71 81 74 83 68 84 36 93 39 95 72 98 37 99
REMARK H PARENT 73 101
REMARK Flexibility Score: inf
ROOT
ATOM      1  C   UNL A   1      32.913  30.120  26.609  1.00  0.00    -0.052 C 
ATOM      2  H   UNL A   1      33.565  30.001  25.769  1.00  0.00     0.027 H 
ATOM      3  H   UNL A   1      33.310  30.764  27.366  1.00  0.00     0.027 H 
ENDROOT
BRANCH   1   4
ATOM      4  C   UNL A   1      32.727  28.746  27.266  1.00  0.00    -0.036 C 
ATOM      5  H   UNL A   1      33.555  28.127  26.992  1.00  0.00     0.028 H 
ATOM      6  H   UNL A   1      32.669  28.914  28.322  1.00  0.00     0.028 H 
BRANCH   4   7
ATOM      7  C   UNL A   1      31.436  28.031  26.861  1.00  0.00     0.017 C 
ATOM      8  H   UNL A   1      30.604  28.515  27.326  1.00  0.00     0.049 H 
ATOM      9  H   UNL A   1      31.335  28.072  25.797  1.00  0.00     0.049 H 
BRANCH   7  10
ATOM     10  N   UNL A   1      31.478  26.647  27.278  1.00  0.00    -0.356 N 
ATOM     11  C   UNL A   1      31.779  25.523  26.567  1.00  0.00     0.227 C 
ATOM     12  O   UNL A   1      31.558  24.450  27.129  1.00  0.00    -0.274 OA
ATOM     13  H   UNL A   1      31.254  26.491  28.224  1.00  0.00     0.163 HD
BRANCH  11  14
ATOM     14  C   UNL A   1      32.395  25.654  25.166  1.00  0.00     0.063 C 
ATOM     15  H   UNL A   1      32.258  24.679  24.749  1.00  0.00     0.045 H 
BRANCH  14  16
ATOM     16  C   UNL A   1      33.888  25.989  25.194  1.00  0.00    -0.049 C 
ATOM     17  H   UNL A   1      34.018  27.045  25.088  1.00  0.00     0.024 H 
ATOM     18  H   UNL A   1      34.381  25.485  24.389  1.00  0.00     0.024 H 
ATOM     19  H   UNL A   1      34.307  25.668  26.125  1.00  0.00     0.024 H 
ENDBRANCH  14  16
BRANCH  14  20
ATOM     20  C   UNL A   1      31.691  26.661  24.269  1.00  0.00     0.000 A 
ATOM     21  C   UNL A   1      32.365  27.718  23.644  1.00  0.00    -0.052 A 
ATOM     22  C   UNL A   1      30.336  26.492  23.983  1.00  0.00     0.130 A 
ATOM     23  C   UNL A   1      31.683  28.583  22.785  1.00  0.00    -0.019 A 
ATOM     24  H   UNL A   1      33.372  27.858  23.819  1.00  0.00     0.063 H 
ATOM     25  C   UNL A   1      29.657  27.342  23.114  1.00  0.00     0.016 A 
ATOM     26  F   UNL A   1      29.660  25.469  24.527  1.00  0.00    -0.207 F 
ATOM     27  C   UNL A   1      30.331  28.391  22.499  1.00  0.00     0.122 A 
ATOM     28  H   UNL A   1      32.186  29.376  22.358  1.00  0.00     0.066 H 
ATOM     29  H   UNL A   1      28.653  27.194  22.927  1.00  0.00     0.069 H 
BRANCH  27  30
ATOM     30  O   UNL A   1      29.812  29.294  21.621  1.00  0.00    -0.490 OA
BRANCH  30  31
ATOM     31  C   UNL A   1      28.805  30.225  21.992  1.00  0.00     0.099 C 
ATOM     32  C   UNL A   1      28.880  30.797  23.405  1.00  0.00    -0.016 C 
ATOM     33  C   UNL A   1      28.622  31.407  21.044  1.00  0.00    -0.016 C 
ATOM     34  H   UNL A   1      27.960  29.571  21.935  1.00  0.00     0.074 H 
ATOM     35  C   UNL A   1      27.983  32.022  23.340  1.00  0.00    -0.050 C 
ATOM     36  H   UNL A   1      29.884  31.071  23.653  1.00  0.00     0.030 H 
ATOM     37  H   UNL A   1      28.574  30.098  24.154  1.00  0.00     0.030 H 
ATOM     38  C   UNL A   1      28.077  32.542  21.907  1.00  0.00    -0.050 C 
ATOM     39  H   UNL A   1      27.927  31.159  20.268  1.00  0.00     0.030 H 
ATOM     40  H   UNL A   1      29.540  31.678  20.566  1.00  0.00     0.030 H 
ATOM     41  H   UNL A   1      28.322  32.768  24.029  1.00  0.00     0.027 H 
ATOM     42  H   UNL A   1      26.973  31.782  23.603  1.00  0.00     0.027 H 
ATOM     43  H   UNL A   1      28.738  33.383  21.865  1.00  0.00     0.027 H 
ATOM     44  H   UNL A   1      27.116  32.856  21.556  1.00  0.00     0.027 H 
ENDBRANCH  30  31
ENDBRANCH  27  30
ENDBRANCH  14  20
ENDBRANCH  11  14
ENDBRANCH   7  10
ENDBRANCH   4   7
ENDBRANCH   1   4
BRANCH   1  45
ATOM     45  C   UNL A   1      31.622  30.782  26.119  1.00  0.00    -0.052 C 
ATOM     46  H   UNL A   1      30.795  30.196  26.464  1.00  0.00     0.027 H 
ATOM     47  H   UNL A   1      31.690  30.824  25.052  1.00  0.00     0.027 H 
BRANCH  45  48
ATOM     48  C   UNL A   1      31.419  32.220  26.597  1.00  0.00    -0.036 C 
ATOM     49  H   UNL A   1      30.603  32.230  27.289  1.00  0.00     0.028 H 
ATOM     50  H   UNL A   1      31.233  32.809  25.724  1.00  0.00     0.028 H 
BRANCH  48  51
ATOM     51  C   UNL A   1      32.634  32.834  27.284  1.00  0.00     0.018 C 
ATOM     52  H   UNL A   1      33.473  32.769  26.623  1.00  0.00     0.049 H 
ATOM     53  H   UNL A   1      32.812  32.290  28.188  1.00  0.00     0.049 H 
BRANCH  51  54
ATOM     54  N   UNL A   1      32.417  34.228  27.634  1.00  0.00    -0.352 N 
ATOM     55  C   UNL A   1      33.002  34.976  28.622  1.00  0.00     0.251 C 
ATOM     56  H   UNL A   1      31.755  34.703  27.081  1.00  0.00     0.163 HD
ATOM     57  O   UNL A   1      32.553  36.084  28.911  1.00  0.00    -0.269 OA
BRANCH  55  58
ATOM     58  C   UNL A   1      34.162  34.439  29.363  1.00  0.00     0.039 A 
ATOM     59  C   UNL A   1      33.944  33.791  30.580  1.00  0.00    -0.049 A 
ATOM     60  C   UNL A   1      35.459  34.564  28.854  1.00  0.00    -0.049 A 
ATOM     61  C   UNL A   1      35.017  33.204  31.252  1.00  0.00    -0.053 A 
ATOM     62  H   UNL A   1      32.994  33.747  30.981  1.00  0.00     0.063 H 
ATOM     63  C   UNL A   1      36.517  33.919  29.490  1.00  0.00    -0.053 A 
ATOM     64  H   UNL A   1      35.632  35.134  28.010  1.00  0.00     0.063 H 
ATOM     65  C   UNL A   1      36.304  33.224  30.690  1.00  0.00    -0.014 A 
ATOM     66  H   UNL A   1      34.863  32.751  32.167  1.00  0.00     0.063 H 
ATOM     67  H   UNL A   1      37.461  33.952  29.076  1.00  0.00     0.063 H 
BRANCH  65  68
ATOM     68  C   UNL A   1      37.427  32.486  31.325  1.00  0.00     0.031 A 
ATOM     69  C   UNL A   1      37.940  32.893  32.678  1.00  0.00     0.074 A 
ATOM     70  C   UNL A   1      38.026  31.489  30.645  1.00  0.00     0.049 A 
ATOM     71  N   UNL A   1      38.948  32.409  33.358  1.00  0.00    -0.248 NA
ATOM     72  C   UNL A   1      37.245  34.005  33.347  1.00  0.00    -0.034 C 
ATOM     73  C   UNL A   1      37.651  31.036  29.303  1.00  0.00    -0.036 A 
ATOM     74  N   UNL A   1      39.086  30.683  30.981  1.00  0.00    -0.354 N 
ATOM     75  C   UNL A   1      39.016  33.159  34.523  1.00  0.00     0.074 A 
ATOM     76  C   UNL A   1      37.975  34.161  34.444  1.00  0.00    -0.034 C 
ATOM     77  H   UNL A   1      36.409  34.527  33.042  1.00  0.00     0.065 H 
ATOM     78  C   UNL A   1      38.456  30.026  28.938  1.00  0.00    -0.036 A 
ATOM     79  H   UNL A   1      36.890  31.431  28.730  1.00  0.00     0.065 H 
ATOM     80  C   UNL A   1      39.430  29.787  29.997  1.00  0.00     0.049 A 
ATOM     81  H   UNL A   1      39.555  30.742  31.844  1.00  0.00     0.167 HD
ATOM     82  C   UNL A   1      39.859  33.011  35.573  1.00  0.00     0.037 A 
ATOM     83  H   UNL A   1      37.820  34.899  35.147  1.00  0.00     0.065 H 
ATOM     84  H   UNL A   1      38.395  29.503  28.050  1.00  0.00     0.065 H 
ATOM     85  C   UNL A   1      40.430  28.885  29.948  1.00  0.00     0.037 A 
ATOM     86  C   UNL A   1      40.875  31.994  35.661  1.00  0.00     0.049 A 
ATOM     87  C   UNL A   1      41.357  28.755  31.127  1.00  0.00     0.074 A 
ATOM     88  C   UNL A   1      41.723  31.715  36.719  1.00  0.00    -0.036 A 
ATOM     89  N   UNL A   1      41.185  31.096  34.652  1.00  0.00    -0.354 N 
ATOM     90  N   UNL A   1      41.352  29.412  32.262  1.00  0.00    -0.248 NA
ATOM     91  C   UNL A   1      42.431  27.756  31.019  1.00  0.00    -0.034 C 
ATOM     92  C   UNL A   1      42.586  30.687  36.329  1.00  0.00    -0.036 A 
ATOM     93  H   UNL A   1      41.718  32.185  37.638  1.00  0.00     0.065 H 
ATOM     94  C   UNL A   1      42.238  30.286  35.049  1.00  0.00     0.049 A 
ATOM     95  H   UNL A   1      40.727  31.042  33.782  1.00  0.00     0.167 HD
ATOM     96  C   UNL A   1      42.397  28.888  33.011  1.00  0.00     0.074 A 
ATOM     97  C   UNL A   1      43.001  27.843  32.212  1.00  0.00    -0.034 C 
ATOM     98  H   UNL A   1      42.675  27.146  30.224  1.00  0.00     0.065 H 
ATOM     99  H   UNL A   1      43.353  30.294  36.897  1.00  0.00     0.065 H 
ATOM    100  C   UNL A   1      42.824  29.244  34.246  1.00  0.00     0.037 A 
ATOM    101  H   UNL A   1      43.777  27.242  32.531  1.00  0.00     0.065 H 
BRANCH  82 102
ATOM    102  C   UNL A   1      39.729  33.965  36.725  1.00  0.00     0.064 A 
ATOM    103  C   UNL A   1      38.926  33.670  37.836  1.00  0.00     0.173 A 
ATOM    104  C   UNL A   1      40.489  35.144  36.758  1.00  0.00     0.173 A 
ATOM    105  F   UNL A   1      38.174  32.559  37.851  1.00  0.00    -0.203 F 
ATOM    106  C   UNL A   1      38.882  34.526  38.935  1.00  0.00     0.198 A 
ATOM    107  C   UNL A   1      40.464  35.982  37.868  1.00  0.00     0.198 A 
ATOM    108  F   UNL A   1      41.278  35.469  35.722  1.00  0.00    -0.203 F 
ATOM    109  F   UNL A   1      38.088  34.237  39.975  1.00  0.00    -0.200 F 
ATOM    110  C   UNL A   1      39.660  35.674  38.954  1.00  0.00     0.200 A 
ATOM    111  F   UNL A   1      41.228  37.083  37.892  1.00  0.00    -0.200 F 
ATOM    112  F   UNL A   1      39.633  36.485  40.022  1.00  0.00    -0.200 F 
ENDBRANCH  82 102
BRANCH  85 113
ATOM    113  C   UNL A   1      40.619  28.035  28.741  1.00  0.00     0.064 A 
ATOM    114  C   UNL A   1      41.413  28.469  27.669  1.00  0.00     0.173 A 
ATOM    115  C   UNL A   1      39.976  26.796  28.614  1.00  0.00     0.173 A 
ATOM    116  F   UNL A   1      42.033  29.656  27.732  1.00  0.00    -0.203 F 
ATOM    117  C   UNL A   1      41.525  27.712  26.505  1.00  0.00     0.198 A 
ATOM    118  C   UNL A   1      40.118  26.025  27.463  1.00  0.00     0.198 A 
ATOM    119  F   UNL A   1      39.208  26.332  29.611  1.00  0.00    -0.203 F 
ATOM    120  F   UNL A   1      42.236  28.182  25.470  1.00  0.00    -0.200 F 
ATOM    121  C   UNL A   1      40.881  26.490  26.403  1.00  0.00     0.200 A 
ATOM    122  F   UNL A   1      39.504  24.836  27.376  1.00  0.00    -0.200 F 
ATOM    123  F   UNL A   1      40.984  25.766  25.280  1.00  0.00    -0.200 F 
ENDBRANCH  85 113
BRANCH 100 124
ATOM    124  C   UNL A   1      43.981  28.480  34.823  1.00  0.00     0.064 A 
ATOM    125  C   UNL A   1      45.303  28.922  34.672  1.00  0.00     0.173 A 
ATOM    126  C   UNL A   1      43.761  27.307  35.562  1.00  0.00     0.173 A 
ATOM    127  F   UNL A   1      45.568  30.029  33.960  1.00  0.00    -0.203 F 
ATOM    128  C   UNL A   1      46.365  28.205  35.217  1.00  0.00     0.198 A 
ATOM    129  C   UNL A   1      44.821  26.612  36.134  1.00  0.00     0.198 A 
ATOM    130  F   UNL A   1      42.514  26.844  35.742  1.00  0.00    -0.203 F 
ATOM    131  F   UNL A   1      47.623  28.618  35.015  1.00  0.00    -0.200 F 
ATOM    132  C   UNL A   1      46.123  27.055  35.953  1.00  0.00     0.200 A 
ATOM    133  F   UNL A   1      44.585  25.510  36.859  1.00  0.00    -0.200 F 
ATOM    134  F   UNL A   1      47.146  26.370  36.483  1.00  0.00    -0.200 F 
ENDBRANCH 100 124
ENDBRANCH  65  68
ENDBRANCH  55  58
ENDBRANCH  51  54
ENDBRANCH  48  51
ENDBRANCH  45  48
ENDBRANCH   1  45
TORSDOF 17
ENDMDL
MODEL 6
REMARK VINA RESULT:     -12.2      5.596     10.826
REMARK SMILES C[C@@H](C(=O)NCCCCCCNC(=O)c1ccc(-c2c3nc(c(-c4c(F)c(F)c(F)c(F)c4F)c4ccc([nH]4)c(-c4c(F)c(F)c(F)c(F)c4F)c4nc(c(-c5c(F)c(F)c(F)c(F)c5F)c5ccc2[nH]5)C=C4)C=C3)cc1)c1ccc(OC2CCCC2)cc1F
REMARK SMILES IDX 8 1 7 4 6 7 5 10 3 11 4 12 2 14 1 16 78 20 79 21 89 22 80 23
REMARK SMILES IDX 88 25 90 26 81 27 82 30 83 31 84 32 87 33 85 35 86 38 9 45
REMARK SMILES IDX 10 48 11 51 12 54 13 55 14 57 15 58 16 59 77 60 17 61 76 63
REMARK SMILES IDX 18 65 19 68 20 69 70 70 21 71 75 72 69 73 71 74 22 75 74 76
REMARK SMILES IDX 68 78 67 80 23 82 55 85 35 86 54 87 36 88 39 89 53 90 72 91
REMARK SMILES IDX 37 92 38 94 52 96 73 97 40 100 24 102 25 103 33 104 26 105
REMARK SMILES IDX 27 106 31 107 34 108 28 109 29 110 32 111 30 112 56 113
REMARK SMILES IDX 57 114 65 115 58 116 59 117 63 118 66 119 60 120 61 121
REMARK SMILES IDX 64 122 62 123 41 124 42 125 50 126 43 127 44 128 48 129
REMARK SMILES IDX 51 130 45 131 46 132 49 133 47 134
REMARK H PARENT 8 2 8 3 7 5 7 6 6 8 6 9 5 13 2 15 1 17 1 18 1 19 79 24 80 28
REMARK H PARENT 88 29 83 34 84 36 84 37 87 39 87 40 85 41 85 42 86 43 86 44
REMARK H PARENT 9 46 9 47 10 49 10 50 11 52 11 53 12 56 16 62 77 64 17 66
REMARK H PARENT 76 67 75 77 69 79 71 81 74 83 68 84 36 93 39 95 72 98 37 99
REMARK H PARENT 73 101
REMARK Flexibility Score: inf
ROOT
ATOM      1  C   UNL A   1      36.377  21.791  25.804  1.00  0.00    -0.052 C 
ATOM      2  H   UNL A   1      35.315  21.658  25.798  1.00  0.00     0.027 H 
ATOM      3  H   UNL A   1      36.850  21.388  26.675  1.00  0.00     0.027 H 
ENDROOT
BRANCH   1   4
ATOM      4  C   UNL A   1      36.668  23.298  25.814  1.00  0.00    -0.036 C 
ATOM      5  H   UNL A   1      36.414  23.683  26.780  1.00  0.00     0.028 H 
ATOM      6  H   UNL A   1      37.708  23.413  25.585  1.00  0.00     0.028 H 
BRANCH   4   7
ATOM      7  C   UNL A   1      35.893  24.090  24.760  1.00  0.00     0.017 C 
ATOM      8  H   UNL A   1      36.576  24.690  24.197  1.00  0.00     0.049 H 
ATOM      9  H   UNL A   1      35.387  23.405  24.113  1.00  0.00     0.049 H 
BRANCH   7  10
ATOM     10  N   UNL A   1      34.916  24.948  25.395  1.00  0.00    -0.356 N 
ATOM     11  C   UNL A   1      33.648  25.270  25.013  1.00  0.00     0.227 C 
ATOM     12  O   UNL A   1      33.101  26.170  25.649  1.00  0.00    -0.274 OA
ATOM     13  H   UNL A   1      35.214  25.363  26.237  1.00  0.00     0.163 HD
BRANCH  11  14
ATOM     14  C   UNL A   1      32.978  24.488  23.873  1.00  0.00     0.063 C 
ATOM     15  H   UNL A   1      33.680  24.582  23.070  1.00  0.00     0.045 H 
BRANCH  14  16
ATOM     16  C   UNL A   1      31.635  25.082  23.443  1.00  0.00    -0.049 C 
ATOM     17  H   UNL A   1      31.797  26.031  22.978  1.00  0.00     0.024 H 
ATOM     18  H   UNL A   1      31.010  25.207  24.303  1.00  0.00     0.024 H 
ATOM     19  H   UNL A   1      31.159  24.421  22.750  1.00  0.00     0.024 H 
ENDBRANCH  14  16
BRANCH  14  20
ATOM     20  C   UNL A   1      32.781  23.009  24.165  1.00  0.00     0.000 A 
ATOM     21  C   UNL A   1      32.600  22.511  25.461  1.00  0.00    -0.052 A 
ATOM     22  C   UNL A   1      32.695  22.106  23.103  1.00  0.00     0.130 A 
ATOM     23  C   UNL A   1      32.367  21.150  25.672  1.00  0.00    -0.019 A 
ATOM     24  H   UNL A   1      32.636  23.155  26.267  1.00  0.00     0.063 H 
ATOM     25  C   UNL A   1      32.447  20.752  23.308  1.00  0.00     0.016 A 
ATOM     26  F   UNL A   1      32.822  22.545  21.842  1.00  0.00    -0.207 F 
ATOM     27  C   UNL A   1      32.270  20.264  24.598  1.00  0.00     0.122 A 
ATOM     28  H   UNL A   1      32.268  20.794  26.635  1.00  0.00     0.066 H 
ATOM     29  H   UNL A   1      32.395  20.110  22.502  1.00  0.00     0.069 H 
BRANCH  27  30
ATOM     30  O   UNL A   1      32.010  18.977  24.957  1.00  0.00    -0.490 OA
BRANCH  30  31
ATOM     31  C   UNL A   1      32.848  17.895  24.576  1.00  0.00     0.099 C 
ATOM     32  C   UNL A   1      34.352  18.153  24.576  1.00  0.00    -0.016 C 
ATOM     33  C   UNL A   1      32.622  16.590  25.334  1.00  0.00    -0.016 C 
ATOM     34  H   UNL A   1      32.521  17.795  23.562  1.00  0.00     0.074 H 
ATOM     35  C   UNL A   1      34.952  16.758  24.560  1.00  0.00    -0.050 C 
ATOM     36  H   UNL A   1      34.648  18.686  25.456  1.00  0.00     0.030 H 
ATOM     37  H   UNL A   1      34.672  18.753  23.750  1.00  0.00     0.030 H 
ATOM     38  C   UNL A   1      33.963  15.861  25.301  1.00  0.00    -0.050 C 
ATOM     39  H   UNL A   1      31.866  16.005  24.854  1.00  0.00     0.030 H 
ATOM     40  H   UNL A   1      32.291  16.766  26.337  1.00  0.00     0.030 H 
ATOM     41  H   UNL A   1      35.900  16.755  25.057  1.00  0.00     0.027 H 
ATOM     42  H   UNL A   1      35.118  16.414  23.560  1.00  0.00     0.027 H 
ATOM     43  H   UNL A   1      34.307  15.682  26.299  1.00  0.00     0.027 H 
ATOM     44  H   UNL A   1      33.867  14.916  24.808  1.00  0.00     0.027 H 
ENDBRANCH  30  31
ENDBRANCH  27  30
ENDBRANCH  14  20
ENDBRANCH  11  14
ENDBRANCH   7  10
ENDBRANCH   4   7
ENDBRANCH   1   4
BRANCH   1  45
ATOM     45  C   UNL A   1      36.958  21.029  24.610  1.00  0.00    -0.052 C 
ATOM     46  H   UNL A   1      37.501  21.724  24.003  1.00  0.00     0.027 H 
ATOM     47  H   UNL A   1      36.128  20.585  24.101  1.00  0.00     0.027 H 
BRANCH  45  48
ATOM     48  C   UNL A   1      37.901  19.883  24.980  1.00  0.00    -0.036 C 
ATOM     49  H   UNL A   1      38.206  19.397  24.077  1.00  0.00     0.028 H 
ATOM     50  H   UNL A   1      37.356  19.239  25.637  1.00  0.00     0.028 H 
BRANCH  48  51
ATOM     51  C   UNL A   1      39.153  20.316  25.735  1.00  0.00     0.018 C 
ATOM     52  H   UNL A   1      38.868  20.665  26.705  1.00  0.00     0.049 H 
ATOM     53  H   UNL A   1      39.629  21.090  25.170  1.00  0.00     0.049 H 
BRANCH  51  54
ATOM     54  N   UNL A   1      40.102  19.224  25.889  1.00  0.00    -0.352 N 
ATOM     55  C   UNL A   1      41.456  19.274  26.097  1.00  0.00     0.251 C 
ATOM     56  H   UNL A   1      39.716  18.320  25.837  1.00  0.00     0.163 HD
ATOM     57  O   UNL A   1      42.137  18.255  26.000  1.00  0.00    -0.269 OA
BRANCH  55  58
ATOM     58  C   UNL A   1      42.105  20.563  26.413  1.00  0.00     0.039 A 
ATOM     59  C   UNL A   1      42.561  21.365  25.364  1.00  0.00    -0.049 A 
ATOM     60  C   UNL A   1      42.254  20.985  27.738  1.00  0.00    -0.049 A 
ATOM     61  C   UNL A   1      43.100  22.622  25.639  1.00  0.00    -0.053 A 
ATOM     62  H   UNL A   1      42.500  21.028  24.391  1.00  0.00     0.063 H 
ATOM     63  C   UNL A   1      42.728  22.267  28.007  1.00  0.00    -0.053 A 
ATOM     64  H   UNL A   1      42.014  20.349  28.514  1.00  0.00     0.063 H 
ATOM     65  C   UNL A   1      43.146  23.101  26.959  1.00  0.00    -0.014 A 
ATOM     66  H   UNL A   1      43.466  23.203  24.869  1.00  0.00     0.063 H 
ATOM     67  H   UNL A   1      42.770  22.605  28.981  1.00  0.00     0.063 H 
BRANCH  65  68
ATOM     68  C   UNL A   1      43.589  24.489  27.252  1.00  0.00     0.031 A 
ATOM     69  C   UNL A   1      42.611  25.513  27.760  1.00  0.00     0.074 A 
ATOM     70  C   UNL A   1      44.864  24.841  26.994  1.00  0.00     0.049 A 
ATOM     71  N   UNL A   1      42.802  26.783  28.009  1.00  0.00    -0.248 NA
ATOM     72  C   UNL A   1      41.233  25.055  27.998  1.00  0.00    -0.034 C 
ATOM     73  C   UNL A   1      45.893  23.950  26.451  1.00  0.00    -0.036 A 
ATOM     74  N   UNL A   1      45.512  26.044  27.138  1.00  0.00    -0.354 N 
ATOM     75  C   UNL A   1      41.573  27.278  28.421  1.00  0.00     0.074 A 
ATOM     76  C   UNL A   1      40.629  26.183  28.348  1.00  0.00    -0.034 C 
ATOM     77  H   UNL A   1      40.839  24.106  27.914  1.00  0.00     0.065 H 
ATOM     78  C   UNL A   1      47.043  24.631  26.324  1.00  0.00    -0.036 A 
ATOM     79  H   UNL A   1      45.755  22.958  26.205  1.00  0.00     0.065 H 
ATOM     80  C   UNL A   1      46.825  26.014  26.734  1.00  0.00     0.049 A 
ATOM     81  H   UNL A   1      45.077  26.849  27.497  1.00  0.00     0.167 HD
ATOM     82  C   UNL A   1      41.265  28.529  28.839  1.00  0.00     0.037 A 
ATOM     83  H   UNL A   1      39.620  26.268  28.544  1.00  0.00     0.065 H 
ATOM     84  H   UNL A   1      47.937  24.238  25.990  1.00  0.00     0.065 H 
ATOM     85  C   UNL A   1      47.745  26.997  26.683  1.00  0.00     0.037 A 
ATOM     86  C   UNL A   1      42.213  29.608  28.937  1.00  0.00     0.049 A 
ATOM     87  C   UNL A   1      47.366  28.379  27.143  1.00  0.00     0.074 A 
ATOM     88  C   UNL A   1      42.013  30.887  29.427  1.00  0.00    -0.036 A 
ATOM     89  N   UNL A   1      43.537  29.538  28.531  1.00  0.00    -0.354 N 
ATOM     90  N   UNL A   1      46.222  28.811  27.616  1.00  0.00    -0.248 NA
ATOM     91  C   UNL A   1      48.409  29.413  27.065  1.00  0.00    -0.034 C 
ATOM     92  C   UNL A   1      43.199  31.610  29.263  1.00  0.00    -0.036 A 
ATOM     93  H   UNL A   1      41.139  31.246  29.841  1.00  0.00     0.065 H 
ATOM     94  C   UNL A   1      44.155  30.764  28.726  1.00  0.00     0.049 A 
ATOM     95  H   UNL A   1      43.974  28.737  28.160  1.00  0.00     0.167 HD
ATOM     96  C   UNL A   1      46.415  30.152  27.917  1.00  0.00     0.074 A 
ATOM     97  C   UNL A   1      47.793  30.458  27.596  1.00  0.00    -0.034 C 
ATOM     98  H   UNL A   1      49.370  29.342  26.695  1.00  0.00     0.065 H 
ATOM     99  H   UNL A   1      43.338  32.604  29.501  1.00  0.00     0.065 H 
ATOM    100  C   UNL A   1      45.530  31.052  28.408  1.00  0.00     0.037 A 
ATOM    101  H   UNL A   1      48.238  31.375  27.759  1.00  0.00     0.065 H 
BRANCH  82 102
ATOM    102  C   UNL A   1      39.844  28.814  29.231  1.00  0.00     0.064 A 
ATOM    103  C   UNL A   1      38.893  29.239  28.292  1.00  0.00     0.173 A 
ATOM    104  C   UNL A   1      39.409  28.569  30.543  1.00  0.00     0.173 A 
ATOM    105  F   UNL A   1      39.260  29.495  27.028  1.00  0.00    -0.203 F 
ATOM    106  C   UNL A   1      37.560  29.416  28.655  1.00  0.00     0.198 A 
ATOM    107  C   UNL A   1      38.071  28.721  30.894  1.00  0.00     0.198 A 
ATOM    108  F   UNL A   1      40.278  28.155  31.478  1.00  0.00    -0.203 F 
ATOM    109  F   UNL A   1      36.673  29.848  27.747  1.00  0.00    -0.200 F 
ATOM    110  C   UNL A   1      37.148  29.146  29.951  1.00  0.00     0.200 A 
ATOM    111  F   UNL A   1      37.672  28.444  32.143  1.00  0.00    -0.200 F 
ATOM    112  F   UNL A   1      35.860  29.297  30.292  1.00  0.00    -0.200 F 
ENDBRANCH  82 102
BRANCH  85 113
ATOM    113  C   UNL A   1      49.114  26.720  26.169  1.00  0.00     0.064 A 
ATOM    114  C   UNL A   1      49.458  27.001  24.839  1.00  0.00     0.173 A 
ATOM    115  C   UNL A   1      50.092  26.130  26.983  1.00  0.00     0.173 A 
ATOM    116  F   UNL A   1      48.553  27.546  24.014  1.00  0.00    -0.203 F 
ATOM    117  C   UNL A   1      50.713  26.667  24.334  1.00  0.00     0.198 A 
ATOM    118  C   UNL A   1      51.358  25.830  26.486  1.00  0.00     0.198 A 
ATOM    119  F   UNL A   1      49.818  25.845  28.265  1.00  0.00    -0.203 F 
ATOM    120  F   UNL A   1      50.991  26.884  23.041  1.00  0.00    -0.200 F 
ATOM    121  C   UNL A   1      51.663  26.085  25.158  1.00  0.00     0.200 A 
ATOM    122  F   UNL A   1      52.278  25.280  27.291  1.00  0.00    -0.200 F 
ATOM    123  F   UNL A   1      52.867  25.758  24.670  1.00  0.00    -0.200 F 
ENDBRANCH  85 113
BRANCH 100 124
ATOM    124  C   UNL A   1      46.030  32.446  28.656  1.00  0.00     0.064 A 
ATOM    125  C   UNL A   1      46.607  32.813  29.880  1.00  0.00     0.173 A 
ATOM    126  C   UNL A   1      45.960  33.418  27.646  1.00  0.00     0.173 A 
ATOM    127  F   UNL A   1      46.684  31.926  30.884  1.00  0.00    -0.203 F 
ATOM    128  C   UNL A   1      47.071  34.109  30.093  1.00  0.00     0.198 A 
ATOM    129  C   UNL A   1      46.454  34.702  27.851  1.00  0.00     0.198 A 
ATOM    130  F   UNL A   1      45.422  33.117  26.453  1.00  0.00    -0.203 F 
ATOM    131  F   UNL A   1      47.570  34.451  31.289  1.00  0.00    -0.200 F 
ATOM    132  C   UNL A   1      47.001  35.049  29.077  1.00  0.00     0.200 A 
ATOM    133  F   UNL A   1      46.401  35.605  26.862  1.00  0.00    -0.200 F 
ATOM    134  F   UNL A   1      47.455  36.294  29.281  1.00  0.00    -0.200 F 
ENDBRANCH 100 124
ENDBRANCH  65  68
ENDBRANCH  55  58
ENDBRANCH  51  54
ENDBRANCH  48  51
ENDBRANCH  45  48
ENDBRANCH   1  45
TORSDOF 17
ENDMDL
MODEL 7
REMARK VINA RESULT:     -12.2      5.603     10.848
REMARK SMILES C[C@@H](C(=O)NCCCCCCNC(=O)c1ccc(-c2c3nc(c(-c4c(F)c(F)c(F)c(F)c4F)c4ccc([nH]4)c(-c4c(F)c(F)c(F)c(F)c4F)c4nc(c(-c5c(F)c(F)c(F)c(F)c5F)c5ccc2[nH]5)C=C4)C=C3)cc1)c1ccc(OC2CCCC2)cc1F
REMARK SMILES IDX 8 1 7 4 6 7 5 10 3 11 4 12 2 14 1 16 78 20 79 21 89 22 80 23
REMARK SMILES IDX 88 25 90 26 81 27 82 30 83 31 84 32 87 33 85 35 86 38 9 45
REMARK SMILES IDX 10 48 11 51 12 54 13 55 14 57 15 58 16 59 77 60 17 61 76 63
REMARK SMILES IDX 18 65 19 68 20 69 70 70 21 71 75 72 69 73 71 74 22 75 74 76
REMARK SMILES IDX 68 78 67 80 23 82 55 85 35 86 54 87 36 88 39 89 53 90 72 91
REMARK SMILES IDX 37 92 38 94 52 96 73 97 40 100 24 102 25 103 33 104 26 105
REMARK SMILES IDX 27 106 31 107 34 108 28 109 29 110 32 111 30 112 56 113
REMARK SMILES IDX 57 114 65 115 58 116 59 117 63 118 66 119 60 120 61 121
REMARK SMILES IDX 64 122 62 123 41 124 42 125 50 126 43 127 44 128 48 129
REMARK SMILES IDX 51 130 45 131 46 132 49 133 47 134
REMARK H PARENT 8 2 8 3 7 5 7 6 6 8 6 9 5 13 2 15 1 17 1 18 1 19 79 24 80 28
REMARK H PARENT 88 29 83 34 84 36 84 37 87 39 87 40 85 41 85 42 86 43 86 44
REMARK H PARENT 9 46 9 47 10 49 10 50 11 52 11 53 12 56 16 62 77 64 17 66
REMARK H PARENT 76 67 75 77 69 79 71 81 74 83 68 84 36 93 39 95 72 98 37 99
REMARK H PARENT 73 101
REMARK Flexibility Score: inf
ROOT
ATOM      1  C   UNL A   1      36.195  21.457  25.615  1.00  0.00    -0.052 C 
ATOM      2  H   UNL A   1      35.173  21.350  25.316  1.00  0.00     0.027 H 
ATOM      3  H   UNL A   1      36.430  20.936  26.520  1.00  0.00     0.027 H 
ENDROOT
BRANCH   1   4
ATOM      4  C   UNL A   1      36.457  22.944  25.894  1.00  0.00    -0.036 C 
ATOM      5  H   UNL A   1      35.974  23.203  26.813  1.00  0.00     0.028 H 
ATOM      6  H   UNL A   1      37.519  23.067  25.936  1.00  0.00     0.028 H 
BRANCH   4   7
ATOM      7  C   UNL A   1      35.946  23.883  24.800  1.00  0.00     0.017 C 
ATOM      8  H   UNL A   1      36.780  24.306  24.281  1.00  0.00     0.049 H 
ATOM      9  H   UNL A   1      35.336  23.326  24.120  1.00  0.00     0.049 H 
BRANCH   7  10
ATOM     10  N   UNL A   1      35.155  24.946  25.380  1.00  0.00    -0.356 N 
ATOM     11  C   UNL A   1      33.993  25.513  24.949  1.00  0.00     0.227 C 
ATOM     12  O   UNL A   1      33.631  26.529  25.543  1.00  0.00    -0.274 OA
ATOM     13  H   UNL A   1      35.511  25.318  26.219  1.00  0.00     0.163 HD
BRANCH  11  14
ATOM     14  C   UNL A   1      33.204  24.852  23.809  1.00  0.00     0.063 C 
ATOM     15  H   UNL A   1      33.875  24.921  22.978  1.00  0.00     0.045 H 
BRANCH  14  16
ATOM     16  C   UNL A   1      31.904  25.586  23.472  1.00  0.00    -0.049 C 
ATOM     17  H   UNL A   1      32.124  26.600  23.213  1.00  0.00     0.024 H 
ATOM     18  H   UNL A   1      31.254  25.567  24.322  1.00  0.00     0.024 H 
ATOM     19  H   UNL A   1      31.425  25.101  22.647  1.00  0.00     0.024 H 
ENDBRANCH  14  16
BRANCH  14  20
ATOM     20  C   UNL A   1      32.883  23.384  24.044  1.00  0.00     0.000 A 
ATOM     21  C   UNL A   1      32.466  22.891  25.287  1.00  0.00    -0.052 A 
ATOM     22  C   UNL A   1      32.924  22.494  22.970  1.00  0.00     0.130 A 
ATOM     23  C   UNL A   1      32.130  21.543  25.438  1.00  0.00    -0.019 A 
ATOM     24  H   UNL A   1      32.404  23.527  26.096  1.00  0.00     0.063 H 
ATOM     25  C   UNL A   1      32.574  21.154  23.113  1.00  0.00     0.016 A 
ATOM     26  F   UNL A   1      33.279  22.931  21.753  1.00  0.00    -0.207 F 
ATOM     27  C   UNL A   1      32.162  20.670  24.349  1.00  0.00     0.122 A 
ATOM     28  H   UNL A   1      31.855  21.189  26.367  1.00  0.00     0.066 H 
ATOM     29  H   UNL A   1      32.620  20.520  22.300  1.00  0.00     0.069 H 
BRANCH  27  30
ATOM     30  O   UNL A   1      31.778  19.397  24.644  1.00  0.00    -0.490 OA
BRANCH  30  31
ATOM     31  C   UNL A   1      32.642  18.282  24.472  1.00  0.00     0.099 C 
ATOM     32  C   UNL A   1      32.766  17.714  23.061  1.00  0.00    -0.016 C 
ATOM     33  C   UNL A   1      34.062  18.463  25.003  1.00  0.00    -0.016 C 
ATOM     34  H   UNL A   1      32.109  17.578  25.076  1.00  0.00     0.074 H 
ATOM     35  C   UNL A   1      34.028  16.871  23.126  1.00  0.00    -0.050 C 
ATOM     36  H   UNL A   1      32.868  18.499  22.341  1.00  0.00     0.030 H 
ATOM     37  H   UNL A   1      31.906  17.153  22.761  1.00  0.00     0.030 H 
ATOM     38  C   UNL A   1      34.936  17.544  24.154  1.00  0.00    -0.050 C 
ATOM     39  H   UNL A   1      34.114  18.182  26.034  1.00  0.00     0.030 H 
ATOM     40  H   UNL A   1      34.381  19.483  24.941  1.00  0.00     0.030 H 
ATOM     41  H   UNL A   1      34.507  16.844  22.169  1.00  0.00     0.027 H 
ATOM     42  H   UNL A   1      33.810  15.860  23.401  1.00  0.00     0.027 H 
ATOM     43  H   UNL A   1      35.692  18.116  23.657  1.00  0.00     0.027 H 
ATOM     44  H   UNL A   1      35.421  16.812  24.766  1.00  0.00     0.027 H 
ENDBRANCH  30  31
ENDBRANCH  27  30
ENDBRANCH  14  20
ENDBRANCH  11  14
ENDBRANCH   7  10
ENDBRANCH   4   7
ENDBRANCH   1   4
BRANCH   1  45
ATOM     45  C   UNL A   1      37.076  20.840  24.526  1.00  0.00    -0.052 C 
ATOM     46  H   UNL A   1      37.700  21.612  24.124  1.00  0.00     0.027 H 
ATOM     47  H   UNL A   1      36.411  20.418  23.801  1.00  0.00     0.027 H 
BRANCH  45  48
ATOM     48  C   UNL A   1      37.977  19.699  25.001  1.00  0.00    -0.036 C 
ATOM     49  H   UNL A   1      38.290  19.141  24.143  1.00  0.00     0.028 H 
ATOM     50  H   UNL A   1      37.399  19.119  25.688  1.00  0.00     0.028 H 
BRANCH  48  51
ATOM     51  C   UNL A   1      39.222  20.152  25.755  1.00  0.00     0.018 C 
ATOM     52  H   UNL A   1      38.933  20.491  26.728  1.00  0.00     0.049 H 
ATOM     53  H   UNL A   1      39.681  20.938  25.193  1.00  0.00     0.049 H 
BRANCH  51  54
ATOM     54  N   UNL A   1      40.193  19.079  25.901  1.00  0.00    -0.352 N 
ATOM     55  C   UNL A   1      41.547  19.154  26.101  1.00  0.00     0.251 C 
ATOM     56  H   UNL A   1      39.824  18.168  25.848  1.00  0.00     0.163 HD
ATOM     57  O   UNL A   1      42.247  18.149  25.997  1.00  0.00    -0.269 OA
BRANCH  55  58
ATOM     58  C   UNL A   1      42.173  20.454  26.417  1.00  0.00     0.039 A 
ATOM     59  C   UNL A   1      42.698  21.222  25.376  1.00  0.00    -0.049 A 
ATOM     60  C   UNL A   1      42.232  20.920  27.735  1.00  0.00    -0.049 A 
ATOM     61  C   UNL A   1      43.217  22.489  25.645  1.00  0.00    -0.053 A 
ATOM     62  H   UNL A   1      42.702  20.854  24.412  1.00  0.00     0.063 H 
ATOM     63  C   UNL A   1      42.687  22.211  27.993  1.00  0.00    -0.053 A 
ATOM     64  H   UNL A   1      41.942  20.308  28.514  1.00  0.00     0.063 H 
ATOM     65  C   UNL A   1      43.174  23.012  26.949  1.00  0.00    -0.014 A 
ATOM     66  H   UNL A   1      43.633  23.046  24.882  1.00  0.00     0.063 H 
ATOM     67  H   UNL A   1      42.664  22.580  28.956  1.00  0.00     0.063 H 
BRANCH  65  68
ATOM     68  C   UNL A   1      43.596  24.410  27.225  1.00  0.00     0.031 A 
ATOM     69  C   UNL A   1      42.600  25.427  27.707  1.00  0.00     0.074 A 
ATOM     70  C   UNL A   1      44.869  24.774  26.974  1.00  0.00     0.049 A 
ATOM     71  N   UNL A   1      42.772  26.704  27.939  1.00  0.00    -0.248 NA
ATOM     72  C   UNL A   1      41.225  24.956  27.939  1.00  0.00    -0.034 C 
ATOM     73  C   UNL A   1      45.914  23.889  26.454  1.00  0.00    -0.036 A 
ATOM     74  N   UNL A   1      45.499  25.987  27.106  1.00  0.00    -0.354 N 
ATOM     75  C   UNL A   1      41.532  27.189  28.331  1.00  0.00     0.074 A 
ATOM     76  C   UNL A   1      40.603  26.080  28.266  1.00  0.00    -0.034 C 
ATOM     77  H   UNL A   1      40.845  24.000  27.866  1.00  0.00     0.065 H 
ATOM     78  C   UNL A   1      47.057  24.583  26.329  1.00  0.00    -0.036 A 
ATOM     79  H   UNL A   1      45.792  22.892  26.223  1.00  0.00     0.065 H 
ATOM     80  C   UNL A   1      46.817  25.969  26.715  1.00  0.00     0.049 A 
ATOM     81  H   UNL A   1      45.050  26.793  27.449  1.00  0.00     0.167 HD
ATOM     82  C   UNL A   1      41.203  28.442  28.728  1.00  0.00     0.037 A 
ATOM     83  H   UNL A   1      39.591  26.155  28.451  1.00  0.00     0.065 H 
ATOM     84  H   UNL A   1      47.959  24.197  26.010  1.00  0.00     0.065 H 
ATOM     85  C   UNL A   1      47.724  26.963  26.658  1.00  0.00     0.037 A 
ATOM     86  C   UNL A   1      42.137  29.534  28.819  1.00  0.00     0.049 A 
ATOM     87  C   UNL A   1      47.323  28.347  27.094  1.00  0.00     0.074 A 
ATOM     88  C   UNL A   1      41.915  30.818  29.287  1.00  0.00    -0.036 A 
ATOM     89  N   UNL A   1      43.465  29.476  28.427  1.00  0.00    -0.354 N 
ATOM     90  N   UNL A   1      46.168  28.771  27.549  1.00  0.00    -0.248 NA
ATOM     91  C   UNL A   1      48.353  29.393  27.011  1.00  0.00    -0.034 C 
ATOM     92  C   UNL A   1      43.092  31.554  29.124  1.00  0.00    -0.036 A 
ATOM     93  H   UNL A   1      41.032  31.171  29.688  1.00  0.00     0.065 H 
ATOM     94  C   UNL A   1      44.065  30.712  28.609  1.00  0.00     0.049 A 
ATOM     95  H   UNL A   1      43.916  28.675  28.072  1.00  0.00     0.167 HD
ATOM     96  C   UNL A   1      46.341  30.118  27.832  1.00  0.00     0.074 A 
ATOM     97  C   UNL A   1      47.718  30.438  27.519  1.00  0.00    -0.034 C 
ATOM     98  H   UNL A   1      49.318  29.329  26.651  1.00  0.00     0.065 H 
ATOM     99  H   UNL A   1      43.216  32.553  29.348  1.00  0.00     0.065 H 
ATOM    100  C   UNL A   1      45.439  31.014  28.300  1.00  0.00     0.037 A 
ATOM    101  H   UNL A   1      48.149  31.363  27.674  1.00  0.00     0.065 H 
BRANCH  82 102
ATOM    102  C   UNL A   1      39.775  28.714  29.102  1.00  0.00     0.064 A 
ATOM    103  C   UNL A   1      39.316  28.552  30.417  1.00  0.00     0.173 A 
ATOM    104  C   UNL A   1      38.881  29.233  28.153  1.00  0.00     0.173 A 
ATOM    105  F   UNL A   1      40.129  28.052  31.360  1.00  0.00    -0.203 F 
ATOM    106  C   UNL A   1      38.011  28.890  30.766  1.00  0.00     0.198 A 
ATOM    107  C   UNL A   1      37.586  29.595  28.511  1.00  0.00     0.198 A 
ATOM    108  F   UNL A   1      39.273  29.413  26.882  1.00  0.00    -0.203 F 
ATOM    109  F   UNL A   1      37.585  28.702  32.022  1.00  0.00    -0.200 F 
ATOM    110  C   UNL A   1      37.151  29.422  29.816  1.00  0.00     0.200 A 
ATOM    111  F   UNL A   1      36.762  30.124  27.596  1.00  0.00    -0.200 F 
ATOM    112  F   UNL A   1      35.902  29.768  30.159  1.00  0.00    -0.200 F 
ENDBRANCH  82 102
BRANCH  85 113
ATOM    113  C   UNL A   1      49.102  26.697  26.162  1.00  0.00     0.064 A 
ATOM    114  C   UNL A   1      50.111  26.260  27.033  1.00  0.00     0.173 A 
ATOM    115  C   UNL A   1      49.449  26.915  24.821  1.00  0.00     0.173 A 
ATOM    116  F   UNL A   1      49.836  26.057  28.329  1.00  0.00    -0.203 F 
ATOM    117  C   UNL A   1      51.421  26.089  26.589  1.00  0.00     0.198 A 
ATOM    118  C   UNL A   1      50.751  26.708  24.371  1.00  0.00     0.198 A 
ATOM    119  F   UNL A   1      48.521  27.327  23.945  1.00  0.00    -0.203 F 
ATOM    120  F   UNL A   1      52.379  25.737  27.457  1.00  0.00    -0.200 F 
ATOM    121  C   UNL A   1      51.740  26.310  25.258  1.00  0.00     0.200 A 
ATOM    122  F   UNL A   1      51.050  26.909  23.080  1.00  0.00    -0.200 F 
ATOM    123  F   UNL A   1      53.000  26.151  24.833  1.00  0.00    -0.200 F 
ENDBRANCH  85 113
BRANCH 100 124
ATOM    124  C   UNL A   1      45.918  32.418  28.532  1.00  0.00     0.064 A 
ATOM    125  C   UNL A   1      45.821  33.402  27.539  1.00  0.00     0.173 A 
ATOM    126  C   UNL A   1      46.453  32.791  29.776  1.00  0.00     0.173 A 
ATOM    127  F   UNL A   1      45.332  33.093  26.327  1.00  0.00    -0.203 F 
ATOM    128  C   UNL A   1      46.266  34.701  27.770  1.00  0.00     0.198 A 
ATOM    129  C   UNL A   1      46.865  34.098  30.015  1.00  0.00     0.198 A 
ATOM    130  F   UNL A   1      46.562  31.889  30.764  1.00  0.00    -0.203 F 
ATOM    131  F   UNL A   1      46.212  35.611  26.788  1.00  0.00    -0.200 F 
ATOM    132  C   UNL A   1      46.780  35.050  29.010  1.00  0.00     0.200 A 
ATOM    133  F   UNL A   1      47.346  34.438  31.219  1.00  0.00    -0.200 F 
ATOM    134  F   UNL A   1      47.201  36.302  29.234  1.00  0.00    -0.200 F 
ENDBRANCH 100 124
ENDBRANCH  65  68
ENDBRANCH  55  58
ENDBRANCH  51  54
ENDBRANCH  48  51
ENDBRANCH  45  48
ENDBRANCH   1  45
TORSDOF 17
ENDMDL
MODEL 8
REMARK VINA RESULT:     -12.1      0.835      1.849
REMARK SMILES C[C@@H](C(=O)NCCCCCCNC(=O)c1ccc(-c2c3nc(c(-c4c(F)c(F)c(F)c(F)c4F)c4ccc([nH]4)c(-c4c(F)c(F)c(F)c(F)c4F)c4nc(c(-c5c(F)c(F)c(F)c(F)c5F)c5ccc2[nH]5)C=C4)C=C3)cc1)c1ccc(OC2CCCC2)cc1F
REMARK SMILES IDX 8 1 7 4 6 7 5 10 3 11 4 12 2 14 1 16 78 20 79 21 89 22 80 23
REMARK SMILES IDX 88 25 90 26 81 27 82 30 83 31 84 32 87 33 85 35 86 38 9 45
REMARK SMILES IDX 10 48 11 51 12 54 13 55 14 57 15 58 16 59 77 60 17 61 76 63
REMARK SMILES IDX 18 65 19 68 20 69 70 70 21 71 75 72 69 73 71 74 22 75 74 76
REMARK SMILES IDX 68 78 67 80 23 82 55 85 35 86 54 87 36 88 39 89 53 90 72 91
REMARK SMILES IDX 37 92 38 94 52 96 73 97 40 100 24 102 25 103 33 104 26 105
REMARK SMILES IDX 27 106 31 107 34 108 28 109 29 110 32 111 30 112 56 113
REMARK SMILES IDX 57 114 65 115 58 116 59 117 63 118 66 119 60 120 61 121
REMARK SMILES IDX 64 122 62 123 41 124 42 125 50 126 43 127 44 128 48 129
REMARK SMILES IDX 51 130 45 131 46 132 49 133 47 134
REMARK H PARENT 8 2 8 3 7 5 7 6 6 8 6 9 5 13 2 15 1 17 1 18 1 19 79 24 80 28
REMARK H PARENT 88 29 83 34 84 36 84 37 87 39 87 40 85 41 85 42 86 43 86 44
REMARK H PARENT 9 46 9 47 10 49 10 50 11 52 11 53 12 56 16 62 77 64 17 66
REMARK H PARENT 76 67 75 77 69 79 71 81 74 83 68 84 36 93 39 95 72 98 37 99
REMARK H PARENT 73 101
REMARK Flexibility Score: inf
ROOT
ATOM      1  C   UNL A   1      31.972  29.492  27.308  1.00  0.00    -0.052 C 
ATOM      2  H   UNL A   1      32.993  29.536  27.626  1.00  0.00     0.027 H 
ATOM      3  H   UNL A   1      31.277  29.777  28.071  1.00  0.00     0.027 H 
ENDROOT
BRANCH   1   4
ATOM      4  C   UNL A   1      31.645  28.036  26.952  1.00  0.00    -0.036 C 
ATOM      5  H   UNL A   1      31.892  27.420  27.792  1.00  0.00     0.028 H 
ATOM      6  H   UNL A   1      30.603  28.004  26.709  1.00  0.00     0.028 H 
BRANCH   4   7
ATOM      7  C   UNL A   1      32.400  27.508  25.731  1.00  0.00     0.017 C 
ATOM      8  H   UNL A   1      32.938  28.312  25.274  1.00  0.00     0.049 H 
ATOM      9  H   UNL A   1      33.081  26.745  26.046  1.00  0.00     0.049 H 
BRANCH   7  10
ATOM     10  N   UNL A   1      31.475  26.947  24.772  1.00  0.00    -0.356 N 
ATOM     11  C   UNL A   1      31.643  25.933  23.876  1.00  0.00     0.227 C 
ATOM     12  O   UNL A   1      30.742  25.782  23.052  1.00  0.00    -0.274 OA
ATOM     13  H   UNL A   1      30.582  27.362  24.765  1.00  0.00     0.163 HD
BRANCH  11  14
ATOM     14  C   UNL A   1      32.889  25.038  23.969  1.00  0.00     0.063 C 
ATOM     15  H   UNL A   1      33.400  25.423  24.826  1.00  0.00     0.045 H 
BRANCH  14  16
ATOM     16  C   UNL A   1      33.800  25.146  22.744  1.00  0.00    -0.049 C 
ATOM     17  H   UNL A   1      34.452  24.299  22.710  1.00  0.00     0.024 H 
ATOM     18  H   UNL A   1      34.381  26.043  22.811  1.00  0.00     0.024 H 
ATOM     19  H   UNL A   1      33.202  25.174  21.858  1.00  0.00     0.024 H 
ENDBRANCH  14  16
BRANCH  14  20
ATOM     20  C   UNL A   1      32.582  23.569  24.215  1.00  0.00     0.000 A 
ATOM     21  C   UNL A   1      32.543  22.621  23.185  1.00  0.00    -0.052 A 
ATOM     22  C   UNL A   1      32.411  23.116  25.524  1.00  0.00     0.130 A 
ATOM     23  C   UNL A   1      32.311  21.274  23.470  1.00  0.00    -0.019 A 
ATOM     24  H   UNL A   1      32.686  22.921  22.208  1.00  0.00     0.063 H 
ATOM     25  C   UNL A   1      32.197  21.771  25.814  1.00  0.00     0.016 A 
ATOM     26  F   UNL A   1      32.482  23.982  26.546  1.00  0.00    -0.207 F 
ATOM     27  C   UNL A   1      32.156  20.835  24.786  1.00  0.00     0.122 A 
ATOM     28  H   UNL A   1      32.253  20.593  22.697  1.00  0.00     0.066 H 
ATOM     29  H   UNL A   1      32.068  21.468  26.792  1.00  0.00     0.069 H 
BRANCH  27  30
ATOM     30  O   UNL A   1      31.970  19.492  24.909  1.00  0.00    -0.490 OA
BRANCH  30  31
ATOM     31  C   UNL A   1      33.025  18.557  24.732  1.00  0.00     0.099 C 
ATOM     32  C   UNL A   1      33.036  17.345  25.659  1.00  0.00    -0.016 C 
ATOM     33  C   UNL A   1      33.205  18.030  23.311  1.00  0.00    -0.016 C 
ATOM     34  H   UNL A   1      33.843  19.194  24.997  1.00  0.00     0.074 H 
ATOM     35  C   UNL A   1      33.970  16.372  24.961  1.00  0.00    -0.050 C 
ATOM     36  H   UNL A   1      32.055  16.929  25.757  1.00  0.00     0.030 H 
ATOM     37  H   UNL A   1      33.352  17.584  26.653  1.00  0.00     0.030 H 
ATOM     38  C   UNL A   1      33.828  16.645  23.465  1.00  0.00    -0.050 C 
ATOM     39  H   UNL A   1      33.854  18.673  22.754  1.00  0.00     0.030 H 
ATOM     40  H   UNL A   1      32.275  17.990  22.783  1.00  0.00     0.030 H 
ATOM     41  H   UNL A   1      33.690  15.363  25.183  1.00  0.00     0.027 H 
ATOM     42  H   UNL A   1      34.982  16.499  25.287  1.00  0.00     0.027 H 
ATOM     43  H   UNL A   1      33.196  15.907  23.017  1.00  0.00     0.027 H 
ATOM     44  H   UNL A   1      34.782  16.604  22.981  1.00  0.00     0.027 H 
ENDBRANCH  30  31
ENDBRANCH  27  30
ENDBRANCH  14  20
ENDBRANCH  11  14
ENDBRANCH   7  10
ENDBRANCH   4   7
ENDBRANCH   1   4
BRANCH   1  45
ATOM     45  C   UNL A   1      31.787  30.494  26.165  1.00  0.00    -0.052 C 
ATOM     46  H   UNL A   1      30.966  30.163  25.562  1.00  0.00     0.027 H 
ATOM     47  H   UNL A   1      32.715  30.521  25.633  1.00  0.00     0.027 H 
BRANCH  45  48
ATOM     48  C   UNL A   1      31.501  31.928  26.611  1.00  0.00    -0.036 C 
ATOM     49  H   UNL A   1      30.654  31.913  27.264  1.00  0.00     0.028 H 
ATOM     50  H   UNL A   1      31.332  32.497  25.721  1.00  0.00     0.028 H 
BRANCH  48  51
ATOM     51  C   UNL A   1      32.656  32.602  27.344  1.00  0.00     0.018 C 
ATOM     52  H   UNL A   1      33.544  32.501  26.756  1.00  0.00     0.049 H 
ATOM     53  H   UNL A   1      32.766  32.125  28.295  1.00  0.00     0.049 H 
BRANCH  51  54
ATOM     54  N   UNL A   1      32.404  34.015  27.578  1.00  0.00    -0.352 N 
ATOM     55  C   UNL A   1      32.973  34.857  28.497  1.00  0.00     0.251 C 
ATOM     56  H   UNL A   1      31.728  34.425  26.991  1.00  0.00     0.163 HD
ATOM     57  O   UNL A   1      32.496  35.974  28.695  1.00  0.00    -0.269 OA
BRANCH  55  58
ATOM     58  C   UNL A   1      34.148  34.413  29.274  1.00  0.00     0.039 A 
ATOM     59  C   UNL A   1      33.950  33.861  30.541  1.00  0.00    -0.049 A 
ATOM     60  C   UNL A   1      35.440  34.531  28.751  1.00  0.00    -0.049 A 
ATOM     61  C   UNL A   1      35.039  33.360  31.254  1.00  0.00    -0.053 A 
ATOM     62  H   UNL A   1      33.003  33.825  30.948  1.00  0.00     0.063 H 
ATOM     63  C   UNL A   1      36.516  33.969  29.433  1.00  0.00    -0.053 A 
ATOM     64  H   UNL A   1      35.595  35.035  27.864  1.00  0.00     0.063 H 
ATOM     65  C   UNL A   1      36.325  33.369  30.686  1.00  0.00    -0.014 A 
ATOM     66  H   UNL A   1      34.900  32.979  32.204  1.00  0.00     0.063 H 
ATOM     67  H   UNL A   1      37.458  33.993  29.013  1.00  0.00     0.063 H 
BRANCH  65  68
ATOM     68  C   UNL A   1      37.468  32.715  31.375  1.00  0.00     0.031 A 
ATOM     69  C   UNL A   1      38.167  31.541  30.749  1.00  0.00     0.074 A 
ATOM     70  C   UNL A   1      37.830  33.144  32.601  1.00  0.00     0.049 A 
ATOM     71  N   UNL A   1      39.139  30.807  31.229  1.00  0.00    -0.248 NA
ATOM     72  C   UNL A   1      37.700  31.120  29.418  1.00  0.00    -0.034 C 
ATOM     73  C   UNL A   1      37.193  34.241  33.334  1.00  0.00    -0.036 A 
ATOM     74  N   UNL A   1      38.810  32.701  33.454  1.00  0.00    -0.354 N 
ATOM     75  C   UNL A   1      39.391  29.836  30.270  1.00  0.00     0.074 A 
ATOM     76  C   UNL A   1      38.444  30.045  29.196  1.00  0.00    -0.034 C 
ATOM     77  H   UNL A   1      36.983  31.551  28.814  1.00  0.00     0.065 H 
ATOM     78  C   UNL A   1      37.809  34.396  34.517  1.00  0.00    -0.036 A 
ATOM     79  H   UNL A   1      36.399  34.804  32.995  1.00  0.00     0.065 H 
ATOM     80  C   UNL A   1      38.853  33.385  34.646  1.00  0.00     0.049 A 
ATOM     81  H   UNL A   1      39.425  31.965  33.233  1.00  0.00     0.167 HD
ATOM     82  C   UNL A   1      40.341  28.870  30.278  1.00  0.00     0.037 A 
ATOM     83  H   UNL A   1      38.358  29.437  28.367  1.00  0.00     0.065 H 
ATOM     84  H   UNL A   1      37.580  35.114  35.221  1.00  0.00     0.065 H 
ATOM     85  C   UNL A   1      39.635  33.204  35.728  1.00  0.00     0.037 A 
ATOM     86  C   UNL A   1      41.301  28.685  31.335  1.00  0.00     0.049 A 
ATOM     87  C   UNL A   1      40.672  32.113  35.709  1.00  0.00     0.074 A 
ATOM     88  C   UNL A   1      42.352  27.786  31.394  1.00  0.00    -0.036 A 
ATOM     89  N   UNL A   1      41.322  29.404  32.520  1.00  0.00    -0.354 N 
ATOM     90  N   UNL A   1      40.959  31.260  34.756  1.00  0.00    -0.248 NA
ATOM     91  C   UNL A   1      41.496  31.961  36.917  1.00  0.00    -0.034 C 
ATOM     92  C   UNL A   1      42.973  27.920  32.640  1.00  0.00    -0.036 A 
ATOM     93  H   UNL A   1      42.629  27.130  30.648  1.00  0.00     0.065 H 
ATOM     94  C   UNL A   1      42.346  28.943  33.333  1.00  0.00     0.049 A 
ATOM     95  H   UNL A   1      40.702  30.133  32.751  1.00  0.00     0.167 HD
ATOM     96  C   UNL A   1      42.012  30.492  35.236  1.00  0.00     0.074 A 
ATOM     97  C   UNL A   1      42.328  30.996  36.556  1.00  0.00    -0.034 C 
ATOM     98  H   UNL A   1      41.442  32.474  37.811  1.00  0.00     0.065 H 
ATOM     99  H   UNL A   1      43.764  27.353  32.985  1.00  0.00     0.065 H 
ATOM    100  C   UNL A   1      42.654  29.458  34.642  1.00  0.00     0.037 A 
ATOM    101  H   UNL A   1      43.103  30.646  37.141  1.00  0.00     0.065 H 
BRANCH  82 102
ATOM    102  C   UNL A   1      40.405  27.932  29.108  1.00  0.00     0.064 A 
ATOM    103  C   UNL A   1      39.651  26.750  29.072  1.00  0.00     0.173 A 
ATOM    104  C   UNL A   1      41.156  28.267  27.971  1.00  0.00     0.173 A 
ATOM    105  F   UNL A   1      38.922  26.380  30.135  1.00  0.00    -0.203 F 
ATOM    106  C   UNL A   1      39.655  25.933  27.943  1.00  0.00     0.198 A 
ATOM    107  C   UNL A   1      41.137  27.463  26.836  1.00  0.00     0.198 A 
ATOM    108  F   UNL A   1      41.890  29.391  27.953  1.00  0.00    -0.203 F 
ATOM    109  F   UNL A   1      38.949  24.794  27.941  1.00  0.00    -0.200 F 
ATOM    110  C   UNL A   1      40.389  26.296  26.824  1.00  0.00     0.200 A 
ATOM    111  F   UNL A   1      41.833  27.823  25.749  1.00  0.00    -0.200 F 
ATOM    112  F   UNL A   1      40.373  25.519  25.731  1.00  0.00    -0.200 F 
ENDBRANCH  82 102
BRANCH  85 113
ATOM    113  C   UNL A   1      39.468  34.067  36.930  1.00  0.00     0.064 A 
ATOM    114  C   UNL A   1      40.105  35.313  37.018  1.00  0.00     0.173 A 
ATOM    115  C   UNL A   1      38.706  33.646  38.029  1.00  0.00     0.173 A 
ATOM    116  F   UNL A   1      40.862  35.752  36.002  1.00  0.00    -0.203 F 
ATOM    117  C   UNL A   1      40.017  36.086  38.174  1.00  0.00     0.198 A 
ATOM    118  C   UNL A   1      38.590  34.437  39.170  1.00  0.00     0.198 A 
ATOM    119  F   UNL A   1      38.071  32.466  37.995  1.00  0.00    -0.203 F 
ATOM    120  F   UNL A   1      40.692  37.241  38.257  1.00  0.00    -0.200 F 
ATOM    121  C   UNL A   1      39.257  35.650  39.248  1.00  0.00     0.200 A 
ATOM    122  F   UNL A   1      37.841  34.017  40.200  1.00  0.00    -0.200 F 
ATOM    123  F   UNL A   1      39.178  36.390  40.361  1.00  0.00    -0.200 F 
ENDBRANCH  85 113
BRANCH 100 124
ATOM    124  C   UNL A   1      43.782  28.821  35.400  1.00  0.00     0.064 A 
ATOM    125  C   UNL A   1      45.110  29.242  35.236  1.00  0.00     0.173 A 
ATOM    126  C   UNL A   1      43.528  27.796  36.326  1.00  0.00     0.173 A 
ATOM    127  F   UNL A   1      45.408  30.207  34.351  1.00  0.00    -0.203 F 
ATOM    128  C   UNL A   1      46.145  28.643  35.949  1.00  0.00     0.198 A 
ATOM    129  C   UNL A   1      44.561  27.224  37.062  1.00  0.00     0.198 A 
ATOM    130  F   UNL A   1      42.275  27.360  36.526  1.00  0.00    -0.203 F 
ATOM    131  F   UNL A   1      47.411  29.027  35.737  1.00  0.00    -0.200 F 
ATOM    132  C   UNL A   1      45.869  27.641  36.867  1.00  0.00     0.200 A 
ATOM    133  F   UNL A   1      44.291  26.267  37.961  1.00  0.00    -0.200 F 
ATOM    134  F   UNL A   1      46.866  27.072  37.559  1.00  0.00    -0.200 F 
ENDBRANCH 100 124
ENDBRANCH  65  68
ENDBRANCH  55  58
ENDBRANCH  51  54
ENDBRANCH  48  51
ENDBRANCH  45  48
ENDBRANCH   1  45
TORSDOF 17
ENDMDL
MODEL 9
REMARK VINA RESULT:     -12.1      3.843      8.733
REMARK SMILES C[C@@H](C(=O)NCCCCCCNC(=O)c1ccc(-c2c3nc(c(-c4c(F)c(F)c(F)c(F)c4F)c4ccc([nH]4)c(-c4c(F)c(F)c(F)c(F)c4F)c4nc(c(-c5c(F)c(F)c(F)c(F)c5F)c5ccc2[nH]5)C=C4)C=C3)cc1)c1ccc(OC2CCCC2)cc1F
REMARK SMILES IDX 8 1 7 4 6 7 5 10 3 11 4 12 2 14 1 16 78 20 79 21 89 22 80 23
REMARK SMILES IDX 88 25 90 26 81 27 82 30 83 31 84 32 87 33 85 35 86 38 9 45
REMARK SMILES IDX 10 48 11 51 12 54 13 55 14 57 15 58 16 59 77 60 17 61 76 63
REMARK SMILES IDX 18 65 19 68 20 69 70 70 21 71 75 72 69 73 71 74 22 75 74 76
REMARK SMILES IDX 68 78 67 80 23 82 55 85 35 86 54 87 36 88 39 89 53 90 72 91
REMARK SMILES IDX 37 92 38 94 52 96 73 97 40 100 24 102 25 103 33 104 26 105
REMARK SMILES IDX 27 106 31 107 34 108 28 109 29 110 32 111 30 112 56 113
REMARK SMILES IDX 57 114 65 115 58 116 59 117 63 118 66 119 60 120 61 121
REMARK SMILES IDX 64 122 62 123 41 124 42 125 50 126 43 127 44 128 48 129
REMARK SMILES IDX 51 130 45 131 46 132 49 133 47 134
REMARK H PARENT 8 2 8 3 7 5 7 6 6 8 6 9 5 13 2 15 1 17 1 18 1 19 79 24 80 28
REMARK H PARENT 88 29 83 34 84 36 84 37 87 39 87 40 85 41 85 42 86 43 86 44
REMARK H PARENT 9 46 9 47 10 49 10 50 11 52 11 53 12 56 16 62 77 64 17 66
REMARK H PARENT 76 67 75 77 69 79 71 81 74 83 68 84 36 93 39 95 72 98 37 99
REMARK H PARENT 73 101
REMARK Flexibility Score: inf
ROOT
ATOM      1  C   UNL A   1      32.964  28.608  23.405  1.00  0.00    -0.052 C 
ATOM      2  H   UNL A   1      33.518  29.124  22.648  1.00  0.00     0.027 H 
ATOM      3  H   UNL A   1      33.204  27.567  23.472  1.00  0.00     0.027 H 
ENDROOT
BRANCH   1   4
ATOM      4  C   UNL A   1      31.475  28.683  23.040  1.00  0.00    -0.036 C 
ATOM      5  H   UNL A   1      31.050  29.530  23.536  1.00  0.00     0.028 H 
ATOM      6  H   UNL A   1      31.422  28.759  21.974  1.00  0.00     0.028 H 
BRANCH   4   7
ATOM      7  C   UNL A   1      30.673  27.441  23.436  1.00  0.00     0.017 C 
ATOM      8  H   UNL A   1      29.666  27.549  23.094  1.00  0.00     0.049 H 
ATOM      9  H   UNL A   1      31.122  26.580  22.987  1.00  0.00     0.049 H 
BRANCH   7  10
ATOM     10  N   UNL A   1      30.676  27.280  24.873  1.00  0.00    -0.356 N 
ATOM     11  C   UNL A   1      30.835  26.158  25.631  1.00  0.00     0.227 C 
ATOM     12  O   UNL A   1      30.610  26.280  26.835  1.00  0.00    -0.274 OA
ATOM     13  H   UNL A   1      30.542  28.110  25.384  1.00  0.00     0.163 HD
BRANCH  11  14
ATOM     14  C   UNL A   1      31.310  24.856  24.969  1.00  0.00     0.063 C 
ATOM     15  H   UNL A   1      31.080  25.012  23.936  1.00  0.00     0.045 H 
BRANCH  14  16
ATOM     16  C   UNL A   1      30.566  23.617  25.473  1.00  0.00    -0.049 C 
ATOM     17  H   UNL A   1      29.728  23.921  26.064  1.00  0.00     0.024 H 
ATOM     18  H   UNL A   1      31.227  23.022  26.069  1.00  0.00     0.024 H 
ATOM     19  H   UNL A   1      30.225  23.043  24.638  1.00  0.00     0.024 H 
ENDBRANCH  14  16
BRANCH  14  20
ATOM     20  C   UNL A   1      32.805  24.605  25.093  1.00  0.00     0.000 A 
ATOM     21  C   UNL A   1      33.388  24.060  26.244  1.00  0.00    -0.052 A 
ATOM     22  C   UNL A   1      33.633  24.846  23.995  1.00  0.00     0.130 A 
ATOM     23  C   UNL A   1      34.759  23.797  26.288  1.00  0.00    -0.019 A 
ATOM     24  H   UNL A   1      32.800  23.850  27.065  1.00  0.00     0.063 H 
ATOM     25  C   UNL A   1      34.997  24.570  24.029  1.00  0.00     0.016 A 
ATOM     26  F   UNL A   1      33.111  25.329  22.858  1.00  0.00    -0.207 F 
ATOM     27  C   UNL A   1      35.570  24.031  25.176  1.00  0.00     0.122 A 
ATOM     28  H   UNL A   1      35.178  23.426  27.154  1.00  0.00     0.066 H 
ATOM     29  H   UNL A   1      35.583  24.765  23.203  1.00  0.00     0.069 H 
BRANCH  27  30
ATOM     30  O   UNL A   1      36.878  23.696  25.358  1.00  0.00    -0.490 OA
BRANCH  30  31
ATOM     31  C   UNL A   1      37.291  22.369  25.651  1.00  0.00     0.099 C 
ATOM     32  C   UNL A   1      36.994  21.305  24.597  1.00  0.00    -0.016 C 
ATOM     33  C   UNL A   1      38.757  22.209  26.042  1.00  0.00    -0.016 C 
ATOM     34  H   UNL A   1      36.660  22.193  26.497  1.00  0.00     0.074 H 
ATOM     35  C   UNL A   1      37.905  20.154  24.989  1.00  0.00    -0.050 C 
ATOM     36  H   UNL A   1      37.230  21.662  23.616  1.00  0.00     0.030 H 
ATOM     37  H   UNL A   1      35.962  21.026  24.566  1.00  0.00     0.030 H 
ATOM     38  C   UNL A   1      39.135  20.786  25.636  1.00  0.00    -0.050 C 
ATOM     39  H   UNL A   1      38.879  22.342  27.097  1.00  0.00     0.030 H 
ATOM     40  H   UNL A   1      39.378  22.936  25.561  1.00  0.00     0.030 H 
ATOM     41  H   UNL A   1      38.188  19.593  24.122  1.00  0.00     0.027 H 
ATOM     42  H   UNL A   1      37.415  19.478  25.658  1.00  0.00     0.027 H 
ATOM     43  H   UNL A   1      39.946  20.809  24.938  1.00  0.00     0.027 H 
ATOM     44  H   UNL A   1      39.446  20.220  26.490  1.00  0.00     0.027 H 
ENDBRANCH  30  31
ENDBRANCH  27  30
ENDBRANCH  14  20
ENDBRANCH  11  14
ENDBRANCH   7  10
ENDBRANCH   4   7
ENDBRANCH   1   4
BRANCH   1  45
ATOM     45  C   UNL A   1      33.328  29.219  24.760  1.00  0.00    -0.052 C 
ATOM     46  H   UNL A   1      32.433  29.608  25.202  1.00  0.00     0.027 H 
ATOM     47  H   UNL A   1      34.062  29.973  24.565  1.00  0.00     0.027 H 
BRANCH  45  48
ATOM     48  C   UNL A   1      33.964  28.244  25.752  1.00  0.00    -0.036 C 
ATOM     49  H   UNL A   1      35.027  28.309  25.649  1.00  0.00     0.028 H 
ATOM     50  H   UNL A   1      33.580  27.274  25.517  1.00  0.00     0.028 H 
BRANCH  48  51
ATOM     51  C   UNL A   1      33.609  28.509  27.211  1.00  0.00     0.018 C 
ATOM     52  H   UNL A   1      34.330  28.024  27.835  1.00  0.00     0.049 H 
ATOM     53  H   UNL A   1      32.626  28.127  27.387  1.00  0.00     0.049 H 
BRANCH  51  54
ATOM     54  N   UNL A   1      33.601  29.930  27.521  1.00  0.00    -0.352 N 
ATOM     55  C   UNL A   1      34.556  30.688  28.147  1.00  0.00     0.251 C 
ATOM     56  H   UNL A   1      32.793  30.418  27.240  1.00  0.00     0.163 HD
ATOM     57  O   UNL A   1      34.300  31.834  28.512  1.00  0.00    -0.269 OA
BRANCH  55  58
ATOM     58  C   UNL A   1      35.893  30.116  28.410  1.00  0.00     0.039 A 
ATOM     59  C   UNL A   1      36.857  30.163  27.401  1.00  0.00    -0.049 A 
ATOM     60  C   UNL A   1      36.198  29.546  29.649  1.00  0.00    -0.049 A 
ATOM     61  C   UNL A   1      38.150  29.705  27.658  1.00  0.00    -0.053 A 
ATOM     62  H   UNL A   1      36.615  30.535  26.469  1.00  0.00     0.063 H 
ATOM     63  C   UNL A   1      37.505  29.153  29.927  1.00  0.00    -0.053 A 
ATOM     64  H   UNL A   1      35.457  29.415  30.356  1.00  0.00     0.063 H 
ATOM     65  C   UNL A   1      38.496  29.238  28.938  1.00  0.00    -0.014 A 
ATOM     66  H   UNL A   1      38.856  29.710  26.906  1.00  0.00     0.063 H 
ATOM     67  H   UNL A   1      37.746  28.798  30.866  1.00  0.00     0.063 H 
BRANCH  65  68
ATOM     68  C   UNL A   1      39.900  28.877  29.265  1.00  0.00     0.031 A 
ATOM     69  C   UNL A   1      40.776  29.829  30.029  1.00  0.00     0.074 A 
ATOM     70  C   UNL A   1      40.402  27.712  28.809  1.00  0.00     0.049 A 
ATOM     71  N   UNL A   1      42.039  29.712  30.349  1.00  0.00    -0.248 NA
ATOM     72  C   UNL A   1      40.159  31.090  30.474  1.00  0.00    -0.034 C 
ATOM     73  C   UNL A   1      39.665  26.728  28.012  1.00  0.00    -0.036 A 
ATOM     74  N   UNL A   1      41.654  27.162  28.937  1.00  0.00    -0.354 N 
ATOM     75  C   UNL A   1      42.372  30.881  31.020  1.00  0.00     0.074 A 
ATOM     76  C   UNL A   1      41.190  31.717  31.026  1.00  0.00    -0.034 C 
ATOM     77  H   UNL A   1      39.181  31.403  30.382  1.00  0.00     0.065 H 
ATOM     78  C   UNL A   1      40.471  25.691  27.737  1.00  0.00    -0.036 A 
ATOM     79  H   UNL A   1      38.683  26.818  27.710  1.00  0.00     0.065 H 
ATOM     80  C   UNL A   1      41.792  25.953  28.298  1.00  0.00     0.049 A 
ATOM     81  H   UNL A   1      42.383  27.593  29.438  1.00  0.00     0.167 HD
ATOM     82  C   UNL A   1      43.551  31.217  31.595  1.00  0.00     0.037 A 
ATOM     83  H   UNL A   1      41.153  32.673  31.410  1.00  0.00     0.065 H 
ATOM     84  H   UNL A   1      40.201  24.844  27.212  1.00  0.00     0.065 H 
ATOM     85  C   UNL A   1      42.869  25.154  28.166  1.00  0.00     0.037 A 
ATOM     86  C   UNL A   1      44.716  30.371  31.612  1.00  0.00     0.049 A 
ATOM     87  C   UNL A   1      44.168  25.563  28.807  1.00  0.00     0.074 A 
ATOM     88  C   UNL A   1      45.930  30.591  32.239  1.00  0.00    -0.036 A 
ATOM     89  N   UNL A   1      44.815  29.147  30.966  1.00  0.00    -0.354 N 
ATOM     90  N   UNL A   1      44.442  26.631  29.516  1.00  0.00    -0.248 NA
ATOM     91  C   UNL A   1      45.310  24.654  28.630  1.00  0.00    -0.034 C 
ATOM     92  C   UNL A   1      46.784  29.529  31.925  1.00  0.00    -0.036 A 
ATOM     93  H   UNL A   1      46.164  31.399  32.836  1.00  0.00     0.065 H 
ATOM     94  C   UNL A   1      46.083  28.619  31.151  1.00  0.00     0.049 A 
ATOM     95  H   UNL A   1      44.092  28.718  30.453  1.00  0.00     0.167 HD
ATOM     96  C   UNL A   1      45.773  26.508  29.892  1.00  0.00     0.074 A 
ATOM     97  C   UNL A   1      46.245  25.251  29.353  1.00  0.00    -0.034 C 
ATOM     98  H   UNL A   1      45.367  23.779  28.086  1.00  0.00     0.065 H 
ATOM     99  H   UNL A   1      47.769  29.439  32.220  1.00  0.00     0.065 H 
ATOM    100  C   UNL A   1      46.538  27.363  30.614  1.00  0.00     0.037 A 
ATOM    101  H   UNL A   1      47.191  24.869  29.512  1.00  0.00     0.065 H 
BRANCH  82 102
ATOM    102  C   UNL A   1      43.656  32.557  32.264  1.00  0.00     0.064 A 
ATOM    103  C   UNL A   1      44.042  33.704  31.555  1.00  0.00     0.173 A 
ATOM    104  C   UNL A   1      43.274  32.711  33.605  1.00  0.00     0.173 A 
ATOM    105  F   UNL A   1      44.423  33.610  30.273  1.00  0.00    -0.203 F 
ATOM    106  C   UNL A   1      44.051  34.955  32.169  1.00  0.00     0.198 A 
ATOM    107  C   UNL A   1      43.258  33.965  34.207  1.00  0.00     0.198 A 
ATOM    108  F   UNL A   1      42.890  31.645  34.326  1.00  0.00    -0.203 F 
ATOM    109  F   UNL A   1      44.449  36.033  31.481  1.00  0.00    -0.200 F 
ATOM    110  C   UNL A   1      43.649  35.086  33.490  1.00  0.00     0.200 A 
ATOM    111  F   UNL A   1      42.854  34.092  35.478  1.00  0.00    -0.200 F 
ATOM    112  F   UNL A   1      43.637  36.294  34.071  1.00  0.00    -0.200 F 
ENDBRANCH  82 102
BRANCH  85 113
ATOM    113  C   UNL A   1      42.775  23.888  27.389  1.00  0.00     0.064 A 
ATOM    114  C   UNL A   1      42.343  22.699  27.994  1.00  0.00     0.173 A 
ATOM    115  C   UNL A   1      43.157  23.830  26.041  1.00  0.00     0.173 A 
ATOM    116  F   UNL A   1      41.987  22.696  29.287  1.00  0.00    -0.203 F 
ATOM    117  C   UNL A   1      42.333  21.496  27.291  1.00  0.00     0.198 A 
ATOM    118  C   UNL A   1      43.112  22.633  25.329  1.00  0.00     0.198 A 
ATOM    119  F   UNL A   1      43.573  24.939  25.412  1.00  0.00    -0.203 F 
ATOM    120  F   UNL A   1      41.980  20.362  27.914  1.00  0.00    -0.200 F 
ATOM    121  C   UNL A   1      42.714  21.464  25.959  1.00  0.00     0.200 A 
ATOM    122  F   UNL A   1      43.467  22.611  24.037  1.00  0.00    -0.200 F 
ATOM    123  F   UNL A   1      42.709  20.306  25.285  1.00  0.00    -0.200 F 
ENDBRANCH  85 113
BRANCH 100 124
ATOM    124  C   UNL A   1      47.956  26.955  30.887  1.00  0.00     0.064 A 
ATOM    125  C   UNL A   1      48.284  26.094  31.944  1.00  0.00     0.173 A 
ATOM    126  C   UNL A   1      48.998  27.405  30.060  1.00  0.00     0.173 A 
ATOM    127  F   UNL A   1      47.327  25.648  32.773  1.00  0.00    -0.203 F 
ATOM    128  C   UNL A   1      49.604  25.721  32.182  1.00  0.00     0.198 A 
ATOM    129  C   UNL A   1      50.312  27.003  30.280  1.00  0.00     0.198 A 
ATOM    130  F   UNL A   1      48.739  28.225  29.030  1.00  0.00    -0.203 F 
ATOM    131  F   UNL A   1      49.899  24.941  33.231  1.00  0.00    -0.200 F 
ATOM    132  C   UNL A   1      50.615  26.169  31.345  1.00  0.00     0.200 A 
ATOM    133  F   UNL A   1      51.286  27.423  29.461  1.00  0.00    -0.200 F 
ATOM    134  F   UNL A   1      51.885  25.803  31.571  1.00  0.00    -0.200 F 
ENDBRANCH 100 124
ENDBRANCH  65  68
ENDBRANCH  55  58
ENDBRANCH  51  54
ENDBRANCH  48  51
ENDBRANCH  45  48
ENDBRANCH   1  45
TORSDOF 17
ENDMDL
MODEL 10
REMARK VINA RESULT:     -12.0      5.669     11.546
REMARK SMILES C[C@@H](C(=O)NCCCCCCNC(=O)c1ccc(-c2c3nc(c(-c4c(F)c(F)c(F)c(F)c4F)c4ccc([nH]4)c(-c4c(F)c(F)c(F)c(F)c4F)c4nc(c(-c5c(F)c(F)c(F)c(F)c5F)c5ccc2[nH]5)C=C4)C=C3)cc1)c1ccc(OC2CCCC2)cc1F
REMARK SMILES IDX 8 1 7 4 6 7 5 10 3 11 4 12 2 14 1 16 78 20 79 21 89 22 80 23
REMARK SMILES IDX 88 25 90 26 81 27 82 30 83 31 84 32 87 33 85 35 86 38 9 45
REMARK SMILES IDX 10 48 11 51 12 54 13 55 14 57 15 58 16 59 77 60 17 61 76 63
REMARK SMILES IDX 18 65 19 68 20 69 70 70 21 71 75 72 69 73 71 74 22 75 74 76
REMARK SMILES IDX 68 78 67 80 23 82 55 85 35 86 54 87 36 88 39 89 53 90 72 91
REMARK SMILES IDX 37 92 38 94 52 96 73 97 40 100 24 102 25 103 33 104 26 105
REMARK SMILES IDX 27 106 31 107 34 108 28 109 29 110 32 111 30 112 56 113
REMARK SMILES IDX 57 114 65 115 58 116 59 117 63 118 66 119 60 120 61 121
REMARK SMILES IDX 64 122 62 123 41 124 42 125 50 126 43 127 44 128 48 129
REMARK SMILES IDX 51 130 45 131 46 132 49 133 47 134
REMARK H PARENT 8 2 8 3 7 5 7 6 6 8 6 9 5 13 2 15 1 17 1 18 1 19 79 24 80 28
REMARK H PARENT 88 29 83 34 84 36 84 37 87 39 87 40 85 41 85 42 86 43 86 44
REMARK H PARENT 9 46 9 47 10 49 10 50 11 52 11 53 12 56 16 62 77 64 17 66
REMARK H PARENT 76 67 75 77 69 79 71 81 74 83 68 84 36 93 39 95 72 98 37 99
REMARK H PARENT 73 101
REMARK Flexibility Score: inf
ROOT
ATOM      1  C   UNL A   1      37.346  22.231  25.080  1.00  0.00    -0.052 C 
ATOM      2  H   UNL A   1      37.173  22.522  26.095  1.00  0.00     0.027 H 
ATOM      3  H   UNL A   1      38.380  22.241  24.805  1.00  0.00     0.027 H 
ENDROOT
BRANCH   1   4
ATOM      4  C   UNL A   1      36.649  23.249  24.167  1.00  0.00    -0.036 C 
ATOM      5  H   UNL A   1      37.376  23.967  23.848  1.00  0.00     0.028 H 
ATOM      6  H   UNL A   1      36.229  22.697  23.352  1.00  0.00     0.028 H 
BRANCH   4   7
ATOM      7  C   UNL A   1      35.494  23.998  24.835  1.00  0.00     0.017 C 
ATOM      8  H   UNL A   1      35.588  23.915  25.897  1.00  0.00     0.049 H 
ATOM      9  H   UNL A   1      35.532  25.027  24.544  1.00  0.00     0.049 H 
BRANCH   7  10
ATOM     10  N   UNL A   1      34.227  23.438  24.422  1.00  0.00    -0.356 N 
ATOM     11  C   UNL A   1      32.958  23.896  24.615  1.00  0.00     0.227 C 
ATOM     12  O   UNL A   1      32.049  23.123  24.314  1.00  0.00    -0.274 OA
ATOM     13  H   UNL A   1      34.290  22.592  23.922  1.00  0.00     0.163 HD
BRANCH  11  14
ATOM     14  C   UNL A   1      32.739  25.322  25.143  1.00  0.00     0.063 C 
ATOM     15  H   UNL A   1      33.735  25.696  25.250  1.00  0.00     0.045 H 
BRANCH  14  16
ATOM     16  C   UNL A   1      32.035  25.360  26.501  1.00  0.00    -0.049 C 
ATOM     17  H   UNL A   1      31.286  26.124  26.494  1.00  0.00     0.024 H 
ATOM     18  H   UNL A   1      32.751  25.569  27.269  1.00  0.00     0.024 H 
ATOM     19  H   UNL A   1      31.577  24.412  26.691  1.00  0.00     0.024 H 
ENDBRANCH  14  16
BRANCH  14  20
ATOM     20  C   UNL A   1      31.987  26.232  24.184  1.00  0.00     0.000 A 
ATOM     21  C   UNL A   1      30.605  26.139  23.980  1.00  0.00    -0.052 A 
ATOM     22  C   UNL A   1      32.674  27.258  23.534  1.00  0.00     0.130 A 
ATOM     23  C   UNL A   1      29.952  27.035  23.129  1.00  0.00    -0.019 A 
ATOM     24  H   UNL A   1      30.064  25.405  24.462  1.00  0.00     0.063 H 
ATOM     25  C   UNL A   1      32.025  28.163  22.699  1.00  0.00     0.016 A 
ATOM     26  F   UNL A   1      33.992  27.410  23.732  1.00  0.00    -0.207 F 
ATOM     27  C   UNL A   1      30.653  28.065  22.498  1.00  0.00     0.122 A 
ATOM     28  H   UNL A   1      28.939  26.933  22.964  1.00  0.00     0.066 H 
ATOM     29  H   UNL A   1      32.562  28.908  22.228  1.00  0.00     0.069 H 
BRANCH  27  30
ATOM     30  O   UNL A   1      29.877  28.876  21.727  1.00  0.00    -0.490 OA
BRANCH  30  31
ATOM     31  C   UNL A   1      29.595  30.222  22.081  1.00  0.00     0.099 C 
ATOM     32  C   UNL A   1      28.608  30.977  21.195  1.00  0.00    -0.016 C 
ATOM     33  C   UNL A   1      29.154  30.443  23.525  1.00  0.00    -0.016 C 
ATOM     34  H   UNL A   1      30.572  30.631  21.926  1.00  0.00     0.074 H 
ATOM     35  C   UNL A   1      28.203  32.167  22.048  1.00  0.00    -0.050 C 
ATOM     36  H   UNL A   1      27.760  30.368  20.962  1.00  0.00     0.030 H 
ATOM     37  H   UNL A   1      29.028  31.265  20.254  1.00  0.00     0.030 H 
ATOM     38  C   UNL A   1      28.284  31.697  23.499  1.00  0.00    -0.050 C 
ATOM     39  H   UNL A   1      30.004  30.589  24.157  1.00  0.00     0.030 H 
ATOM     40  H   UNL A   1      28.620  29.598  23.910  1.00  0.00     0.030 H 
ATOM     41  H   UNL A   1      27.205  32.472  21.811  1.00  0.00     0.027 H 
ATOM     42  H   UNL A   1      28.842  33.009  21.874  1.00  0.00     0.027 H 
ATOM     43  H   UNL A   1      27.304  31.471  23.866  1.00  0.00     0.027 H 
ATOM     44  H   UNL A   1      28.704  32.461  24.121  1.00  0.00     0.027 H 
ENDBRANCH  30  31
ENDBRANCH  27  30
ENDBRANCH  14  20
ENDBRANCH  11  14
ENDBRANCH   7  10
ENDBRANCH   4   7
ENDBRANCH   1   4
BRANCH   1  45
ATOM     45  C   UNL A   1      36.873  20.785  24.913  1.00  0.00    -0.052 C 
ATOM     46  H   UNL A   1      36.405  20.696  23.954  1.00  0.00     0.027 H 
ATOM     47  H   UNL A   1      36.205  20.589  25.726  1.00  0.00     0.027 H 
BRANCH  45  48
ATOM     48  C   UNL A   1      37.981  19.735  25.001  1.00  0.00    -0.036 C 
ATOM     49  H   UNL A   1      38.269  19.469  24.005  1.00  0.00     0.028 H 
ATOM     50  H   UNL A   1      37.579  18.911  25.553  1.00  0.00     0.028 H 
BRANCH  48  51
ATOM     51  C   UNL A   1      39.226  20.194  25.752  1.00  0.00     0.018 C 
ATOM     52  H   UNL A   1      38.936  20.537  26.723  1.00  0.00     0.049 H 
ATOM     53  H   UNL A   1      39.683  20.978  25.185  1.00  0.00     0.049 H 
BRANCH  51  54
ATOM     54  N   UNL A   1      40.199  19.124  25.902  1.00  0.00    -0.352 N 
ATOM     55  C   UNL A   1      41.552  19.203  26.106  1.00  0.00     0.251 C 
ATOM     56  H   UNL A   1      39.833  18.211  25.850  1.00  0.00     0.163 HD
ATOM     57  O   UNL A   1      42.255  18.199  26.006  1.00  0.00    -0.269 OA
BRANCH  55  58
ATOM     58  C   UNL A   1      42.173  20.505  26.422  1.00  0.00     0.039 A 
ATOM     59  C   UNL A   1      42.660  21.293  25.376  1.00  0.00    -0.049 A 
ATOM     60  C   UNL A   1      42.267  20.954  27.743  1.00  0.00    -0.049 A 
ATOM     61  C   UNL A   1      43.173  22.561  25.647  1.00  0.00    -0.053 A 
ATOM     62  H   UNL A   1      42.639  20.937  24.408  1.00  0.00     0.063 H 
ATOM     63  C   UNL A   1      42.716  22.246  28.005  1.00  0.00    -0.053 A 
ATOM     64  H   UNL A   1      42.006  20.329  28.522  1.00  0.00     0.063 H 
ATOM     65  C   UNL A   1      43.164  23.066  26.959  1.00  0.00    -0.014 A 
ATOM     66  H   UNL A   1      43.561  23.133  24.880  1.00  0.00     0.063 H 
ATOM     67  H   UNL A   1      42.718  22.602  28.973  1.00  0.00     0.063 H 
BRANCH  65  68
ATOM     68  C   UNL A   1      43.579  24.464  27.242  1.00  0.00     0.031 A 
ATOM     69  C   UNL A   1      42.584  25.469  27.752  1.00  0.00     0.074 A 
ATOM     70  C   UNL A   1      44.844  24.842  26.971  1.00  0.00     0.049 A 
ATOM     71  N   UNL A   1      42.749  26.744  27.994  1.00  0.00    -0.248 NA
ATOM     72  C   UNL A   1      41.217  24.983  28.003  1.00  0.00    -0.034 C 
ATOM     73  C   UNL A   1      45.888  23.971  26.424  1.00  0.00    -0.036 A 
ATOM     74  N   UNL A   1      45.467  26.059  27.104  1.00  0.00    -0.354 N 
ATOM     75  C   UNL A   1      41.513  27.215  28.413  1.00  0.00     0.074 A 
ATOM     76  C   UNL A   1      40.592  26.100  28.353  1.00  0.00    -0.034 C 
ATOM     77  H   UNL A   1      40.843  24.025  27.927  1.00  0.00     0.065 H 
ATOM     78  C   UNL A   1      47.022  24.675  26.285  1.00  0.00    -0.036 A 
ATOM     79  H   UNL A   1      45.769  22.975  26.184  1.00  0.00     0.065 H 
ATOM     80  C   UNL A   1      46.778  26.055  26.690  1.00  0.00     0.049 A 
ATOM     81  H   UNL A   1      45.018  26.857  27.463  1.00  0.00     0.167 HD
ATOM     82  C   UNL A   1      41.181  28.461  28.828  1.00  0.00     0.037 A 
ATOM     83  H   UNL A   1      39.583  26.164  28.557  1.00  0.00     0.065 H 
ATOM     84  H   UNL A   1      47.922  24.301  25.945  1.00  0.00     0.065 H 
ATOM     85  C   UNL A   1      47.676  27.058  26.626  1.00  0.00     0.037 A 
ATOM     86  C   UNL A   1      42.107  29.561  28.913  1.00  0.00     0.049 A 
ATOM     87  C   UNL A   1      47.271  28.434  27.084  1.00  0.00     0.074 A 
ATOM     88  C   UNL A   1      41.883  30.838  29.399  1.00  0.00    -0.036 A 
ATOM     89  N   UNL A   1      43.429  29.517  28.497  1.00  0.00    -0.354 N 
ATOM     90  N   UNL A   1      46.122  28.843  27.563  1.00  0.00    -0.248 NA
ATOM     91  C   UNL A   1      48.291  29.489  26.993  1.00  0.00    -0.034 C 
ATOM     92  C   UNL A   1      43.052  31.584  29.222  1.00  0.00    -0.036 A 
ATOM     93  H   UNL A   1      41.005  31.179  29.819  1.00  0.00     0.065 H 
ATOM     94  C   UNL A   1      44.022  30.756  28.681  1.00  0.00     0.049 A 
ATOM     95  H   UNL A   1      43.880  28.724  28.126  1.00  0.00     0.167 HD
ATOM     96  C   UNL A   1      46.288  30.189  27.857  1.00  0.00     0.074 A 
ATOM     97  C   UNL A   1      47.656  30.523  27.523  1.00  0.00    -0.034 C 
ATOM     98  H   UNL A   1      49.250  29.437  26.615  1.00  0.00     0.065 H 
ATOM     99  H   UNL A   1      43.172  32.583  29.454  1.00  0.00     0.065 H 
ATOM    100  C   UNL A   1      45.388  31.073  28.351  1.00  0.00     0.037 A 
ATOM    101  H   UNL A   1      48.083  31.450  27.679  1.00  0.00     0.065 H 
BRANCH  82 102
ATOM    102  C   UNL A   1      39.758  28.718  29.231  1.00  0.00     0.064 A 
ATOM    103  C   UNL A   1      39.323  28.534  30.551  1.00  0.00     0.173 A 
ATOM    104  C   UNL A   1      38.844  29.244  28.305  1.00  0.00     0.173 A 
ATOM    105  F   UNL A   1      40.156  28.027  31.472  1.00  0.00    -0.203 F 
ATOM    106  C   UNL A   1      38.021  28.858  30.927  1.00  0.00     0.198 A 
ATOM    107  C   UNL A   1      37.553  29.592  28.690  1.00  0.00     0.198 A 
ATOM    108  F   UNL A   1      39.213  29.444  27.030  1.00  0.00    -0.203 F 
ATOM    109  F   UNL A   1      37.619  28.649  32.188  1.00  0.00    -0.200 F 
ATOM    110  C   UNL A   1      37.142  29.396  30.000  1.00  0.00     0.200 A 
ATOM    111  F   UNL A   1      36.710  30.127  27.797  1.00  0.00    -0.200 F 
ATOM    112  F   UNL A   1      35.897  29.728  30.369  1.00  0.00    -0.200 F 
ENDBRANCH  82 102
BRANCH  85 113
ATOM    113  C   UNL A   1      49.047  26.808  26.103  1.00  0.00     0.064 A 
ATOM    114  C   UNL A   1      49.352  27.014  24.750  1.00  0.00     0.173 A 
ATOM    115  C   UNL A   1      50.065  26.317  26.933  1.00  0.00     0.173 A 
ATOM    116  F   UNL A   1      48.408  27.463  23.911  1.00  0.00    -0.203 F 
ATOM    117  C   UNL A   1      50.612  26.702  24.242  1.00  0.00     0.198 A 
ATOM    118  C   UNL A   1      51.334  26.040  26.430  1.00  0.00     0.198 A 
ATOM    119  F   UNL A   1      49.827  26.107  28.236  1.00  0.00    -0.203 F 
ATOM    120  F   UNL A   1      50.856  26.845  22.931  1.00  0.00    -0.200 F 
ATOM    121  C   UNL A   1      51.603  26.219  25.082  1.00  0.00     0.200 A 
ATOM    122  F   UNL A   1      52.293  25.587  27.250  1.00  0.00    -0.200 F 
ATOM    123  F   UNL A   1      52.811  25.914  24.591  1.00  0.00    -0.200 F 
ENDBRANCH  85 113
BRANCH 100 124
ATOM    124  C   UNL A   1      45.860  32.478  28.589  1.00  0.00     0.064 A 
ATOM    125  C   UNL A   1      46.467  32.856  29.795  1.00  0.00     0.173 A 
ATOM    126  C   UNL A   1      45.732  33.451  27.585  1.00  0.00     0.173 A 
ATOM    127  F   UNL A   1      46.600  31.967  30.792  1.00  0.00    -0.203 F 
ATOM    128  C   UNL A   1      46.904  34.163  29.998  1.00  0.00     0.198 A 
ATOM    129  C   UNL A   1      46.200  34.747  27.780  1.00  0.00     0.198 A 
ATOM    130  F   UNL A   1      45.164  33.141  26.410  1.00  0.00    -0.203 F 
ATOM    131  F   UNL A   1      47.433  34.513  31.178  1.00  0.00    -0.200 F 
ATOM    132  C   UNL A   1      46.777  35.104  28.988  1.00  0.00     0.200 A 
ATOM    133  F   UNL A   1      46.092  35.652  26.796  1.00  0.00    -0.200 F 
ATOM    134  F   UNL A   1      47.205  36.359  29.183  1.00  0.00    -0.200 F 
ENDBRANCH 100 124
ENDBRANCH  65  68
ENDBRANCH  55  58
ENDBRANCH  51  54
ENDBRANCH  48  51
ENDBRANCH  45  48
ENDBRANCH   1  45
TORSDOF 17
ENDMDL
