MODEL 1
REMARK VINA RESULT:      -9.2      0.000      0.000
REMARK SMILES CC/C=C/C/C=C/C/C=C/C/C=C/CCSCCCC(=O)NCCCCCCNC(=O)c1ccc(-c2c3nc(c(-c4c(F)c(F)c(F)c(F)c4F)c4ccc([nH]4)c(-c4c(F)c(F)c(F)c(F)c4F)c4nc(c(-c5c(F)c(F)c(F)c(F)c5F)c5ccc2[nH]5)C=C4)C=C3)cc1
REMARK SMILES IDX 17 1 16 4 15 5 14 8 13 11 12 12 11 15 10 18 9 19 8 22 7 25
REMARK SMILES IDX 6 26 5 29 4 32 3 33 2 36 1 39 18 43 19 46 20 49 21 50 22 51
REMARK SMILES IDX 23 53 24 56 25 59 26 62 27 65 28 68 29 71 30 72 31 74 32 75
REMARK SMILES IDX 33 76 94 77 34 78 93 80 35 82 36 85 37 86 87 87 38 88 92 89
REMARK SMILES IDX 86 90 88 91 39 92 91 93 85 95 84 97 40 99 72 102 52 103
REMARK SMILES IDX 71 104 53 105 56 106 70 107 89 108 54 109 55 111 69 113
REMARK SMILES IDX 90 114 57 117 41 119 42 120 50 121 43 122 44 123 48 124
REMARK SMILES IDX 51 125 45 126 46 127 49 128 47 129 73 130 74 131 82 132
REMARK SMILES IDX 75 133 76 134 80 135 83 136 77 137 78 138 81 139 79 140
REMARK SMILES IDX 58 141 59 142 67 143 60 144 61 145 65 146 68 147 62 148
REMARK SMILES IDX 63 149 66 150 64 151
REMARK H PARENT 17 2 17 3 15 6 15 7 14 9 14 10 12 13 13 14 11 16 11 17 9 20
REMARK H PARENT 10 21 8 23 8 24 6 27 7 28 5 30 5 31 3 34 4 35 2 37 2 38 1 40
REMARK H PARENT 1 41 1 42 18 44 18 45 19 47 19 48 22 52 23 54 23 55 24 57
REMARK H PARENT 24 58 25 60 25 61 26 63 26 64 27 66 27 67 28 69 28 70 29 73
REMARK H PARENT 33 79 94 81 34 83 93 84 92 94 86 96 88 98 91 100 85 101 53 110
REMARK H PARENT 56 112 89 115 54 116 90 118
REMARK Flexibility Score: inf
ROOT
ATOM      1  C   UNL A   1      46.541  43.131  24.053  1.00  0.00    -0.006 C 
ATOM      2  H   UNL A   1      45.496  43.358  24.078  1.00  0.00     0.038 H 
ATOM      3  H   UNL A   1      47.317  43.829  23.819  1.00  0.00     0.038 H 
ENDROOT
BRANCH   1   4
ATOM      4  S   UNL A   1      46.737  42.011  22.590  1.00  0.00    -0.162 SA
BRANCH   4   5
ATOM      5  C   UNL A   1      45.541  42.439  21.247  1.00  0.00    -0.003 C 
ATOM      6  H   UNL A   1      46.035  43.120  20.587  1.00  0.00     0.038 H 
ATOM      7  H   UNL A   1      45.268  41.495  20.822  1.00  0.00     0.038 H 
BRANCH   5   8
ATOM      8  C   UNL A   1      44.186  43.088  21.655  1.00  0.00    -0.026 C 
ATOM      9  H   UNL A   1      43.873  42.639  22.574  1.00  0.00     0.032 H 
ATOM     10  H   UNL A   1      44.381  44.138  21.720  1.00  0.00     0.032 H 
BRANCH   8  11
ATOM     11  C   UNL A   1      43.057  42.950  20.667  1.00  0.00    -0.087 C 
ATOM     12  C   UNL A   1      42.503  43.907  19.899  1.00  0.00    -0.085 C 
ATOM     13  H   UNL A   1      42.671  44.895  20.143  1.00  0.00     0.058 H 
ATOM     14  H   UNL A   1      42.659  42.004  20.567  1.00  0.00     0.057 H 
BRANCH  12  15
ATOM     15  C   UNL A   1      41.642  43.590  18.688  1.00  0.00    -0.017 C 
ATOM     16  H   UNL A   1      42.004  42.681  18.255  1.00  0.00     0.035 H 
ATOM     17  H   UNL A   1      40.638  43.525  19.049  1.00  0.00     0.035 H 
BRANCH  15  18
ATOM     18  C   UNL A   1      41.629  44.641  17.616  1.00  0.00    -0.084 C 
ATOM     19  C   UNL A   1      41.948  45.927  17.842  1.00  0.00    -0.084 C 
ATOM     20  H   UNL A   1      42.253  46.190  18.792  1.00  0.00     0.058 H 
ATOM     21  H   UNL A   1      41.365  44.362  16.658  1.00  0.00     0.058 H 
BRANCH  19  22
ATOM     22  C   UNL A   1      41.885  47.008  16.797  1.00  0.00    -0.017 C 
ATOM     23  H   UNL A   1      42.593  46.804  16.022  1.00  0.00     0.035 H 
ATOM     24  H   UNL A   1      40.907  47.047  16.365  1.00  0.00     0.035 H 
BRANCH  22  25
ATOM     25  C   UNL A   1      42.212  48.314  17.454  1.00  0.00    -0.084 C 
ATOM     26  C   UNL A   1      43.450  48.815  17.580  1.00  0.00    -0.084 C 
ATOM     27  H   UNL A   1      44.216  48.366  17.054  1.00  0.00     0.058 H 
ATOM     28  H   UNL A   1      41.430  48.868  17.837  1.00  0.00     0.058 H 
BRANCH  26  29
ATOM     29  C   UNL A   1      43.774  49.996  18.448  1.00  0.00    -0.017 C 
ATOM     30  H   UNL A   1      44.016  50.837  17.833  1.00  0.00     0.035 H 
ATOM     31  H   UNL A   1      42.931  50.238  19.060  1.00  0.00     0.035 H 
BRANCH  29  32
ATOM     32  C   UNL A   1      44.951  49.655  19.317  1.00  0.00    -0.085 C 
ATOM     33  C   UNL A   1      46.220  49.988  19.036  1.00  0.00    -0.089 C 
ATOM     34  H   UNL A   1      46.397  50.583  18.212  1.00  0.00     0.057 H 
ATOM     35  H   UNL A   1      44.771  49.130  20.188  1.00  0.00     0.058 H 
BRANCH  33  36
ATOM     36  C   UNL A   1      47.395  49.542  19.855  1.00  0.00    -0.038 C 
ATOM     37  H   UNL A   1      48.246  49.426  19.217  1.00  0.00     0.031 H 
ATOM     38  H   UNL A   1      47.594  50.278  20.605  1.00  0.00     0.031 H 
BRANCH  36  39
ATOM     39  C   UNL A   1      47.097  48.214  20.537  1.00  0.00    -0.062 C 
ATOM     40  H   UNL A   1      46.530  47.593  19.874  1.00  0.00     0.023 H 
ATOM     41  H   UNL A   1      46.534  48.390  21.429  1.00  0.00     0.023 H 
ATOM     42  H   UNL A   1      48.016  47.726  20.784  1.00  0.00     0.023 H 
ENDBRANCH  36  39
ENDBRANCH  33  36
ENDBRANCH  29  32
ENDBRANCH  26  29
ENDBRANCH  22  25
ENDBRANCH  19  22
ENDBRANCH  15  18
ENDBRANCH  12  15
ENDBRANCH   8  11
ENDBRANCH   5   8
ENDBRANCH   4   5
ENDBRANCH   1   4
BRANCH   1  43
ATOM     43  C   UNL A   1      46.910  42.865  25.510  1.00  0.00    -0.035 C 
ATOM     44  H   UNL A   1      47.263  43.791  25.912  1.00  0.00     0.028 H 
ATOM     45  H   UNL A   1      47.610  42.058  25.442  1.00  0.00     0.028 H 
BRANCH  43  46
ATOM     46  C   UNL A   1      45.868  42.340  26.471  1.00  0.00     0.027 C 
ATOM     47  H   UNL A   1      45.037  43.013  26.428  1.00  0.00     0.037 H 
ATOM     48  H   UNL A   1      46.388  42.279  27.403  1.00  0.00     0.037 H 
BRANCH  46  49
ATOM     49  C   UNL A   1      45.316  40.938  26.271  1.00  0.00     0.220 C 
ATOM     50  O   UNL A   1      45.988  39.970  26.645  1.00  0.00    -0.275 OA
ATOM     51  N   UNL A   1      44.091  40.654  25.765  1.00  0.00    -0.356 N 
ATOM     52  H   UNL A   1      44.005  39.730  25.435  1.00  0.00     0.163 HD
BRANCH  51  53
ATOM     53  C   UNL A   1      42.883  41.440  25.611  1.00  0.00     0.017 C 
ATOM     54  H   UNL A   1      42.854  41.825  24.613  1.00  0.00     0.049 H 
ATOM     55  H   UNL A   1      42.918  42.219  26.344  1.00  0.00     0.049 H 
BRANCH  53  56
ATOM     56  C   UNL A   1      41.608  40.644  25.859  1.00  0.00    -0.036 C 
ATOM     57  H   UNL A   1      41.701  39.683  25.396  1.00  0.00     0.028 H 
ATOM     58  H   UNL A   1      40.785  41.187  25.444  1.00  0.00     0.028 H 
BRANCH  56  59
ATOM     59  C   UNL A   1      41.352  40.452  27.362  1.00  0.00    -0.052 C 
ATOM     60  H   UNL A   1      40.301  40.309  27.501  1.00  0.00     0.027 H 
ATOM     61  H   UNL A   1      41.734  41.330  27.840  1.00  0.00     0.027 H 
BRANCH  59  62
ATOM     62  C   UNL A   1      42.083  39.266  28.007  1.00  0.00    -0.052 C 
ATOM     63  H   UNL A   1      42.677  38.796  27.252  1.00  0.00     0.027 H 
ATOM     64  H   UNL A   1      41.317  38.637  28.411  1.00  0.00     0.027 H 
BRANCH  62  65
ATOM     65  C   UNL A   1      43.000  39.612  29.180  1.00  0.00    -0.036 C 
ATOM     66  H   UNL A   1      42.394  40.000  29.972  1.00  0.00     0.028 H 
ATOM     67  H   UNL A   1      43.712  40.317  28.806  1.00  0.00     0.028 H 
BRANCH  65  68
ATOM     68  C   UNL A   1      43.806  38.442  29.730  1.00  0.00     0.018 C 
ATOM     69  H   UNL A   1      43.431  37.538  29.299  1.00  0.00     0.049 H 
ATOM     70  H   UNL A   1      43.699  38.452  30.794  1.00  0.00     0.049 H 
BRANCH  68  71
ATOM     71  N   UNL A   1      45.225  38.544  29.433  1.00  0.00    -0.352 N 
ATOM     72  C   UNL A   1      46.129  37.545  29.174  1.00  0.00     0.251 C 
ATOM     73  H   UNL A   1      45.590  39.458  29.417  1.00  0.00     0.163 HD
ATOM     74  O   UNL A   1      47.321  37.803  29.065  1.00  0.00    -0.269 OA
BRANCH  72  75
ATOM     75  C   UNL A   1      45.661  36.148  29.048  1.00  0.00     0.039 A 
ATOM     76  C   UNL A   1      45.039  35.756  27.861  1.00  0.00    -0.049 A 
ATOM     77  C   UNL A   1      45.817  35.236  30.095  1.00  0.00    -0.049 A 
ATOM     78  C   UNL A   1      44.596  34.440  27.715  1.00  0.00    -0.053 A 
ATOM     79  H   UNL A   1      44.906  36.436  27.095  1.00  0.00     0.063 H 
ATOM     80  C   UNL A   1      45.458  33.905  29.914  1.00  0.00    -0.053 A 
ATOM     81  H   UNL A   1      46.198  35.550  31.001  1.00  0.00     0.063 H 
ATOM     82  C   UNL A   1      44.816  33.501  28.735  1.00  0.00    -0.014 A 
ATOM     83  H   UNL A   1      44.104  34.157  26.853  1.00  0.00     0.063 H 
ATOM     84  H   UNL A   1      45.665  33.212  30.650  1.00  0.00     0.063 H 
BRANCH  82  85
ATOM     85  C   UNL A   1      44.325  32.107  28.605  1.00  0.00     0.031 A 
ATOM     86  C   UNL A   1      42.993  31.726  29.194  1.00  0.00     0.074 A 
ATOM     87  C   UNL A   1      45.086  31.184  27.989  1.00  0.00     0.049 A 
ATOM     88  N   UNL A   1      42.390  30.564  29.199  1.00  0.00    -0.248 NA
ATOM     89  C   UNL A   1      42.252  32.786  29.898  1.00  0.00    -0.034 C 
ATOM     90  C   UNL A   1      46.414  31.423  27.422  1.00  0.00    -0.036 A 
ATOM     91  N   UNL A   1      44.850  29.857  27.734  1.00  0.00    -0.354 N 
ATOM     92  C   UNL A   1      41.216  30.751  29.916  1.00  0.00     0.074 A 
ATOM     93  C   UNL A   1      41.220  32.117  30.388  1.00  0.00    -0.034 C 
ATOM     94  H   UNL A   1      42.478  33.789  29.986  1.00  0.00     0.065 H 
ATOM     95  C   UNL A   1      46.858  30.291  26.853  1.00  0.00    -0.036 A 
ATOM     96  H   UNL A   1      46.926  32.318  27.454  1.00  0.00     0.065 H 
ATOM     97  C   UNL A   1      45.865  29.240  27.046  1.00  0.00     0.049 A 
ATOM     98  H   UNL A   1      44.031  29.390  28.019  1.00  0.00     0.167 HD
ATOM     99  C   UNL A   1      40.211  29.871  30.139  1.00  0.00     0.037 A 
ATOM    100  H   UNL A   1      40.512  32.519  31.023  1.00  0.00     0.065 H 
ATOM    101  H   UNL A   1      47.758  30.183  26.359  1.00  0.00     0.065 H 
ATOM    102  C   UNL A   1      45.976  27.968  26.616  1.00  0.00     0.037 A 
ATOM    103  C   UNL A   1      40.202  28.521  29.640  1.00  0.00     0.049 A 
ATOM    104  C   UNL A   1      44.842  27.010  26.875  1.00  0.00     0.074 A 
ATOM    105  C   UNL A   1      39.207  27.566  29.752  1.00  0.00    -0.036 A 
ATOM    106  N   UNL A   1      41.243  27.934  28.935  1.00  0.00    -0.354 N 
ATOM    107  N   UNL A   1      43.702  27.219  27.486  1.00  0.00    -0.248 NA
ATOM    108  C   UNL A   1      45.010  25.641  26.369  1.00  0.00    -0.034 C 
ATOM    109  C   UNL A   1      39.671  26.383  29.166  1.00  0.00    -0.036 A 
ATOM    110  H   UNL A   1      38.284  27.702  30.192  1.00  0.00     0.065 H 
ATOM    111  C   UNL A   1      40.925  26.621  28.628  1.00  0.00     0.049 A 
ATOM    112  H   UNL A   1      42.084  28.385  28.690  1.00  0.00     0.167 HD
ATOM    113  C   UNL A   1      42.998  26.023  27.401  1.00  0.00     0.074 A 
ATOM    114  C   UNL A   1      43.839  25.098  26.669  1.00  0.00    -0.034 C 
ATOM    115  H   UNL A   1      45.825  25.214  25.902  1.00  0.00     0.065 H 
ATOM    116  H   UNL A   1      39.164  25.485  29.140  1.00  0.00     0.065 H 
ATOM    117  C   UNL A   1      41.767  25.720  27.883  1.00  0.00     0.037 A 
ATOM    118  H   UNL A   1      43.560  24.138  26.414  1.00  0.00     0.065 H 
BRANCH  99 119
ATOM    119  C   UNL A   1      39.043  30.341  30.960  1.00  0.00     0.064 A 
ATOM    120  C   UNL A   1      39.021  30.216  32.358  1.00  0.00     0.173 A 
ATOM    121  C   UNL A   1      37.939  30.947  30.341  1.00  0.00     0.173 A 
ATOM    122  F   UNL A   1      40.044  29.633  33.001  1.00  0.00    -0.203 F 
ATOM    123  C   UNL A   1      37.923  30.645  33.100  1.00  0.00     0.198 A 
ATOM    124  C   UNL A   1      36.859  31.408  31.090  1.00  0.00     0.198 A 
ATOM    125  F   UNL A   1      37.907  31.097  29.008  1.00  0.00    -0.203 F 
ATOM    126  F   UNL A   1      37.899  30.458  34.427  1.00  0.00    -0.200 F 
ATOM    127  C   UNL A   1      36.847  31.247  32.466  1.00  0.00     0.200 A 
ATOM    128  F   UNL A   1      35.827  32.005  30.478  1.00  0.00    -0.200 F 
ATOM    129  F   UNL A   1      35.794  31.666  33.183  1.00  0.00    -0.200 F 
ENDBRANCH  99 119
BRANCH 102 130
ATOM    130  C   UNL A   1      47.180  27.537  25.859  1.00  0.00     0.064 A 
ATOM    131  C   UNL A   1      47.240  27.670  24.464  1.00  0.00     0.173 A 
ATOM    132  C   UNL A   1      48.289  26.972  26.508  1.00  0.00     0.173 A 
ATOM    133  F   UNL A   1      46.199  28.187  23.796  1.00  0.00    -0.203 F 
ATOM    134  C   UNL A   1      48.348  27.228  23.745  1.00  0.00     0.198 A 
ATOM    135  C   UNL A   1      49.410  26.560  25.789  1.00  0.00     0.198 A 
ATOM    136  F   UNL A   1      48.287  26.829  27.841  1.00  0.00    -0.203 F 
ATOM    137  F   UNL A   1      48.354  27.316  22.407  1.00  0.00    -0.200 F 
ATOM    138  C   UNL A   1      49.435  26.678  24.408  1.00  0.00     0.200 A 
ATOM    139  F   UNL A   1      50.464  26.045  26.436  1.00  0.00    -0.200 F 
ATOM    140  F   UNL A   1      50.501  26.254  23.715  1.00  0.00    -0.200 F 
ENDBRANCH 102 130
BRANCH 117 141
ATOM    141  C   UNL A   1      41.229  24.350  27.581  1.00  0.00     0.064 A 
ATOM    142  C   UNL A   1      40.175  24.146  26.678  1.00  0.00     0.173 A 
ATOM    143  C   UNL A   1      41.800  23.220  28.187  1.00  0.00     0.173 A 
ATOM    144  F   UNL A   1      39.586  25.193  26.080  1.00  0.00    -0.203 F 
ATOM    145  C   UNL A   1      39.688  22.867  26.424  1.00  0.00     0.198 A 
ATOM    146  C   UNL A   1      41.336  21.940  27.902  1.00  0.00     0.198 A 
ATOM    147  F   UNL A   1      42.819  23.356  29.050  1.00  0.00    -0.203 F 
ATOM    148  F   UNL A   1      38.638  22.702  25.607  1.00  0.00    -0.200 F 
ATOM    149  C   UNL A   1      40.273  21.765  27.029  1.00  0.00     0.200 A 
ATOM    150  F   UNL A   1      41.917  20.875  28.473  1.00  0.00    -0.200 F 
ATOM    151  F   UNL A   1      39.806  20.534  26.780  1.00  0.00    -0.200 F 
ENDBRANCH 117 141
ENDBRANCH  82  85
ENDBRANCH  72  75
ENDBRANCH  68  71
ENDBRANCH  65  68
ENDBRANCH  62  65
ENDBRANCH  59  62
ENDBRANCH  56  59
ENDBRANCH  53  56
ENDBRANCH  51  53
ENDBRANCH  46  49
ENDBRANCH  43  46
ENDBRANCH   1  43
TORSDOF 27
ENDMDL
MODEL 2
REMARK VINA RESULT:      -9.0      6.643     12.638
REMARK SMILES CC/C=C/C/C=C/C/C=C/C/C=C/CCSCCCC(=O)NCCCCCCNC(=O)c1ccc(-c2c3nc(c(-c4c(F)c(F)c(F)c(F)c4F)c4ccc([nH]4)c(-c4c(F)c(F)c(F)c(F)c4F)c4nc(c(-c5c(F)c(F)c(F)c(F)c5F)c5ccc2[nH]5)C=C4)C=C3)cc1
REMARK SMILES IDX 17 1 16 4 15 5 14 8 13 11 12 12 11 15 10 18 9 19 8 22 7 25
REMARK SMILES IDX 6 26 5 29 4 32 3 33 2 36 1 39 18 43 19 46 20 49 21 50 22 51
REMARK SMILES IDX 23 53 24 56 25 59 26 62 27 65 28 68 29 71 30 72 31 74 32 75
REMARK SMILES IDX 33 76 94 77 34 78 93 80 35 82 36 85 37 86 87 87 38 88 92 89
REMARK SMILES IDX 86 90 88 91 39 92 91 93 85 95 84 97 40 99 72 102 52 103
REMARK SMILES IDX 71 104 53 105 56 106 70 107 89 108 54 109 55 111 69 113
REMARK SMILES IDX 90 114 57 117 41 119 42 120 50 121 43 122 44 123 48 124
REMARK SMILES IDX 51 125 45 126 46 127 49 128 47 129 73 130 74 131 82 132
REMARK SMILES IDX 75 133 76 134 80 135 83 136 77 137 78 138 81 139 79 140
REMARK SMILES IDX 58 141 59 142 67 143 60 144 61 145 65 146 68 147 62 148
REMARK SMILES IDX 63 149 66 150 64 151
REMARK H PARENT 17 2 17 3 15 6 15 7 14 9 14 10 12 13 13 14 11 16 11 17 9 20
REMARK H PARENT 10 21 8 23 8 24 6 27 7 28 5 30 5 31 3 34 4 35 2 37 2 38 1 40
REMARK H PARENT 1 41 1 42 18 44 18 45 19 47 19 48 22 52 23 54 23 55 24 57
REMARK H PARENT 24 58 25 60 25 61 26 63 26 64 27 66 27 67 28 69 28 70 29 73
REMARK H PARENT 33 79 94 81 34 83 93 84 92 94 86 96 88 98 91 100 85 101 53 110
REMARK H PARENT 56 112 89 115 54 116 90 118
REMARK Flexibility Score: inf
ROOT
ATOM      1  C   UNL A   1      35.297  32.525  30.343  1.00  0.00    -0.006 C 
ATOM      2  H   UNL A   1      36.166  31.945  30.576  1.00  0.00     0.038 H 
ATOM      3  H   UNL A   1      34.465  32.180  29.767  1.00  0.00     0.038 H 
ENDROOT
BRANCH   1   4
ATOM      4  S   UNL A   1      35.909  33.829  29.179  1.00  0.00    -0.162 SA
BRANCH   4   5
ATOM      5  C   UNL A   1      34.722  34.104  27.789  1.00  0.00    -0.003 C 
ATOM      6  H   UNL A   1      34.779  35.138  27.522  1.00  0.00     0.038 H 
ATOM      7  H   UNL A   1      35.032  33.411  27.033  1.00  0.00     0.038 H 
BRANCH   5   8
ATOM      8  C   UNL A   1      33.222  33.769  28.031  1.00  0.00    -0.026 C 
ATOM      9  H   UNL A   1      33.086  33.623  29.082  1.00  0.00     0.032 H 
ATOM     10  H   UNL A   1      32.676  34.596  27.627  1.00  0.00     0.032 H 
BRANCH   8  11
ATOM     11  C   UNL A   1      32.688  32.551  27.324  1.00  0.00    -0.087 C 
ATOM     12  C   UNL A   1      31.430  32.318  26.905  1.00  0.00    -0.085 C 
ATOM     13  H   UNL A   1      30.666  32.895  27.288  1.00  0.00     0.058 H 
ATOM     14  H   UNL A   1      33.372  31.801  27.139  1.00  0.00     0.057 H 
BRANCH  12  15
ATOM     15  C   UNL A   1      31.090  31.241  25.888  1.00  0.00    -0.017 C 
ATOM     16  H   UNL A   1      30.121  30.857  26.127  1.00  0.00     0.035 H 
ATOM     17  H   UNL A   1      31.142  31.713  24.930  1.00  0.00     0.035 H 
BRANCH  15  18
ATOM     18  C   UNL A   1      32.046  30.085  25.833  1.00  0.00    -0.084 C 
ATOM     19  C   UNL A   1      32.197  29.207  26.840  1.00  0.00    -0.084 C 
ATOM     20  H   UNL A   1      31.596  29.315  27.672  1.00  0.00     0.058 H 
ATOM     21  H   UNL A   1      32.613  29.956  24.981  1.00  0.00     0.058 H 
BRANCH  19  22
ATOM     22  C   UNL A   1      33.190  28.077  26.832  1.00  0.00    -0.017 C 
ATOM     23  H   UNL A   1      33.023  27.442  27.677  1.00  0.00     0.035 H 
ATOM     24  H   UNL A   1      33.080  27.495  25.940  1.00  0.00     0.035 H 
BRANCH  22  25
ATOM     25  C   UNL A   1      34.568  28.662  26.901  1.00  0.00    -0.084 C 
ATOM     26  C   UNL A   1      34.948  29.616  27.763  1.00  0.00    -0.084 C 
ATOM     27  H   UNL A   1      34.313  29.856  28.541  1.00  0.00     0.058 H 
ATOM     28  H   UNL A   1      35.274  28.306  26.238  1.00  0.00     0.058 H 
BRANCH  26  29
ATOM     29  C   UNL A   1      36.252  30.352  27.651  1.00  0.00    -0.017 C 
ATOM     30  H   UNL A   1      36.396  30.675  26.642  1.00  0.00     0.035 H 
ATOM     31  H   UNL A   1      36.242  31.206  28.296  1.00  0.00     0.035 H 
BRANCH  29  32
ATOM     32  C   UNL A   1      37.369  29.429  28.048  1.00  0.00    -0.085 C 
ATOM     33  C   UNL A   1      38.576  29.408  27.463  1.00  0.00    -0.089 C 
ATOM     34  H   UNL A   1      38.782  30.121  26.746  1.00  0.00     0.057 H 
ATOM     35  H   UNL A   1      37.196  28.769  28.823  1.00  0.00     0.058 H 
BRANCH  33  36
ATOM     36  C   UNL A   1      39.641  28.405  27.795  1.00  0.00    -0.038 C 
ATOM     37  H   UNL A   1      39.575  28.151  28.832  1.00  0.00     0.031 H 
ATOM     38  H   UNL A   1      39.497  27.534  27.191  1.00  0.00     0.031 H 
BRANCH  36  39
ATOM     39  C   UNL A   1      41.022  28.980  27.507  1.00  0.00    -0.062 C 
ATOM     40  H   UNL A   1      41.755  28.206  27.601  1.00  0.00     0.023 H 
ATOM     41  H   UNL A   1      41.235  29.761  28.206  1.00  0.00     0.023 H 
ATOM     42  H   UNL A   1      41.044  29.373  26.513  1.00  0.00     0.023 H 
ENDBRANCH  36  39
ENDBRANCH  33  36
ENDBRANCH  29  32
ENDBRANCH  26  29
ENDBRANCH  22  25
ENDBRANCH  19  22
ENDBRANCH  15  18
ENDBRANCH  12  15
ENDBRANCH   8  11
ENDBRANCH   5   8
ENDBRANCH   4   5
ENDBRANCH   1   4
BRANCH   1  43
ATOM     43  C   UNL A   1      34.585  32.702  31.681  1.00  0.00    -0.035 C 
ATOM     44  H   UNL A   1      34.116  31.769  31.907  1.00  0.00     0.028 H 
ATOM     45  H   UNL A   1      33.949  33.545  31.510  1.00  0.00     0.028 H 
BRANCH  43  46
ATOM     46  C   UNL A   1      35.371  33.105  32.909  1.00  0.00     0.027 C 
ATOM     47  H   UNL A   1      36.212  32.446  32.971  1.00  0.00     0.037 H 
ATOM     48  H   UNL A   1      34.655  33.044  33.701  1.00  0.00     0.037 H 
BRANCH  46  49
ATOM     49  C   UNL A   1      35.907  34.523  33.012  1.00  0.00     0.220 C 
ATOM     50  O   UNL A   1      35.244  35.373  33.616  1.00  0.00    -0.275 OA
ATOM     51  N   UNL A   1      37.113  34.930  32.542  1.00  0.00    -0.356 N 
ATOM     52  H   UNL A   1      37.181  35.905  32.427  1.00  0.00     0.163 HD
BRANCH  51  53
ATOM     53  C   UNL A   1      38.319  34.215  32.174  1.00  0.00     0.017 C 
ATOM     54  H   UNL A   1      38.596  34.507  31.183  1.00  0.00     0.049 H 
ATOM     55  H   UNL A   1      38.098  33.170  32.241  1.00  0.00     0.049 H 
BRANCH  53  56
ATOM     56  C   UNL A   1      39.492  34.490  33.106  1.00  0.00    -0.036 C 
ATOM     57  H   UNL A   1      39.948  35.417  32.828  1.00  0.00     0.028 H 
ATOM     58  H   UNL A   1      40.188  33.683  33.018  1.00  0.00     0.028 H 
BRANCH  56  59
ATOM     59  C   UNL A   1      39.035  34.577  34.570  1.00  0.00    -0.052 C 
ATOM     60  H   UNL A   1      37.989  34.804  34.576  1.00  0.00     0.027 H 
ATOM     61  H   UNL A   1      39.641  35.332  35.024  1.00  0.00     0.027 H 
BRANCH  59  62
ATOM     62  C   UNL A   1      39.248  33.304  35.402  1.00  0.00    -0.052 C 
ATOM     63  H   UNL A   1      39.426  33.599  36.414  1.00  0.00     0.027 H 
ATOM     64  H   UNL A   1      40.073  32.794  34.949  1.00  0.00     0.027 H 
BRANCH  62  65
ATOM     65  C   UNL A   1      38.089  32.308  35.399  1.00  0.00    -0.036 C 
ATOM     66  H   UNL A   1      37.399  32.605  34.637  1.00  0.00     0.028 H 
ATOM     67  H   UNL A   1      37.670  32.332  36.383  1.00  0.00     0.028 H 
BRANCH  65  68
ATOM     68  C   UNL A   1      38.487  30.861  35.139  1.00  0.00     0.018 C 
ATOM     69  H   UNL A   1      38.455  30.328  36.066  1.00  0.00     0.049 H 
ATOM     70  H   UNL A   1      39.469  30.870  34.717  1.00  0.00     0.049 H 
BRANCH  68  71
ATOM     71  N   UNL A   1      37.610  30.194  34.191  1.00  0.00    -0.352 N 
ATOM     72  C   UNL A   1      37.743  30.065  32.832  1.00  0.00     0.251 C 
ATOM     73  H   UNL A   1      36.807  29.777  34.579  1.00  0.00     0.163 HD
ATOM     74  O   UNL A   1      36.840  29.573  32.166  1.00  0.00    -0.269 OA
BRANCH  72  75
ATOM     75  C   UNL A   1      38.974  30.543  32.167  1.00  0.00     0.039 A 
ATOM     76  C   UNL A   1      40.151  30.621  32.915  1.00  0.00    -0.049 A 
ATOM     77  C   UNL A   1      38.968  30.929  30.824  1.00  0.00    -0.049 A 
ATOM     78  C   UNL A   1      41.328  31.061  32.308  1.00  0.00    -0.053 A 
ATOM     79  H   UNL A   1      40.150  30.354  33.913  1.00  0.00     0.063 H 
ATOM     80  C   UNL A   1      40.158  31.280  30.198  1.00  0.00    -0.053 A 
ATOM     81  H   UNL A   1      38.081  30.953  30.298  1.00  0.00     0.063 H 
ATOM     82  C   UNL A   1      41.344  31.379  30.941  1.00  0.00    -0.014 A 
ATOM     83  H   UNL A   1      42.190  31.153  32.867  1.00  0.00     0.063 H 
ATOM     84  H   UNL A   1      40.170  31.468  29.183  1.00  0.00     0.063 H 
BRANCH  82  85
ATOM     85  C   UNL A   1      42.580  31.877  30.289  1.00  0.00     0.031 A 
ATOM     86  C   UNL A   1      42.658  33.306  29.826  1.00  0.00     0.074 A 
ATOM     87  C   UNL A   1      43.614  31.038  30.088  1.00  0.00     0.049 A 
ATOM     88  N   UNL A   1      43.639  33.932  29.227  1.00  0.00    -0.248 NA
ATOM     89  C   UNL A   1      41.461  34.138  30.037  1.00  0.00    -0.034 C 
ATOM     90  C   UNL A   1      43.637  29.621  30.451  1.00  0.00    -0.036 A 
ATOM     91  N   UNL A   1      44.848  31.260  29.531  1.00  0.00    -0.354 N 
ATOM     92  C   UNL A   1      43.172  35.215  28.977  1.00  0.00     0.074 A 
ATOM     93  C   UNL A   1      41.799  35.262  29.427  1.00  0.00    -0.034 C 
ATOM     94  H   UNL A   1      40.586  33.904  30.531  1.00  0.00     0.065 H 
ATOM     95  C   UNL A   1      44.839  29.109  30.141  1.00  0.00    -0.036 A 
ATOM     96  H   UNL A   1      42.855  29.099  30.875  1.00  0.00     0.065 H 
ATOM     97  C   UNL A   1      45.657  30.150  29.528  1.00  0.00     0.049 A 
ATOM     98  H   UNL A   1      45.128  32.131  29.168  1.00  0.00     0.167 HD
ATOM     99  C   UNL A   1      43.836  36.269  28.445  1.00  0.00     0.037 A 
ATOM    100  H   UNL A   1      41.167  36.067  29.291  1.00  0.00     0.065 H 
ATOM    101  H   UNL A   1      45.136  28.135  30.310  1.00  0.00     0.065 H 
ATOM    102  C   UNL A   1      46.918  29.996  29.082  1.00  0.00     0.037 A 
ATOM    103  C   UNL A   1      45.212  36.222  28.027  1.00  0.00     0.049 A 
ATOM    104  C   UNL A   1      47.635  31.184  28.497  1.00  0.00     0.074 A 
ATOM    105  C   UNL A   1      46.001  37.246  27.535  1.00  0.00    -0.036 A 
ATOM    106  N   UNL A   1      46.005  35.083  28.050  1.00  0.00    -0.354 N 
ATOM    107  N   UNL A   1      47.211  32.414  28.338  1.00  0.00    -0.248 NA
ATOM    108  C   UNL A   1      49.015  30.963  28.043  1.00  0.00    -0.034 C 
ATOM    109  C   UNL A   1      47.252  36.714  27.205  1.00  0.00    -0.036 A 
ATOM    110  H   UNL A   1      45.716  38.233  27.429  1.00  0.00     0.065 H 
ATOM    111  C   UNL A   1      47.266  35.374  27.556  1.00  0.00     0.049 A 
ATOM    112  H   UNL A   1      45.712  34.198  28.369  1.00  0.00     0.167 HD
ATOM    113  C   UNL A   1      48.281  33.122  27.806  1.00  0.00     0.074 A 
ATOM    114  C   UNL A   1      49.378  32.185  27.682  1.00  0.00    -0.034 C 
ATOM    115  H   UNL A   1      49.558  30.086  28.014  1.00  0.00     0.065 H 
ATOM    116  H   UNL A   1      48.032  37.232  26.773  1.00  0.00     0.065 H 
ATOM    117  C   UNL A   1      48.351  34.431  27.456  1.00  0.00     0.037 A 
ATOM    118  H   UNL A   1      50.323  32.437  27.352  1.00  0.00     0.065 H 
BRANCH  99 119
ATOM    119  C   UNL A   1      43.081  37.558  28.283  1.00  0.00     0.064 A 
ATOM    120  C   UNL A   1      43.128  38.573  29.251  1.00  0.00     0.173 A 
ATOM    121  C   UNL A   1      42.317  37.793  27.128  1.00  0.00     0.173 A 
ATOM    122  F   UNL A   1      43.834  38.399  30.379  1.00  0.00    -0.203 F 
ATOM    123  C   UNL A   1      42.411  39.756  29.088  1.00  0.00     0.198 A 
ATOM    124  C   UNL A   1      41.630  38.991  26.953  1.00  0.00     0.198 A 
ATOM    125  F   UNL A   1      42.238  36.860  26.167  1.00  0.00    -0.203 F 
ATOM    126  F   UNL A   1      42.423  40.684  30.056  1.00  0.00    -0.200 F 
ATOM    127  C   UNL A   1      41.669  39.967  27.936  1.00  0.00     0.200 A 
ATOM    128  F   UNL A   1      40.926  39.200  25.832  1.00  0.00    -0.200 F 
ATOM    129  F   UNL A   1      40.984  41.109  27.778  1.00  0.00    -0.200 F 
ENDBRANCH  99 119
BRANCH 102 130
ATOM    130  C   UNL A   1      47.601  28.682  29.211  1.00  0.00     0.064 A 
ATOM    131  C   UNL A   1      47.521  27.725  28.190  1.00  0.00     0.173 A 
ATOM    132  C   UNL A   1      48.336  28.348  30.360  1.00  0.00     0.173 A 
ATOM    133  F   UNL A   1      46.817  27.988  27.079  1.00  0.00    -0.203 F 
ATOM    134  C   UNL A   1      48.123  26.475  28.323  1.00  0.00     0.198 A 
ATOM    135  C   UNL A   1      48.964  27.109  30.478  1.00  0.00     0.198 A 
ATOM    136  F   UNL A   1      48.450  29.229  31.364  1.00  0.00    -0.203 F 
ATOM    137  F   UNL A   1      47.982  25.559  27.354  1.00  0.00    -0.200 F 
ATOM    138  C   UNL A   1      48.848  26.169  29.465  1.00  0.00     0.200 A 
ATOM    139  F   UNL A   1      49.677  26.825  31.576  1.00  0.00    -0.200 F 
ATOM    140  F   UNL A   1      49.426  24.968  29.593  1.00  0.00    -0.200 F 
ENDBRANCH 102 130
BRANCH 117 141
ATOM    141  C   UNL A   1      49.676  34.941  26.961  1.00  0.00     0.064 A 
ATOM    142  C   UNL A   1      49.922  35.176  25.601  1.00  0.00     0.173 A 
ATOM    143  C   UNL A   1      50.705  35.224  27.873  1.00  0.00     0.173 A 
ATOM    144  F   UNL A   1      48.976  34.911  24.687  1.00  0.00    -0.203 F 
ATOM    145  C   UNL A   1      51.162  35.639  25.168  1.00  0.00     0.198 A 
ATOM    146  C   UNL A   1      51.930  35.723  27.440  1.00  0.00     0.198 A 
ATOM    147  F   UNL A   1      50.519  35.028  29.187  1.00  0.00    -0.203 F 
ATOM    148  F   UNL A   1      51.395  35.796  23.857  1.00  0.00    -0.200 F 
ATOM    149  C   UNL A   1      52.161  35.919  26.088  1.00  0.00     0.200 A 
ATOM    150  F   UNL A   1      52.887  36.011  28.333  1.00  0.00    -0.200 F 
ATOM    151  F   UNL A   1      53.352  36.369  25.669  1.00  0.00    -0.200 F 
ENDBRANCH 117 141
ENDBRANCH  82  85
ENDBRANCH  72  75
ENDBRANCH  68  71
ENDBRANCH  65  68
ENDBRANCH  62  65
ENDBRANCH  59  62
ENDBRANCH  56  59
ENDBRANCH  53  56
ENDBRANCH  51  53
ENDBRANCH  46  49
ENDBRANCH  43  46
ENDBRANCH   1  43
TORSDOF 27
ENDMDL
MODEL 3
REMARK VINA RESULT:      -8.9      6.069     12.884
REMARK SMILES CC/C=C/C/C=C/C/C=C/C/C=C/CCSCCCC(=O)NCCCCCCNC(=O)c1ccc(-c2c3nc(c(-c4c(F)c(F)c(F)c(F)c4F)c4ccc([nH]4)c(-c4c(F)c(F)c(F)c(F)c4F)c4nc(c(-c5c(F)c(F)c(F)c(F)c5F)c5ccc2[nH]5)C=C4)C=C3)cc1
REMARK SMILES IDX 17 1 16 4 15 5 14 8 13 11 12 12 11 15 10 18 9 19 8 22 7 25
REMARK SMILES IDX 6 26 5 29 4 32 3 33 2 36 1 39 18 43 19 46 20 49 21 50 22 51
REMARK SMILES IDX 23 53 24 56 25 59 26 62 27 65 28 68 29 71 30 72 31 74 32 75
REMARK SMILES IDX 33 76 94 77 34 78 93 80 35 82 36 85 37 86 87 87 38 88 92 89
REMARK SMILES IDX 86 90 88 91 39 92 91 93 85 95 84 97 40 99 72 102 52 103
REMARK SMILES IDX 71 104 53 105 56 106 70 107 89 108 54 109 55 111 69 113
REMARK SMILES IDX 90 114 57 117 41 119 42 120 50 121 43 122 44 123 48 124
REMARK SMILES IDX 51 125 45 126 46 127 49 128 47 129 73 130 74 131 82 132
REMARK SMILES IDX 75 133 76 134 80 135 83 136 77 137 78 138 81 139 79 140
REMARK SMILES IDX 58 141 59 142 67 143 60 144 61 145 65 146 68 147 62 148
REMARK SMILES IDX 63 149 66 150 64 151
REMARK H PARENT 17 2 17 3 15 6 15 7 14 9 14 10 12 13 13 14 11 16 11 17 9 20
REMARK H PARENT 10 21 8 23 8 24 6 27 7 28 5 30 5 31 3 34 4 35 2 37 2 38 1 40
REMARK H PARENT 1 41 1 42 18 44 18 45 19 47 19 48 22 52 23 54 23 55 24 57
REMARK H PARENT 24 58 25 60 25 61 26 63 26 64 27 66 27 67 28 69 28 70 29 73
REMARK H PARENT 33 79 94 81 34 83 93 84 92 94 86 96 88 98 91 100 85 101 53 110
REMARK H PARENT 56 112 89 115 54 116 90 118
REMARK Flexibility Score: inf
ROOT
ATOM      1  C   UNL A   1      48.203  25.604  24.315  1.00  0.00    -0.006 C 
ATOM      2  H   UNL A   1      47.662  26.421  23.884  1.00  0.00     0.038 H 
ATOM      3  H   UNL A   1      48.515  24.728  23.787  1.00  0.00     0.038 H 
ENDROOT
BRANCH   1   4
ATOM      4  S   UNL A   1      46.996  24.807  25.472  1.00  0.00    -0.162 SA
BRANCH   4   5
ATOM      5  C   UNL A   1      45.740  26.021  26.078  1.00  0.00    -0.003 C 
ATOM      6  H   UNL A   1      45.523  25.771  27.095  1.00  0.00     0.038 H 
ATOM      7  H   UNL A   1      46.195  26.977  25.921  1.00  0.00     0.038 H 
BRANCH   5   8
ATOM      8  C   UNL A   1      44.382  26.108  25.322  1.00  0.00    -0.026 C 
ATOM      9  H   UNL A   1      44.573  25.916  24.287  1.00  0.00     0.032 H 
ATOM     10  H   UNL A   1      43.746  25.389  25.794  1.00  0.00     0.032 H 
BRANCH   8  11
ATOM     11  C   UNL A   1      43.648  27.420  25.419  1.00  0.00    -0.087 C 
ATOM     12  C   UNL A   1      42.319  27.628  25.446  1.00  0.00    -0.085 C 
ATOM     13  H   UNL A   1      41.693  26.869  25.136  1.00  0.00     0.058 H 
ATOM     14  H   UNL A   1      44.239  28.264  25.470  1.00  0.00     0.057 H 
BRANCH  12  15
ATOM     15  C   UNL A   1      41.702  28.934  25.917  1.00  0.00    -0.017 C 
ATOM     16  H   UNL A   1      42.370  29.377  26.626  1.00  0.00     0.035 H 
ATOM     17  H   UNL A   1      41.555  29.525  25.038  1.00  0.00     0.035 H 
BRANCH  15  18
ATOM     18  C   UNL A   1      40.354  28.813  26.565  1.00  0.00    -0.084 C 
ATOM     19  C   UNL A   1      40.165  28.251  27.772  1.00  0.00    -0.084 C 
ATOM     20  H   UNL A   1      40.997  27.927  28.290  1.00  0.00     0.058 H 
ATOM     21  H   UNL A   1      39.531  29.179  26.060  1.00  0.00     0.058 H 
BRANCH  19  22
ATOM     22  C   UNL A   1      38.818  28.064  28.414  1.00  0.00    -0.017 C 
ATOM     23  H   UNL A   1      38.416  27.111  28.142  1.00  0.00     0.035 H 
ATOM     24  H   UNL A   1      38.908  28.106  29.480  1.00  0.00     0.035 H 
BRANCH  22  25
ATOM     25  C   UNL A   1      37.912  29.155  27.929  1.00  0.00    -0.084 C 
ATOM     26  C   UNL A   1      36.622  29.284  28.274  1.00  0.00    -0.084 C 
ATOM     27  H   UNL A   1      36.261  28.703  29.047  1.00  0.00     0.058 H 
ATOM     28  H   UNL A   1      38.307  29.855  27.283  1.00  0.00     0.058 H 
BRANCH  26  29
ATOM     29  C   UNL A   1      35.680  30.232  27.591  1.00  0.00    -0.017 C 
ATOM     30  H   UNL A   1      35.574  31.119  28.180  1.00  0.00     0.035 H 
ATOM     31  H   UNL A   1      36.065  30.494  26.627  1.00  0.00     0.035 H 
BRANCH  29  32
ATOM     32  C   UNL A   1      34.342  29.567  27.439  1.00  0.00    -0.085 C 
ATOM     33  C   UNL A   1      34.146  28.394  26.816  1.00  0.00    -0.089 C 
ATOM     34  H   UNL A   1      34.974  27.874  26.487  1.00  0.00     0.057 H 
ATOM     35  H   UNL A   1      33.519  30.043  27.841  1.00  0.00     0.058 H 
BRANCH  33  36
ATOM     36  C   UNL A   1      32.791  27.800  26.574  1.00  0.00    -0.038 C 
ATOM     37  H   UNL A   1      32.541  27.903  25.539  1.00  0.00     0.031 H 
ATOM     38  H   UNL A   1      32.812  26.766  26.848  1.00  0.00     0.031 H 
BRANCH  36  39
ATOM     39  C   UNL A   1      31.739  28.510  27.416  1.00  0.00    -0.062 C 
ATOM     40  H   UNL A   1      31.709  28.072  28.392  1.00  0.00     0.023 H 
ATOM     41  H   UNL A   1      30.782  28.409  26.949  1.00  0.00     0.023 H 
ATOM     42  H   UNL A   1      31.989  29.547  27.498  1.00  0.00     0.023 H 
ENDBRANCH  36  39
ENDBRANCH  33  36
ENDBRANCH  29  32
ENDBRANCH  26  29
ENDBRANCH  22  25
ENDBRANCH  19  22
ENDBRANCH  15  18
ENDBRANCH  12  15
ENDBRANCH   8  11
ENDBRANCH   5   8
ENDBRANCH   4   5
ENDBRANCH   1   4
BRANCH   1  43
ATOM     43  C   UNL A   1      49.581  26.180  24.628  1.00  0.00    -0.035 C 
ATOM     44  H   UNL A   1      50.183  26.032  23.757  1.00  0.00     0.028 H 
ATOM     45  H   UNL A   1      49.866  25.662  25.519  1.00  0.00     0.028 H 
BRANCH  43  46
ATOM     46  C   UNL A   1      49.723  27.636  25.013  1.00  0.00     0.027 C 
ATOM     47  H   UNL A   1      49.625  28.208  24.114  1.00  0.00     0.037 H 
ATOM     48  H   UNL A   1      50.671  27.677  25.507  1.00  0.00     0.037 H 
BRANCH  46  49
ATOM     49  C   UNL A   1      48.760  28.230  26.027  1.00  0.00     0.220 C 
ATOM     50  O   UNL A   1      47.804  28.903  25.623  1.00  0.00    -0.275 OA
ATOM     51  N   UNL A   1      48.823  28.027  27.366  1.00  0.00    -0.356 N 
ATOM     52  H   UNL A   1      48.325  28.696  27.890  1.00  0.00     0.163 HD
BRANCH  51  53
ATOM     53  C   UNL A   1      49.477  27.022  28.180  1.00  0.00     0.017 C 
ATOM     54  H   UNL A   1      50.275  26.593  27.611  1.00  0.00     0.049 H 
ATOM     55  H   UNL A   1      48.734  26.298  28.444  1.00  0.00     0.049 H 
BRANCH  53  56
ATOM     56  C   UNL A   1      50.051  27.575  29.478  1.00  0.00    -0.036 C 
ATOM     57  H   UNL A   1      49.487  27.186  30.301  1.00  0.00     0.028 H 
ATOM     58  H   UNL A   1      49.989  28.642  29.446  1.00  0.00     0.028 H 
BRANCH  56  59
ATOM     59  C   UNL A   1      51.525  27.180  29.651  1.00  0.00    -0.052 C 
ATOM     60  H   UNL A   1      51.716  26.336  29.021  1.00  0.00     0.027 H 
ATOM     61  H   UNL A   1      51.656  26.976  30.693  1.00  0.00     0.027 H 
BRANCH  59  62
ATOM     62  C   UNL A   1      52.544  28.273  29.301  1.00  0.00    -0.052 C 
ATOM     63  H   UNL A   1      53.409  28.123  29.911  1.00  0.00     0.027 H 
ATOM     64  H   UNL A   1      52.046  29.204  29.477  1.00  0.00     0.027 H 
BRANCH  62  65
ATOM     65  C   UNL A   1      52.998  28.313  27.841  1.00  0.00    -0.036 C 
ATOM     66  H   UNL A   1      52.782  27.363  27.401  1.00  0.00     0.028 H 
ATOM     67  H   UNL A   1      54.043  28.545  27.859  1.00  0.00     0.028 H 
BRANCH  65  68
ATOM     68  C   UNL A   1      52.335  29.390  26.993  1.00  0.00     0.018 C 
ATOM     69  H   UNL A   1      51.302  29.449  27.264  1.00  0.00     0.049 H 
ATOM     70  H   UNL A   1      52.464  29.115  25.968  1.00  0.00     0.049 H 
BRANCH  68  71
ATOM     71  N   UNL A   1      52.936  30.701  27.171  1.00  0.00    -0.352 N 
ATOM     72  C   UNL A   1      52.337  31.892  27.494  1.00  0.00     0.251 C 
ATOM     73  H   UNL A   1      53.911  30.741  27.041  1.00  0.00     0.163 HD
ATOM     74  O   UNL A   1      52.982  32.932  27.483  1.00  0.00    -0.269 OA
BRANCH  72  75
ATOM     75  C   UNL A   1      50.898  31.920  27.836  1.00  0.00     0.039 A 
ATOM     76  C   UNL A   1      50.532  32.054  29.177  1.00  0.00    -0.049 A 
ATOM     77  C   UNL A   1      49.918  31.795  26.848  1.00  0.00    -0.049 A 
ATOM     78  C   UNL A   1      49.180  32.091  29.523  1.00  0.00    -0.053 A 
ATOM     79  H   UNL A   1      51.257  32.126  29.909  1.00  0.00     0.063 H 
ATOM     80  C   UNL A   1      48.575  31.922  27.184  1.00  0.00    -0.053 A 
ATOM     81  H   UNL A   1      50.191  31.609  25.871  1.00  0.00     0.063 H 
ATOM     82  C   UNL A   1      48.192  32.040  28.528  1.00  0.00    -0.014 A 
ATOM     83  H   UNL A   1      48.907  32.154  30.516  1.00  0.00     0.063 H 
ATOM     84  H   UNL A   1      47.858  31.931  26.442  1.00  0.00     0.063 H 
BRANCH  82  85
ATOM     85  C   UNL A   1      46.752  32.048  28.883  1.00  0.00     0.031 A 
ATOM     86  C   UNL A   1      46.084  30.775  29.329  1.00  0.00     0.074 A 
ATOM     87  C   UNL A   1      46.043  33.188  28.777  1.00  0.00     0.049 A 
ATOM     88  N   UNL A   1      44.838  30.568  29.672  1.00  0.00    -0.248 NA
ATOM     89  C   UNL A   1      46.922  29.565  29.364  1.00  0.00    -0.034 C 
ATOM     90  C   UNL A   1      46.568  34.472  28.312  1.00  0.00    -0.036 A 
ATOM     91  N   UNL A   1      44.725  33.449  29.057  1.00  0.00    -0.354 N 
ATOM     92  C   UNL A   1      44.743  29.210  29.945  1.00  0.00     0.074 A 
ATOM     93  C   UNL A   1      46.036  28.629  29.664  1.00  0.00    -0.034 C 
ATOM     94  H   UNL A   1      47.936  29.472  29.198  1.00  0.00     0.065 H 
ATOM     95  C   UNL A   1      45.594  35.393  28.373  1.00  0.00    -0.036 A 
ATOM     96  H   UNL A   1      47.533  34.641  27.988  1.00  0.00     0.065 H 
ATOM     97  C   UNL A   1      44.368  34.759  28.847  1.00  0.00     0.049 A 
ATOM     98  H   UNL A   1      44.095  32.763  29.376  1.00  0.00     0.167 HD
ATOM     99  C   UNL A   1      43.681  28.513  30.414  1.00  0.00     0.037 A 
ATOM    100  H   UNL A   1      46.242  27.618  29.695  1.00  0.00     0.065 H 
ATOM    101  H   UNL A   1      45.695  36.390  28.125  1.00  0.00     0.065 H 
ATOM    102  C   UNL A   1      43.184  35.375  29.025  1.00  0.00     0.037 A 
ATOM    103  C   UNL A   1      42.405  29.105  30.720  1.00  0.00     0.049 A 
ATOM    104  C   UNL A   1      42.019  34.578  29.550  1.00  0.00     0.074 A 
ATOM    105  C   UNL A   1      41.281  28.505  31.259  1.00  0.00    -0.036 A 
ATOM    106  N   UNL A   1      42.083  30.439  30.507  1.00  0.00    -0.354 N 
ATOM    107  N   UNL A   1      41.961  33.311  29.880  1.00  0.00    -0.248 NA
ATOM    108  C   UNL A   1      40.756  35.305  29.740  1.00  0.00    -0.034 C 
ATOM    109  C   UNL A   1      40.262  29.462  31.318  1.00  0.00    -0.036 A 
ATOM    110  H   UNL A   1      41.208  27.523  31.565  1.00  0.00     0.065 H 
ATOM    111  C   UNL A   1      40.770  30.673  30.881  1.00  0.00     0.049 A 
ATOM    112  H   UNL A   1      42.698  31.116  30.143  1.00  0.00     0.167 HD
ATOM    113  C   UNL A   1      40.673  33.098  30.356  1.00  0.00     0.074 A 
ATOM    114  C   UNL A   1      39.987  34.372  30.281  1.00  0.00    -0.034 C 
ATOM    115  H   UNL A   1      40.528  36.286  29.513  1.00  0.00     0.065 H 
ATOM    116  H   UNL A   1      39.294  29.292  31.634  1.00  0.00     0.065 H 
ATOM    117  C   UNL A   1      40.110  31.953  30.816  1.00  0.00     0.037 A 
ATOM    118  H   UNL A   1      39.022  34.532  30.608  1.00  0.00     0.065 H 
BRANCH  99 119
ATOM    119  C   UNL A   1      43.853  27.035  30.621  1.00  0.00     0.064 A 
ATOM    120  C   UNL A   1      43.555  26.105  29.613  1.00  0.00     0.173 A 
ATOM    121  C   UNL A   1      44.347  26.541  31.839  1.00  0.00     0.173 A 
ATOM    122  F   UNL A   1      43.069  26.519  28.433  1.00  0.00    -0.203 F 
ATOM    123  C   UNL A   1      43.709  24.737  29.829  1.00  0.00     0.198 A 
ATOM    124  C   UNL A   1      44.534  25.176  32.038  1.00  0.00     0.198 A 
ATOM    125  F   UNL A   1      44.653  27.384  32.837  1.00  0.00    -0.203 F 
ATOM    126  F   UNL A   1      43.359  23.866  28.872  1.00  0.00    -0.200 F 
ATOM    127  C   UNL A   1      44.206  24.275  31.038  1.00  0.00     0.200 A 
ATOM    128  F   UNL A   1      45.029  24.732  33.202  1.00  0.00    -0.200 F 
ATOM    129  F   UNL A   1      44.360  22.959  31.241  1.00  0.00    -0.200 F 
ENDBRANCH  99 119
BRANCH 102 130
ATOM    130  C   UNL A   1      43.049  36.829  28.748  1.00  0.00     0.064 A 
ATOM    131  C   UNL A   1      43.489  37.783  29.677  1.00  0.00     0.173 A 
ATOM    132  C   UNL A   1      42.468  37.298  27.559  1.00  0.00     0.173 A 
ATOM    133  F   UNL A   1      44.035  37.386  30.836  1.00  0.00    -0.203 F 
ATOM    134  C   UNL A   1      43.326  39.147  29.443  1.00  0.00     0.198 A 
ATOM    135  C   UNL A   1      42.336  38.663  27.313  1.00  0.00     0.198 A 
ATOM    136  F   UNL A   1      42.038  36.429  26.634  1.00  0.00    -0.203 F 
ATOM    137  F   UNL A   1      43.705  40.034  30.374  1.00  0.00    -0.200 F 
ATOM    138  C   UNL A   1      42.754  39.587  28.259  1.00  0.00     0.200 A 
ATOM    139  F   UNL A   1      41.798  39.083  26.160  1.00  0.00    -0.200 F 
ATOM    140  F   UNL A   1      42.599  40.898  28.034  1.00  0.00    -0.200 F 
ENDBRANCH 102 130
BRANCH 117 141
ATOM    141  C   UNL A   1      38.701  32.038  31.332  1.00  0.00     0.064 A 
ATOM    142  C   UNL A   1      37.596  32.110  30.471  1.00  0.00     0.173 A 
ATOM    143  C   UNL A   1      38.455  32.019  32.714  1.00  0.00     0.173 A 
ATOM    144  F   UNL A   1      37.776  32.142  29.142  1.00  0.00    -0.203 F 
ATOM    145  C   UNL A   1      36.301  32.199  30.975  1.00  0.00     0.198 A 
ATOM    146  C   UNL A   1      37.158  32.070  33.213  1.00  0.00     0.198 A 
ATOM    147  F   UNL A   1      39.475  31.941  33.582  1.00  0.00    -0.203 F 
ATOM    148  F   UNL A   1      35.265  32.331  30.135  1.00  0.00    -0.200 F 
ATOM    149  C   UNL A   1      36.083  32.171  32.344  1.00  0.00     0.200 A 
ATOM    150  F   UNL A   1      36.948  32.023  34.536  1.00  0.00    -0.200 F 
ATOM    151  F   UNL A   1      34.835  32.252  32.827  1.00  0.00    -0.200 F 
ENDBRANCH 117 141
ENDBRANCH  82  85
ENDBRANCH  72  75
ENDBRANCH  68  71
ENDBRANCH  65  68
ENDBRANCH  62  65
ENDBRANCH  59  62
ENDBRANCH  56  59
ENDBRANCH  53  56
ENDBRANCH  51  53
ENDBRANCH  46  49
ENDBRANCH  43  46
ENDBRANCH   1  43
TORSDOF 27
ENDMDL
MODEL 4
REMARK VINA RESULT:      -8.7      7.962     11.780
REMARK SMILES CC/C=C/C/C=C/C/C=C/C/C=C/CCSCCCC(=O)NCCCCCCNC(=O)c1ccc(-c2c3nc(c(-c4c(F)c(F)c(F)c(F)c4F)c4ccc([nH]4)c(-c4c(F)c(F)c(F)c(F)c4F)c4nc(c(-c5c(F)c(F)c(F)c(F)c5F)c5ccc2[nH]5)C=C4)C=C3)cc1
REMARK SMILES IDX 17 1 16 4 15 5 14 8 13 11 12 12 11 15 10 18 9 19 8 22 7 25
REMARK SMILES IDX 6 26 5 29 4 32 3 33 2 36 1 39 18 43 19 46 20 49 21 50 22 51
REMARK SMILES IDX 23 53 24 56 25 59 26 62 27 65 28 68 29 71 30 72 31 74 32 75
REMARK SMILES IDX 33 76 94 77 34 78 93 80 35 82 36 85 37 86 87 87 38 88 92 89
REMARK SMILES IDX 86 90 88 91 39 92 91 93 85 95 84 97 40 99 72 102 52 103
REMARK SMILES IDX 71 104 53 105 56 106 70 107 89 108 54 109 55 111 69 113
REMARK SMILES IDX 90 114 57 117 41 119 42 120 50 121 43 122 44 123 48 124
REMARK SMILES IDX 51 125 45 126 46 127 49 128 47 129 73 130 74 131 82 132
REMARK SMILES IDX 75 133 76 134 80 135 83 136 77 137 78 138 81 139 79 140
REMARK SMILES IDX 58 141 59 142 67 143 60 144 61 145 65 146 68 147 62 148
REMARK SMILES IDX 63 149 66 150 64 151
REMARK H PARENT 17 2 17 3 15 6 15 7 14 9 14 10 12 13 13 14 11 16 11 17 9 20
REMARK H PARENT 10 21 8 23 8 24 6 27 7 28 5 30 5 31 3 34 4 35 2 37 2 38 1 40
REMARK H PARENT 1 41 1 42 18 44 18 45 19 47 19 48 22 52 23 54 23 55 24 57
REMARK H PARENT 24 58 25 60 25 61 26 63 26 64 27 66 27 67 28 69 28 70 29 73
REMARK H PARENT 33 79 94 81 34 83 93 84 92 94 86 96 88 98 91 100 85 101 53 110
REMARK H PARENT 56 112 89 115 54 116 90 118
REMARK Flexibility Score: inf
ROOT
ATOM      1  C   UNL A   1      41.545  33.446  36.117  1.00  0.00    -0.006 C 
ATOM      2  H   UNL A   1      42.178  32.587  36.038  1.00  0.00     0.038 H 
ATOM      3  H   UNL A   1      41.053  33.767  37.010  1.00  0.00     0.038 H 
ENDROOT
BRANCH   1   4
ATOM      4  S   UNL A   1      40.044  33.007  35.125  1.00  0.00    -0.162 SA
BRANCH   4   5
ATOM      5  C   UNL A   1      39.570  31.237  35.363  1.00  0.00    -0.003 C 
ATOM      6  H   UNL A   1      39.042  31.171  36.291  1.00  0.00     0.038 H 
ATOM      7  H   UNL A   1      39.004  30.991  34.488  1.00  0.00     0.038 H 
BRANCH   5   8
ATOM      8  C   UNL A   1      40.707  30.174  35.400  1.00  0.00    -0.026 C 
ATOM      9  H   UNL A   1      41.635  30.685  35.247  1.00  0.00     0.032 H 
ATOM     10  H   UNL A   1      40.620  29.696  36.353  1.00  0.00     0.032 H 
BRANCH   8  11
ATOM     11  C   UNL A   1      40.618  29.066  34.384  1.00  0.00    -0.087 C 
ATOM     12  C   UNL A   1      40.003  29.084  33.187  1.00  0.00    -0.085 C 
ATOM     13  H   UNL A   1      39.311  29.824  32.998  1.00  0.00     0.058 H 
ATOM     14  H   UNL A   1      41.085  28.182  34.638  1.00  0.00     0.057 H 
BRANCH  12  15
ATOM     15  C   UNL A   1      40.290  28.059  32.102  1.00  0.00    -0.017 C 
ATOM     16  H   UNL A   1      41.350  28.008  31.968  1.00  0.00     0.035 H 
ATOM     17  H   UNL A   1      39.855  27.143  32.439  1.00  0.00     0.035 H 
BRANCH  15  18
ATOM     18  C   UNL A   1      39.669  28.346  30.766  1.00  0.00    -0.084 C 
ATOM     19  C   UNL A   1      39.551  27.423  29.795  1.00  0.00    -0.084 C 
ATOM     20  H   UNL A   1      39.868  26.463  30.000  1.00  0.00     0.058 H 
ATOM     21  H   UNL A   1      39.315  29.298  30.583  1.00  0.00     0.058 H 
BRANCH  19  22
ATOM     22  C   UNL A   1      38.988  27.703  28.429  1.00  0.00    -0.017 C 
ATOM     23  H   UNL A   1      39.767  28.041  27.779  1.00  0.00     0.035 H 
ATOM     24  H   UNL A   1      38.561  26.813  28.016  1.00  0.00     0.035 H 
BRANCH  22  25
ATOM     25  C   UNL A   1      37.940  28.766  28.562  1.00  0.00    -0.084 C 
ATOM     26  C   UNL A   1      38.076  30.029  28.132  1.00  0.00    -0.084 C 
ATOM     27  H   UNL A   1      38.879  30.256  27.524  1.00  0.00     0.058 H 
ATOM     28  H   UNL A   1      37.051  28.508  29.018  1.00  0.00     0.058 H 
BRANCH  26  29
ATOM     29  C   UNL A   1      37.119  31.127  28.492  1.00  0.00    -0.017 C 
ATOM     30  H   UNL A   1      37.568  32.076  28.289  1.00  0.00     0.035 H 
ATOM     31  H   UNL A   1      36.224  31.032  27.913  1.00  0.00     0.035 H 
BRANCH  29  32
ATOM     32  C   UNL A   1      36.790  31.030  29.954  1.00  0.00    -0.085 C 
ATOM     33  C   UNL A   1      36.252  32.025  30.676  1.00  0.00    -0.089 C 
ATOM     34  H   UNL A   1      35.972  32.887  30.184  1.00  0.00     0.057 H 
ATOM     35  H   UNL A   1      36.990  30.138  30.435  1.00  0.00     0.058 H 
BRANCH  33  36
ATOM     36  C   UNL A   1      36.035  31.951  32.158  1.00  0.00    -0.038 C 
ATOM     37  H   UNL A   1      36.339  32.874  32.606  1.00  0.00     0.031 H 
ATOM     38  H   UNL A   1      34.998  31.772  32.348  1.00  0.00     0.031 H 
BRANCH  36  39
ATOM     39  C   UNL A   1      36.848  30.812  32.760  1.00  0.00    -0.062 C 
ATOM     40  H   UNL A   1      37.769  31.199  33.145  1.00  0.00     0.023 H 
ATOM     41  H   UNL A   1      37.056  30.085  32.003  1.00  0.00     0.023 H 
ATOM     42  H   UNL A   1      36.293  30.357  33.551  1.00  0.00     0.023 H 
ENDBRANCH  36  39
ENDBRANCH  33  36
ENDBRANCH  29  32
ENDBRANCH  26  29
ENDBRANCH  22  25
ENDBRANCH  19  22
ENDBRANCH  15  18
ENDBRANCH  12  15
ENDBRANCH   8  11
ENDBRANCH   5   8
ENDBRANCH   4   5
ENDBRANCH   1   4
BRANCH   1  43
ATOM     43  C   UNL A   1      42.488  34.633  35.941  1.00  0.00    -0.035 C 
ATOM     44  H   UNL A   1      43.123  34.402  35.112  1.00  0.00     0.028 H 
ATOM     45  H   UNL A   1      42.946  34.726  36.903  1.00  0.00     0.028 H 
BRANCH  43  46
ATOM     46  C   UNL A   1      41.926  36.014  35.689  1.00  0.00     0.027 C 
ATOM     47  H   UNL A   1      41.709  36.077  34.643  1.00  0.00     0.037 H 
ATOM     48  H   UNL A   1      42.685  36.670  36.061  1.00  0.00     0.037 H 
BRANCH  46  49
ATOM     49  C   UNL A   1      40.674  36.450  36.431  1.00  0.00     0.220 C 
ATOM     50  O   UNL A   1      39.589  36.434  35.838  1.00  0.00    -0.275 OA
ATOM     51  N   UNL A   1      40.633  36.803  37.739  1.00  0.00    -0.356 N 
ATOM     52  H   UNL A   1      39.834  37.325  37.982  1.00  0.00     0.163 HD
BRANCH  51  53
ATOM     53  C   UNL A   1      41.531  36.566  38.851  1.00  0.00     0.017 C 
ATOM     54  H   UNL A   1      42.146  35.723  38.617  1.00  0.00     0.049 H 
ATOM     55  H   UNL A   1      40.924  36.395  39.716  1.00  0.00     0.049 H 
BRANCH  53  56
ATOM     56  C   UNL A   1      42.435  37.752  39.163  1.00  0.00    -0.036 C 
ATOM     57  H   UNL A   1      42.641  37.766  40.213  1.00  0.00     0.028 H 
ATOM     58  H   UNL A   1      41.932  38.647  38.863  1.00  0.00     0.028 H 
BRANCH  56  59
ATOM     59  C   UNL A   1      43.762  37.661  38.394  1.00  0.00    -0.052 C 
ATOM     60  H   UNL A   1      44.133  38.656  38.259  1.00  0.00     0.027 H 
ATOM     61  H   UNL A   1      43.537  37.159  37.476  1.00  0.00     0.027 H 
BRANCH  59  62
ATOM     62  C   UNL A   1      44.860  36.832  39.074  1.00  0.00    -0.052 C 
ATOM     63  H   UNL A   1      44.629  36.773  40.116  1.00  0.00     0.027 H 
ATOM     64  H   UNL A   1      45.780  37.337  38.863  1.00  0.00     0.027 H 
BRANCH  62  65
ATOM     65  C   UNL A   1      45.036  35.407  38.549  1.00  0.00    -0.036 C 
ATOM     66  H   UNL A   1      46.085  35.212  38.464  1.00  0.00     0.028 H 
ATOM     67  H   UNL A   1      44.520  35.367  37.612  1.00  0.00     0.028 H 
BRANCH  65  68
ATOM     68  C   UNL A   1      44.422  34.321  39.422  1.00  0.00     0.018 C 
ATOM     69  H   UNL A   1      43.922  33.618  38.790  1.00  0.00     0.049 H 
ATOM     70  H   UNL A   1      43.747  34.799  40.100  1.00  0.00     0.049 H 
BRANCH  68  71
ATOM     71  N   UNL A   1      45.408  33.609  40.217  1.00  0.00    -0.352 N 
ATOM     72  C   UNL A   1      45.972  32.377  39.999  1.00  0.00     0.251 C 
ATOM     73  H   UNL A   1      45.715  34.076  41.028  1.00  0.00     0.163 HD
ATOM     74  O   UNL A   1      46.701  31.873  40.843  1.00  0.00    -0.269 OA
BRANCH  72  75
ATOM     75  C   UNL A   1      45.677  31.649  38.746  1.00  0.00     0.039 A 
ATOM     76  C   UNL A   1      44.398  31.119  38.566  1.00  0.00    -0.049 A 
ATOM     77  C   UNL A   1      46.656  31.473  37.765  1.00  0.00    -0.049 A 
ATOM     78  C   UNL A   1      44.094  30.435  37.388  1.00  0.00    -0.053 A 
ATOM     79  H   UNL A   1      43.680  31.233  39.299  1.00  0.00     0.063 H 
ATOM     80  C   UNL A   1      46.326  30.871  36.556  1.00  0.00    -0.053 A 
ATOM     81  H   UNL A   1      47.623  31.789  37.938  1.00  0.00     0.063 H 
ATOM     82  C   UNL A   1      45.051  30.319  36.368  1.00  0.00    -0.014 A 
ATOM     83  H   UNL A   1      43.160  30.012  37.267  1.00  0.00     0.063 H 
ATOM     84  H   UNL A   1      47.022  30.830  35.795  1.00  0.00     0.063 H 
BRANCH  82  85
ATOM     85  C   UNL A   1      44.751  29.569  35.123  1.00  0.00     0.031 A 
ATOM     86  C   UNL A   1      44.125  30.280  33.954  1.00  0.00     0.074 A 
ATOM     87  C   UNL A   1      45.013  28.250  35.057  1.00  0.00     0.049 A 
ATOM     88  N   UNL A   1      43.775  29.806  32.785  1.00  0.00    -0.248 NA
ATOM     89  C   UNL A   1      43.823  31.710  34.133  1.00  0.00    -0.034 C 
ATOM     90  C   UNL A   1      45.575  27.443  36.141  1.00  0.00    -0.036 A 
ATOM     91  N   UNL A   1      44.843  27.356  34.031  1.00  0.00    -0.354 N 
ATOM     92  C   UNL A   1      43.200  30.870  32.103  1.00  0.00     0.074 A 
ATOM     93  C   UNL A   1      43.186  31.997  33.009  1.00  0.00    -0.034 C 
ATOM     94  H   UNL A   1      44.048  32.328  34.928  1.00  0.00     0.065 H 
ATOM     95  C   UNL A   1      45.738  26.183  35.711  1.00  0.00    -0.036 A 
ATOM     96  H   UNL A   1      45.808  27.789  37.086  1.00  0.00     0.065 H 
ATOM     97  C   UNL A   1      45.260  26.083  34.335  1.00  0.00     0.049 A 
ATOM     98  H   UNL A   1      44.457  27.602  33.159  1.00  0.00     0.167 HD
ATOM     99  C   UNL A   1      42.750  30.913  30.827  1.00  0.00     0.037 A 
ATOM    100  H   UNL A   1      42.740  32.905  32.805  1.00  0.00     0.065 H 
ATOM    101  H   UNL A   1      46.137  25.408  36.264  1.00  0.00     0.065 H 
ATOM    102  C   UNL A   1      45.260  24.966  33.583  1.00  0.00     0.037 A 
ATOM    103  C   UNL A   1      42.795  29.794  29.922  1.00  0.00     0.049 A 
ATOM    104  C   UNL A   1      44.756  25.042  32.166  1.00  0.00     0.074 A 
ATOM    105  C   UNL A   1      42.424  29.745  28.590  1.00  0.00    -0.036 A 
ATOM    106  N   UNL A   1      43.236  28.523  30.262  1.00  0.00    -0.354 N 
ATOM    107  N   UNL A   1      44.287  26.071  31.505  1.00  0.00    -0.248 NA
ATOM    108  C   UNL A   1      44.795  23.797  31.387  1.00  0.00    -0.034 C 
ATOM    109  C   UNL A   1      42.587  28.430  28.141  1.00  0.00    -0.036 A 
ATOM    110  H   UNL A   1      42.087  30.540  28.026  1.00  0.00     0.065 H 
ATOM    111  C   UNL A   1      43.124  27.677  29.171  1.00  0.00     0.049 A 
ATOM    112  H   UNL A   1      43.578  28.262  31.148  1.00  0.00     0.167 HD
ATOM    113  C   UNL A   1      44.016  25.612  30.222  1.00  0.00     0.074 A 
ATOM    114  C   UNL A   1      44.384  24.211  30.197  1.00  0.00    -0.034 C 
ATOM    115  H   UNL A   1      45.070  22.849  31.687  1.00  0.00     0.065 H 
ATOM    116  H   UNL A   1      42.347  28.082  27.200  1.00  0.00     0.065 H 
ATOM    117  C   UNL A   1      43.511  26.288  29.160  1.00  0.00     0.037 A 
ATOM    118  H   UNL A   1      44.332  23.612  29.359  1.00  0.00     0.065 H 
BRANCH  99 119
ATOM    119  C   UNL A   1      42.166  32.208  30.337  1.00  0.00     0.064 A 
ATOM    120  C   UNL A   1      42.962  33.207  29.755  1.00  0.00     0.173 A 
ATOM    121  C   UNL A   1      40.785  32.444  30.429  1.00  0.00     0.173 A 
ATOM    122  F   UNL A   1      44.289  33.040  29.651  1.00  0.00    -0.203 F 
ATOM    123  C   UNL A   1      42.404  34.407  29.318  1.00  0.00     0.198 A 
ATOM    124  C   UNL A   1      40.226  33.630  29.958  1.00  0.00     0.198 A 
ATOM    125  F   UNL A   1      39.975  31.523  30.972  1.00  0.00    -0.203 F 
ATOM    126  F   UNL A   1      43.193  35.370  28.822  1.00  0.00    -0.200 F 
ATOM    127  C   UNL A   1      41.036  34.613  29.414  1.00  0.00     0.200 A 
ATOM    128  F   UNL A   1      38.902  33.822  30.037  1.00  0.00    -0.200 F 
ATOM    129  F   UNL A   1      40.500  35.766  28.987  1.00  0.00    -0.200 F 
ENDBRANCH  99 119
BRANCH 102 130
ATOM    130  C   UNL A   1      45.794  23.694  34.136  1.00  0.00     0.064 A 
ATOM    131  C   UNL A   1      44.931  22.651  34.505  1.00  0.00     0.173 A 
ATOM    132  C   UNL A   1      47.171  23.495  34.319  1.00  0.00     0.173 A 
ATOM    133  F   UNL A   1      43.606  22.798  34.367  1.00  0.00    -0.203 F 
ATOM    134  C   UNL A   1      45.422  21.473  35.064  1.00  0.00     0.198 A 
ATOM    135  C   UNL A   1      47.662  22.303  34.848  1.00  0.00     0.198 A 
ATOM    136  F   UNL A   1      48.040  24.457  33.976  1.00  0.00    -0.203 F 
ATOM    137  F   UNL A   1      44.571  20.516  35.460  1.00  0.00    -0.200 F 
ATOM    138  C   UNL A   1      46.788  21.297  35.231  1.00  0.00     0.200 A 
ATOM    139  F   UNL A   1      48.983  22.132  34.992  1.00  0.00    -0.200 F 
ATOM    140  F   UNL A   1      47.259  20.164  35.768  1.00  0.00    -0.200 F 
ENDBRANCH 102 130
BRANCH 117 141
ATOM    141  C   UNL A   1      43.384  25.538  27.864  1.00  0.00     0.064 A 
ATOM    142  C   UNL A   1      42.262  24.753  27.566  1.00  0.00     0.173 A 
ATOM    143  C   UNL A   1      44.395  25.633  26.894  1.00  0.00     0.173 A 
ATOM    144  F   UNL A   1      41.272  24.619  28.462  1.00  0.00    -0.203 F 
ATOM    145  C   UNL A   1      42.174  24.059  26.361  1.00  0.00     0.198 A 
ATOM    146  C   UNL A   1      44.286  24.969  25.677  1.00  0.00     0.198 A 
ATOM    147  F   UNL A   1      45.485  26.380  27.124  1.00  0.00    -0.203 F 
ATOM    148  F   UNL A   1      41.121  23.263  26.124  1.00  0.00    -0.200 F 
ATOM    149  C   UNL A   1      43.181  24.174  25.416  1.00  0.00     0.200 A 
ATOM    150  F   UNL A   1      45.252  25.098  24.756  1.00  0.00    -0.200 F 
ATOM    151  F   UNL A   1      43.092  23.510  24.255  1.00  0.00    -0.200 F 
ENDBRANCH 117 141
ENDBRANCH  82  85
ENDBRANCH  72  75
ENDBRANCH  68  71
ENDBRANCH  65  68
ENDBRANCH  62  65
ENDBRANCH  59  62
ENDBRANCH  56  59
ENDBRANCH  53  56
ENDBRANCH  51  53
ENDBRANCH  46  49
ENDBRANCH  43  46
ENDBRANCH   1  43
TORSDOF 27
ENDMDL
MODEL 5
REMARK VINA RESULT:      -8.7      6.918     13.300
REMARK SMILES CC/C=C/C/C=C/C/C=C/C/C=C/CCSCCCC(=O)NCCCCCCNC(=O)c1ccc(-c2c3nc(c(-c4c(F)c(F)c(F)c(F)c4F)c4ccc([nH]4)c(-c4c(F)c(F)c(F)c(F)c4F)c4nc(c(-c5c(F)c(F)c(F)c(F)c5F)c5ccc2[nH]5)C=C4)C=C3)cc1
REMARK SMILES IDX 17 1 16 4 15 5 14 8 13 11 12 12 11 15 10 18 9 19 8 22 7 25
REMARK SMILES IDX 6 26 5 29 4 32 3 33 2 36 1 39 18 43 19 46 20 49 21 50 22 51
REMARK SMILES IDX 23 53 24 56 25 59 26 62 27 65 28 68 29 71 30 72 31 74 32 75
REMARK SMILES IDX 33 76 94 77 34 78 93 80 35 82 36 85 37 86 87 87 38 88 92 89
REMARK SMILES IDX 86 90 88 91 39 92 91 93 85 95 84 97 40 99 72 102 52 103
REMARK SMILES IDX 71 104 53 105 56 106 70 107 89 108 54 109 55 111 69 113
REMARK SMILES IDX 90 114 57 117 41 119 42 120 50 121 43 122 44 123 48 124
REMARK SMILES IDX 51 125 45 126 46 127 49 128 47 129 73 130 74 131 82 132
REMARK SMILES IDX 75 133 76 134 80 135 83 136 77 137 78 138 81 139 79 140
REMARK SMILES IDX 58 141 59 142 67 143 60 144 61 145 65 146 68 147 62 148
REMARK SMILES IDX 63 149 66 150 64 151
REMARK H PARENT 17 2 17 3 15 6 15 7 14 9 14 10 12 13 13 14 11 16 11 17 9 20
REMARK H PARENT 10 21 8 23 8 24 6 27 7 28 5 30 5 31 3 34 4 35 2 37 2 38 1 40
REMARK H PARENT 1 41 1 42 18 44 18 45 19 47 19 48 22 52 23 54 23 55 24 57
REMARK H PARENT 24 58 25 60 25 61 26 63 26 64 27 66 27 67 28 69 28 70 29 73
REMARK H PARENT 33 79 94 81 34 83 93 84 92 94 86 96 88 98 91 100 85 101 53 110
REMARK H PARENT 56 112 89 115 54 116 90 118
REMARK Flexibility Score: inf
ROOT
ATOM      1  C   UNL A   1      34.068  32.822  28.286  1.00  0.00    -0.006 C 
ATOM      2  H   UNL A   1      33.640  32.656  29.253  1.00  0.00     0.038 H 
ATOM      3  H   UNL A   1      33.516  32.889  27.373  1.00  0.00     0.038 H 
ENDROOT
BRANCH   1   4
ATOM      4  S   UNL A   1      35.006  31.267  27.921  1.00  0.00    -0.162 SA
BRANCH   4   5
ATOM      5  C   UNL A   1      33.894  29.948  27.257  1.00  0.00    -0.003 C 
ATOM      6  H   UNL A   1      33.383  29.514  28.091  1.00  0.00     0.038 H 
ATOM      7  H   UNL A   1      33.275  30.454  26.545  1.00  0.00     0.038 H 
BRANCH   5   8
ATOM      8  C   UNL A   1      34.541  28.783  26.452  1.00  0.00    -0.026 C 
ATOM      9  H   UNL A   1      35.135  29.215  25.675  1.00  0.00     0.032 H 
ATOM     10  H   UNL A   1      35.097  28.215  27.169  1.00  0.00     0.032 H 
BRANCH   8  11
ATOM     11  C   UNL A   1      33.589  27.805  25.815  1.00  0.00    -0.087 C 
ATOM     12  C   UNL A   1      32.939  26.780  26.396  1.00  0.00    -0.085 C 
ATOM     13  H   UNL A   1      33.269  26.441  27.312  1.00  0.00     0.058 H 
ATOM     14  H   UNL A   1      33.415  27.937  24.806  1.00  0.00     0.057 H 
BRANCH  12  15
ATOM     15  C   UNL A   1      31.737  26.103  25.757  1.00  0.00    -0.017 C 
ATOM     16  H   UNL A   1      32.080  25.213  25.272  1.00  0.00     0.035 H 
ATOM     17  H   UNL A   1      31.045  25.920  26.551  1.00  0.00     0.035 H 
BRANCH  15  18
ATOM     18  C   UNL A   1      30.999  26.927  24.743  1.00  0.00    -0.084 C 
ATOM     19  C   UNL A   1      31.151  26.771  23.416  1.00  0.00    -0.084 C 
ATOM     20  H   UNL A   1      31.776  26.020  23.085  1.00  0.00     0.058 H 
ATOM     21  H   UNL A   1      30.341  27.647  25.080  1.00  0.00     0.058 H 
BRANCH  19  22
ATOM     22  C   UNL A   1      30.467  27.625  22.383  1.00  0.00    -0.017 C 
ATOM     23  H   UNL A   1      31.087  28.461  22.137  1.00  0.00     0.035 H 
ATOM     24  H   UNL A   1      30.290  27.057  21.494  1.00  0.00     0.035 H 
BRANCH  22  25
ATOM     25  C   UNL A   1      29.169  28.106  22.957  1.00  0.00    -0.084 C 
ATOM     26  C   UNL A   1      28.553  29.243  22.600  1.00  0.00    -0.084 C 
ATOM     27  H   UNL A   1      28.894  29.744  21.765  1.00  0.00     0.058 H 
ATOM     28  H   UNL A   1      28.718  27.523  23.678  1.00  0.00     0.058 H 
BRANCH  26  29
ATOM     29  C   UNL A   1      27.391  29.819  23.355  1.00  0.00    -0.017 C 
ATOM     30  H   UNL A   1      26.475  29.506  22.899  1.00  0.00     0.035 H 
ATOM     31  H   UNL A   1      27.413  29.479  24.369  1.00  0.00     0.035 H 
BRANCH  29  32
ATOM     32  C   UNL A   1      27.481  31.318  23.321  1.00  0.00    -0.085 C 
ATOM     33  C   UNL A   1      28.546  32.002  22.872  1.00  0.00    -0.089 C 
ATOM     34  H   UNL A   1      29.323  31.471  22.451  1.00  0.00     0.057 H 
ATOM     35  H   UNL A   1      26.671  31.858  23.664  1.00  0.00     0.058 H 
BRANCH  33  36
ATOM     36  C   UNL A   1      28.665  33.495  22.950  1.00  0.00    -0.038 C 
ATOM     37  H   UNL A   1      28.656  33.901  21.960  1.00  0.00     0.031 H 
ATOM     38  H   UNL A   1      27.843  33.879  23.515  1.00  0.00     0.031 H 
BRANCH  36  39
ATOM     39  C   UNL A   1      29.964  33.890  23.641  1.00  0.00    -0.062 C 
ATOM     40  H   UNL A   1      29.838  34.839  24.119  1.00  0.00     0.023 H 
ATOM     41  H   UNL A   1      30.747  33.957  22.915  1.00  0.00     0.023 H 
ATOM     42  H   UNL A   1      30.216  33.153  24.373  1.00  0.00     0.023 H 
ENDBRANCH  36  39
ENDBRANCH  33  36
ENDBRANCH  29  32
ENDBRANCH  26  29
ENDBRANCH  22  25
ENDBRANCH  19  22
ENDBRANCH  15  18
ENDBRANCH  12  15
ENDBRANCH   8  11
ENDBRANCH   5   8
ENDBRANCH   4   5
ENDBRANCH   1   4
BRANCH   1  43
ATOM     43  C   UNL A   1      34.588  34.256  28.339  1.00  0.00    -0.035 C 
ATOM     44  H   UNL A   1      33.916  34.850  27.757  1.00  0.00     0.028 H 
ATOM     45  H   UNL A   1      35.595  34.164  27.990  1.00  0.00     0.028 H 
BRANCH  43  46
ATOM     46  C   UNL A   1      34.746  34.955  29.671  1.00  0.00     0.027 C 
ATOM     47  H   UNL A   1      34.730  36.007  29.475  1.00  0.00     0.037 H 
ATOM     48  H   UNL A   1      35.657  34.554  30.063  1.00  0.00     0.037 H 
BRANCH  46  49
ATOM     49  C   UNL A   1      33.731  34.691  30.771  1.00  0.00     0.220 C 
ATOM     50  O   UNL A   1      32.647  35.284  30.741  1.00  0.00    -0.275 OA
ATOM     51  N   UNL A   1      33.891  33.790  31.771  1.00  0.00    -0.356 N 
ATOM     52  H   UNL A   1      33.296  33.946  32.540  1.00  0.00     0.163 HD
BRANCH  51  53
ATOM     53  C   UNL A   1      34.762  32.644  31.934  1.00  0.00     0.017 C 
ATOM     54  H   UNL A   1      35.371  32.554  31.059  1.00  0.00     0.049 H 
ATOM     55  H   UNL A   1      34.135  31.788  32.078  1.00  0.00     0.049 H 
BRANCH  53  56
ATOM     56  C   UNL A   1      35.674  32.744  33.150  1.00  0.00    -0.036 C 
ATOM     57  H   UNL A   1      35.816  31.766  33.560  1.00  0.00     0.028 H 
ATOM     58  H   UNL A   1      35.212  33.392  33.865  1.00  0.00     0.028 H 
BRANCH  56  59
ATOM     59  C   UNL A   1      37.042  33.333  32.775  1.00  0.00    -0.052 C 
ATOM     60  H   UNL A   1      36.938  34.397  32.715  1.00  0.00     0.027 H 
ATOM     61  H   UNL A   1      37.317  32.876  31.848  1.00  0.00     0.027 H 
BRANCH  59  62
ATOM     62  C   UNL A   1      38.182  33.022  33.755  1.00  0.00    -0.052 C 
ATOM     63  H   UNL A   1      38.511  33.947  34.182  1.00  0.00     0.027 H 
ATOM     64  H   UNL A   1      38.932  32.520  33.181  1.00  0.00     0.027 H 
BRANCH  62  65
ATOM     65  C   UNL A   1      37.830  32.074  34.902  1.00  0.00    -0.036 C 
ATOM     66  H   UNL A   1      36.768  31.947  34.913  1.00  0.00     0.028 H 
ATOM     67  H   UNL A   1      38.212  32.527  35.793  1.00  0.00     0.028 H 
BRANCH  65  68
ATOM     68  C   UNL A   1      38.471  30.696  34.814  1.00  0.00     0.018 C 
ATOM     69  H   UNL A   1      38.469  30.256  35.789  1.00  0.00     0.049 H 
ATOM     70  H   UNL A   1      39.463  30.827  34.437  1.00  0.00     0.049 H 
BRANCH  68  71
ATOM     71  N   UNL A   1      37.772  29.804  33.903  1.00  0.00    -0.352 N 
ATOM     72  C   UNL A   1      38.046  29.519  32.589  1.00  0.00     0.251 C 
ATOM     73  H   UNL A   1      36.991  29.340  34.282  1.00  0.00     0.163 HD
ATOM     74  O   UNL A   1      37.275  28.832  31.932  1.00  0.00    -0.269 OA
BRANCH  72  75
ATOM     75  C   UNL A   1      39.269  30.062  31.962  1.00  0.00     0.039 A 
ATOM     76  C   UNL A   1      39.252  30.341  30.593  1.00  0.00    -0.049 A 
ATOM     77  C   UNL A   1      40.430  30.279  32.708  1.00  0.00    -0.049 A 
ATOM     78  C   UNL A   1      40.391  30.863  29.980  1.00  0.00    -0.053 A 
ATOM     79  H   UNL A   1      38.400  30.162  30.038  1.00  0.00     0.063 H 
ATOM     80  C   UNL A   1      41.534  30.883  32.116  1.00  0.00    -0.053 A 
ATOM     81  H   UNL A   1      40.468  29.992  33.699  1.00  0.00     0.063 H 
ATOM     82  C   UNL A   1      41.536  31.152  30.740  1.00  0.00    -0.014 A 
ATOM     83  H   UNL A   1      40.393  31.036  28.963  1.00  0.00     0.063 H 
ATOM     84  H   UNL A   1      42.353  31.134  32.690  1.00  0.00     0.063 H 
BRANCH  82  85
ATOM     85  C   UNL A   1      42.764  31.679  30.096  1.00  0.00     0.031 A 
ATOM     86  C   UNL A   1      42.834  33.127  29.691  1.00  0.00     0.074 A 
ATOM     87  C   UNL A   1      43.798  30.852  29.850  1.00  0.00     0.049 A 
ATOM     88  N   UNL A   1      43.808  33.779  29.108  1.00  0.00    -0.248 NA
ATOM     89  C   UNL A   1      41.639  33.945  29.949  1.00  0.00    -0.034 C 
ATOM     90  C   UNL A   1      43.828  29.421  30.153  1.00  0.00    -0.036 A 
ATOM     91  N   UNL A   1      45.026  31.099  29.289  1.00  0.00    -0.354 N 
ATOM     92  C   UNL A   1      43.336  35.070  28.916  1.00  0.00     0.074 A 
ATOM     93  C   UNL A   1      41.968  35.095  29.382  1.00  0.00    -0.034 C 
ATOM     94  H   UNL A   1      40.769  33.689  30.443  1.00  0.00     0.065 H 
ATOM     95  C   UNL A   1      45.027  28.925  29.810  1.00  0.00    -0.036 A 
ATOM     96  H   UNL A   1      43.051  28.880  30.564  1.00  0.00     0.065 H 
ATOM     97  C   UNL A   1      45.836  29.992  29.231  1.00  0.00     0.049 A 
ATOM     98  H   UNL A   1      45.299  31.986  28.959  1.00  0.00     0.167 HD
ATOM     99  C   UNL A   1      43.992  36.147  28.422  1.00  0.00     0.037 A 
ATOM    100  H   UNL A   1      41.332  35.903  29.287  1.00  0.00     0.065 H 
ATOM    101  H   UNL A   1      45.328  27.945  29.935  1.00  0.00     0.065 H 
ATOM    102  C   UNL A   1      47.093  29.860  28.766  1.00  0.00     0.037 A 
ATOM    103  C   UNL A   1      45.363  36.120  27.987  1.00  0.00     0.049 A 
ATOM    104  C   UNL A   1      47.801  31.074  28.223  1.00  0.00     0.074 A 
ATOM    105  C   UNL A   1      46.145  37.166  27.529  1.00  0.00    -0.036 A 
ATOM    106  N   UNL A   1      46.158  34.983  27.955  1.00  0.00    -0.354 N 
ATOM    107  N   UNL A   1      47.373  32.307  28.119  1.00  0.00    -0.248 NA
ATOM    108  C   UNL A   1      49.176  30.875  27.745  1.00  0.00    -0.034 C 
ATOM    109  C   UNL A   1      47.393  36.650  27.164  1.00  0.00    -0.036 A 
ATOM    110  H   UNL A   1      45.857  38.155  27.468  1.00  0.00     0.065 H 
ATOM    111  C   UNL A   1      47.413  35.298  27.460  1.00  0.00     0.049 A 
ATOM    112  H   UNL A   1      45.871  34.085  28.240  1.00  0.00     0.167 HD
ATOM    113  C   UNL A   1      48.436  33.040  27.605  1.00  0.00     0.074 A 
ATOM    114  C   UNL A   1      49.533  32.111  27.431  1.00  0.00    -0.034 C 
ATOM    115  H   UNL A   1      49.721  30.001  27.675  1.00  0.00     0.065 H 
ATOM    116  H   UNL A   1      48.167  37.188  26.745  1.00  0.00     0.065 H 
ATOM    117  C   UNL A   1      48.499  34.362  27.309  1.00  0.00     0.037 A 
ATOM    118  H   UNL A   1      50.474  32.379  27.102  1.00  0.00     0.065 H 
BRANCH  99 119
ATOM    119  C   UNL A   1      43.232  37.440  28.320  1.00  0.00     0.064 A 
ATOM    120  C   UNL A   1      42.425  37.741  27.212  1.00  0.00     0.173 A 
ATOM    121  C   UNL A   1      43.294  38.382  29.359  1.00  0.00     0.173 A 
ATOM    122  F   UNL A   1      42.338  36.883  26.185  1.00  0.00    -0.203 F 
ATOM    123  C   UNL A   1      41.738  38.951  27.131  1.00  0.00     0.198 A 
ATOM    124  C   UNL A   1      42.577  39.574  29.291  1.00  0.00     0.198 A 
ATOM    125  F   UNL A   1      44.046  38.145  30.445  1.00  0.00    -0.203 F 
ATOM    126  F   UNL A   1      41.024  39.242  26.035  1.00  0.00    -0.200 F 
ATOM    127  C   UNL A   1      41.810  39.862  28.174  1.00  0.00     0.200 A 
ATOM    128  F   UNL A   1      42.634  40.447  30.306  1.00  0.00    -0.200 F 
ATOM    129  F   UNL A   1      41.144  41.023  28.097  1.00  0.00    -0.200 F 
ENDBRANCH  99 119
BRANCH 102 130
ATOM    130  C   UNL A   1      47.780  28.544  28.833  1.00  0.00     0.064 A 
ATOM    131  C   UNL A   1      47.720  27.644  27.759  1.00  0.00     0.173 A 
ATOM    132  C   UNL A   1      48.498  28.150  29.973  1.00  0.00     0.173 A 
ATOM    133  F   UNL A   1      47.032  27.965  26.655  1.00  0.00    -0.203 F 
ATOM    134  C   UNL A   1      48.325  26.391  27.834  1.00  0.00     0.198 A 
ATOM    135  C   UNL A   1      49.130  26.909  30.033  1.00  0.00     0.198 A 
ATOM    136  F   UNL A   1      48.593  28.975  31.026  1.00  0.00    -0.203 F 
ATOM    137  F   UNL A   1      48.204  25.529  26.814  1.00  0.00    -0.200 F 
ATOM    138  C   UNL A   1      49.034  26.026  28.968  1.00  0.00     0.200 A 
ATOM    139  F   UNL A   1      49.828  26.568  31.124  1.00  0.00    -0.200 F 
ATOM    140  F   UNL A   1      49.616  24.821  29.039  1.00  0.00    -0.200 F 
ENDBRANCH 102 130
BRANCH 117 141
ATOM    141  C   UNL A   1      49.817  34.895  26.821  1.00  0.00     0.064 A 
ATOM    142  C   UNL A   1      50.905  35.093  27.684  1.00  0.00     0.173 A 
ATOM    143  C   UNL A   1      49.999  35.185  25.460  1.00  0.00     0.173 A 
ATOM    144  F   UNL A   1      50.781  34.843  28.997  1.00  0.00    -0.203 F 
ATOM    145  C   UNL A   1      52.112  35.598  27.209  1.00  0.00     0.198 A 
ATOM    146  C   UNL A   1      51.219  35.654  24.982  1.00  0.00     0.198 A 
ATOM    147  F   UNL A   1      48.995  35.003  24.589  1.00  0.00    -0.203 F 
ATOM    148  F   UNL A   1      53.117  35.840  28.062  1.00  0.00    -0.200 F 
ATOM    149  C   UNL A   1      52.271  35.871  25.859  1.00  0.00     0.200 A 
ATOM    150  F   UNL A   1      51.375  35.897  23.673  1.00  0.00    -0.200 F 
ATOM    151  F   UNL A   1      53.435  36.352  25.402  1.00  0.00    -0.200 F 
ENDBRANCH 117 141
ENDBRANCH  82  85
ENDBRANCH  72  75
ENDBRANCH  68  71
ENDBRANCH  65  68
ENDBRANCH  62  65
ENDBRANCH  59  62
ENDBRANCH  56  59
ENDBRANCH  53  56
ENDBRANCH  51  53
ENDBRANCH  46  49
ENDBRANCH  43  46
ENDBRANCH   1  43
TORSDOF 27
ENDMDL
MODEL 6
REMARK VINA RESULT:      -8.7      6.821     13.824
REMARK SMILES CC/C=C/C/C=C/C/C=C/C/C=C/CCSCCCC(=O)NCCCCCCNC(=O)c1ccc(-c2c3nc(c(-c4c(F)c(F)c(F)c(F)c4F)c4ccc([nH]4)c(-c4c(F)c(F)c(F)c(F)c4F)c4nc(c(-c5c(F)c(F)c(F)c(F)c5F)c5ccc2[nH]5)C=C4)C=C3)cc1
REMARK SMILES IDX 17 1 16 4 15 5 14 8 13 11 12 12 11 15 10 18 9 19 8 22 7 25
REMARK SMILES IDX 6 26 5 29 4 32 3 33 2 36 1 39 18 43 19 46 20 49 21 50 22 51
REMARK SMILES IDX 23 53 24 56 25 59 26 62 27 65 28 68 29 71 30 72 31 74 32 75
REMARK SMILES IDX 33 76 94 77 34 78 93 80 35 82 36 85 37 86 87 87 38 88 92 89
REMARK SMILES IDX 86 90 88 91 39 92 91 93 85 95 84 97 40 99 72 102 52 103
REMARK SMILES IDX 71 104 53 105 56 106 70 107 89 108 54 109 55 111 69 113
REMARK SMILES IDX 90 114 57 117 41 119 42 120 50 121 43 122 44 123 48 124
REMARK SMILES IDX 51 125 45 126 46 127 49 128 47 129 73 130 74 131 82 132
REMARK SMILES IDX 75 133 76 134 80 135 83 136 77 137 78 138 81 139 79 140
REMARK SMILES IDX 58 141 59 142 67 143 60 144 61 145 65 146 68 147 62 148
REMARK SMILES IDX 63 149 66 150 64 151
REMARK H PARENT 17 2 17 3 15 6 15 7 14 9 14 10 12 13 13 14 11 16 11 17 9 20
REMARK H PARENT 10 21 8 23 8 24 6 27 7 28 5 30 5 31 3 34 4 35 2 37 2 38 1 40
REMARK H PARENT 1 41 1 42 18 44 18 45 19 47 19 48 22 52 23 54 23 55 24 57
REMARK H PARENT 24 58 25 60 25 61 26 63 26 64 27 66 27 67 28 69 28 70 29 73
REMARK H PARENT 33 79 94 81 34 83 93 84 92 94 86 96 88 98 91 100 85 101 53 110
REMARK H PARENT 56 112 89 115 54 116 90 118
REMARK Flexibility Score: inf
ROOT
ATOM      1  C   UNL A   1      35.301  32.540  30.319  1.00  0.00    -0.006 C 
ATOM      2  H   UNL A   1      36.187  32.017  30.612  1.00  0.00     0.038 H 
ATOM      3  H   UNL A   1      34.521  32.135  29.709  1.00  0.00     0.038 H 
ENDROOT
BRANCH   1   4
ATOM      4  S   UNL A   1      35.899  33.851  29.155  1.00  0.00    -0.162 SA
BRANCH   4   5
ATOM      5  C   UNL A   1      34.716  34.104  27.757  1.00  0.00    -0.003 C 
ATOM      6  H   UNL A   1      34.775  35.133  27.473  1.00  0.00     0.038 H 
ATOM      7  H   UNL A   1      35.025  33.398  27.014  1.00  0.00     0.038 H 
BRANCH   5   8
ATOM      8  C   UNL A   1      33.214  33.776  28.002  1.00  0.00    -0.026 C 
ATOM      9  H   UNL A   1      33.082  33.617  29.052  1.00  0.00     0.032 H 
ATOM     10  H   UNL A   1      32.672  34.612  27.611  1.00  0.00     0.032 H 
BRANCH   8  11
ATOM     11  C   UNL A   1      32.669  32.571  27.282  1.00  0.00    -0.087 C 
ATOM     12  C   UNL A   1      31.405  32.345  26.878  1.00  0.00    -0.085 C 
ATOM     13  H   UNL A   1      30.647  32.915  27.285  1.00  0.00     0.058 H 
ATOM     14  H   UNL A   1      33.350  31.825  27.072  1.00  0.00     0.057 H 
BRANCH  12  15
ATOM     15  C   UNL A   1      31.049  31.286  25.848  1.00  0.00    -0.017 C 
ATOM     16  H   UNL A   1      30.075  30.912  26.083  1.00  0.00     0.035 H 
ATOM     17  H   UNL A   1      31.105  31.771  24.896  1.00  0.00     0.035 H 
BRANCH  15  18
ATOM     18  C   UNL A   1      31.988  30.118  25.775  1.00  0.00    -0.084 C 
ATOM     19  C   UNL A   1      32.095  29.198  26.750  1.00  0.00    -0.084 C 
ATOM     20  H   UNL A   1      31.469  29.282  27.566  1.00  0.00     0.058 H 
ATOM     21  H   UNL A   1      32.581  30.015  24.937  1.00  0.00     0.058 H 
BRANCH  19  22
ATOM     22  C   UNL A   1      33.071  28.053  26.726  1.00  0.00    -0.017 C 
ATOM     23  H   UNL A   1      32.880  27.398  27.550  1.00  0.00     0.035 H 
ATOM     24  H   UNL A   1      32.967  27.498  25.817  1.00  0.00     0.035 H 
BRANCH  22  25
ATOM     25  C   UNL A   1      34.456  28.616  26.834  1.00  0.00    -0.084 C 
ATOM     26  C   UNL A   1      34.822  29.581  27.689  1.00  0.00    -0.084 C 
ATOM     27  H   UNL A   1      34.164  29.848  28.438  1.00  0.00     0.058 H 
ATOM     28  H   UNL A   1      35.178  28.233  26.204  1.00  0.00     0.058 H 
BRANCH  26  29
ATOM     29  C   UNL A   1      36.142  30.290  27.611  1.00  0.00    -0.017 C 
ATOM     30  H   UNL A   1      36.304  30.637  26.612  1.00  0.00     0.035 H 
ATOM     31  H   UNL A   1      36.144  31.127  28.278  1.00  0.00     0.035 H 
BRANCH  29  32
ATOM     32  C   UNL A   1      37.235  29.334  27.994  1.00  0.00    -0.085 C 
ATOM     33  C   UNL A   1      38.511  29.443  27.593  1.00  0.00    -0.089 C 
ATOM     34  H   UNL A   1      38.781  30.279  27.051  1.00  0.00     0.057 H 
ATOM     35  H   UNL A   1      36.988  28.540  28.606  1.00  0.00     0.058 H 
BRANCH  33  36
ATOM     36  C   UNL A   1      39.565  28.419  27.890  1.00  0.00    -0.038 C 
ATOM     37  H   UNL A   1      39.811  28.458  28.931  1.00  0.00     0.031 H 
ATOM     38  H   UNL A   1      39.188  27.451  27.636  1.00  0.00     0.031 H 
BRANCH  36  39
ATOM     39  C   UNL A   1      40.818  28.690  27.069  1.00  0.00    -0.062 C 
ATOM     40  H   UNL A   1      41.616  28.979  27.722  1.00  0.00     0.023 H 
ATOM     41  H   UNL A   1      40.624  29.478  26.373  1.00  0.00     0.023 H 
ATOM     42  H   UNL A   1      41.095  27.804  26.539  1.00  0.00     0.023 H 
ENDBRANCH  36  39
ENDBRANCH  33  36
ENDBRANCH  29  32
ENDBRANCH  26  29
ENDBRANCH  22  25
ENDBRANCH  19  22
ENDBRANCH  15  18
ENDBRANCH  12  15
ENDBRANCH   8  11
ENDBRANCH   5   8
ENDBRANCH   4   5
ENDBRANCH   1   4
BRANCH   1  43
ATOM     43  C   UNL A   1      34.510  32.707  31.613  1.00  0.00    -0.035 C 
ATOM     44  H   UNL A   1      34.038  31.768  31.810  1.00  0.00     0.028 H 
ATOM     45  H   UNL A   1      33.876  33.544  31.407  1.00  0.00     0.028 H 
BRANCH  43  46
ATOM     46  C   UNL A   1      35.218  33.115  32.886  1.00  0.00     0.027 C 
ATOM     47  H   UNL A   1      36.057  32.459  33.000  1.00  0.00     0.037 H 
ATOM     48  H   UNL A   1      34.456  33.053  33.633  1.00  0.00     0.037 H 
BRANCH  46  49
ATOM     49  C   UNL A   1      35.743  34.534  33.018  1.00  0.00     0.220 C 
ATOM     50  O   UNL A   1      35.073  35.366  33.642  1.00  0.00    -0.275 OA
ATOM     51  N   UNL A   1      36.943  34.962  32.556  1.00  0.00    -0.356 N 
ATOM     52  H   UNL A   1      37.004  35.940  32.461  1.00  0.00     0.163 HD
BRANCH  51  53
ATOM     53  C   UNL A   1      38.155  34.266  32.171  1.00  0.00     0.017 C 
ATOM     54  H   UNL A   1      38.536  34.717  31.279  1.00  0.00     0.049 H 
ATOM     55  H   UNL A   1      37.895  33.238  32.025  1.00  0.00     0.049 H 
BRANCH  53  56
ATOM     56  C   UNL A   1      39.241  34.309  33.238  1.00  0.00    -0.036 C 
ATOM     57  H   UNL A   1      39.708  35.272  33.222  1.00  0.00     0.028 H 
ATOM     58  H   UNL A   1      39.953  33.539  33.026  1.00  0.00     0.028 H 
BRANCH  56  59
ATOM     59  C   UNL A   1      38.661  34.059  34.638  1.00  0.00    -0.052 C 
ATOM     60  H   UNL A   1      37.598  34.165  34.578  1.00  0.00     0.027 H 
ATOM     61  H   UNL A   1      39.128  34.774  35.283  1.00  0.00     0.027 H 
BRANCH  59  62
ATOM     62  C   UNL A   1      38.967  32.680  35.240  1.00  0.00    -0.052 C 
ATOM     63  H   UNL A   1      39.238  32.822  36.265  1.00  0.00     0.027 H 
ATOM     64  H   UNL A   1      39.749  32.266  34.638  1.00  0.00     0.027 H 
BRANCH  62  65
ATOM     65  C   UNL A   1      37.823  31.667  35.192  1.00  0.00    -0.036 C 
ATOM     66  H   UNL A   1      37.078  32.040  34.521  1.00  0.00     0.028 H 
ATOM     67  H   UNL A   1      37.473  31.561  36.198  1.00  0.00     0.028 H 
BRANCH  65  68
ATOM     68  C   UNL A   1      38.221  30.272  34.729  1.00  0.00     0.018 C 
ATOM     69  H   UNL A   1      38.142  29.602  35.559  1.00  0.00     0.049 H 
ATOM     70  H   UNL A   1      39.221  30.332  34.356  1.00  0.00     0.049 H 
BRANCH  68  71
ATOM     71  N   UNL A   1      37.383  29.773  33.651  1.00  0.00    -0.352 N 
ATOM     72  C   UNL A   1      37.571  29.863  32.295  1.00  0.00     0.251 C 
ATOM     73  H   UNL A   1      36.564  29.305  33.933  1.00  0.00     0.163 HD
ATOM     74  O   UNL A   1      36.697  29.492  31.523  1.00  0.00    -0.269 OA
BRANCH  72  75
ATOM     75  C   UNL A   1      38.829  30.432  31.766  1.00  0.00     0.039 A 
ATOM     76  C   UNL A   1      38.792  31.129  30.556  1.00  0.00    -0.049 A 
ATOM     77  C   UNL A   1      40.039  30.266  32.445  1.00  0.00    -0.049 A 
ATOM     78  C   UNL A   1      39.965  31.682  30.041  1.00  0.00    -0.053 A 
ATOM     79  H   UNL A   1      37.901  31.235  30.045  1.00  0.00     0.063 H 
ATOM     80  C   UNL A   1      41.189  30.894  31.977  1.00  0.00    -0.053 A 
ATOM     81  H   UNL A   1      40.080  29.678  33.292  1.00  0.00     0.063 H 
ATOM     82  C   UNL A   1      41.170  31.582  30.756  1.00  0.00    -0.014 A 
ATOM     83  H   UNL A   1      39.947  32.167  29.131  1.00  0.00     0.063 H 
ATOM     84  H   UNL A   1      42.058  30.854  32.532  1.00  0.00     0.063 H 
BRANCH  82  85
ATOM     85  C   UNL A   1      42.430  32.140  30.206  1.00  0.00     0.031 A 
ATOM     86  C   UNL A   1      43.494  31.211  29.686  1.00  0.00     0.074 A 
ATOM     87  C   UNL A   1      42.627  33.471  30.204  1.00  0.00     0.049 A 
ATOM     88  N   UNL A   1      44.666  31.495  29.177  1.00  0.00    -0.248 NA
ATOM     89  C   UNL A   1      43.217  29.768  29.776  1.00  0.00    -0.034 C 
ATOM     90  C   UNL A   1      41.690  34.467  30.725  1.00  0.00    -0.036 A 
ATOM     91  N   UNL A   1      43.684  34.217  29.744  1.00  0.00    -0.354 N 
ATOM     92  C   UNL A   1      45.266  30.273  28.906  1.00  0.00     0.074 A 
ATOM     93  C   UNL A   1      44.361  29.244  29.367  1.00  0.00    -0.034 C 
ATOM     94  H   UNL A   1      42.354  29.290  30.081  1.00  0.00     0.065 H 
ATOM     95  C   UNL A   1      42.196  35.694  30.522  1.00  0.00    -0.036 A 
ATOM     96  H   UNL A   1      40.785  34.259  31.177  1.00  0.00     0.065 H 
ATOM     97  C   UNL A   1      43.505  35.571  29.891  1.00  0.00     0.049 A 
ATOM     98  H   UNL A   1      44.493  33.819  29.349  1.00  0.00     0.167 HD
ATOM     99  C   UNL A   1      46.453  30.028  28.302  1.00  0.00     0.037 A 
ATOM    100  H   UNL A   1      44.577  28.235  29.373  1.00  0.00     0.065 H 
ATOM    101  H   UNL A   1      41.732  36.581  30.773  1.00  0.00     0.065 H 
ATOM    102  C   UNL A   1      44.310  36.595  29.548  1.00  0.00     0.037 A 
ATOM    103  C   UNL A   1      47.335  31.058  27.820  1.00  0.00     0.049 A 
ATOM    104  C   UNL A   1      45.624  36.295  28.875  1.00  0.00     0.074 A 
ATOM    105  C   UNL A   1      48.531  30.921  27.138  1.00  0.00    -0.036 A 
ATOM    106  N   UNL A   1      47.116  32.420  27.975  1.00  0.00    -0.354 N 
ATOM    107  N   UNL A   1      46.147  35.137  28.553  1.00  0.00    -0.248 NA
ATOM    108  C   UNL A   1      46.454  37.450  28.508  1.00  0.00    -0.034 C 
ATOM    109  C   UNL A   1      49.064  32.198  26.931  1.00  0.00    -0.036 A 
ATOM    110  H   UNL A   1      48.956  30.032  26.833  1.00  0.00     0.065 H 
ATOM    111  C   UNL A   1      48.167  33.133  27.422  1.00  0.00     0.049 A 
ATOM    112  H   UNL A   1      46.330  32.818  28.413  1.00  0.00     0.167 HD
ATOM    113  C   UNL A   1      47.344  35.424  27.907  1.00  0.00     0.074 A 
ATOM    114  C   UNL A   1      47.462  36.867  27.875  1.00  0.00    -0.034 C 
ATOM    115  H   UNL A   1      46.294  38.453  28.693  1.00  0.00     0.065 H 
ATOM    116  H   UNL A   1      49.971  32.407  26.488  1.00  0.00     0.065 H 
ATOM    117  C   UNL A   1      48.260  34.571  27.385  1.00  0.00     0.037 A 
ATOM    118  H   UNL A   1      48.234  37.377  27.418  1.00  0.00     0.065 H 
BRANCH  99 119
ATOM    119  C   UNL A   1      46.867  28.593  28.135  1.00  0.00     0.064 A 
ATOM    120  C   UNL A   1      47.599  27.912  29.120  1.00  0.00     0.173 A 
ATOM    121  C   UNL A   1      46.505  27.880  26.981  1.00  0.00     0.173 A 
ATOM    122  F   UNL A   1      47.982  28.547  30.238  1.00  0.00    -0.203 F 
ATOM    123  C   UNL A   1      47.984  26.585  28.940  1.00  0.00     0.198 A 
ATOM    124  C   UNL A   1      46.861  26.543  26.821  1.00  0.00     0.198 A 
ATOM    125  F   UNL A   1      45.801  28.478  26.008  1.00  0.00    -0.203 F 
ATOM    126  F   UNL A   1      48.736  25.976  29.868  1.00  0.00    -0.200 F 
ATOM    127  C   UNL A   1      47.608  25.901  27.795  1.00  0.00     0.200 A 
ATOM    128  F   UNL A   1      46.483  25.878  25.721  1.00  0.00    -0.200 F 
ATOM    129  F   UNL A   1      47.975  24.622  27.626  1.00  0.00    -0.200 F 
ENDBRANCH  99 119
BRANCH 102 130
ATOM    130  C   UNL A   1      43.880  37.996  29.790  1.00  0.00     0.064 A 
ATOM    131  C   UNL A   1      44.206  38.653  30.986  1.00  0.00     0.173 A 
ATOM    132  C   UNL A   1      43.126  38.705  28.843  1.00  0.00     0.173 A 
ATOM    133  F   UNL A   1      44.910  38.013  31.930  1.00  0.00    -0.203 F 
ATOM    134  C   UNL A   1      43.769  39.952  31.237  1.00  0.00     0.198 A 
ATOM    135  C   UNL A   1      42.717  40.016  29.082  1.00  0.00     0.198 A 
ATOM    136  F   UNL A   1      42.793  38.127  27.680  1.00  0.00    -0.203 F 
ATOM    137  F   UNL A   1      44.048  40.535  32.412  1.00  0.00    -0.200 F 
ATOM    138  C   UNL A   1      43.029  40.635  30.284  1.00  0.00     0.200 A 
ATOM    139  F   UNL A   1      42.017  40.677  28.152  1.00  0.00    -0.200 F 
ATOM    140  F   UNL A   1      42.610  41.884  30.526  1.00  0.00    -0.200 F 
ENDBRANCH 102 130
BRANCH 117 141
ATOM    141  C   UNL A   1      49.441  35.177  26.680  1.00  0.00     0.064 A 
ATOM    142  C   UNL A   1      49.383  35.573  25.337  1.00  0.00     0.173 A 
ATOM    143  C   UNL A   1      50.642  35.388  27.375  1.00  0.00     0.173 A 
ATOM    144  F   UNL A   1      48.262  35.383  24.624  1.00  0.00    -0.203 F 
ATOM    145  C   UNL A   1      50.496  36.123  24.705  1.00  0.00     0.198 A 
ATOM    146  C   UNL A   1      51.740  35.972  26.751  1.00  0.00     0.198 A 
ATOM    147  F   UNL A   1      50.749  35.037  28.666  1.00  0.00    -0.203 F 
ATOM    148  F   UNL A   1      50.437  36.435  23.402  1.00  0.00    -0.200 F 
ATOM    149  C   UNL A   1      51.669  36.328  25.413  1.00  0.00     0.200 A 
ATOM    150  F   UNL A   1      52.867  36.188  27.444  1.00  0.00    -0.200 F 
ATOM    151  F   UNL A   1      52.737  36.861  24.804  1.00  0.00    -0.200 F 
ENDBRANCH 117 141
ENDBRANCH  82  85
ENDBRANCH  72  75
ENDBRANCH  68  71
ENDBRANCH  65  68
ENDBRANCH  62  65
ENDBRANCH  59  62
ENDBRANCH  56  59
ENDBRANCH  53  56
ENDBRANCH  51  53
ENDBRANCH  46  49
ENDBRANCH  43  46
ENDBRANCH   1  43
TORSDOF 27
ENDMDL
MODEL 7
REMARK VINA RESULT:      -8.6      7.356     14.722
REMARK SMILES CC/C=C/C/C=C/C/C=C/C/C=C/CCSCCCC(=O)NCCCCCCNC(=O)c1ccc(-c2c3nc(c(-c4c(F)c(F)c(F)c(F)c4F)c4ccc([nH]4)c(-c4c(F)c(F)c(F)c(F)c4F)c4nc(c(-c5c(F)c(F)c(F)c(F)c5F)c5ccc2[nH]5)C=C4)C=C3)cc1
REMARK SMILES IDX 17 1 16 4 15 5 14 8 13 11 12 12 11 15 10 18 9 19 8 22 7 25
REMARK SMILES IDX 6 26 5 29 4 32 3 33 2 36 1 39 18 43 19 46 20 49 21 50 22 51
REMARK SMILES IDX 23 53 24 56 25 59 26 62 27 65 28 68 29 71 30 72 31 74 32 75
REMARK SMILES IDX 33 76 94 77 34 78 93 80 35 82 36 85 37 86 87 87 38 88 92 89
REMARK SMILES IDX 86 90 88 91 39 92 91 93 85 95 84 97 40 99 72 102 52 103
REMARK SMILES IDX 71 104 53 105 56 106 70 107 89 108 54 109 55 111 69 113
REMARK SMILES IDX 90 114 57 117 41 119 42 120 50 121 43 122 44 123 48 124
REMARK SMILES IDX 51 125 45 126 46 127 49 128 47 129 73 130 74 131 82 132
REMARK SMILES IDX 75 133 76 134 80 135 83 136 77 137 78 138 81 139 79 140
REMARK SMILES IDX 58 141 59 142 67 143 60 144 61 145 65 146 68 147 62 148
REMARK SMILES IDX 63 149 66 150 64 151
REMARK H PARENT 17 2 17 3 15 6 15 7 14 9 14 10 12 13 13 14 11 16 11 17 9 20
REMARK H PARENT 10 21 8 23 8 24 6 27 7 28 5 30 5 31 3 34 4 35 2 37 2 38 1 40
REMARK H PARENT 1 41 1 42 18 44 18 45 19 47 19 48 22 52 23 54 23 55 24 57
REMARK H PARENT 24 58 25 60 25 61 26 63 26 64 27 66 27 67 28 69 28 70 29 73
REMARK H PARENT 33 79 94 81 34 83 93 84 92 94 86 96 88 98 91 100 85 101 53 110
REMARK H PARENT 56 112 89 115 54 116 90 118
REMARK Flexibility Score: inf
ROOT
ATOM      1  C   UNL A   1      38.643  31.007  34.490  1.00  0.00    -0.006 C 
ATOM      2  H   UNL A   1      38.008  30.327  33.961  1.00  0.00     0.038 H 
ATOM      3  H   UNL A   1      38.780  31.023  35.550  1.00  0.00     0.038 H 
ENDROOT
BRANCH   1   4
ATOM      4  S   UNL A   1      37.819  32.655  34.299  1.00  0.00    -0.162 SA
BRANCH   4   5
ATOM      5  C   UNL A   1      36.229  32.511  33.368  1.00  0.00    -0.003 C 
ATOM      6  H   UNL A   1      36.432  32.770  32.351  1.00  0.00     0.038 H 
ATOM      7  H   UNL A   1      35.911  31.502  33.536  1.00  0.00     0.038 H 
BRANCH   5   8
ATOM      8  C   UNL A   1      35.025  33.380  33.837  1.00  0.00    -0.026 C 
ATOM      9  H   UNL A   1      34.368  32.750  34.399  1.00  0.00     0.032 H 
ATOM     10  H   UNL A   1      35.455  34.182  34.400  1.00  0.00     0.032 H 
BRANCH   8  11
ATOM     11  C   UNL A   1      34.216  34.039  32.752  1.00  0.00    -0.087 C 
ATOM     12  C   UNL A   1      34.658  34.614  31.618  1.00  0.00    -0.085 C 
ATOM     13  H   UNL A   1      35.656  34.865  31.547  1.00  0.00     0.058 H 
ATOM     14  H   UNL A   1      33.194  34.052  32.896  1.00  0.00     0.057 H 
BRANCH  12  15
ATOM     15  C   UNL A   1      33.748  34.907  30.437  1.00  0.00    -0.017 C 
ATOM     16  H   UNL A   1      32.738  34.741  30.750  1.00  0.00     0.035 H 
ATOM     17  H   UNL A   1      33.949  35.918  30.154  1.00  0.00     0.035 H 
BRANCH  15  18
ATOM     18  C   UNL A   1      33.995  34.076  29.212  1.00  0.00    -0.084 C 
ATOM     19  C   UNL A   1      34.414  32.799  29.262  1.00  0.00    -0.084 C 
ATOM     20  H   UNL A   1      34.531  32.364  30.190  1.00  0.00     0.058 H 
ATOM     21  H   UNL A   1      33.834  34.504  28.287  1.00  0.00     0.058 H 
BRANCH  19  22
ATOM     22  C   UNL A   1      34.726  31.966  28.048  1.00  0.00    -0.017 C 
ATOM     23  H   UNL A   1      34.054  31.135  27.998  1.00  0.00     0.035 H 
ATOM     24  H   UNL A   1      34.613  32.552  27.160  1.00  0.00     0.035 H 
BRANCH  22  25
ATOM     25  C   UNL A   1      36.136  31.473  28.168  1.00  0.00    -0.084 C 
ATOM     26  C   UNL A   1      36.593  30.334  27.627  1.00  0.00    -0.084 C 
ATOM     27  H   UNL A   1      35.994  29.839  26.947  1.00  0.00     0.058 H 
ATOM     28  H   UNL A   1      36.802  32.049  28.704  1.00  0.00     0.058 H 
BRANCH  26  29
ATOM     29  C   UNL A   1      37.932  29.745  27.961  1.00  0.00    -0.017 C 
ATOM     30  H   UNL A   1      37.994  28.750  27.573  1.00  0.00     0.035 H 
ATOM     31  H   UNL A   1      38.708  30.340  27.527  1.00  0.00     0.035 H 
BRANCH  29  32
ATOM     32  C   UNL A   1      38.093  29.713  29.454  1.00  0.00    -0.085 C 
ATOM     33  C   UNL A   1      37.631  28.730  30.244  1.00  0.00    -0.089 C 
ATOM     34  H   UNL A   1      37.206  27.904  29.795  1.00  0.00     0.057 H 
ATOM     35  H   UNL A   1      38.591  30.498  29.903  1.00  0.00     0.058 H 
BRANCH  33  36
ATOM     36  C   UNL A   1      37.699  28.768  31.742  1.00  0.00    -0.038 C 
ATOM     37  H   UNL A   1      38.180  29.673  32.050  1.00  0.00     0.031 H 
ATOM     38  H   UNL A   1      36.706  28.725  32.135  1.00  0.00     0.031 H 
BRANCH  36  39
ATOM     39  C   UNL A   1      38.489  27.578  32.269  1.00  0.00    -0.062 C 
ATOM     40  H   UNL A   1      38.215  27.392  33.287  1.00  0.00     0.023 H 
ATOM     41  H   UNL A   1      39.535  27.792  32.214  1.00  0.00     0.023 H 
ATOM     42  H   UNL A   1      38.269  26.714  31.677  1.00  0.00     0.023 H 
ENDBRANCH  36  39
ENDBRANCH  33  36
ENDBRANCH  29  32
ENDBRANCH  26  29
ENDBRANCH  22  25
ENDBRANCH  19  22
ENDBRANCH  15  18
ENDBRANCH  12  15
ENDBRANCH   8  11
ENDBRANCH   5   8
ENDBRANCH   4   5
ENDBRANCH   1   4
BRANCH   1  43
ATOM     43  C   UNL A   1      40.058  30.599  34.087  1.00  0.00    -0.035 C 
ATOM     44  H   UNL A   1      40.155  29.559  34.313  1.00  0.00     0.028 H 
ATOM     45  H   UNL A   1      40.674  31.283  34.633  1.00  0.00     0.028 H 
BRANCH  43  46
ATOM     46  C   UNL A   1      40.521  30.781  32.659  1.00  0.00     0.027 C 
ATOM     47  H   UNL A   1      40.362  31.809  32.408  1.00  0.00     0.037 H 
ATOM     48  H   UNL A   1      39.950  30.061  32.112  1.00  0.00     0.037 H 
BRANCH  46  49
ATOM     49  C   UNL A   1      41.960  30.452  32.300  1.00  0.00     0.220 C 
ATOM     50  O   UNL A   1      42.873  31.091  32.834  1.00  0.00    -0.275 OA
ATOM     51  N   UNL A   1      42.340  29.448  31.471  1.00  0.00    -0.356 N 
ATOM     52  H   UNL A   1      43.255  29.551  31.121  1.00  0.00     0.163 HD
BRANCH  51  53
ATOM     53  C   UNL A   1      41.668  28.254  30.997  1.00  0.00     0.017 C 
ATOM     54  H   UNL A   1      40.663  28.264  31.363  1.00  0.00     0.049 H 
ATOM     55  H   UNL A   1      42.223  27.414  31.362  1.00  0.00     0.049 H 
BRANCH  53  56
ATOM     56  C   UNL A   1      41.630  28.144  29.479  1.00  0.00    -0.036 C 
ATOM     57  H   UNL A   1      42.620  27.950  29.119  1.00  0.00     0.028 H 
ATOM     58  H   UNL A   1      41.256  29.064  29.083  1.00  0.00     0.028 H 
BRANCH  56  59
ATOM     59  C   UNL A   1      40.702  27.008  29.024  1.00  0.00    -0.052 C 
ATOM     60  H   UNL A   1      39.789  27.086  29.577  1.00  0.00     0.027 H 
ATOM     61  H   UNL A   1      41.237  26.099  29.205  1.00  0.00     0.027 H 
BRANCH  59  62
ATOM     62  C   UNL A   1      40.352  27.004  27.529  1.00  0.00    -0.052 C 
ATOM     63  H   UNL A   1      41.188  27.402  26.994  1.00  0.00     0.027 H 
ATOM     64  H   UNL A   1      39.460  27.589  27.436  1.00  0.00     0.027 H 
BRANCH  62  65
ATOM     65  C   UNL A   1      40.018  25.637  26.930  1.00  0.00    -0.036 C 
ATOM     66  H   UNL A   1      40.407  25.607  25.934  1.00  0.00     0.028 H 
ATOM     67  H   UNL A   1      38.953  25.543  26.973  1.00  0.00     0.028 H 
BRANCH  65  68
ATOM     68  C   UNL A   1      40.582  24.447  27.695  1.00  0.00     0.018 C 
ATOM     69  H   UNL A   1      39.794  24.005  28.267  1.00  0.00     0.049 H 
ATOM     70  H   UNL A   1      41.372  24.811  28.317  1.00  0.00     0.049 H 
BRANCH  68  71
ATOM     71  N   UNL A   1      41.147  23.430  26.823  1.00  0.00    -0.352 N 
ATOM     72  C   UNL A   1      42.298  23.470  26.078  1.00  0.00     0.251 C 
ATOM     73  H   UNL A   1      40.630  22.595  26.757  1.00  0.00     0.163 HD
ATOM     74  O   UNL A   1      42.562  22.564  25.298  1.00  0.00    -0.269 OA
BRANCH  72  75
ATOM     75  C   UNL A   1      43.213  24.625  26.205  1.00  0.00     0.039 A 
ATOM     76  C   UNL A   1      43.370  25.477  25.109  1.00  0.00    -0.049 A 
ATOM     77  C   UNL A   1      43.925  24.858  27.384  1.00  0.00    -0.049 A 
ATOM     78  C   UNL A   1      44.221  26.579  25.207  1.00  0.00    -0.053 A 
ATOM     79  H   UNL A   1      42.859  25.293  24.231  1.00  0.00     0.063 H 
ATOM     80  C   UNL A   1      44.701  26.004  27.511  1.00  0.00    -0.053 A 
ATOM     81  H   UNL A   1      43.874  24.180  28.160  1.00  0.00     0.063 H 
ATOM     82  C   UNL A   1      44.882  26.859  26.414  1.00  0.00    -0.014 A 
ATOM     83  H   UNL A   1      44.366  27.189  24.389  1.00  0.00     0.063 H 
ATOM     84  H   UNL A   1      45.146  26.227  28.415  1.00  0.00     0.063 H 
BRANCH  82  85
ATOM     85  C   UNL A   1      45.812  28.009  26.524  1.00  0.00     0.031 A 
ATOM     86  C   UNL A   1      47.288  27.798  26.322  1.00  0.00     0.074 A 
ATOM     87  C   UNL A   1      45.334  29.229  26.833  1.00  0.00     0.049 A 
ATOM     88  N   UNL A   1      48.267  28.666  26.385  1.00  0.00    -0.248 NA
ATOM     89  C   UNL A   1      47.729  26.422  26.041  1.00  0.00    -0.034 C 
ATOM     90  C   UNL A   1      43.931  29.547  27.097  1.00  0.00    -0.036 A 
ATOM     91  N   UNL A   1      45.980  30.432  26.974  1.00  0.00    -0.354 N 
ATOM     92  C   UNL A   1      49.430  27.939  26.171  1.00  0.00     0.074 A 
ATOM     93  C   UNL A   1      49.046  26.551  26.042  1.00  0.00    -0.034 C 
ATOM     94  H   UNL A   1      47.159  25.576  25.885  1.00  0.00     0.065 H 
ATOM     95  C   UNL A   1      43.815  30.863  27.332  1.00  0.00    -0.036 A 
ATOM     96  H   UNL A   1      43.154  28.867  27.103  1.00  0.00     0.065 H 
ATOM     97  C   UNL A   1      45.138  31.476  27.269  1.00  0.00     0.049 A 
ATOM     98  H   UNL A   1      46.954  30.536  26.874  1.00  0.00     0.167 HD
ATOM     99  C   UNL A   1      50.702  28.391  26.063  1.00  0.00     0.037 A 
ATOM    100  H   UNL A   1      49.711  25.766  25.959  1.00  0.00     0.065 H 
ATOM    101  H   UNL A   1      42.932  31.362  27.525  1.00  0.00     0.065 H 
ATOM    102  C   UNL A   1      45.408  32.781  27.462  1.00  0.00     0.037 A 
ATOM    103  C   UNL A   1      51.072  29.778  26.163  1.00  0.00     0.049 A 
ATOM    104  C   UNL A   1      46.831  33.258  27.334  1.00  0.00     0.074 A 
ATOM    105  C   UNL A   1      52.321  30.352  26.006  1.00  0.00    -0.036 A 
ATOM    106  N   UNL A   1      50.190  30.810  26.450  1.00  0.00    -0.354 N 
ATOM    107  N   UNL A   1      47.914  32.575  27.052  1.00  0.00    -0.248 NA
ATOM    108  C   UNL A   1      47.065  34.694  27.537  1.00  0.00    -0.034 C 
ATOM    109  C   UNL A   1      52.205  31.724  26.257  1.00  0.00    -0.036 A 
ATOM    110  H   UNL A   1      53.188  29.855  25.749  1.00  0.00     0.065 H 
ATOM    111  C   UNL A   1      50.873  32.015  26.500  1.00  0.00     0.049 A 
ATOM    112  H   UNL A   1      49.223  30.701  26.597  1.00  0.00     0.167 HD
ATOM    113  C   UNL A   1      48.948  33.501  27.003  1.00  0.00     0.074 A 
ATOM    114  C   UNL A   1      48.359  34.796  27.273  1.00  0.00    -0.034 C 
ATOM    115  H   UNL A   1      46.397  35.430  27.814  1.00  0.00     0.065 H 
ATOM    116  H   UNL A   1      52.981  32.403  26.259  1.00  0.00     0.065 H 
ATOM    117  C   UNL A   1      50.266  33.297  26.753  1.00  0.00     0.037 A 
ATOM    118  H   UNL A   1      48.882  35.685  27.260  1.00  0.00     0.065 H 
BRANCH  99 119
ATOM    119  C   UNL A   1      51.785  27.375  25.829  1.00  0.00     0.064 A 
ATOM    120  C   UNL A   1      52.526  26.823  26.886  1.00  0.00     0.173 A 
ATOM    121  C   UNL A   1      52.070  26.928  24.529  1.00  0.00     0.173 A 
ATOM    122  F   UNL A   1      52.304  27.221  28.148  1.00  0.00    -0.203 F 
ATOM    123  C   UNL A   1      53.534  25.892  26.647  1.00  0.00     0.198 A 
ATOM    124  C   UNL A   1      53.054  25.970  24.298  1.00  0.00     0.198 A 
ATOM    125  F   UNL A   1      51.391  27.417  23.480  1.00  0.00    -0.203 F 
ATOM    126  F   UNL A   1      54.269  25.426  27.667  1.00  0.00    -0.200 F 
ATOM    127  C   UNL A   1      53.792  25.461  25.355  1.00  0.00     0.200 A 
ATOM    128  F   UNL A   1      53.292  25.543  23.050  1.00  0.00    -0.200 F 
ATOM    129  F   UNL A   1      54.759  24.560  25.128  1.00  0.00    -0.200 F 
ENDBRANCH  99 119
BRANCH 102 130
ATOM    130  C   UNL A   1      44.307  33.737  27.751  1.00  0.00     0.064 A 
ATOM    131  C   UNL A   1      43.774  34.548  26.739  1.00  0.00     0.173 A 
ATOM    132  C   UNL A   1      43.774  33.872  29.042  1.00  0.00     0.173 A 
ATOM    133  F   UNL A   1      44.261  34.470  25.492  1.00  0.00    -0.203 F 
ATOM    134  C   UNL A   1      42.772  35.477  27.012  1.00  0.00     0.198 A 
ATOM    135  C   UNL A   1      42.750  34.779  29.307  1.00  0.00     0.198 A 
ATOM    136  F   UNL A   1      44.243  33.116  30.045  1.00  0.00    -0.203 F 
ATOM    137  F   UNL A   1      42.320  36.278  26.037  1.00  0.00    -0.200 F 
ATOM    138  C   UNL A   1      42.257  35.589  28.294  1.00  0.00     0.200 A 
ATOM    139  F   UNL A   1      42.244  34.872  30.543  1.00  0.00    -0.200 F 
ATOM    140  F   UNL A   1      41.293  36.482  28.557  1.00  0.00    -0.200 F 
ENDBRANCH 102 130
BRANCH 117 141
ATOM    141  C   UNL A   1      51.151  34.511  26.700  1.00  0.00     0.064 A 
ATOM    142  C   UNL A   1      51.864  34.963  27.820  1.00  0.00     0.173 A 
ATOM    143  C   UNL A   1      51.308  35.215  25.496  1.00  0.00     0.173 A 
ATOM    144  F   UNL A   1      51.741  34.332  28.999  1.00  0.00    -0.203 F 
ATOM    145  C   UNL A   1      52.669  36.096  27.747  1.00  0.00     0.198 A 
ATOM    146  C   UNL A   1      52.143  36.325  25.416  1.00  0.00     0.198 A 
ATOM    147  F   UNL A   1      50.658  34.820  24.390  1.00  0.00    -0.203 F 
ATOM    148  F   UNL A   1      53.290  36.547  28.846  1.00  0.00    -0.200 F 
ATOM    149  C   UNL A   1      52.814  36.771  26.544  1.00  0.00     0.200 A 
ATOM    150  F   UNL A   1      52.296  36.964  24.248  1.00  0.00    -0.200 F 
ATOM    151  F   UNL A   1      53.593  37.860  26.474  1.00  0.00    -0.200 F 
ENDBRANCH 117 141
ENDBRANCH  82  85
ENDBRANCH  72  75
ENDBRANCH  68  71
ENDBRANCH  65  68
ENDBRANCH  62  65
ENDBRANCH  59  62
ENDBRANCH  56  59
ENDBRANCH  53  56
ENDBRANCH  51  53
ENDBRANCH  46  49
ENDBRANCH  43  46
ENDBRANCH   1  43
TORSDOF 27
ENDMDL
MODEL 8
REMARK VINA RESULT:      -8.6      5.088      8.868
REMARK SMILES CC/C=C/C/C=C/C/C=C/C/C=C/CCSCCCC(=O)NCCCCCCNC(=O)c1ccc(-c2c3nc(c(-c4c(F)c(F)c(F)c(F)c4F)c4ccc([nH]4)c(-c4c(F)c(F)c(F)c(F)c4F)c4nc(c(-c5c(F)c(F)c(F)c(F)c5F)c5ccc2[nH]5)C=C4)C=C3)cc1
REMARK SMILES IDX 17 1 16 4 15 5 14 8 13 11 12 12 11 15 10 18 9 19 8 22 7 25
REMARK SMILES IDX 6 26 5 29 4 32 3 33 2 36 1 39 18 43 19 46 20 49 21 50 22 51
REMARK SMILES IDX 23 53 24 56 25 59 26 62 27 65 28 68 29 71 30 72 31 74 32 75
REMARK SMILES IDX 33 76 94 77 34 78 93 80 35 82 36 85 37 86 87 87 38 88 92 89
REMARK SMILES IDX 86 90 88 91 39 92 91 93 85 95 84 97 40 99 72 102 52 103
REMARK SMILES IDX 71 104 53 105 56 106 70 107 89 108 54 109 55 111 69 113
REMARK SMILES IDX 90 114 57 117 41 119 42 120 50 121 43 122 44 123 48 124
REMARK SMILES IDX 51 125 45 126 46 127 49 128 47 129 73 130 74 131 82 132
REMARK SMILES IDX 75 133 76 134 80 135 83 136 77 137 78 138 81 139 79 140
REMARK SMILES IDX 58 141 59 142 67 143 60 144 61 145 65 146 68 147 62 148
REMARK SMILES IDX 63 149 66 150 64 151
REMARK H PARENT 17 2 17 3 15 6 15 7 14 9 14 10 12 13 13 14 11 16 11 17 9 20
REMARK H PARENT 10 21 8 23 8 24 6 27 7 28 5 30 5 31 3 34 4 35 2 37 2 38 1 40
REMARK H PARENT 1 41 1 42 18 44 18 45 19 47 19 48 22 52 23 54 23 55 24 57
REMARK H PARENT 24 58 25 60 25 61 26 63 26 64 27 66 27 67 28 69 28 70 29 73
REMARK H PARENT 33 79 94 81 34 83 93 84 92 94 86 96 88 98 91 100 85 101 53 110
REMARK H PARENT 56 112 89 115 54 116 90 118
REMARK Flexibility Score: inf
ROOT
ATOM      1  C   UNL A   1      45.656  42.409  26.695  1.00  0.00    -0.006 C 
ATOM      2  H   UNL A   1      44.644  42.717  26.856  1.00  0.00     0.038 H 
ATOM      3  H   UNL A   1      46.386  42.960  26.140  1.00  0.00     0.038 H 
ENDROOT
BRANCH   1   4
ATOM      4  S   UNL A   1      45.521  40.938  25.577  1.00  0.00    -0.162 SA
BRANCH   4   5
ATOM      5  C   UNL A   1      45.222  39.387  26.537  1.00  0.00    -0.003 C 
ATOM      6  H   UNL A   1      45.520  38.568  25.918  1.00  0.00     0.038 H 
ATOM      7  H   UNL A   1      45.784  39.518  27.438  1.00  0.00     0.038 H 
BRANCH   5   8
ATOM      8  C   UNL A   1      43.772  39.096  27.023  1.00  0.00    -0.026 C 
ATOM      9  H   UNL A   1      43.526  39.823  27.768  1.00  0.00     0.032 H 
ATOM     10  H   UNL A   1      43.162  39.142  26.144  1.00  0.00     0.032 H 
BRANCH   8  11
ATOM     11  C   UNL A   1      43.526  37.732  27.611  1.00  0.00    -0.087 C 
ATOM     12  C   UNL A   1      42.984  36.654  27.015  1.00  0.00    -0.085 C 
ATOM     13  H   UNL A   1      42.449  36.789  26.143  1.00  0.00     0.058 H 
ATOM     14  H   UNL A   1      43.810  37.608  28.596  1.00  0.00     0.057 H 
BRANCH  12  15
ATOM     15  C   UNL A   1      43.127  35.248  27.572  1.00  0.00    -0.017 C 
ATOM     16  H   UNL A   1      42.898  34.558  26.788  1.00  0.00     0.035 H 
ATOM     17  H   UNL A   1      44.131  35.174  27.931  1.00  0.00     0.035 H 
BRANCH  15  18
ATOM     18  C   UNL A   1      42.243  34.927  28.742  1.00  0.00    -0.084 C 
ATOM     19  C   UNL A   1      40.937  35.241  28.786  1.00  0.00    -0.084 C 
ATOM     20  H   UNL A   1      40.518  35.688  27.955  1.00  0.00     0.058 H 
ATOM     21  H   UNL A   1      42.658  34.441  29.553  1.00  0.00     0.058 H 
BRANCH  19  22
ATOM     22  C   UNL A   1      40.046  34.984  29.970  1.00  0.00    -0.017 C 
ATOM     23  H   UNL A   1      40.637  34.916  30.859  1.00  0.00     0.035 H 
ATOM     24  H   UNL A   1      39.345  35.784  30.086  1.00  0.00     0.035 H 
BRANCH  22  25
ATOM     25  C   UNL A   1      39.322  33.692  29.741  1.00  0.00    -0.084 C 
ATOM     26  C   UNL A   1      37.997  33.528  29.867  1.00  0.00    -0.084 C 
ATOM     27  H   UNL A   1      37.406  34.368  29.966  1.00  0.00     0.058 H 
ATOM     28  H   UNL A   1      39.883  32.870  29.468  1.00  0.00     0.058 H 
BRANCH  26  29
ATOM     29  C   UNL A   1      37.333  32.182  29.870  1.00  0.00    -0.017 C 
ATOM     30  H   UNL A   1      37.106  31.891  28.866  1.00  0.00     0.035 H 
ATOM     31  H   UNL A   1      37.987  31.456  30.307  1.00  0.00     0.035 H 
BRANCH  29  32
ATOM     32  C   UNL A   1      36.063  32.266  30.668  1.00  0.00    -0.085 C 
ATOM     33  C   UNL A   1      35.988  32.731  31.924  1.00  0.00    -0.089 C 
ATOM     34  H   UNL A   1      36.840  33.130  32.347  1.00  0.00     0.057 H 
ATOM     35  H   UNL A   1      35.190  31.945  30.220  1.00  0.00     0.058 H 
BRANCH  33  36
ATOM     36  C   UNL A   1      34.734  32.702  32.746  1.00  0.00    -0.038 C 
ATOM     37  H   UNL A   1      34.065  31.970  32.344  1.00  0.00     0.031 H 
ATOM     38  H   UNL A   1      34.987  32.456  33.756  1.00  0.00     0.031 H 
BRANCH  36  39
ATOM     39  C   UNL A   1      34.054  34.065  32.728  1.00  0.00    -0.062 C 
ATOM     40  H   UNL A   1      34.028  34.436  31.724  1.00  0.00     0.023 H 
ATOM     41  H   UNL A   1      34.603  34.745  33.345  1.00  0.00     0.023 H 
ATOM     42  H   UNL A   1      33.056  33.970  33.100  1.00  0.00     0.023 H 
ENDBRANCH  36  39
ENDBRANCH  33  36
ENDBRANCH  29  32
ENDBRANCH  26  29
ENDBRANCH  22  25
ENDBRANCH  19  22
ENDBRANCH  15  18
ENDBRANCH  12  15
ENDBRANCH   8  11
ENDBRANCH   5   8
ENDBRANCH   4   5
ENDBRANCH   1   4
BRANCH   1  43
ATOM     43  C   UNL A   1      46.307  42.500  28.073  1.00  0.00    -0.035 C 
ATOM     44  H   UNL A   1      46.461  43.539  28.274  1.00  0.00     0.028 H 
ATOM     45  H   UNL A   1      47.175  41.883  27.974  1.00  0.00     0.028 H 
BRANCH  43  46
ATOM     46  C   UNL A   1      45.605  41.921  29.281  1.00  0.00     0.027 C 
ATOM     47  H   UNL A   1      46.133  42.270  30.145  1.00  0.00     0.037 H 
ATOM     48  H   UNL A   1      45.620  40.867  29.104  1.00  0.00     0.037 H 
BRANCH  46  49
ATOM     49  C   UNL A   1      44.134  42.232  29.502  1.00  0.00     0.220 C 
ATOM     50  O   UNL A   1      43.306  41.320  29.398  1.00  0.00    -0.275 OA
ATOM     51  N   UNL A   1      43.647  43.441  29.877  1.00  0.00    -0.356 N 
ATOM     52  H   UNL A   1      42.686  43.551  29.695  1.00  0.00     0.163 HD
BRANCH  51  53
ATOM     53  C   UNL A   1      44.259  44.602  30.491  1.00  0.00     0.017 C 
ATOM     54  H   UNL A   1      43.844  45.480  30.042  1.00  0.00     0.049 H 
ATOM     55  H   UNL A   1      45.315  44.525  30.328  1.00  0.00     0.049 H 
BRANCH  53  56
ATOM     56  C   UNL A   1      44.040  44.677  31.996  1.00  0.00    -0.036 C 
ATOM     57  H   UNL A   1      43.996  45.705  32.291  1.00  0.00     0.028 H 
ATOM     58  H   UNL A   1      44.852  44.177  32.481  1.00  0.00     0.028 H 
BRANCH  56  59
ATOM     59  C   UNL A   1      42.731  43.984  32.406  1.00  0.00    -0.052 C 
ATOM     60  H   UNL A   1      42.792  42.960  32.101  1.00  0.00     0.027 H 
ATOM     61  H   UNL A   1      41.946  44.529  31.926  1.00  0.00     0.027 H 
BRANCH  59  62
ATOM     62  C   UNL A   1      42.413  44.014  33.907  1.00  0.00    -0.052 C 
ATOM     63  H   UNL A   1      41.491  44.539  34.037  1.00  0.00     0.027 H 
ATOM     64  H   UNL A   1      43.251  44.489  34.374  1.00  0.00     0.027 H 
BRANCH  62  65
ATOM     65  C   UNL A   1      42.278  42.650  34.584  1.00  0.00    -0.036 C 
ATOM     66  H   UNL A   1      42.167  41.910  33.819  1.00  0.00     0.028 H 
ATOM     67  H   UNL A   1      41.431  42.720  35.233  1.00  0.00     0.028 H 
BRANCH  65  68
ATOM     68  C   UNL A   1      43.457  42.250  35.461  1.00  0.00     0.018 C 
ATOM     69  H   UNL A   1      43.477  41.183  35.540  1.00  0.00     0.049 H 
ATOM     70  H   UNL A   1      43.321  42.718  36.413  1.00  0.00     0.049 H 
BRANCH  68  71
ATOM     71  N   UNL A   1      44.734  42.699  34.933  1.00  0.00    -0.352 N 
ATOM     72  C   UNL A   1      45.645  42.013  34.169  1.00  0.00     0.251 C 
ATOM     73  H   UNL A   1      44.982  43.625  35.154  1.00  0.00     0.163 HD
ATOM     74  O   UNL A   1      46.734  42.509  33.912  1.00  0.00    -0.269 OA
BRANCH  72  75
ATOM     75  C   UNL A   1      45.314  40.660  33.673  1.00  0.00     0.039 A 
ATOM     76  C   UNL A   1      45.841  39.554  34.344  1.00  0.00    -0.049 A 
ATOM     77  C   UNL A   1      44.507  40.480  32.546  1.00  0.00    -0.049 A 
ATOM     78  C   UNL A   1      45.535  38.267  33.900  1.00  0.00    -0.053 A 
ATOM     79  H   UNL A   1      46.452  39.688  35.165  1.00  0.00     0.063 H 
ATOM     80  C   UNL A   1      44.131  39.198  32.160  1.00  0.00    -0.053 A 
ATOM     81  H   UNL A   1      44.191  41.297  32.002  1.00  0.00     0.063 H 
ATOM     82  C   UNL A   1      44.666  38.079  32.814  1.00  0.00    -0.014 A 
ATOM     83  H   UNL A   1      45.951  37.449  34.372  1.00  0.00     0.063 H 
ATOM     84  H   UNL A   1      43.456  39.070  31.390  1.00  0.00     0.063 H 
BRANCH  82  85
ATOM     85  C   UNL A   1      44.357  36.718  32.312  1.00  0.00     0.031 A 
ATOM     86  C   UNL A   1      43.201  35.951  32.896  1.00  0.00     0.074 A 
ATOM     87  C   UNL A   1      45.130  36.164  31.360  1.00  0.00     0.049 A 
ATOM     88  N   UNL A   1      42.772  34.748  32.606  1.00  0.00    -0.248 NA
ATOM     89  C   UNL A   1      42.442  36.611  33.971  1.00  0.00    -0.034 C 
ATOM     90  C   UNL A   1      46.305  36.790  30.753  1.00  0.00    -0.036 A 
ATOM     91  N   UNL A   1      45.041  34.946  30.733  1.00  0.00    -0.354 N 
ATOM     92  C   UNL A   1      41.712  34.507  33.470  1.00  0.00     0.074 A 
ATOM     93  C   UNL A   1      41.604  35.656  34.340  1.00  0.00    -0.034 C 
ATOM     94  H   UNL A   1      42.540  37.570  34.341  1.00  0.00     0.065 H 
ATOM     95  C   UNL A   1      46.805  35.970  29.815  1.00  0.00    -0.036 A 
ATOM     96  H   UNL A   1      46.688  37.715  31.005  1.00  0.00     0.065 H 
ATOM     97  C   UNL A   1      46.009  34.747  29.779  1.00  0.00     0.049 A 
ATOM     98  H   UNL A   1      44.349  34.279  30.947  1.00  0.00     0.167 HD
ATOM     99  C   UNL A   1      40.886  33.435  33.517  1.00  0.00     0.037 A 
ATOM    100  H   UNL A   1      40.957  35.724  35.141  1.00  0.00     0.065 H 
ATOM    101  H   UNL A   1      47.620  36.171  29.216  1.00  0.00     0.065 H 
ATOM    102  C   UNL A   1      46.224  33.695  28.967  1.00  0.00     0.037 A 
ATOM    103  C   UNL A   1      40.983  32.308  32.628  1.00  0.00     0.049 A 
ATOM    104  C   UNL A   1      45.288  32.516  29.038  1.00  0.00     0.074 A 
ATOM    105  C   UNL A   1      40.160  31.198  32.546  1.00  0.00    -0.036 A 
ATOM    106  N   UNL A   1      41.970  32.146  31.665  1.00  0.00    -0.354 N 
ATOM    107  N   UNL A   1      44.242  32.332  29.804  1.00  0.00    -0.248 NA
ATOM    108  C   UNL A   1      45.560  31.404  28.116  1.00  0.00    -0.034 C 
ATOM    109  C   UNL A   1      40.683  30.338  31.575  1.00  0.00    -0.036 A 
ATOM    110  H   UNL A   1      39.308  31.034  33.105  1.00  0.00     0.065 H 
ATOM    111  C   UNL A   1      41.790  30.942  31.003  1.00  0.00     0.049 A 
ATOM    112  H   UNL A   1      42.691  32.790  31.482  1.00  0.00     0.167 HD
ATOM    113  C   UNL A   1      43.705  31.106  29.431  1.00  0.00     0.074 A 
ATOM    114  C   UNL A   1      44.537  30.598  28.360  1.00  0.00    -0.034 C 
ATOM    115  H   UNL A   1      46.341  31.284  27.453  1.00  0.00     0.065 H 
ATOM    116  H   UNL A   1      40.306  29.410  31.327  1.00  0.00     0.065 H 
ATOM    117  C   UNL A   1      42.619  30.461  29.927  1.00  0.00     0.037 A 
ATOM    118  H   UNL A   1      44.356  29.719  27.851  1.00  0.00     0.065 H 
BRANCH  99 119
ATOM    119  C   UNL A   1      39.810  33.430  34.566  1.00  0.00     0.064 A 
ATOM    120  C   UNL A   1      40.025  32.897  35.847  1.00  0.00     0.173 A 
ATOM    121  C   UNL A   1      38.551  33.989  34.295  1.00  0.00     0.173 A 
ATOM    122  F   UNL A   1      41.205  32.340  36.159  1.00  0.00    -0.203 F 
ATOM    123  C   UNL A   1      39.011  32.891  36.803  1.00  0.00     0.198 A 
ATOM    124  C   UNL A   1      37.552  34.013  35.264  1.00  0.00     0.198 A 
ATOM    125  F   UNL A   1      38.291  34.516  33.089  1.00  0.00    -0.203 F 
ATOM    126  F   UNL A   1      39.221  32.321  37.997  1.00  0.00    -0.200 F 
ATOM    127  C   UNL A   1      37.778  33.455  36.512  1.00  0.00     0.200 A 
ATOM    128  F   UNL A   1      36.366  34.573  34.987  1.00  0.00    -0.200 F 
ATOM    129  F   UNL A   1      36.805  33.453  37.435  1.00  0.00    -0.200 F 
ENDBRANCH  99 119
BRANCH 102 130
ATOM    130  C   UNL A   1      47.340  33.724  27.986  1.00  0.00     0.064 A 
ATOM    131  C   UNL A   1      48.580  33.141  28.288  1.00  0.00     0.173 A 
ATOM    132  C   UNL A   1      47.200  34.343  26.735  1.00  0.00     0.173 A 
ATOM    133  F   UNL A   1      48.770  32.553  29.478  1.00  0.00    -0.203 F 
ATOM    134  C   UNL A   1      49.643  33.203  27.391  1.00  0.00     0.198 A 
ATOM    135  C   UNL A   1      48.255  34.376  25.825  1.00  0.00     0.198 A 
ATOM    136  F   UNL A   1      46.034  34.909  26.392  1.00  0.00    -0.203 F 
ATOM    137  F   UNL A   1      50.833  32.687  27.729  1.00  0.00    -0.200 F 
ATOM    138  C   UNL A   1      49.480  33.816  26.158  1.00  0.00     0.200 A 
ATOM    139  F   UNL A   1      48.087  34.954  24.629  1.00  0.00    -0.200 F 
ATOM    140  F   UNL A   1      50.503  33.875  25.295  1.00  0.00    -0.200 F 
ENDBRANCH 102 130
BRANCH 117 141
ATOM    141  C   UNL A   1      42.233  29.163  29.275  1.00  0.00     0.064 A 
ATOM    142  C   UNL A   1      41.306  29.104  28.224  1.00  0.00     0.173 A 
ATOM    143  C   UNL A   1      42.826  27.961  29.694  1.00  0.00     0.173 A 
ATOM    144  F   UNL A   1      40.702  30.222  27.793  1.00  0.00    -0.203 F 
ATOM    145  C   UNL A   1      40.958  27.887  27.645  1.00  0.00     0.198 A 
ATOM    146  C   UNL A   1      42.505  26.752  29.087  1.00  0.00     0.198 A 
ATOM    147  F   UNL A   1      43.728  27.961  30.687  1.00  0.00    -0.203 F 
ATOM    148  F   UNL A   1      40.022  27.847  26.685  1.00  0.00    -0.200 F 
ATOM    149  C   UNL A   1      41.562  26.714  28.070  1.00  0.00     0.200 A 
ATOM    150  F   UNL A   1      43.105  25.622  29.487  1.00  0.00    -0.200 F 
ATOM    151  F   UNL A   1      41.230  25.544  27.508  1.00  0.00    -0.200 F 
ENDBRANCH 117 141
ENDBRANCH  82  85
ENDBRANCH  72  75
ENDBRANCH  68  71
ENDBRANCH  65  68
ENDBRANCH  62  65
ENDBRANCH  59  62
ENDBRANCH  56  59
ENDBRANCH  53  56
ENDBRANCH  51  53
ENDBRANCH  46  49
ENDBRANCH  43  46
ENDBRANCH   1  43
TORSDOF 27
ENDMDL
MODEL 9
REMARK VINA RESULT:      -8.6      6.881     14.530
REMARK SMILES CC/C=C/C/C=C/C/C=C/C/C=C/CCSCCCC(=O)NCCCCCCNC(=O)c1ccc(-c2c3nc(c(-c4c(F)c(F)c(F)c(F)c4F)c4ccc([nH]4)c(-c4c(F)c(F)c(F)c(F)c4F)c4nc(c(-c5c(F)c(F)c(F)c(F)c5F)c5ccc2[nH]5)C=C4)C=C3)cc1
REMARK SMILES IDX 17 1 16 4 15 5 14 8 13 11 12 12 11 15 10 18 9 19 8 22 7 25
REMARK SMILES IDX 6 26 5 29 4 32 3 33 2 36 1 39 18 43 19 46 20 49 21 50 22 51
REMARK SMILES IDX 23 53 24 56 25 59 26 62 27 65 28 68 29 71 30 72 31 74 32 75
REMARK SMILES IDX 33 76 94 77 34 78 93 80 35 82 36 85 37 86 87 87 38 88 92 89
REMARK SMILES IDX 86 90 88 91 39 92 91 93 85 95 84 97 40 99 72 102 52 103
REMARK SMILES IDX 71 104 53 105 56 106 70 107 89 108 54 109 55 111 69 113
REMARK SMILES IDX 90 114 57 117 41 119 42 120 50 121 43 122 44 123 48 124
REMARK SMILES IDX 51 125 45 126 46 127 49 128 47 129 73 130 74 131 82 132
REMARK SMILES IDX 75 133 76 134 80 135 83 136 77 137 78 138 81 139 79 140
REMARK SMILES IDX 58 141 59 142 67 143 60 144 61 145 65 146 68 147 62 148
REMARK SMILES IDX 63 149 66 150 64 151
REMARK H PARENT 17 2 17 3 15 6 15 7 14 9 14 10 12 13 13 14 11 16 11 17 9 20
REMARK H PARENT 10 21 8 23 8 24 6 27 7 28 5 30 5 31 3 34 4 35 2 37 2 38 1 40
REMARK H PARENT 1 41 1 42 18 44 18 45 19 47 19 48 22 52 23 54 23 55 24 57
REMARK H PARENT 24 58 25 60 25 61 26 63 26 64 27 66 27 67 28 69 28 70 29 73
REMARK H PARENT 33 79 94 81 34 83 93 84 92 94 86 96 88 98 91 100 85 101 53 110
REMARK H PARENT 56 112 89 115 54 116 90 118
REMARK Flexibility Score: inf
ROOT
ATOM      1  C   UNL A   1      33.703  32.798  27.988  1.00  0.00    -0.006 C 
ATOM      2  H   UNL A   1      33.249  32.783  28.957  1.00  0.00     0.038 H 
ATOM      3  H   UNL A   1      33.186  32.984  27.070  1.00  0.00     0.038 H 
ENDROOT
BRANCH   1   4
ATOM      4  S   UNL A   1      34.188  31.038  27.674  1.00  0.00    -0.162 SA
BRANCH   4   5
ATOM      5  C   UNL A   1      32.752  30.038  27.078  1.00  0.00    -0.003 C 
ATOM      6  H   UNL A   1      32.038  30.001  27.873  1.00  0.00     0.038 H 
ATOM      7  H   UNL A   1      32.430  30.538  26.187  1.00  0.00     0.038 H 
BRANCH   5   8
ATOM      8  C   UNL A   1      33.019  28.573  26.626  1.00  0.00    -0.026 C 
ATOM      9  H   UNL A   1      33.991  28.541  26.181  1.00  0.00     0.032 H 
ATOM     10  H   UNL A   1      32.918  27.979  27.510  1.00  0.00     0.032 H 
BRANCH   8  11
ATOM     11  C   UNL A   1      32.042  27.991  25.638  1.00  0.00    -0.087 C 
ATOM     12  C   UNL A   1      32.308  27.329  24.497  1.00  0.00    -0.085 C 
ATOM     13  H   UNL A   1      33.253  27.405  24.091  1.00  0.00     0.058 H 
ATOM     14  H   UNL A   1      31.043  28.117  25.864  1.00  0.00     0.057 H 
BRANCH  12  15
ATOM     15  C   UNL A   1      31.274  26.474  23.783  1.00  0.00    -0.017 C 
ATOM     16  H   UNL A   1      30.400  26.432  24.399  1.00  0.00     0.035 H 
ATOM     17  H   UNL A   1      31.110  26.940  22.835  1.00  0.00     0.035 H 
BRANCH  15  18
ATOM     18  C   UNL A   1      31.699  25.066  23.486  1.00  0.00    -0.084 C 
ATOM     19  C   UNL A   1      32.816  24.763  22.802  1.00  0.00    -0.084 C 
ATOM     20  H   UNL A   1      33.427  25.539  22.505  1.00  0.00     0.058 H 
ATOM     21  H   UNL A   1      31.106  24.292  23.825  1.00  0.00     0.058 H 
BRANCH  19  22
ATOM     22  C   UNL A   1      33.230  23.362  22.441  1.00  0.00    -0.017 C 
ATOM     23  H   UNL A   1      32.654  23.018  21.608  1.00  0.00     0.035 H 
ATOM     24  H   UNL A   1      34.265  23.341  22.172  1.00  0.00     0.035 H 
BRANCH  22  25
ATOM     25  C   UNL A   1      32.986  22.480  23.628  1.00  0.00    -0.084 C 
ATOM     26  C   UNL A   1      33.889  21.639  24.151  1.00  0.00    -0.084 C 
ATOM     27  H   UNL A   1      34.868  21.711  23.833  1.00  0.00     0.058 H 
ATOM     28  H   UNL A   1      32.056  22.523  24.073  1.00  0.00     0.058 H 
BRANCH  26  29
ATOM     29  C   UNL A   1      33.546  20.599  25.177  1.00  0.00    -0.017 C 
ATOM     30  H   UNL A   1      34.220  20.676  26.005  1.00  0.00     0.035 H 
ATOM     31  H   UNL A   1      32.545  20.749  25.524  1.00  0.00     0.035 H 
BRANCH  29  32
ATOM     32  C   UNL A   1      33.669  19.238  24.554  1.00  0.00    -0.085 C 
ATOM     33  C   UNL A   1      33.013  18.148  24.982  1.00  0.00    -0.089 C 
ATOM     34  H   UNL A   1      32.320  18.262  25.738  1.00  0.00     0.057 H 
ATOM     35  H   UNL A   1      34.299  19.134  23.743  1.00  0.00     0.058 H 
BRANCH  33  36
ATOM     36  C   UNL A   1      33.233  16.774  24.422  1.00  0.00    -0.038 C 
ATOM     37  H   UNL A   1      33.775  16.186  25.133  1.00  0.00     0.031 H 
ATOM     38  H   UNL A   1      32.283  16.327  24.220  1.00  0.00     0.031 H 
BRANCH  36  39
ATOM     39  C   UNL A   1      34.028  16.849  23.125  1.00  0.00    -0.062 C 
ATOM     40  H   UNL A   1      34.124  17.872  22.825  1.00  0.00     0.023 H 
ATOM     41  H   UNL A   1      33.517  16.300  22.362  1.00  0.00     0.023 H 
ATOM     42  H   UNL A   1      34.999  16.428  23.278  1.00  0.00     0.023 H 
ENDBRANCH  36  39
ENDBRANCH  33  36
ENDBRANCH  29  32
ENDBRANCH  26  29
ENDBRANCH  22  25
ENDBRANCH  19  22
ENDBRANCH  15  18
ENDBRANCH  12  15
ENDBRANCH   8  11
ENDBRANCH   5   8
ENDBRANCH   4   5
ENDBRANCH   1   4
BRANCH   1  43
ATOM     43  C   UNL A   1      34.589  34.041  28.000  1.00  0.00    -0.035 C 
ATOM     44  H   UNL A   1      34.146  34.743  27.326  1.00  0.00     0.028 H 
ATOM     45  H   UNL A   1      35.554  33.655  27.747  1.00  0.00     0.028 H 
BRANCH  43  46
ATOM     46  C   UNL A   1      34.839  34.779  29.296  1.00  0.00     0.027 C 
ATOM     47  H   UNL A   1      34.840  35.824  29.065  1.00  0.00     0.037 H 
ATOM     48  H   UNL A   1      35.759  34.366  29.651  1.00  0.00     0.037 H 
BRANCH  46  49
ATOM     49  C   UNL A   1      33.880  34.581  30.458  1.00  0.00     0.220 C 
ATOM     50  O   UNL A   1      32.848  35.261  30.507  1.00  0.00    -0.275 OA
ATOM     51  N   UNL A   1      34.030  33.654  31.436  1.00  0.00    -0.356 N 
ATOM     52  H   UNL A   1      33.502  33.846  32.245  1.00  0.00     0.163 HD
BRANCH  51  53
ATOM     53  C   UNL A   1      34.813  32.438  31.528  1.00  0.00     0.017 C 
ATOM     54  H   UNL A   1      35.408  32.351  30.643  1.00  0.00     0.049 H 
ATOM     55  H   UNL A   1      34.124  31.626  31.633  1.00  0.00     0.049 H 
BRANCH  53  56
ATOM     56  C   UNL A   1      35.737  32.404  32.738  1.00  0.00    -0.036 C 
ATOM     57  H   UNL A   1      35.852  31.390  33.060  1.00  0.00     0.028 H 
ATOM     58  H   UNL A   1      35.302  33.001  33.512  1.00  0.00     0.028 H 
BRANCH  56  59
ATOM     59  C   UNL A   1      37.120  32.982  32.403  1.00  0.00    -0.052 C 
ATOM     60  H   UNL A   1      36.994  34.014  32.152  1.00  0.00     0.027 H 
ATOM     61  H   UNL A   1      37.501  32.388  31.598  1.00  0.00     0.027 H 
BRANCH  59  62
ATOM     62  C   UNL A   1      38.162  32.890  33.527  1.00  0.00    -0.052 C 
ATOM     63  H   UNL A   1      38.296  33.871  33.931  1.00  0.00     0.027 H 
ATOM     64  H   UNL A   1      39.043  32.483  33.076  1.00  0.00     0.027 H 
BRANCH  62  65
ATOM     65  C   UNL A   1      37.810  31.950  34.680  1.00  0.00    -0.036 C 
ATOM     66  H   UNL A   1      36.754  31.781  34.660  1.00  0.00     0.028 H 
ATOM     67  H   UNL A   1      38.146  32.433  35.574  1.00  0.00     0.028 H 
BRANCH  65  68
ATOM     68  C   UNL A   1      38.507  30.596  34.639  1.00  0.00     0.018 C 
ATOM     69  H   UNL A   1      38.522  30.190  35.628  1.00  0.00     0.049 H 
ATOM     70  H   UNL A   1      39.494  30.756  34.257  1.00  0.00     0.049 H 
BRANCH  68  71
ATOM     71  N   UNL A   1      37.847  29.647  33.759  1.00  0.00    -0.352 N 
ATOM     72  C   UNL A   1      38.145  29.317  32.460  1.00  0.00     0.251 C 
ATOM     73  H   UNL A   1      37.077  29.173  34.149  1.00  0.00     0.163 HD
ATOM     74  O   UNL A   1      37.403  28.580  31.824  1.00  0.00    -0.269 OA
BRANCH  72  75
ATOM     75  C   UNL A   1      39.357  29.873  31.823  1.00  0.00     0.039 A 
ATOM     76  C   UNL A   1      39.330  30.140  30.452  1.00  0.00    -0.049 A 
ATOM     77  C   UNL A   1      40.518  30.114  32.563  1.00  0.00    -0.049 A 
ATOM     78  C   UNL A   1      40.459  30.673  29.830  1.00  0.00    -0.053 A 
ATOM     79  H   UNL A   1      38.478  29.944  29.902  1.00  0.00     0.063 H 
ATOM     80  C   UNL A   1      41.610  30.728  31.960  1.00  0.00    -0.053 A 
ATOM     81  H   UNL A   1      40.564  29.835  33.555  1.00  0.00     0.063 H 
ATOM     82  C   UNL A   1      41.603  30.986  30.582  1.00  0.00    -0.014 A 
ATOM     83  H   UNL A   1      40.454  30.839  28.811  1.00  0.00     0.063 H 
ATOM     84  H   UNL A   1      42.428  30.996  32.529  1.00  0.00     0.063 H 
BRANCH  82  85
ATOM     85  C   UNL A   1      42.820  31.525  29.929  1.00  0.00     0.031 A 
ATOM     86  C   UNL A   1      42.897  32.988  29.582  1.00  0.00     0.074 A 
ATOM     87  C   UNL A   1      43.837  30.698  29.622  1.00  0.00     0.049 A 
ATOM     88  N   UNL A   1      43.863  33.653  29.001  1.00  0.00    -0.248 NA
ATOM     89  C   UNL A   1      41.718  33.808  29.904  1.00  0.00    -0.034 C 
ATOM     90  C   UNL A   1      43.858  29.255  29.866  1.00  0.00    -0.036 A 
ATOM     91  N   UNL A   1      45.053  30.955  29.040  1.00  0.00    -0.354 N 
ATOM     92  C   UNL A   1      43.402  34.956  28.874  1.00  0.00     0.074 A 
ATOM     93  C   UNL A   1      42.046  34.976  29.376  1.00  0.00    -0.034 C 
ATOM     94  H   UNL A   1      40.859  33.541  30.409  1.00  0.00     0.065 H 
ATOM     95  C   UNL A   1      45.042  28.761  29.471  1.00  0.00    -0.036 A 
ATOM     96  H   UNL A   1      43.086  28.706  30.274  1.00  0.00     0.065 H 
ATOM     97  C   UNL A   1      45.849  29.842  28.916  1.00  0.00     0.049 A 
ATOM     98  H   UNL A   1      45.329  31.851  28.739  1.00  0.00     0.167 HD
ATOM     99  C   UNL A   1      44.058  36.045  28.407  1.00  0.00     0.037 A 
ATOM    100  H   UNL A   1      41.418  35.795  29.331  1.00  0.00     0.065 H 
ATOM    101  H   UNL A   1      45.334  27.774  29.549  1.00  0.00     0.065 H 
ATOM    102  C   UNL A   1      47.092  29.716  28.413  1.00  0.00     0.037 A 
ATOM    103  C   UNL A   1      45.418  36.021  27.936  1.00  0.00     0.049 A 
ATOM    104  C   UNL A   1      47.800  30.943  27.902  1.00  0.00     0.074 A 
ATOM    105  C   UNL A   1      46.199  37.076  27.501  1.00  0.00    -0.036 A 
ATOM    106  N   UNL A   1      46.197  34.877  27.837  1.00  0.00    -0.354 N 
ATOM    107  N   UNL A   1      47.384  32.185  27.860  1.00  0.00    -0.248 NA
ATOM    108  C   UNL A   1      49.160  30.749  27.381  1.00  0.00    -0.034 C 
ATOM    109  C   UNL A   1      47.432  36.563  27.083  1.00  0.00    -0.036 A 
ATOM    110  H   UNL A   1      45.922  38.070  27.488  1.00  0.00     0.065 H 
ATOM    111  C   UNL A   1      47.443  35.199  27.323  1.00  0.00     0.049 A 
ATOM    112  H   UNL A   1      45.907  33.972  28.093  1.00  0.00     0.167 HD
ATOM    113  C   UNL A   1      48.442  32.926  27.349  1.00  0.00     0.074 A 
ATOM    114  C   UNL A   1      49.524  31.993  27.108  1.00  0.00    -0.034 C 
ATOM    115  H   UNL A   1      49.693  29.873  27.261  1.00  0.00     0.065 H 
ATOM    116  H   UNL A   1      48.201  37.109  26.667  1.00  0.00     0.065 H 
ATOM    117  C   UNL A   1      48.514  34.258  27.105  1.00  0.00     0.037 A 
ATOM    118  H   UNL A   1      50.459  32.264  26.766  1.00  0.00     0.065 H 
BRANCH  99 119
ATOM    119  C   UNL A   1      43.311  37.349  28.379  1.00  0.00     0.064 A 
ATOM    120  C   UNL A   1      42.493  37.712  27.298  1.00  0.00     0.173 A 
ATOM    121  C   UNL A   1      43.397  38.239  29.461  1.00  0.00     0.173 A 
ATOM    122  F   UNL A   1      42.383  36.905  26.231  1.00  0.00    -0.203 F 
ATOM    123  C   UNL A   1      41.819  38.932  27.284  1.00  0.00     0.198 A 
ATOM    124  C   UNL A   1      42.693  39.441  29.460  1.00  0.00     0.198 A 
ATOM    125  F   UNL A   1      44.160  37.943  30.523  1.00  0.00    -0.203 F 
ATOM    126  F   UNL A   1      41.094  39.283  26.213  1.00  0.00    -0.200 F 
ATOM    127  C   UNL A   1      41.915  39.791  28.368  1.00  0.00     0.200 A 
ATOM    128  F   UNL A   1      42.773  40.263  30.515  1.00  0.00    -0.200 F 
ATOM    129  F   UNL A   1      41.260  40.961  28.356  1.00  0.00    -0.200 F 
ENDBRANCH  99 119
BRANCH 102 130
ATOM    130  C   UNL A   1      47.764  28.390  28.409  1.00  0.00     0.064 A 
ATOM    131  C   UNL A   1      47.656  27.531  27.306  1.00  0.00     0.173 A 
ATOM    132  C   UNL A   1      48.517  27.947  29.508  1.00  0.00     0.173 A 
ATOM    133  F   UNL A   1      46.934  27.900  26.238  1.00  0.00    -0.203 F 
ATOM    134  C   UNL A   1      48.248  26.270  27.314  1.00  0.00     0.198 A 
ATOM    135  C   UNL A   1      49.135  26.698  29.500  1.00  0.00     0.198 A 
ATOM    136  F   UNL A   1      48.658  28.732  30.586  1.00  0.00    -0.203 F 
ATOM    137  F   UNL A   1      48.081  25.448  26.268  1.00  0.00    -0.200 F 
ATOM    138  C   UNL A   1      48.991  25.855  28.408  1.00  0.00     0.200 A 
ATOM    139  F   UNL A   1      49.865  26.310  30.554  1.00  0.00    -0.200 F 
ATOM    140  F   UNL A   1      49.561  24.643  28.415  1.00  0.00    -0.200 F 
ENDBRANCH 102 130
BRANCH 117 141
ATOM    141  C   UNL A   1      49.825  34.797  26.606  1.00  0.00     0.064 A 
ATOM    142  C   UNL A   1      50.947  34.915  27.439  1.00  0.00     0.173 A 
ATOM    143  C   UNL A   1      49.965  35.173  25.261  1.00  0.00     0.173 A 
ATOM    144  F   UNL A   1      50.864  34.580  28.736  1.00  0.00    -0.203 F 
ATOM    145  C   UNL A   1      52.147  35.427  26.954  1.00  0.00     0.198 A 
ATOM    146  C   UNL A   1      51.177  35.648  24.771  1.00  0.00     0.198 A 
ATOM    147  F   UNL A   1      48.927  35.070  24.417  1.00  0.00    -0.203 F 
ATOM    148  F   UNL A   1      53.187  35.591  27.785  1.00  0.00    -0.200 F 
ATOM    149  C   UNL A   1      52.264  35.786  25.620  1.00  0.00     0.200 A 
ATOM    150  F   UNL A   1      51.293  35.975  23.476  1.00  0.00    -0.200 F 
ATOM    151  F   UNL A   1      53.422  36.274  25.154  1.00  0.00    -0.200 F 
ENDBRANCH 117 141
ENDBRANCH  82  85
ENDBRANCH  72  75
ENDBRANCH  68  71
ENDBRANCH  65  68
ENDBRANCH  62  65
ENDBRANCH  59  62
ENDBRANCH  56  59
ENDBRANCH  53  56
ENDBRANCH  51  53
ENDBRANCH  46  49
ENDBRANCH  43  46
ENDBRANCH   1  43
TORSDOF 27
ENDMDL
MODEL 10
REMARK VINA RESULT:      -8.6      6.941     12.449
REMARK SMILES CC/C=C/C/C=C/C/C=C/C/C=C/CCSCCCC(=O)NCCCCCCNC(=O)c1ccc(-c2c3nc(c(-c4c(F)c(F)c(F)c(F)c4F)c4ccc([nH]4)c(-c4c(F)c(F)c(F)c(F)c4F)c4nc(c(-c5c(F)c(F)c(F)c(F)c5F)c5ccc2[nH]5)C=C4)C=C3)cc1
REMARK SMILES IDX 17 1 16 4 15 5 14 8 13 11 12 12 11 15 10 18 9 19 8 22 7 25
REMARK SMILES IDX 6 26 5 29 4 32 3 33 2 36 1 39 18 43 19 46 20 49 21 50 22 51
REMARK SMILES IDX 23 53 24 56 25 59 26 62 27 65 28 68 29 71 30 72 31 74 32 75
REMARK SMILES IDX 33 76 94 77 34 78 93 80 35 82 36 85 37 86 87 87 38 88 92 89
REMARK SMILES IDX 86 90 88 91 39 92 91 93 85 95 84 97 40 99 72 102 52 103
REMARK SMILES IDX 71 104 53 105 56 106 70 107 89 108 54 109 55 111 69 113
REMARK SMILES IDX 90 114 57 117 41 119 42 120 50 121 43 122 44 123 48 124
REMARK SMILES IDX 51 125 45 126 46 127 49 128 47 129 73 130 74 131 82 132
REMARK SMILES IDX 75 133 76 134 80 135 83 136 77 137 78 138 81 139 79 140
REMARK SMILES IDX 58 141 59 142 67 143 60 144 61 145 65 146 68 147 62 148
REMARK SMILES IDX 63 149 66 150 64 151
REMARK H PARENT 17 2 17 3 15 6 15 7 14 9 14 10 12 13 13 14 11 16 11 17 9 20
REMARK H PARENT 10 21 8 23 8 24 6 27 7 28 5 30 5 31 3 34 4 35 2 37 2 38 1 40
REMARK H PARENT 1 41 1 42 18 44 18 45 19 47 19 48 22 52 23 54 23 55 24 57
REMARK H PARENT 24 58 25 60 25 61 26 63 26 64 27 66 27 67 28 69 28 70 29 73
REMARK H PARENT 33 79 94 81 34 83 93 84 92 94 86 96 88 98 91 100 85 101 53 110
REMARK H PARENT 56 112 89 115 54 116 90 118
REMARK Flexibility Score: inf
ROOT
ATOM      1  C   UNL A   1      33.286  37.002  31.360  1.00  0.00    -0.006 C 
ATOM      2  H   UNL A   1      34.026  37.527  30.792  1.00  0.00     0.038 H 
ATOM      3  H   UNL A   1      32.329  37.394  31.632  1.00  0.00     0.038 H 
ENDROOT
BRANCH   1   4
ATOM      4  S   UNL A   1      34.015  36.867  33.057  1.00  0.00    -0.162 SA
BRANCH   4   5
ATOM      5  C   UNL A   1      34.802  35.216  33.325  1.00  0.00    -0.003 C 
ATOM      6  H   UNL A   1      34.974  35.112  34.375  1.00  0.00     0.038 H 
ATOM      7  H   UNL A   1      34.112  34.519  32.895  1.00  0.00     0.038 H 
BRANCH   5   8
ATOM      8  C   UNL A   1      36.150  34.923  32.603  1.00  0.00    -0.026 C 
ATOM      9  H   UNL A   1      35.922  34.558  31.624  1.00  0.00     0.032 H 
ATOM     10  H   UNL A   1      36.687  35.849  32.616  1.00  0.00     0.032 H 
BRANCH   8  11
ATOM     11  C   UNL A   1      37.058  33.923  33.268  1.00  0.00    -0.087 C 
ATOM     12  C   UNL A   1      36.733  32.971  34.162  1.00  0.00    -0.085 C 
ATOM     13  H   UNL A   1      35.829  33.042  34.653  1.00  0.00     0.058 H 
ATOM     14  H   UNL A   1      38.055  33.974  33.006  1.00  0.00     0.057 H 
BRANCH  12  15
ATOM     15  C   UNL A   1      37.643  31.795  34.477  1.00  0.00    -0.017 C 
ATOM     16  H   UNL A   1      37.074  31.076  35.028  1.00  0.00     0.035 H 
ATOM     17  H   UNL A   1      37.994  31.434  33.534  1.00  0.00     0.035 H 
BRANCH  15  18
ATOM     18  C   UNL A   1      38.869  32.127  35.277  1.00  0.00    -0.084 C 
ATOM     19  C   UNL A   1      39.937  32.758  34.759  1.00  0.00    -0.084 C 
ATOM     20  H   UNL A   1      39.889  33.062  33.774  1.00  0.00     0.058 H 
ATOM     21  H   UNL A   1      38.893  31.859  36.273  1.00  0.00     0.058 H 
BRANCH  19  22
ATOM     22  C   UNL A   1      41.199  33.047  35.525  1.00  0.00    -0.017 C 
ATOM     23  H   UNL A   1      40.955  33.384  36.510  1.00  0.00     0.035 H 
ATOM     24  H   UNL A   1      41.795  32.162  35.604  1.00  0.00     0.035 H 
BRANCH  22  25
ATOM     25  C   UNL A   1      41.956  34.116  34.796  1.00  0.00    -0.084 C 
ATOM     26  C   UNL A   1      41.690  34.520  33.545  1.00  0.00    -0.084 C 
ATOM     27  H   UNL A   1      40.813  34.202  33.103  1.00  0.00     0.058 H 
ATOM     28  H   UNL A   1      42.736  34.574  35.291  1.00  0.00     0.058 H 
BRANCH  26  29
ATOM     29  C   UNL A   1      42.606  35.411  32.757  1.00  0.00    -0.017 C 
ATOM     30  H   UNL A   1      42.155  35.646  31.816  1.00  0.00     0.035 H 
ATOM     31  H   UNL A   1      42.784  36.317  33.298  1.00  0.00     0.035 H 
BRANCH  29  32
ATOM     32  C   UNL A   1      43.905  34.694  32.526  1.00  0.00    -0.085 C 
ATOM     33  C   UNL A   1      45.115  35.246  32.702  1.00  0.00    -0.089 C 
ATOM     34  H   UNL A   1      45.163  36.199  33.096  1.00  0.00     0.057 H 
ATOM     35  H   UNL A   1      43.865  33.711  32.211  1.00  0.00     0.058 H 
BRANCH  33  36
ATOM     36  C   UNL A   1      46.401  34.555  32.358  1.00  0.00    -0.038 C 
ATOM     37  H   UNL A   1      47.009  35.213  31.773  1.00  0.00     0.031 H 
ATOM     38  H   UNL A   1      46.906  34.293  33.264  1.00  0.00     0.031 H 
BRANCH  36  39
ATOM     39  C   UNL A   1      46.127  33.286  31.562  1.00  0.00    -0.062 C 
ATOM     40  H   UNL A   1      45.307  32.759  32.004  1.00  0.00     0.023 H 
ATOM     41  H   UNL A   1      46.998  32.664  31.573  1.00  0.00     0.023 H 
ATOM     42  H   UNL A   1      45.884  33.544  30.554  1.00  0.00     0.023 H 
ENDBRANCH  36  39
ENDBRANCH  33  36
ENDBRANCH  29  32
ENDBRANCH  26  29
ENDBRANCH  22  25
ENDBRANCH  19  22
ENDBRANCH  15  18
ENDBRANCH  12  15
ENDBRANCH   8  11
ENDBRANCH   5   8
ENDBRANCH   4   5
ENDBRANCH   1   4
BRANCH   1  43
ATOM     43  C   UNL A   1      32.817  35.883  30.435  1.00  0.00    -0.035 C 
ATOM     44  H   UNL A   1      31.762  36.007  30.311  1.00  0.00     0.028 H 
ATOM     45  H   UNL A   1      33.154  34.998  30.931  1.00  0.00     0.028 H 
BRANCH  43  46
ATOM     46  C   UNL A   1      33.407  35.749  29.049  1.00  0.00     0.027 C 
ATOM     47  H   UNL A   1      34.447  35.988  29.128  1.00  0.00     0.037 H 
ATOM     48  H   UNL A   1      32.808  36.404  28.452  1.00  0.00     0.037 H 
BRANCH  46  49
ATOM     49  C   UNL A   1      33.310  34.414  28.330  1.00  0.00     0.220 C 
ATOM     50  O   UNL A   1      32.207  34.024  27.932  1.00  0.00    -0.275 OA
ATOM     51  N   UNL A   1      34.368  33.623  28.022  1.00  0.00    -0.356 N 
ATOM     52  H   UNL A   1      34.120  32.690  27.829  1.00  0.00     0.163 HD
BRANCH  51  53
ATOM     53  C   UNL A   1      35.791  33.877  27.921  1.00  0.00     0.017 C 
ATOM     54  H   UNL A   1      35.934  34.909  27.676  1.00  0.00     0.049 H 
ATOM     55  H   UNL A   1      36.175  33.226  27.163  1.00  0.00     0.049 H 
BRANCH  53  56
ATOM     56  C   UNL A   1      36.553  33.574  29.204  1.00  0.00    -0.036 C 
ATOM     57  H   UNL A   1      35.852  33.329  29.976  1.00  0.00     0.028 H 
ATOM     58  H   UNL A   1      37.123  34.439  29.471  1.00  0.00     0.028 H 
BRANCH  56  59
ATOM     59  C   UNL A   1      37.520  32.395  29.015  1.00  0.00    -0.052 C 
ATOM     60  H   UNL A   1      37.999  32.209  29.954  1.00  0.00     0.027 H 
ATOM     61  H   UNL A   1      38.196  32.690  28.239  1.00  0.00     0.027 H 
BRANCH  59  62
ATOM     62  C   UNL A   1      36.875  31.085  28.542  1.00  0.00    -0.052 C 
ATOM     63  H   UNL A   1      37.605  30.545  27.976  1.00  0.00     0.027 H 
ATOM     64  H   UNL A   1      36.013  31.372  27.976  1.00  0.00     0.027 H 
BRANCH  62  65
ATOM     65  C   UNL A   1      36.361  30.163  29.647  1.00  0.00    -0.036 C 
ATOM     66  H   UNL A   1      36.756  29.184  29.474  1.00  0.00     0.028 H 
ATOM     67  H   UNL A   1      35.293  30.203  29.599  1.00  0.00     0.028 H 
BRANCH  65  68
ATOM     68  C   UNL A   1      36.740  30.583  31.061  1.00  0.00     0.018 C 
ATOM     69  H   UNL A   1      35.912  31.101  31.497  1.00  0.00     0.049 H 
ATOM     70  H   UNL A   1      37.607  31.204  30.989  1.00  0.00     0.049 H 
BRANCH  68  71
ATOM     71  N   UNL A   1      37.082  29.456  31.914  1.00  0.00    -0.352 N 
ATOM     72  C   UNL A   1      38.304  28.870  32.127  1.00  0.00     0.251 C 
ATOM     73  H   UNL A   1      36.330  29.056  32.408  1.00  0.00     0.163 HD
ATOM     74  O   UNL A   1      38.390  27.843  32.789  1.00  0.00    -0.269 OA
BRANCH  72  75
ATOM     75  C   UNL A   1      39.518  29.471  31.535  1.00  0.00     0.039 A 
ATOM     76  C   UNL A   1      39.740  29.318  30.164  1.00  0.00    -0.049 A 
ATOM     77  C   UNL A   1      40.440  30.163  32.323  1.00  0.00    -0.049 A 
ATOM     78  C   UNL A   1      40.874  29.884  29.581  1.00  0.00    -0.053 A 
ATOM     79  H   UNL A   1      39.067  28.789  29.585  1.00  0.00     0.063 H 
ATOM     80  C   UNL A   1      41.522  30.802  31.726  1.00  0.00    -0.053 A 
ATOM     81  H   UNL A   1      40.319  30.201  33.347  1.00  0.00     0.063 H 
ATOM     82  C   UNL A   1      41.766  30.643  30.355  1.00  0.00    -0.014 A 
ATOM     83  H   UNL A   1      41.059  29.743  28.575  1.00  0.00     0.063 H 
ATOM     84  H   UNL A   1      42.146  31.396  32.294  1.00  0.00     0.063 H 
BRANCH  82  85
ATOM     85  C   UNL A   1      42.991  31.225  29.754  1.00  0.00     0.031 A 
ATOM     86  C   UNL A   1      43.046  32.698  29.447  1.00  0.00     0.074 A 
ATOM     87  C   UNL A   1      44.035  30.428  29.459  1.00  0.00     0.049 A 
ATOM     88  N   UNL A   1      44.015  33.398  28.913  1.00  0.00    -0.248 NA
ATOM     89  C   UNL A   1      41.840  33.484  29.752  1.00  0.00    -0.034 C 
ATOM     90  C   UNL A   1      44.080  28.981  29.667  1.00  0.00    -0.036 A 
ATOM     91  N   UNL A   1      45.262  30.726  28.923  1.00  0.00    -0.354 N 
ATOM     92  C   UNL A   1      43.529  34.694  28.805  1.00  0.00     0.074 A 
ATOM     93  C   UNL A   1      42.158  34.672  29.264  1.00  0.00    -0.034 C 
ATOM     94  H   UNL A   1      40.971  33.186  30.223  1.00  0.00     0.065 H 
ATOM     95  C   UNL A   1      45.286  28.522  29.298  1.00  0.00    -0.036 A 
ATOM     96  H   UNL A   1      43.308  28.405  30.037  1.00  0.00     0.065 H 
ATOM     97  C   UNL A   1      46.086  29.634  28.795  1.00  0.00     0.049 A 
ATOM     98  H   UNL A   1      45.527  31.635  28.653  1.00  0.00     0.167 HD
ATOM     99  C   UNL A   1      44.175  35.808  28.386  1.00  0.00     0.037 A 
ATOM    100  H   UNL A   1      41.514  35.478  29.220  1.00  0.00     0.065 H 
ATOM    101  H   UNL A   1      45.598  27.540  29.360  1.00  0.00     0.065 H 
ATOM    102  C   UNL A   1      47.346  29.547  28.329  1.00  0.00     0.037 A 
ATOM    103  C   UNL A   1      45.549  35.826  27.959  1.00  0.00     0.049 A 
ATOM    104  C   UNL A   1      48.043  30.802  27.872  1.00  0.00     0.074 A 
ATOM    105  C   UNL A   1      46.320  36.908  27.575  1.00  0.00    -0.036 A 
ATOM    106  N   UNL A   1      46.357  34.702  27.855  1.00  0.00    -0.354 N 
ATOM    107  N   UNL A   1      47.601  32.035  27.848  1.00  0.00    -0.248 NA
ATOM    108  C   UNL A   1      49.422  30.650  27.390  1.00  0.00    -0.034 C 
ATOM    109  C   UNL A   1      47.576  36.432  27.183  1.00  0.00    -0.036 A 
ATOM    110  H   UNL A   1      46.021  37.896  27.578  1.00  0.00     0.065 H 
ATOM    111  C   UNL A   1      47.610  35.062  27.389  1.00  0.00     0.049 A 
ATOM    112  H   UNL A   1      46.078  33.784  28.078  1.00  0.00     0.167 HD
ATOM    113  C   UNL A   1      48.658  32.812  27.390  1.00  0.00     0.074 A 
ATOM    114  C   UNL A   1      49.767  31.909  27.159  1.00  0.00    -0.034 C 
ATOM    115  H   UNL A   1      49.978  29.789  27.264  1.00  0.00     0.065 H 
ATOM    116  H   UNL A   1      48.346  37.005  26.805  1.00  0.00     0.065 H 
ATOM    117  C   UNL A   1      48.708  34.151  27.182  1.00  0.00     0.037 A 
ATOM    118  H   UNL A   1      50.706  32.208  26.854  1.00  0.00     0.065 H 
BRANCH  99 119
ATOM    119  C   UNL A   1      43.401  37.096  28.367  1.00  0.00     0.064 A 
ATOM    120  C   UNL A   1      43.467  38.017  29.425  1.00  0.00     0.173 A 
ATOM    121  C   UNL A   1      42.600  37.427  27.263  1.00  0.00     0.173 A 
ATOM    122  F   UNL A   1      44.208  37.748  30.511  1.00  0.00    -0.203 F 
ATOM    123  C   UNL A   1      42.732  39.200  29.394  1.00  0.00     0.198 A 
ATOM    124  C   UNL A   1      41.895  38.627  27.220  1.00  0.00     0.198 A 
ATOM    125  F   UNL A   1      42.502  36.587  26.222  1.00  0.00    -0.203 F 
ATOM    126  F   UNL A   1      42.763  40.034  30.443  1.00  0.00    -0.200 F 
ATOM    127  C   UNL A   1      41.953  39.507  28.289  1.00  0.00     0.200 A 
ATOM    128  F   UNL A   1      41.155  38.930  26.145  1.00  0.00    -0.200 F 
ATOM    129  F   UNL A   1      41.251  40.649  28.259  1.00  0.00    -0.200 F 
ENDBRANCH  99 119
BRANCH 102 130
ATOM    130  C   UNL A   1      48.048  28.237  28.313  1.00  0.00     0.064 A 
ATOM    131  C   UNL A   1      48.811  27.815  29.412  1.00  0.00     0.173 A 
ATOM    132  C   UNL A   1      47.984  27.385  27.200  1.00  0.00     0.173 A 
ATOM    133  F   UNL A   1      48.919  28.600  30.493  1.00  0.00    -0.203 F 
ATOM    134  C   UNL A   1      49.506  26.608  29.385  1.00  0.00     0.198 A 
ATOM    135  C   UNL A   1      48.654  26.163  27.188  1.00  0.00     0.198 A 
ATOM    136  F   UNL A   1      47.262  27.737  26.126  1.00  0.00    -0.203 F 
ATOM    137  F   UNL A   1      50.273  26.256  30.427  1.00  0.00    -0.200 F 
ATOM    138  C   UNL A   1      49.424  25.780  28.276  1.00  0.00     0.200 A 
ATOM    139  F   UNL A   1      48.557  25.360  26.121  1.00  0.00    -0.200 F 
ATOM    140  F   UNL A   1      50.092  24.619  28.252  1.00  0.00    -0.200 F 
ENDBRANCH 102 130
BRANCH 117 141
ATOM    141  C   UNL A   1      50.022  34.730  26.738  1.00  0.00     0.064 A 
ATOM    142  C   UNL A   1      50.251  35.128  25.413  1.00  0.00     0.173 A 
ATOM    143  C   UNL A   1      51.058  34.915  27.666  1.00  0.00     0.173 A 
ATOM    144  F   UNL A   1      49.297  34.963  24.483  1.00  0.00    -0.203 F 
ATOM    145  C   UNL A   1      51.481  35.651  25.026  1.00  0.00     0.198 A 
ATOM    146  C   UNL A   1      52.274  35.474  27.284  1.00  0.00     0.198 A 
ATOM    147  F   UNL A   1      50.889  34.562  28.950  1.00  0.00    -0.203 F 
ATOM    148  F   UNL A   1      51.699  35.965  23.740  1.00  0.00    -0.200 F 
ATOM    149  C   UNL A   1      52.488  35.831  25.962  1.00  0.00     0.200 A 
ATOM    150  F   UNL A   1      53.238  35.664  28.195  1.00  0.00    -0.200 F 
ATOM    151  F   UNL A   1      53.670  36.340  25.588  1.00  0.00    -0.200 F 
ENDBRANCH 117 141
ENDBRANCH  82  85
ENDBRANCH  72  75
ENDBRANCH  68  71
ENDBRANCH  65  68
ENDBRANCH  62  65
ENDBRANCH  59  62
ENDBRANCH  56  59
ENDBRANCH  53  56
ENDBRANCH  51  53
ENDBRANCH  46  49
ENDBRANCH  43  46
ENDBRANCH   1  43
TORSDOF 27
ENDMDL
