MODEL 1
REMARK VINA RESULT:     -13.8      0.000      0.000
REMARK SMILES Cc1c(CC(=O)NCCCCCCNC(=O)c2ccc(-c3c4nc(c(-c5c(F)c(F)c(F)c(F)c5F)c5ccc([nH]5)c(-c5c(F)c(F)c(F)c(F)c5F)c5nc(c(-c6c(F)c(F)c(F)c(F)c6F)c6ccc3[nH]6)C=C5)C=C4)cc2)cc(-c2ccccc2)cc1-c1ccccc1
REMARK SMILES IDX 10 1 9 4 8 7 7 10 5 11 6 12 4 14 3 17 2 18 89 19 80 20 88 21
REMARK SMILES IDX 81 22 1 25 90 29 91 30 95 31 92 32 94 34 93 36 82 40 83 41
REMARK SMILES IDX 87 42 84 43 86 45 85 47 11 51 12 54 13 57 14 60 15 61 16 63
REMARK SMILES IDX 17 64 18 65 79 66 19 67 78 69 20 71 21 74 22 75 72 76 23 77
REMARK SMILES IDX 77 78 71 79 73 80 24 81 76 82 70 84 69 86 25 88 57 91 37 92
REMARK SMILES IDX 56 93 38 94 41 95 55 96 74 97 39 98 40 100 54 102 75 103
REMARK SMILES IDX 42 106 26 108 27 109 35 110 28 111 29 112 33 113 36 114
REMARK SMILES IDX 30 115 31 116 34 117 32 118 58 119 59 120 67 121 60 122
REMARK SMILES IDX 61 123 65 124 68 125 62 126 63 127 66 128 64 129 43 130
REMARK SMILES IDX 44 131 52 132 45 133 46 134 50 135 53 136 47 137 48 138
REMARK SMILES IDX 51 139 49 140
REMARK H PARENT 10 2 10 3 9 5 9 6 8 8 8 9 7 13 4 15 4 16 80 23 88 24 1 26 1 27
REMARK H PARENT 1 28 91 33 95 35 92 37 94 38 93 39 83 44 87 46 84 48 86 49
REMARK H PARENT 85 50 11 52 11 53 12 55 12 56 13 58 13 59 14 62 18 68 79 70
REMARK H PARENT 19 72 78 73 77 83 71 85 73 87 76 89 70 90 38 99 41 101 74 104
REMARK H PARENT 39 105 75 107
REMARK Flexibility Score: inf
ROOT
ATOM      1  C   UNL A   1      33.405  27.106  25.851  1.00  0.00    -0.052 C 
ATOM      2  H   UNL A   1      33.158  26.357  26.575  1.00  0.00     0.027 H 
ATOM      3  H   UNL A   1      32.582  27.716  25.543  1.00  0.00     0.027 H 
ENDROOT
BRANCH   1   4
ATOM      4  C   UNL A   1      33.875  26.389  24.579  1.00  0.00    -0.036 C 
ATOM      5  H   UNL A   1      34.744  26.895  24.214  1.00  0.00     0.028 H 
ATOM      6  H   UNL A   1      34.061  25.373  24.859  1.00  0.00     0.028 H 
BRANCH   4   7
ATOM      7  C   UNL A   1      32.846  26.338  23.449  1.00  0.00     0.017 C 
ATOM      8  H   UNL A   1      31.934  25.932  23.833  1.00  0.00     0.049 H 
ATOM      9  H   UNL A   1      32.714  27.337  23.087  1.00  0.00     0.049 H 
BRANCH   7  10
ATOM     10  N   UNL A   1      33.282  25.525  22.334  1.00  0.00    -0.356 N 
ATOM     11  C   UNL A   1      33.170  24.174  22.164  1.00  0.00     0.224 C 
ATOM     12  O   UNL A   1      33.588  23.684  21.111  1.00  0.00    -0.275 OA
ATOM     13  H   UNL A   1      33.719  26.012  21.598  1.00  0.00     0.163 HD
BRANCH  11  14
ATOM     14  C   UNL A   1      32.509  23.309  23.231  1.00  0.00     0.052 C 
ATOM     15  H   UNL A   1      32.178  23.947  24.024  1.00  0.00     0.042 H 
ATOM     16  H   UNL A   1      31.702  22.793  22.752  1.00  0.00     0.042 H 
BRANCH  14  17
ATOM     17  C   UNL A   1      33.419  22.246  23.821  1.00  0.00    -0.035 A 
ATOM     18  C   UNL A   1      33.102  20.862  23.844  1.00  0.00    -0.040 A 
ATOM     19  C   UNL A   1      34.002  19.956  24.468  1.00  0.00    -0.015 A 
ATOM     20  C   UNL A   1      34.645  22.685  24.360  1.00  0.00    -0.050 A 
ATOM     21  C   UNL A   1      35.206  20.452  25.012  1.00  0.00    -0.046 A 
ATOM     22  C   UNL A   1      35.553  21.807  24.957  1.00  0.00    -0.017 A 
ATOM     23  H   UNL A   1      34.879  23.690  24.314  1.00  0.00     0.063 H 
ATOM     24  H   UNL A   1      35.855  19.791  25.468  1.00  0.00     0.064 H 
BRANCH  18  25
ATOM     25  C   UNL A   1      31.850  20.349  23.164  1.00  0.00    -0.039 C 
ATOM     26  H   UNL A   1      31.157  20.007  23.904  1.00  0.00     0.028 H 
ATOM     27  H   UNL A   1      32.105  19.541  22.512  1.00  0.00     0.028 H 
ATOM     28  H   UNL A   1      31.405  21.138  22.596  1.00  0.00     0.028 H 
ENDBRANCH  18  25
BRANCH  19  29
ATOM     29  C   UNL A   1      33.729  18.511  24.607  1.00  0.00    -0.018 A 
ATOM     30  C   UNL A   1      32.860  18.047  25.612  1.00  0.00    -0.054 A 
ATOM     31  C   UNL A   1      34.320  17.564  23.756  1.00  0.00    -0.054 A 
ATOM     32  C   UNL A   1      32.580  16.686  25.751  1.00  0.00    -0.062 A 
ATOM     33  H   UNL A   1      32.425  18.724  26.258  1.00  0.00     0.063 H 
ATOM     34  C   UNL A   1      34.028  16.204  23.884  1.00  0.00    -0.062 A 
ATOM     35  H   UNL A   1      34.979  17.877  23.026  1.00  0.00     0.063 H 
ATOM     36  C   UNL A   1      33.158  15.766  24.881  1.00  0.00    -0.062 A 
ATOM     37  H   UNL A   1      31.943  16.363  26.496  1.00  0.00     0.062 H 
ATOM     38  H   UNL A   1      34.458  15.522  23.240  1.00  0.00     0.062 H 
ATOM     39  H   UNL A   1      32.943  14.761  24.974  1.00  0.00     0.062 H 
ENDBRANCH  19  29
BRANCH  22  40
ATOM     40  C   UNL A   1      36.833  22.295  25.490  1.00  0.00    -0.018 A 
ATOM     41  C   UNL A   1      37.954  21.454  25.575  1.00  0.00    -0.054 A 
ATOM     42  C   UNL A   1      36.959  23.614  25.959  1.00  0.00    -0.054 A 
ATOM     43  C   UNL A   1      39.158  21.913  26.115  1.00  0.00    -0.062 A 
ATOM     44  H   UNL A   1      37.887  20.482  25.233  1.00  0.00     0.063 H 
ATOM     45  C   UNL A   1      38.161  24.073  26.501  1.00  0.00    -0.062 A 
ATOM     46  H   UNL A   1      36.150  24.253  25.901  1.00  0.00     0.063 H 
ATOM     47  C   UNL A   1      39.261  23.222  26.580  1.00  0.00    -0.062 A 
ATOM     48  H   UNL A   1      39.973  21.281  26.168  1.00  0.00     0.062 H 
ATOM     49  H   UNL A   1      38.235  25.044  26.844  1.00  0.00     0.062 H 
ATOM     50  H   UNL A   1      40.149  23.559  26.983  1.00  0.00     0.062 H 
ENDBRANCH  22  40
ENDBRANCH  14  17
ENDBRANCH  11  14
ENDBRANCH   7  10
ENDBRANCH   4   7
ENDBRANCH   1   4
BRANCH   1  51
ATOM     51  C   UNL A   1      34.406  28.076  26.504  1.00  0.00    -0.052 C 
ATOM     52  H   UNL A   1      34.946  28.561  25.719  1.00  0.00     0.027 H 
ATOM     53  H   UNL A   1      35.008  27.471  27.148  1.00  0.00     0.027 H 
BRANCH  51  54
ATOM     54  C   UNL A   1      33.813  29.165  27.405  1.00  0.00    -0.036 C 
ATOM     55  H   UNL A   1      33.917  28.851  28.423  1.00  0.00     0.028 H 
ATOM     56  H   UNL A   1      32.791  29.284  27.111  1.00  0.00     0.028 H 
BRANCH  54  57
ATOM     57  C   UNL A   1      34.476  30.526  27.255  1.00  0.00     0.018 C 
ATOM     58  H   UNL A   1      33.827  31.156  26.683  1.00  0.00     0.049 H 
ATOM     59  H   UNL A   1      35.419  30.364  26.775  1.00  0.00     0.049 H 
BRANCH  57  60
ATOM     60  N   UNL A   1      34.757  31.188  28.524  1.00  0.00    -0.352 N 
ATOM     61  C   UNL A   1      35.769  30.943  29.435  1.00  0.00     0.251 C 
ATOM     62  H   UNL A   1      34.139  31.915  28.767  1.00  0.00     0.163 HD
ATOM     63  O   UNL A   1      35.830  31.572  30.479  1.00  0.00    -0.269 OA
BRANCH  61  64
ATOM     64  C   UNL A   1      36.852  30.000  29.070  1.00  0.00     0.039 A 
ATOM     65  C   UNL A   1      37.131  28.953  29.957  1.00  0.00    -0.049 A 
ATOM     66  C   UNL A   1      37.698  30.256  27.995  1.00  0.00    -0.049 A 
ATOM     67  C   UNL A   1      38.374  28.329  29.904  1.00  0.00    -0.053 A 
ATOM     68  H   UNL A   1      36.422  28.647  30.642  1.00  0.00     0.063 H 
ATOM     69  C   UNL A   1      38.963  29.702  27.992  1.00  0.00    -0.053 A 
ATOM     70  H   UNL A   1      37.385  30.851  27.211  1.00  0.00     0.063 H 
ATOM     71  C   UNL A   1      39.322  28.791  28.990  1.00  0.00    -0.014 A 
ATOM     72  H   UNL A   1      38.592  27.538  30.530  1.00  0.00     0.063 H 
ATOM     73  H   UNL A   1      39.641  29.960  27.258  1.00  0.00     0.063 H 
BRANCH  71  74
ATOM     74  C   UNL A   1      40.738  28.466  29.095  1.00  0.00     0.031 A 
ATOM     75  C   UNL A   1      41.281  27.247  28.468  1.00  0.00     0.074 A 
ATOM     76  C   UNL A   1      41.559  29.320  29.745  1.00  0.00     0.049 A 
ATOM     77  N   UNL A   1      42.312  26.604  28.903  1.00  0.00    -0.248 NA
ATOM     78  C   UNL A   1      40.664  26.633  27.300  1.00  0.00    -0.034 C 
ATOM     79  C   UNL A   1      43.019  29.294  29.780  1.00  0.00    -0.036 A 
ATOM     80  N   UNL A   1      41.201  30.294  30.693  1.00  0.00    -0.354 N 
ATOM     81  C   UNL A   1      42.648  25.662  27.957  1.00  0.00     0.074 A 
ATOM     82  C   UNL A   1      41.556  25.681  27.008  1.00  0.00    -0.034 C 
ATOM     83  H   UNL A   1      39.779  26.868  26.826  1.00  0.00     0.065 H 
ATOM     84  C   UNL A   1      43.434  29.960  30.870  1.00  0.00    -0.036 A 
ATOM     85  H   UNL A   1      43.630  28.839  29.084  1.00  0.00     0.065 H 
ATOM     86  C   UNL A   1      42.251  30.308  31.638  1.00  0.00     0.049 A 
ATOM     87  H   UNL A   1      40.389  30.851  30.697  1.00  0.00     0.167 HD
ATOM     88  C   UNL A   1      43.876  25.067  28.006  1.00  0.00     0.037 A 
ATOM     89  H   UNL A   1      41.477  25.038  26.204  1.00  0.00     0.065 H 
ATOM     90  H   UNL A   1      44.412  30.182  31.116  1.00  0.00     0.065 H 
ATOM     91  C   UNL A   1      42.039  29.972  32.943  1.00  0.00     0.037 A 
ATOM     92  C   UNL A   1      44.648  25.540  29.151  1.00  0.00     0.049 A 
ATOM     93  C   UNL A   1      42.877  28.810  33.417  1.00  0.00     0.074 A 
ATOM     94  C   UNL A   1      45.603  26.537  29.271  1.00  0.00    -0.036 A 
ATOM     95  N   UNL A   1      44.259  25.207  30.444  1.00  0.00    -0.354 N 
ATOM     96  N   UNL A   1      43.416  27.933  32.618  1.00  0.00    -0.248 NA
ATOM     97  C   UNL A   1      43.125  28.518  34.826  1.00  0.00    -0.034 C 
ATOM     98  C   UNL A   1      45.750  26.842  30.644  1.00  0.00    -0.036 A 
ATOM     99  H   UNL A   1      46.117  26.980  28.494  1.00  0.00     0.065 H 
ATOM    100  C   UNL A   1      44.901  26.017  31.361  1.00  0.00     0.049 A 
ATOM    101  H   UNL A   1      43.617  24.496  30.673  1.00  0.00     0.167 HD
ATOM    102  C   UNL A   1      44.041  26.968  33.365  1.00  0.00     0.074 A 
ATOM    103  C   UNL A   1      43.848  27.388  34.739  1.00  0.00    -0.034 C 
ATOM    104  H   UNL A   1      42.826  29.041  35.664  1.00  0.00     0.065 H 
ATOM    105  H   UNL A   1      46.381  27.555  31.043  1.00  0.00     0.065 H 
ATOM    106  C   UNL A   1      44.653  25.894  32.787  1.00  0.00     0.037 A 
ATOM    107  H   UNL A   1      44.223  26.880  35.556  1.00  0.00     0.065 H 
BRANCH  88 108
ATOM    108  C   UNL A   1      44.489  24.319  26.840  1.00  0.00     0.064 A 
ATOM    109  C   UNL A   1      44.145  22.974  26.576  1.00  0.00     0.173 A 
ATOM    110  C   UNL A   1      45.469  24.852  25.984  1.00  0.00     0.173 A 
ATOM    111  F   UNL A   1      43.137  22.369  27.215  1.00  0.00    -0.203 F 
ATOM    112  C   UNL A   1      44.832  22.192  25.643  1.00  0.00     0.198 A 
ATOM    113  C   UNL A   1      46.195  24.057  25.090  1.00  0.00     0.198 A 
ATOM    114  F   UNL A   1      45.720  26.168  25.953  1.00  0.00    -0.203 F 
ATOM    115  F   UNL A   1      44.471  20.915  25.452  1.00  0.00    -0.200 F 
ATOM    116  C   UNL A   1      45.888  22.721  24.933  1.00  0.00     0.200 A 
ATOM    117  F   UNL A   1      47.199  24.596  24.383  1.00  0.00    -0.200 F 
ATOM    118  F   UNL A   1      46.586  21.957  24.082  1.00  0.00    -0.200 F 
ENDBRANCH  88 108
BRANCH  91 119
ATOM    119  C   UNL A   1      40.660  30.258  33.417  1.00  0.00     0.064 A 
ATOM    120  C   UNL A   1      40.308  31.591  33.701  1.00  0.00     0.173 A 
ATOM    121  C   UNL A   1      39.621  29.334  33.255  1.00  0.00     0.173 A 
ATOM    122  F   UNL A   1      41.267  32.517  33.864  1.00  0.00    -0.203 F 
ATOM    123  C   UNL A   1      38.978  32.003  33.710  1.00  0.00     0.198 A 
ATOM    124  C   UNL A   1      38.288  29.749  33.280  1.00  0.00     0.198 A 
ATOM    125  F   UNL A   1      39.889  28.053  32.968  1.00  0.00    -0.203 F 
ATOM    126  F   UNL A   1      38.681  33.301  33.876  1.00  0.00    -0.200 F 
ATOM    127  C   UNL A   1      37.969  31.086  33.474  1.00  0.00     0.200 A 
ATOM    128  F   UNL A   1      37.311  28.865  33.026  1.00  0.00    -0.200 F 
ATOM    129  F   UNL A   1      36.695  31.493  33.395  1.00  0.00    -0.200 F 
ENDBRANCH  91 119
BRANCH 106 130
ATOM    130  C   UNL A   1      45.170  24.688  33.524  1.00  0.00     0.064 A 
ATOM    131  C   UNL A   1      44.386  23.560  33.813  1.00  0.00     0.173 A 
ATOM    132  C   UNL A   1      46.544  24.578  33.841  1.00  0.00     0.173 A 
ATOM    133  F   UNL A   1      43.096  23.500  33.453  1.00  0.00    -0.203 F 
ATOM    134  C   UNL A   1      44.920  22.431  34.438  1.00  0.00     0.198 A 
ATOM    135  C   UNL A   1      47.085  23.429  34.415  1.00  0.00     0.198 A 
ATOM    136  F   UNL A   1      47.403  25.576  33.582  1.00  0.00    -0.203 F 
ATOM    137  F   UNL A   1      44.122  21.396  34.733  1.00  0.00    -0.200 F 
ATOM    138  C   UNL A   1      46.270  22.361  34.729  1.00  0.00     0.200 A 
ATOM    139  F   UNL A   1      48.404  23.356  34.645  1.00  0.00    -0.200 F 
ATOM    140  F   UNL A   1      46.785  21.260  35.292  1.00  0.00    -0.200 F 
ENDBRANCH 106 130
ENDBRANCH  71  74
ENDBRANCH  61  64
ENDBRANCH  57  60
ENDBRANCH  54  57
ENDBRANCH  51  54
ENDBRANCH   1  51
TORSDOF 17
ENDMDL
MODEL 2
REMARK VINA RESULT:     -13.4      4.092     10.567
REMARK SMILES Cc1c(CC(=O)NCCCCCCNC(=O)c2ccc(-c3c4nc(c(-c5c(F)c(F)c(F)c(F)c5F)c5ccc([nH]5)c(-c5c(F)c(F)c(F)c(F)c5F)c5nc(c(-c6c(F)c(F)c(F)c(F)c6F)c6ccc3[nH]6)C=C5)C=C4)cc2)cc(-c2ccccc2)cc1-c1ccccc1
REMARK SMILES IDX 10 1 9 4 8 7 7 10 5 11 6 12 4 14 3 17 2 18 89 19 80 20 88 21
REMARK SMILES IDX 81 22 1 25 90 29 91 30 95 31 92 32 94 34 93 36 82 40 83 41
REMARK SMILES IDX 87 42 84 43 86 45 85 47 11 51 12 54 13 57 14 60 15 61 16 63
REMARK SMILES IDX 17 64 18 65 79 66 19 67 78 69 20 71 21 74 22 75 72 76 23 77
REMARK SMILES IDX 77 78 71 79 73 80 24 81 76 82 70 84 69 86 25 88 57 91 37 92
REMARK SMILES IDX 56 93 38 94 41 95 55 96 74 97 39 98 40 100 54 102 75 103
REMARK SMILES IDX 42 106 26 108 27 109 35 110 28 111 29 112 33 113 36 114
REMARK SMILES IDX 30 115 31 116 34 117 32 118 58 119 59 120 67 121 60 122
REMARK SMILES IDX 61 123 65 124 68 125 62 126 63 127 66 128 64 129 43 130
REMARK SMILES IDX 44 131 52 132 45 133 46 134 50 135 53 136 47 137 48 138
REMARK SMILES IDX 51 139 49 140
REMARK H PARENT 10 2 10 3 9 5 9 6 8 8 8 9 7 13 4 15 4 16 80 23 88 24 1 26 1 27
REMARK H PARENT 1 28 91 33 95 35 92 37 94 38 93 39 83 44 87 46 84 48 86 49
REMARK H PARENT 85 50 11 52 11 53 12 55 12 56 13 58 13 59 14 62 18 68 79 70
REMARK H PARENT 19 72 78 73 77 83 71 85 73 87 76 89 70 90 38 99 41 101 74 104
REMARK H PARENT 39 105 75 107
REMARK Flexibility Score: inf
ROOT
ATOM      1  C   UNL A   1      35.458  24.096  24.961  1.00  0.00    -0.052 C 
ATOM      2  H   UNL A   1      36.080  24.768  25.515  1.00  0.00     0.027 H 
ATOM      3  H   UNL A   1      34.865  24.561  24.201  1.00  0.00     0.027 H 
ENDROOT
BRANCH   1   4
ATOM      4  C   UNL A   1      34.449  23.480  25.939  1.00  0.00    -0.036 C 
ATOM      5  H   UNL A   1      34.362  22.437  25.714  1.00  0.00     0.028 H 
ATOM      6  H   UNL A   1      34.829  23.671  26.921  1.00  0.00     0.028 H 
BRANCH   4   7
ATOM      7  C   UNL A   1      33.050  24.093  25.896  1.00  0.00     0.017 C 
ATOM      8  H   UNL A   1      32.408  23.528  26.539  1.00  0.00     0.049 H 
ATOM      9  H   UNL A   1      33.133  25.111  26.214  1.00  0.00     0.049 H 
BRANCH   7  10
ATOM     10  N   UNL A   1      32.483  24.096  24.564  1.00  0.00    -0.356 N 
ATOM     11  C   UNL A   1      31.347  24.710  24.118  1.00  0.00     0.224 C 
ATOM     12  O   UNL A   1      31.061  24.606  22.922  1.00  0.00    -0.275 OA
ATOM     13  H   UNL A   1      32.985  23.587  23.888  1.00  0.00     0.163 HD
BRANCH  11  14
ATOM     14  C   UNL A   1      30.484  25.534  25.069  1.00  0.00     0.052 C 
ATOM     15  H   UNL A   1      29.457  25.303  24.875  1.00  0.00     0.042 H 
ATOM     16  H   UNL A   1      30.786  25.274  26.062  1.00  0.00     0.042 H 
BRANCH  14  17
ATOM     17  C   UNL A   1      30.671  27.035  24.933  1.00  0.00    -0.035 A 
ATOM     18  C   UNL A   1      29.845  27.861  24.125  1.00  0.00    -0.040 A 
ATOM     19  C   UNL A   1      30.139  29.248  24.027  1.00  0.00    -0.015 A 
ATOM     20  C   UNL A   1      31.723  27.615  25.669  1.00  0.00    -0.050 A 
ATOM     21  C   UNL A   1      31.218  29.774  24.768  1.00  0.00    -0.046 A 
ATOM     22  C   UNL A   1      32.013  28.981  25.604  1.00  0.00    -0.017 A 
ATOM     23  H   UNL A   1      32.301  27.011  26.276  1.00  0.00     0.063 H 
ATOM     24  H   UNL A   1      31.431  30.781  24.692  1.00  0.00     0.064 H 
BRANCH  18  25
ATOM     25  C   UNL A   1      28.635  27.284  23.421  1.00  0.00    -0.039 C 
ATOM     26  H   UNL A   1      28.954  26.706  22.579  1.00  0.00     0.028 H 
ATOM     27  H   UNL A   1      28.003  28.080  23.090  1.00  0.00     0.028 H 
ATOM     28  H   UNL A   1      28.094  26.658  24.099  1.00  0.00     0.028 H 
ENDBRANCH  18  25
BRANCH  19  29
ATOM     29  C   UNL A   1      29.386  30.175  23.158  1.00  0.00    -0.018 A 
ATOM     30  C   UNL A   1      28.568  31.171  23.723  1.00  0.00    -0.054 A 
ATOM     31  C   UNL A   1      29.456  30.094  21.758  1.00  0.00    -0.054 A 
ATOM     32  C   UNL A   1      27.860  32.065  22.917  1.00  0.00    -0.062 A 
ATOM     33  H   UNL A   1      28.490  31.241  24.750  1.00  0.00     0.063 H 
ATOM     34  C   UNL A   1      28.759  30.997  20.951  1.00  0.00    -0.062 A 
ATOM     35  H   UNL A   1      30.030  29.357  21.319  1.00  0.00     0.063 H 
ATOM     36  C   UNL A   1      27.963  31.981  21.531  1.00  0.00    -0.062 A 
ATOM     37  H   UNL A   1      27.261  32.787  23.349  1.00  0.00     0.062 H 
ATOM     38  H   UNL A   1      28.835  30.935  19.924  1.00  0.00     0.062 H 
ATOM     39  H   UNL A   1      27.449  32.648  20.935  1.00  0.00     0.062 H 
ENDBRANCH  19  29
BRANCH  22  40
ATOM     40  C   UNL A   1      33.104  29.557  26.402  1.00  0.00    -0.018 A 
ATOM     41  C   UNL A   1      34.296  28.847  26.624  1.00  0.00    -0.054 A 
ATOM     42  C   UNL A   1      32.971  30.825  26.992  1.00  0.00    -0.054 A 
ATOM     43  C   UNL A   1      35.316  29.384  27.413  1.00  0.00    -0.062 A 
ATOM     44  H   UNL A   1      34.420  27.915  26.198  1.00  0.00     0.063 H 
ATOM     45  C   UNL A   1      33.989  31.363  27.783  1.00  0.00    -0.062 A 
ATOM     46  H   UNL A   1      32.106  31.369  26.837  1.00  0.00     0.063 H 
ATOM     47  C   UNL A   1      35.161  30.641  27.994  1.00  0.00    -0.062 A 
ATOM     48  H   UNL A   1      36.186  28.850  27.565  1.00  0.00     0.062 H 
ATOM     49  H   UNL A   1      33.872  32.294  28.211  1.00  0.00     0.062 H 
ATOM     50  H   UNL A   1      35.913  31.035  28.581  1.00  0.00     0.062 H 
ENDBRANCH  22  40
ENDBRANCH  14  17
ENDBRANCH  11  14
ENDBRANCH   7  10
ENDBRANCH   4   7
ENDBRANCH   1   4
BRANCH   1  51
ATOM     51  C   UNL A   1      36.379  23.116  24.213  1.00  0.00    -0.052 C 
ATOM     52  H   UNL A   1      36.856  23.657  23.424  1.00  0.00     0.027 H 
ATOM     53  H   UNL A   1      35.740  22.323  23.884  1.00  0.00     0.027 H 
BRANCH  51  54
ATOM     54  C   UNL A   1      37.473  22.439  25.045  1.00  0.00    -0.036 C 
ATOM     55  H   UNL A   1      38.237  22.096  24.377  1.00  0.00     0.028 H 
ATOM     56  H   UNL A   1      37.003  21.641  25.581  1.00  0.00     0.028 H 
BRANCH  54  57
ATOM     57  C   UNL A   1      38.118  23.345  26.083  1.00  0.00     0.018 C 
ATOM     58  H   UNL A   1      37.693  23.120  27.038  1.00  0.00     0.049 H 
ATOM     59  H   UNL A   1      37.930  24.353  25.777  1.00  0.00     0.049 H 
BRANCH  57  60
ATOM     60  N   UNL A   1      39.566  23.196  26.178  1.00  0.00    -0.352 N 
ATOM     61  C   UNL A   1      40.513  24.105  26.615  1.00  0.00     0.251 C 
ATOM     62  H   UNL A   1      39.920  22.324  25.892  1.00  0.00     0.163 HD
ATOM     63  O   UNL A   1      41.701  23.826  26.588  1.00  0.00    -0.269 OA
BRANCH  61  64
ATOM     64  C   UNL A   1      40.061  25.371  27.239  1.00  0.00     0.039 A 
ATOM     65  C   UNL A   1      40.362  26.568  26.577  1.00  0.00    -0.049 A 
ATOM     66  C   UNL A   1      39.540  25.392  28.530  1.00  0.00    -0.049 A 
ATOM     67  C   UNL A   1      40.369  27.761  27.295  1.00  0.00    -0.053 A 
ATOM     68  H   UNL A   1      40.576  26.565  25.567  1.00  0.00     0.063 H 
ATOM     69  C   UNL A   1      39.629  26.557  29.268  1.00  0.00    -0.053 A 
ATOM     70  H   UNL A   1      39.094  24.552  28.929  1.00  0.00     0.063 H 
ATOM     71  C   UNL A   1      40.110  27.723  28.666  1.00  0.00    -0.014 A 
ATOM     72  H   UNL A   1      40.561  28.657  26.822  1.00  0.00     0.063 H 
ATOM     73  H   UNL A   1      39.342  26.566  30.259  1.00  0.00     0.063 H 
BRANCH  71  74
ATOM     74  C   UNL A   1      40.442  28.826  29.558  1.00  0.00     0.031 A 
ATOM     75  C   UNL A   1      39.430  29.836  29.919  1.00  0.00     0.074 A 
ATOM     76  C   UNL A   1      41.685  28.890  30.084  1.00  0.00     0.049 A 
ATOM     77  N   UNL A   1      39.703  31.059  30.228  1.00  0.00    -0.248 NA
ATOM     78  C   UNL A   1      38.004  29.541  29.922  1.00  0.00    -0.034 C 
ATOM     79  C   UNL A   1      42.153  29.773  31.148  1.00  0.00    -0.036 A 
ATOM     80  N   UNL A   1      42.852  28.276  29.597  1.00  0.00    -0.354 N 
ATOM     81  C   UNL A   1      38.549  31.637  30.708  1.00  0.00     0.074 A 
ATOM     82  C   UNL A   1      37.508  30.669  30.441  1.00  0.00    -0.034 C 
ATOM     83  H   UNL A   1      37.509  28.691  29.609  1.00  0.00     0.065 H 
ATOM     84  C   UNL A   1      43.489  29.887  31.057  1.00  0.00    -0.036 A 
ATOM     85  H   UNL A   1      41.557  30.235  31.854  1.00  0.00     0.065 H 
ATOM     86  C   UNL A   1      43.896  29.194  29.846  1.00  0.00     0.049 A 
ATOM     87  H   UNL A   1      42.926  27.391  29.172  1.00  0.00     0.167 HD
ATOM     88  C   UNL A   1      38.623  32.810  31.402  1.00  0.00     0.037 A 
ATOM     89  H   UNL A   1      36.506  30.830  30.628  1.00  0.00     0.065 H 
ATOM     90  H   UNL A   1      44.109  30.375  31.722  1.00  0.00     0.065 H 
ATOM     91  C   UNL A   1      44.610  29.754  28.827  1.00  0.00     0.037 A 
ATOM     92  C   UNL A   1      39.999  33.293  31.481  1.00  0.00     0.049 A 
ATOM     93  C   UNL A   1      44.548  31.262  28.797  1.00  0.00     0.074 A 
ATOM     94  C   UNL A   1      40.970  33.153  32.459  1.00  0.00    -0.036 A 
ATOM     95  N   UNL A   1      40.650  33.744  30.337  1.00  0.00    -0.354 N 
ATOM     96  N   UNL A   1      43.607  31.960  29.367  1.00  0.00    -0.248 NA
ATOM     97  C   UNL A   1      45.510  32.093  28.079  1.00  0.00    -0.034 C 
ATOM     98  C   UNL A   1      42.223  33.471  31.884  1.00  0.00    -0.036 A 
ATOM     99  H   UNL A   1      40.809  32.866  33.436  1.00  0.00     0.065 H 
ATOM    100  C   UNL A   1      42.011  33.825  30.562  1.00  0.00     0.049 A 
ATOM    101  H   UNL A   1      40.205  33.972  29.489  1.00  0.00     0.167 HD
ATOM    102  C   UNL A   1      43.797  33.287  29.086  1.00  0.00     0.074 A 
ATOM    103  C   UNL A   1      45.011  33.322  28.294  1.00  0.00    -0.034 C 
ATOM    104  H   UNL A   1      46.349  31.811  27.548  1.00  0.00     0.065 H 
ATOM    105  H   UNL A   1      43.135  33.444  32.365  1.00  0.00     0.065 H 
ATOM    106  C   UNL A   1      42.929  34.247  29.518  1.00  0.00     0.037 A 
ATOM    107  H   UNL A   1      45.443  34.190  27.937  1.00  0.00     0.065 H 
BRANCH  88 108
ATOM    108  C   UNL A   1      37.505  33.333  32.280  1.00  0.00     0.064 A 
ATOM    109  C   UNL A   1      36.430  34.067  31.731  1.00  0.00     0.173 A 
ATOM    110  C   UNL A   1      37.469  33.199  33.680  1.00  0.00     0.173 A 
ATOM    111  F   UNL A   1      36.251  34.167  30.408  1.00  0.00    -0.203 F 
ATOM    112  C   UNL A   1      35.493  34.734  32.524  1.00  0.00     0.198 A 
ATOM    113  C   UNL A   1      36.566  33.911  34.477  1.00  0.00     0.198 A 
ATOM    114  F   UNL A   1      38.275  32.336  34.314  1.00  0.00    -0.203 F 
ATOM    115  F   UNL A   1      34.506  35.431  31.943  1.00  0.00    -0.200 F 
ATOM    116  C   UNL A   1      35.588  34.695  33.898  1.00  0.00     0.200 A 
ATOM    117  F   UNL A   1      36.654  33.835  35.813  1.00  0.00    -0.200 F 
ATOM    118  F   UNL A   1      34.727  35.382  34.660  1.00  0.00    -0.200 F 
ENDBRANCH  88 108
BRANCH  91 119
ATOM    119  C   UNL A   1      44.700  28.895  27.618  1.00  0.00     0.064 A 
ATOM    120  C   UNL A   1      45.523  27.753  27.663  1.00  0.00     0.173 A 
ATOM    121  C   UNL A   1      43.754  28.972  26.590  1.00  0.00     0.173 A 
ATOM    122  F   UNL A   1      46.446  27.630  28.630  1.00  0.00    -0.203 F 
ATOM    123  C   UNL A   1      45.329  26.687  26.787  1.00  0.00     0.198 A 
ATOM    124  C   UNL A   1      43.574  27.908  25.705  1.00  0.00     0.198 A 
ATOM    125  F   UNL A   1      42.930  30.026  26.502  1.00  0.00    -0.203 F 
ATOM    126  F   UNL A   1      46.058  25.570  26.925  1.00  0.00    -0.200 F 
ATOM    127  C   UNL A   1      44.338  26.755  25.825  1.00  0.00     0.200 A 
ATOM    128  F   UNL A   1      42.596  27.962  24.789  1.00  0.00    -0.200 F 
ATOM    129  F   UNL A   1      44.091  25.698  25.038  1.00  0.00    -0.200 F 
ENDBRANCH  91 119
BRANCH 106 130
ATOM    130  C   UNL A   1      42.937  35.687  29.082  1.00  0.00     0.064 A 
ATOM    131  C   UNL A   1      42.226  36.165  27.970  1.00  0.00     0.173 A 
ATOM    132  C   UNL A   1      43.566  36.672  29.879  1.00  0.00     0.173 A 
ATOM    133  F   UNL A   1      41.493  35.341  27.208  1.00  0.00    -0.203 F 
ATOM    134  C   UNL A   1      42.203  37.521  27.637  1.00  0.00     0.198 A 
ATOM    135  C   UNL A   1      43.496  38.031  29.574  1.00  0.00     0.198 A 
ATOM    136  F   UNL A   1      44.249  36.344  30.986  1.00  0.00    -0.203 F 
ATOM    137  F   UNL A   1      41.545  37.925  26.541  1.00  0.00    -0.200 F 
ATOM    138  C   UNL A   1      42.828  38.454  28.444  1.00  0.00     0.200 A 
ATOM    139  F   UNL A   1      44.065  38.927  30.393  1.00  0.00    -0.200 F 
ATOM    140  F   UNL A   1      42.770  39.758  28.143  1.00  0.00    -0.200 F 
ENDBRANCH 106 130
ENDBRANCH  71  74
ENDBRANCH  61  64
ENDBRANCH  57  60
ENDBRANCH  54  57
ENDBRANCH  51  54
ENDBRANCH   1  51
TORSDOF 17
ENDMDL
MODEL 3
REMARK VINA RESULT:     -13.2      1.978      3.163
REMARK SMILES Cc1c(CC(=O)NCCCCCCNC(=O)c2ccc(-c3c4nc(c(-c5c(F)c(F)c(F)c(F)c5F)c5ccc([nH]5)c(-c5c(F)c(F)c(F)c(F)c5F)c5nc(c(-c6c(F)c(F)c(F)c(F)c6F)c6ccc3[nH]6)C=C5)C=C4)cc2)cc(-c2ccccc2)cc1-c1ccccc1
REMARK SMILES IDX 10 1 9 4 8 7 7 10 5 11 6 12 4 14 3 17 2 18 89 19 80 20 88 21
REMARK SMILES IDX 81 22 1 25 90 29 91 30 95 31 92 32 94 34 93 36 82 40 83 41
REMARK SMILES IDX 87 42 84 43 86 45 85 47 11 51 12 54 13 57 14 60 15 61 16 63
REMARK SMILES IDX 17 64 18 65 79 66 19 67 78 69 20 71 21 74 22 75 72 76 23 77
REMARK SMILES IDX 77 78 71 79 73 80 24 81 76 82 70 84 69 86 25 88 57 91 37 92
REMARK SMILES IDX 56 93 38 94 41 95 55 96 74 97 39 98 40 100 54 102 75 103
REMARK SMILES IDX 42 106 26 108 27 109 35 110 28 111 29 112 33 113 36 114
REMARK SMILES IDX 30 115 31 116 34 117 32 118 58 119 59 120 67 121 60 122
REMARK SMILES IDX 61 123 65 124 68 125 62 126 63 127 66 128 64 129 43 130
REMARK SMILES IDX 44 131 52 132 45 133 46 134 50 135 53 136 47 137 48 138
REMARK SMILES IDX 51 139 49 140
REMARK H PARENT 10 2 10 3 9 5 9 6 8 8 8 9 7 13 4 15 4 16 80 23 88 24 1 26 1 27
REMARK H PARENT 1 28 91 33 95 35 92 37 94 38 93 39 83 44 87 46 84 48 86 49
REMARK H PARENT 85 50 11 52 11 53 12 55 12 56 13 58 13 59 14 62 18 68 79 70
REMARK H PARENT 19 72 78 73 77 83 71 85 73 87 76 89 70 90 38 99 41 101 74 104
REMARK H PARENT 39 105 75 107
REMARK Flexibility Score: inf
ROOT
ATOM      1  C   UNL A   1      30.868  27.720  25.405  1.00  0.00    -0.052 C 
ATOM      2  H   UNL A   1      30.177  28.529  25.290  1.00  0.00     0.027 H 
ATOM      3  H   UNL A   1      31.643  27.688  24.669  1.00  0.00     0.027 H 
ENDROOT
BRANCH   1   4
ATOM      4  C   UNL A   1      30.088  26.411  25.228  1.00  0.00    -0.036 C 
ATOM      5  H   UNL A   1      29.072  26.658  25.000  1.00  0.00     0.028 H 
ATOM      6  H   UNL A   1      30.580  25.872  24.445  1.00  0.00     0.028 H 
BRANCH   4   7
ATOM      7  C   UNL A   1      30.090  25.488  26.447  1.00  0.00     0.017 C 
ATOM      8  H   UNL A   1      31.026  25.592  26.955  1.00  0.00     0.049 H 
ATOM      9  H   UNL A   1      29.268  25.773  27.069  1.00  0.00     0.049 H 
BRANCH   7  10
ATOM     10  N   UNL A   1      29.908  24.096  26.093  1.00  0.00    -0.356 N 
ATOM     11  C   UNL A   1      30.690  23.022  26.412  1.00  0.00     0.224 C 
ATOM     12  O   UNL A   1      30.330  21.906  26.028  1.00  0.00    -0.275 OA
ATOM     13  H   UNL A   1      29.113  23.897  25.549  1.00  0.00     0.163 HD
BRANCH  11  14
ATOM     14  C   UNL A   1      31.948  23.200  27.256  1.00  0.00     0.052 C 
ATOM     15  H   UNL A   1      31.757  23.957  27.988  1.00  0.00     0.042 H 
ATOM     16  H   UNL A   1      32.162  22.247  27.694  1.00  0.00     0.042 H 
BRANCH  14  17
ATOM     17  C   UNL A   1      33.177  23.603  26.461  1.00  0.00    -0.035 A 
ATOM     18  C   UNL A   1      34.424  22.929  26.543  1.00  0.00    -0.040 A 
ATOM     19  C   UNL A   1      35.527  23.421  25.794  1.00  0.00    -0.015 A 
ATOM     20  C   UNL A   1      33.041  24.706  25.594  1.00  0.00    -0.050 A 
ATOM     21  C   UNL A   1      35.342  24.542  24.958  1.00  0.00    -0.046 A 
ATOM     22  C   UNL A   1      34.108  25.189  24.832  1.00  0.00    -0.017 A 
ATOM     23  H   UNL A   1      32.123  25.172  25.520  1.00  0.00     0.063 H 
ATOM     24  H   UNL A   1      36.147  24.898  24.418  1.00  0.00     0.064 H 
BRANCH  18  25
ATOM     25  C   UNL A   1      34.564  21.670  27.373  1.00  0.00    -0.039 C 
ATOM     26  H   UNL A   1      33.724  21.581  28.030  1.00  0.00     0.028 H 
ATOM     27  H   UNL A   1      35.464  21.719  27.947  1.00  0.00     0.028 H 
ATOM     28  H   UNL A   1      34.600  20.819  26.725  1.00  0.00     0.028 H 
ENDBRANCH  18  25
BRANCH  19  29
ATOM     29  C   UNL A   1      36.881  22.834  25.868  1.00  0.00    -0.018 A 
ATOM     30  C   UNL A   1      37.921  23.530  26.511  1.00  0.00    -0.054 A 
ATOM     31  C   UNL A   1      37.174  21.582  25.306  1.00  0.00    -0.054 A 
ATOM     32  C   UNL A   1      39.204  22.986  26.602  1.00  0.00    -0.062 A 
ATOM     33  H   UNL A   1      37.733  24.459  26.920  1.00  0.00     0.063 H 
ATOM     34  C   UNL A   1      38.453  21.030  25.410  1.00  0.00    -0.062 A 
ATOM     35  H   UNL A   1      36.433  21.062  24.808  1.00  0.00     0.063 H 
ATOM     36  C   UNL A   1      39.466  21.732  26.058  1.00  0.00    -0.062 A 
ATOM     37  H   UNL A   1      39.956  23.512  27.074  1.00  0.00     0.062 H 
ATOM     38  H   UNL A   1      38.647  20.100  25.005  1.00  0.00     0.062 H 
ATOM     39  H   UNL A   1      40.411  21.323  26.134  1.00  0.00     0.062 H 
ENDBRANCH  19  29
BRANCH  22  40
ATOM     40  C   UNL A   1      33.926  26.328  23.920  1.00  0.00    -0.018 A 
ATOM     41  C   UNL A   1      34.211  27.641  24.330  1.00  0.00    -0.054 A 
ATOM     42  C   UNL A   1      33.430  26.135  22.620  1.00  0.00    -0.054 A 
ATOM     43  C   UNL A   1      34.003  28.723  23.472  1.00  0.00    -0.062 A 
ATOM     44  H   UNL A   1      34.581  27.808  25.279  1.00  0.00     0.063 H 
ATOM     45  C   UNL A   1      33.219  27.216  21.761  1.00  0.00    -0.062 A 
ATOM     46  H   UNL A   1      33.219  25.178  22.294  1.00  0.00     0.063 H 
ATOM     47  C   UNL A   1      33.504  28.511  22.189  1.00  0.00    -0.062 A 
ATOM     48  H   UNL A   1      34.219  29.682  23.789  1.00  0.00     0.062 H 
ATOM     49  H   UNL A   1      32.851  27.056  20.811  1.00  0.00     0.062 H 
ATOM     50  H   UNL A   1      33.346  29.311  21.556  1.00  0.00     0.062 H 
ENDBRANCH  22  40
ENDBRANCH  14  17
ENDBRANCH  11  14
ENDBRANCH   7  10
ENDBRANCH   4   7
ENDBRANCH   1   4
BRANCH   1  51
ATOM     51  C   UNL A   1      31.592  27.912  26.749  1.00  0.00    -0.052 C 
ATOM     52  H   UNL A   1      32.417  27.232  26.774  1.00  0.00     0.027 H 
ATOM     53  H   UNL A   1      30.850  27.736  27.499  1.00  0.00     0.027 H 
BRANCH  51  54
ATOM     54  C   UNL A   1      32.136  29.315  27.037  1.00  0.00    -0.036 C 
ATOM     55  H   UNL A   1      31.589  29.725  27.861  1.00  0.00     0.028 H 
ATOM     56  H   UNL A   1      32.015  29.882  26.137  1.00  0.00     0.028 H 
BRANCH  54  57
ATOM     57  C   UNL A   1      33.618  29.351  27.382  1.00  0.00     0.018 C 
ATOM     58  H   UNL A   1      34.178  29.289  26.473  1.00  0.00     0.049 H 
ATOM     59  H   UNL A   1      33.806  28.525  28.037  1.00  0.00     0.049 H 
BRANCH  57  60
ATOM     60  N   UNL A   1      34.029  30.556  28.094  1.00  0.00    -0.352 N 
ATOM     61  C   UNL A   1      35.227  30.832  28.730  1.00  0.00     0.251 C 
ATOM     62  H   UNL A   1      33.360  31.277  28.125  1.00  0.00     0.163 HD
ATOM     63  O   UNL A   1      35.387  31.889  29.319  1.00  0.00    -0.269 OA
BRANCH  61  64
ATOM     64  C   UNL A   1      36.358  29.887  28.576  1.00  0.00     0.039 A 
ATOM     65  C   UNL A   1      36.737  29.136  29.695  1.00  0.00    -0.049 A 
ATOM     66  C   UNL A   1      37.147  29.889  27.429  1.00  0.00    -0.049 A 
ATOM     67  C   UNL A   1      38.016  28.591  29.748  1.00  0.00    -0.053 A 
ATOM     68  H   UNL A   1      36.074  28.988  30.473  1.00  0.00     0.063 H 
ATOM     69  C   UNL A   1      38.445  29.425  27.510  1.00  0.00    -0.053 A 
ATOM     70  H   UNL A   1      36.767  30.230  26.532  1.00  0.00     0.063 H 
ATOM     71  C   UNL A   1      38.899  28.840  28.695  1.00  0.00    -0.014 A 
ATOM     72  H   UNL A   1      38.308  28.012  30.551  1.00  0.00     0.063 H 
ATOM     73  H   UNL A   1      39.079  29.511  26.700  1.00  0.00     0.063 H 
BRANCH  71  74
ATOM     74  C   UNL A   1      40.336  28.634  28.811  1.00  0.00     0.031 A 
ATOM     75  C   UNL A   1      40.970  27.418  28.271  1.00  0.00     0.074 A 
ATOM     76  C   UNL A   1      41.091  29.596  29.388  1.00  0.00     0.049 A 
ATOM     77  N   UNL A   1      42.050  26.891  28.743  1.00  0.00    -0.248 NA
ATOM     78  C   UNL A   1      40.399  26.672  27.158  1.00  0.00    -0.034 C 
ATOM     79  C   UNL A   1      42.548  29.686  29.411  1.00  0.00    -0.036 A 
ATOM     80  N   UNL A   1      40.661  30.607  30.264  1.00  0.00    -0.354 N 
ATOM     81  C   UNL A   1      42.455  25.909  27.866  1.00  0.00     0.074 A 
ATOM     82  C   UNL A   1      41.362  25.773  26.929  1.00  0.00    -0.034 C 
ATOM     83  H   UNL A   1      39.496  26.802  26.676  1.00  0.00     0.065 H 
ATOM     84  C   UNL A   1      42.914  30.462  30.444  1.00  0.00    -0.036 A 
ATOM     85  H   UNL A   1      43.190  29.229  28.744  1.00  0.00     0.065 H 
ATOM     86  C   UNL A   1      41.711  30.773  31.195  1.00  0.00     0.049 A 
ATOM     87  H   UNL A   1      39.808  31.098  30.235  1.00  0.00     0.167 HD
ATOM     88  C   UNL A   1      43.726  25.417  27.947  1.00  0.00     0.037 A 
ATOM     89  H   UNL A   1      41.330  25.068  26.176  1.00  0.00     0.065 H 
ATOM     90  H   UNL A   1      43.872  30.777  30.663  1.00  0.00     0.065 H 
ATOM     91  C   UNL A   1      41.530  30.520  32.524  1.00  0.00     0.037 A 
ATOM     92  C   UNL A   1      44.463  26.033  29.047  1.00  0.00     0.049 A 
ATOM     93  C   UNL A   1      42.458  29.465  33.074  1.00  0.00     0.074 A 
ATOM     94  C   UNL A   1      45.338  27.107  29.083  1.00  0.00    -0.036 A 
ATOM     95  N   UNL A   1      44.106  25.768  30.365  1.00  0.00    -0.354 N 
ATOM     96  N   UNL A   1      43.061  28.576  32.339  1.00  0.00    -0.248 NA
ATOM     97  C   UNL A   1      42.734  29.300  34.499  1.00  0.00    -0.034 C 
ATOM     98  C   UNL A   1      45.466  27.525  30.428  1.00  0.00    -0.036 A 
ATOM     99  H   UNL A   1      45.812  27.530  28.271  1.00  0.00     0.065 H 
ATOM    100  C   UNL A   1      44.687  26.693  31.213  1.00  0.00     0.049 A 
ATOM    101  H   UNL A   1      43.523  25.029  30.652  1.00  0.00     0.167 HD
ATOM    102  C   UNL A   1      43.763  27.721  33.148  1.00  0.00     0.074 A 
ATOM    103  C   UNL A   1      43.543  28.227  34.490  1.00  0.00    -0.034 C 
ATOM    104  H   UNL A   1      42.398  29.859  35.299  1.00  0.00     0.065 H 
ATOM    105  H   UNL A   1      46.040  28.313  30.767  1.00  0.00     0.065 H 
ATOM    106  C   UNL A   1      44.454  26.658  32.646  1.00  0.00     0.037 A 
ATOM    107  H   UNL A   1      43.959  27.812  35.339  1.00  0.00     0.065 H 
BRANCH  88 108
ATOM    108  C   UNL A   1      44.391  24.634  26.834  1.00  0.00     0.064 A 
ATOM    109  C   UNL A   1      44.111  23.262  26.641  1.00  0.00     0.173 A 
ATOM    110  C   UNL A   1      45.362  25.162  25.964  1.00  0.00     0.173 A 
ATOM    111  F   UNL A   1      43.119  22.649  27.298  1.00  0.00    -0.203 F 
ATOM    112  C   UNL A   1      44.847  22.462  25.764  1.00  0.00     0.198 A 
ATOM    113  C   UNL A   1      46.137  24.352  25.127  1.00  0.00     0.198 A 
ATOM    114  F   UNL A   1      45.555  26.484  25.864  1.00  0.00    -0.203 F 
ATOM    115  F   UNL A   1      44.546  21.161  25.640  1.00  0.00    -0.200 F 
ATOM    116  C   UNL A   1      45.891  22.997  25.041  1.00  0.00     0.200 A 
ATOM    117  F   UNL A   1      47.129  24.896  24.407  1.00  0.00    -0.200 F 
ATOM    118  F   UNL A   1      46.636  22.219  24.244  1.00  0.00    -0.200 F 
ENDBRANCH  88 108
BRANCH  91 119
ATOM    119  C   UNL A   1      40.135  30.733  32.988  1.00  0.00     0.064 A 
ATOM    120  C   UNL A   1      39.632  32.048  33.031  1.00  0.00     0.173 A 
ATOM    121  C   UNL A   1      39.210  29.684  33.043  1.00  0.00     0.173 A 
ATOM    122  F   UNL A   1      40.477  33.090  32.981  1.00  0.00    -0.203 F 
ATOM    123  C   UNL A   1      38.262  32.300  33.014  1.00  0.00     0.198 A 
ATOM    124  C   UNL A   1      37.838  29.941  33.041  1.00  0.00     0.198 A 
ATOM    125  F   UNL A   1      39.624  28.410  32.990  1.00  0.00    -0.203 F 
ATOM    126  F   UNL A   1      37.817  33.563  32.946  1.00  0.00    -0.200 F 
ATOM    127  C   UNL A   1      37.366  31.246  32.993  1.00  0.00     0.200 A 
ATOM    128  F   UNL A   1      36.969  28.921  32.994  1.00  0.00    -0.200 F 
ATOM    129  F   UNL A   1      36.051  31.484  32.888  1.00  0.00    -0.200 F 
ENDBRANCH  91 119
BRANCH 106 130
ATOM    130  C   UNL A   1      45.067  25.554  33.466  1.00  0.00     0.064 A 
ATOM    131  C   UNL A   1      44.315  24.572  34.130  1.00  0.00     0.173 A 
ATOM    132  C   UNL A   1      46.470  25.372  33.486  1.00  0.00     0.173 A 
ATOM    133  F   UNL A   1      42.976  24.572  34.082  1.00  0.00    -0.203 F 
ATOM    134  C   UNL A   1      44.922  23.523  34.824  1.00  0.00     0.198 A 
ATOM    135  C   UNL A   1      47.070  24.293  34.133  1.00  0.00     0.198 A 
ATOM    136  F   UNL A   1      47.294  26.224  32.859  1.00  0.00    -0.203 F 
ATOM    137  F   UNL A   1      44.163  22.633  35.479  1.00  0.00    -0.200 F 
ATOM    138  C   UNL A   1      46.297  23.377  34.817  1.00  0.00     0.200 A 
ATOM    139  F   UNL A   1      48.400  24.138  34.075  1.00  0.00    -0.200 F 
ATOM    140  F   UNL A   1      46.873  22.347  35.450  1.00  0.00    -0.200 F 
ENDBRANCH 106 130
ENDBRANCH  71  74
ENDBRANCH  61  64
ENDBRANCH  57  60
ENDBRANCH  54  57
ENDBRANCH  51  54
ENDBRANCH   1  51
TORSDOF 17
ENDMDL
MODEL 4
REMARK VINA RESULT:     -12.8      2.843      5.420
REMARK SMILES Cc1c(CC(=O)NCCCCCCNC(=O)c2ccc(-c3c4nc(c(-c5c(F)c(F)c(F)c(F)c5F)c5ccc([nH]5)c(-c5c(F)c(F)c(F)c(F)c5F)c5nc(c(-c6c(F)c(F)c(F)c(F)c6F)c6ccc3[nH]6)C=C5)C=C4)cc2)cc(-c2ccccc2)cc1-c1ccccc1
REMARK SMILES IDX 10 1 9 4 8 7 7 10 5 11 6 12 4 14 3 17 2 18 89 19 80 20 88 21
REMARK SMILES IDX 81 22 1 25 90 29 91 30 95 31 92 32 94 34 93 36 82 40 83 41
REMARK SMILES IDX 87 42 84 43 86 45 85 47 11 51 12 54 13 57 14 60 15 61 16 63
REMARK SMILES IDX 17 64 18 65 79 66 19 67 78 69 20 71 21 74 22 75 72 76 23 77
REMARK SMILES IDX 77 78 71 79 73 80 24 81 76 82 70 84 69 86 25 88 57 91 37 92
REMARK SMILES IDX 56 93 38 94 41 95 55 96 74 97 39 98 40 100 54 102 75 103
REMARK SMILES IDX 42 106 26 108 27 109 35 110 28 111 29 112 33 113 36 114
REMARK SMILES IDX 30 115 31 116 34 117 32 118 58 119 59 120 67 121 60 122
REMARK SMILES IDX 61 123 65 124 68 125 62 126 63 127 66 128 64 129 43 130
REMARK SMILES IDX 44 131 52 132 45 133 46 134 50 135 53 136 47 137 48 138
REMARK SMILES IDX 51 139 49 140
REMARK H PARENT 10 2 10 3 9 5 9 6 8 8 8 9 7 13 4 15 4 16 80 23 88 24 1 26 1 27
REMARK H PARENT 1 28 91 33 95 35 92 37 94 38 93 39 83 44 87 46 84 48 86 49
REMARK H PARENT 85 50 11 52 11 53 12 55 12 56 13 58 13 59 14 62 18 68 79 70
REMARK H PARENT 19 72 78 73 77 83 71 85 73 87 76 89 70 90 38 99 41 101 74 104
REMARK H PARENT 39 105 75 107
REMARK Flexibility Score: inf
ROOT
ATOM      1  C   UNL A   1      34.429  32.860  28.226  1.00  0.00    -0.052 C 
ATOM      2  H   UNL A   1      34.216  32.789  29.272  1.00  0.00     0.027 H 
ATOM      3  H   UNL A   1      33.685  32.430  27.590  1.00  0.00     0.027 H 
ENDROOT
BRANCH   1   4
ATOM      4  C   UNL A   1      35.707  32.056  27.954  1.00  0.00    -0.036 C 
ATOM      5  H   UNL A   1      36.145  32.423  27.050  1.00  0.00     0.028 H 
ATOM      6  H   UNL A   1      36.332  32.187  28.813  1.00  0.00     0.028 H 
BRANCH   4   7
ATOM      7  C   UNL A   1      35.502  30.548  27.804  1.00  0.00     0.017 C 
ATOM      8  H   UNL A   1      35.849  30.250  26.837  1.00  0.00     0.049 H 
ATOM      9  H   UNL A   1      36.050  30.067  28.587  1.00  0.00     0.049 H 
BRANCH   7  10
ATOM     10  N   UNL A   1      34.115  30.158  27.937  1.00  0.00    -0.356 N 
ATOM     11  C   UNL A   1      33.366  29.362  27.117  1.00  0.00     0.224 C 
ATOM     12  O   UNL A   1      32.197  29.133  27.439  1.00  0.00    -0.275 OA
ATOM     13  H   UNL A   1      33.648  30.514  28.727  1.00  0.00     0.163 HD
BRANCH  11  14
ATOM     14  C   UNL A   1      33.976  28.745  25.864  1.00  0.00     0.052 C 
ATOM     15  H   UNL A   1      34.349  29.537  25.247  1.00  0.00     0.042 H 
ATOM     16  H   UNL A   1      34.747  28.079  26.192  1.00  0.00     0.042 H 
BRANCH  14  17
ATOM     17  C   UNL A   1      33.003  27.917  25.042  1.00  0.00    -0.035 A 
ATOM     18  C   UNL A   1      33.098  26.508  24.896  1.00  0.00    -0.040 A 
ATOM     19  C   UNL A   1      32.165  25.835  24.061  1.00  0.00    -0.015 A 
ATOM     20  C   UNL A   1      31.953  28.611  24.409  1.00  0.00    -0.050 A 
ATOM     21  C   UNL A   1      31.145  26.581  23.433  1.00  0.00    -0.046 A 
ATOM     22  C   UNL A   1      31.012  27.963  23.604  1.00  0.00    -0.017 A 
ATOM     23  H   UNL A   1      31.876  29.632  24.545  1.00  0.00     0.063 H 
ATOM     24  H   UNL A   1      30.472  26.089  22.824  1.00  0.00     0.064 H 
BRANCH  18  25
ATOM     25  C   UNL A   1      34.142  25.723  25.662  1.00  0.00    -0.039 C 
ATOM     26  H   UNL A   1      33.900  24.682  25.631  1.00  0.00     0.028 H 
ATOM     27  H   UNL A   1      34.163  26.056  26.678  1.00  0.00     0.028 H 
ATOM     28  H   UNL A   1      35.102  25.879  25.216  1.00  0.00     0.028 H 
ENDBRANCH  18  25
BRANCH  19  29
ATOM     29  C   UNL A   1      32.224  24.384  23.787  1.00  0.00    -0.018 A 
ATOM     30  C   UNL A   1      32.842  23.908  22.617  1.00  0.00    -0.054 A 
ATOM     31  C   UNL A   1      31.669  23.444  24.670  1.00  0.00    -0.054 A 
ATOM     32  C   UNL A   1      32.919  22.540  22.347  1.00  0.00    -0.062 A 
ATOM     33  H   UNL A   1      33.245  24.581  21.946  1.00  0.00     0.063 H 
ATOM     34  C   UNL A   1      31.759  22.075  24.409  1.00  0.00    -0.062 A 
ATOM     35  H   UNL A   1      31.189  23.770  25.524  1.00  0.00     0.063 H 
ATOM     36  C   UNL A   1      32.384  21.624  23.249  1.00  0.00    -0.062 A 
ATOM     37  H   UNL A   1      33.374  22.209  21.482  1.00  0.00     0.062 H 
ATOM     38  H   UNL A   1      31.361  21.396  25.077  1.00  0.00     0.062 H 
ATOM     39  H   UNL A   1      32.450  20.612  23.057  1.00  0.00     0.062 H 
ENDBRANCH  19  29
BRANCH  22  40
ATOM     40  C   UNL A   1      29.915  28.715  22.976  1.00  0.00    -0.018 A 
ATOM     41  C   UNL A   1      30.173  29.783  22.101  1.00  0.00    -0.054 A 
ATOM     42  C   UNL A   1      28.576  28.402  23.261  1.00  0.00    -0.054 A 
ATOM     43  C   UNL A   1      29.127  30.516  21.535  1.00  0.00    -0.062 A 
ATOM     44  H   UNL A   1      31.149  30.029  21.873  1.00  0.00     0.063 H 
ATOM     45  C   UNL A   1      27.529  29.136  22.698  1.00  0.00    -0.062 A 
ATOM     46  H   UNL A   1      28.361  27.617  23.897  1.00  0.00     0.063 H 
ATOM     47  C   UNL A   1      27.806  30.194  21.836  1.00  0.00    -0.062 A 
ATOM     48  H   UNL A   1      29.334  31.298  20.892  1.00  0.00     0.062 H 
ATOM     49  H   UNL A   1      26.551  28.894  22.921  1.00  0.00     0.062 H 
ATOM     50  H   UNL A   1      27.034  30.739  21.421  1.00  0.00     0.062 H 
ENDBRANCH  22  40
ENDBRANCH  14  17
ENDBRANCH  11  14
ENDBRANCH   7  10
ENDBRANCH   4   7
ENDBRANCH   1   4
BRANCH   1  51
ATOM     51  C   UNL A   1      34.465  34.353  27.855  1.00  0.00    -0.052 C 
ATOM     52  H   UNL A   1      33.845  34.489  26.994  1.00  0.00     0.027 H 
ATOM     53  H   UNL A   1      35.498  34.582  27.698  1.00  0.00     0.027 H 
BRANCH  51  54
ATOM     54  C   UNL A   1      33.990  35.335  28.931  1.00  0.00    -0.036 C 
ATOM     55  H   UNL A   1      33.120  35.840  28.564  1.00  0.00     0.028 H 
ATOM     56  H   UNL A   1      34.806  36.001  29.122  1.00  0.00     0.028 H 
BRANCH  54  57
ATOM     57  C   UNL A   1      33.637  34.681  30.260  1.00  0.00     0.018 C 
ATOM     58  H   UNL A   1      33.867  33.639  30.194  1.00  0.00     0.049 H 
ATOM     59  H   UNL A   1      32.596  34.862  30.429  1.00  0.00     0.049 H 
BRANCH  57  60
ATOM     60  N   UNL A   1      34.354  35.239  31.401  1.00  0.00    -0.352 N 
ATOM     61  C   UNL A   1      35.573  34.866  31.937  1.00  0.00     0.251 C 
ATOM     62  H   UNL A   1      33.906  35.990  31.854  1.00  0.00     0.163 HD
ATOM     63  O   UNL A   1      36.010  35.421  32.932  1.00  0.00    -0.269 OA
BRANCH  61  64
ATOM     64  C   UNL A   1      36.405  33.876  31.213  1.00  0.00     0.039 A 
ATOM     65  C   UNL A   1      36.363  32.546  31.649  1.00  0.00    -0.049 A 
ATOM     66  C   UNL A   1      37.346  34.278  30.269  1.00  0.00    -0.049 A 
ATOM     67  C   UNL A   1      37.411  31.689  31.325  1.00  0.00    -0.053 A 
ATOM     68  H   UNL A   1      35.562  32.204  32.205  1.00  0.00     0.063 H 
ATOM     69  C   UNL A   1      38.430  33.460  30.016  1.00  0.00    -0.053 A 
ATOM     70  H   UNL A   1      37.235  35.172  29.767  1.00  0.00     0.063 H 
ATOM     71  C   UNL A   1      38.493  32.193  30.601  1.00  0.00    -0.014 A 
ATOM     72  H   UNL A   1      37.388  30.698  31.613  1.00  0.00     0.063 H 
ATOM     73  H   UNL A   1      39.191  33.784  29.398  1.00  0.00     0.063 H 
BRANCH  71  74
ATOM     74  C   UNL A   1      39.775  31.504  30.525  1.00  0.00     0.031 A 
ATOM     75  C   UNL A   1      39.898  30.217  29.817  1.00  0.00     0.074 A 
ATOM     76  C   UNL A   1      40.863  32.082  31.081  1.00  0.00     0.049 A 
ATOM     77  N   UNL A   1      40.765  29.306  30.111  1.00  0.00    -0.248 NA
ATOM     78  C   UNL A   1      39.010  29.841  28.725  1.00  0.00    -0.034 C 
ATOM     79  C   UNL A   1      42.257  31.673  30.934  1.00  0.00    -0.036 A 
ATOM     80  N   UNL A   1      40.888  33.070  32.080  1.00  0.00    -0.354 N 
ATOM     81  C   UNL A   1      40.726  28.355  29.116  1.00  0.00     0.074 A 
ATOM     82  C   UNL A   1      39.577  28.704  28.311  1.00  0.00    -0.034 C 
ATOM     83  H   UNL A   1      38.169  30.322  28.369  1.00  0.00     0.065 H 
ATOM     84  C   UNL A   1      42.958  32.155  31.974  1.00  0.00    -0.036 A 
ATOM     85  H   UNL A   1      42.640  31.108  30.160  1.00  0.00     0.065 H 
ATOM     86  C   UNL A   1      42.006  32.764  32.888  1.00  0.00     0.049 A 
ATOM     87  H   UNL A   1      40.259  33.818  32.194  1.00  0.00     0.167 HD
ATOM     88  C   UNL A   1      41.750  27.458  29.003  1.00  0.00     0.037 A 
ATOM     89  H   UNL A   1      39.237  28.143  27.514  1.00  0.00     0.065 H 
ATOM     90  H   UNL A   1      43.980  32.102  32.099  1.00  0.00     0.065 H 
ATOM     91  C   UNL A   1      41.865  32.433  34.204  1.00  0.00     0.037 A 
ATOM     92  C   UNL A   1      42.747  27.658  30.051  1.00  0.00     0.049 A 
ATOM     93  C   UNL A   1      42.414  31.071  34.552  1.00  0.00     0.074 A 
ATOM     94  C   UNL A   1      43.940  28.364  30.066  1.00  0.00    -0.036 A 
ATOM     95  N   UNL A   1      42.436  27.377  31.377  1.00  0.00    -0.354 N 
ATOM     96  N   UNL A   1      42.605  30.122  33.680  1.00  0.00    -0.248 NA
ATOM     97  C   UNL A   1      42.738  30.658  35.915  1.00  0.00    -0.034 C 
ATOM     98  C   UNL A   1      44.321  28.555  31.415  1.00  0.00    -0.036 A 
ATOM     99  H   UNL A   1      44.459  28.694  29.238  1.00  0.00     0.065 H 
ATOM    100  C   UNL A   1      43.373  27.947  32.219  1.00  0.00     0.049 A 
ATOM    101  H   UNL A   1      41.660  26.849  31.673  1.00  0.00     0.167 HD
ATOM    102  C   UNL A   1      43.034  28.994  34.328  1.00  0.00     0.074 A 
ATOM    103  C   UNL A   1      43.120  29.384  35.722  1.00  0.00    -0.034 C 
ATOM    104  H   UNL A   1      42.687  31.201  36.792  1.00  0.00     0.065 H 
ATOM    105  H   UNL A   1      45.160  29.058  31.742  1.00  0.00     0.065 H 
ATOM    106  C   UNL A   1      43.267  27.826  33.663  1.00  0.00     0.037 A 
ATOM    107  H   UNL A   1      43.438  28.757  36.479  1.00  0.00     0.065 H 
BRANCH  88 108
ATOM    108  C   UNL A   1      42.003  26.633  27.759  1.00  0.00     0.064 A 
ATOM    109  C   UNL A   1      41.321  25.414  27.542  1.00  0.00     0.173 A 
ATOM    110  C   UNL A   1      42.953  26.956  26.773  1.00  0.00     0.173 A 
ATOM    111  F   UNL A   1      40.297  25.035  28.317  1.00  0.00    -0.203 F 
ATOM    112  C   UNL A   1      41.669  24.529  26.518  1.00  0.00     0.198 A 
ATOM    113  C   UNL A   1      43.341  26.047  25.782  1.00  0.00     0.198 A 
ATOM    114  F   UNL A   1      43.498  28.178  26.711  1.00  0.00    -0.203 F 
ATOM    115  F   UNL A   1      40.997  23.378  26.377  1.00  0.00    -0.200 F 
ATOM    116  C   UNL A   1      42.711  24.825  25.666  1.00  0.00     0.200 A 
ATOM    117  F   UNL A   1      44.336  26.366  24.940  1.00  0.00    -0.200 F 
ATOM    118  F   UNL A   1      43.086  23.953  24.721  1.00  0.00    -0.200 F 
ENDBRANCH  88 108
BRANCH  91 119
ATOM    119  C   UNL A   1      40.676  33.047  34.850  1.00  0.00     0.064 A 
ATOM    120  C   UNL A   1      39.495  32.286  34.948  1.00  0.00     0.173 A 
ATOM    121  C   UNL A   1      40.784  34.183  35.659  1.00  0.00     0.173 A 
ATOM    122  F   UNL A   1      39.342  31.186  34.194  1.00  0.00    -0.203 F 
ATOM    123  C   UNL A   1      38.518  32.586  35.895  1.00  0.00     0.198 A 
ATOM    124  C   UNL A   1      39.795  34.489  36.596  1.00  0.00     0.198 A 
ATOM    125  F   UNL A   1      41.890  34.940  35.624  1.00  0.00    -0.203 F 
ATOM    126  F   UNL A   1      37.456  31.778  36.037  1.00  0.00    -0.200 F 
ATOM    127  C   UNL A   1      38.681  33.672  36.736  1.00  0.00     0.200 A 
ATOM    128  F   UNL A   1      39.965  35.526  37.429  1.00  0.00    -0.200 F 
ATOM    129  F   UNL A   1      37.787  33.912  37.705  1.00  0.00    -0.200 F 
ENDBRANCH  91 119
BRANCH 106 130
ATOM    130  C   UNL A   1      43.528  26.493  34.311  1.00  0.00     0.064 A 
ATOM    131  C   UNL A   1      42.521  25.697  34.881  1.00  0.00     0.173 A 
ATOM    132  C   UNL A   1      44.813  25.905  34.247  1.00  0.00     0.173 A 
ATOM    133  F   UNL A   1      41.242  26.098  34.892  1.00  0.00    -0.203 F 
ATOM    134  C   UNL A   1      42.792  24.434  35.412  1.00  0.00     0.198 A 
ATOM    135  C   UNL A   1      45.068  24.622  34.729  1.00  0.00     0.198 A 
ATOM    136  F   UNL A   1      45.850  26.552  33.696  1.00  0.00    -0.203 F 
ATOM    137  F   UNL A   1      41.805  23.730  35.984  1.00  0.00    -0.200 F 
ATOM    138  C   UNL A   1      44.061  23.893  35.327  1.00  0.00     0.200 A 
ATOM    139  F   UNL A   1      46.292  24.091  34.594  1.00  0.00    -0.200 F 
ATOM    140  F   UNL A   1      44.307  22.665  35.802  1.00  0.00    -0.200 F 
ENDBRANCH 106 130
ENDBRANCH  71  74
ENDBRANCH  61  64
ENDBRANCH  57  60
ENDBRANCH  54  57
ENDBRANCH  51  54
ENDBRANCH   1  51
TORSDOF 17
ENDMDL
MODEL 5
REMARK VINA RESULT:     -12.7      4.140     10.061
REMARK SMILES Cc1c(CC(=O)NCCCCCCNC(=O)c2ccc(-c3c4nc(c(-c5c(F)c(F)c(F)c(F)c5F)c5ccc([nH]5)c(-c5c(F)c(F)c(F)c(F)c5F)c5nc(c(-c6c(F)c(F)c(F)c(F)c6F)c6ccc3[nH]6)C=C5)C=C4)cc2)cc(-c2ccccc2)cc1-c1ccccc1
REMARK SMILES IDX 10 1 9 4 8 7 7 10 5 11 6 12 4 14 3 17 2 18 89 19 80 20 88 21
REMARK SMILES IDX 81 22 1 25 90 29 91 30 95 31 92 32 94 34 93 36 82 40 83 41
REMARK SMILES IDX 87 42 84 43 86 45 85 47 11 51 12 54 13 57 14 60 15 61 16 63
REMARK SMILES IDX 17 64 18 65 79 66 19 67 78 69 20 71 21 74 22 75 72 76 23 77
REMARK SMILES IDX 77 78 71 79 73 80 24 81 76 82 70 84 69 86 25 88 57 91 37 92
REMARK SMILES IDX 56 93 38 94 41 95 55 96 74 97 39 98 40 100 54 102 75 103
REMARK SMILES IDX 42 106 26 108 27 109 35 110 28 111 29 112 33 113 36 114
REMARK SMILES IDX 30 115 31 116 34 117 32 118 58 119 59 120 67 121 60 122
REMARK SMILES IDX 61 123 65 124 68 125 62 126 63 127 66 128 64 129 43 130
REMARK SMILES IDX 44 131 52 132 45 133 46 134 50 135 53 136 47 137 48 138
REMARK SMILES IDX 51 139 49 140
REMARK H PARENT 10 2 10 3 9 5 9 6 8 8 8 9 7 13 4 15 4 16 80 23 88 24 1 26 1 27
REMARK H PARENT 1 28 91 33 95 35 92 37 94 38 93 39 83 44 87 46 84 48 86 49
REMARK H PARENT 85 50 11 52 11 53 12 55 12 56 13 58 13 59 14 62 18 68 79 70
REMARK H PARENT 19 72 78 73 77 83 71 85 73 87 76 89 70 90 38 99 41 101 74 104
REMARK H PARENT 39 105 75 107
REMARK Flexibility Score: inf
ROOT
ATOM      1  C   UNL A   1      43.081  24.326  25.178  1.00  0.00    -0.052 C 
ATOM      2  H   UNL A   1      42.598  24.175  26.121  1.00  0.00     0.027 H 
ATOM      3  H   UNL A   1      42.445  24.709  24.408  1.00  0.00     0.027 H 
ENDROOT
BRANCH   1   4
ATOM      4  C   UNL A   1      43.553  22.958  24.670  1.00  0.00    -0.036 C 
ATOM      5  H   UNL A   1      42.852  22.616  23.937  1.00  0.00     0.028 H 
ATOM      6  H   UNL A   1      44.538  23.106  24.280  1.00  0.00     0.028 H 
BRANCH   4   7
ATOM      7  C   UNL A   1      43.678  21.878  25.746  1.00  0.00     0.017 C 
ATOM      8  H   UNL A   1      44.698  21.557  25.793  1.00  0.00     0.049 H 
ATOM      9  H   UNL A   1      43.354  22.305  26.672  1.00  0.00     0.049 H 
BRANCH   7  10
ATOM     10  N   UNL A   1      42.843  20.727  25.480  1.00  0.00    -0.356 N 
ATOM     11  C   UNL A   1      41.768  20.267  26.187  1.00  0.00     0.224 C 
ATOM     12  O   UNL A   1      41.175  19.272  25.762  1.00  0.00    -0.275 OA
ATOM     13  H   UNL A   1      43.081  20.204  24.681  1.00  0.00     0.163 HD
BRANCH  11  14
ATOM     14  C   UNL A   1      41.295  20.992  27.442  1.00  0.00     0.052 C 
ATOM     15  H   UNL A   1      40.771  20.291  28.058  1.00  0.00     0.042 H 
ATOM     16  H   UNL A   1      42.169  21.388  27.917  1.00  0.00     0.042 H 
BRANCH  14  17
ATOM     17  C   UNL A   1      40.375  22.169  27.169  1.00  0.00    -0.035 A 
ATOM     18  C   UNL A   1      40.625  23.489  27.630  1.00  0.00    -0.040 A 
ATOM     19  C   UNL A   1      39.672  24.508  27.363  1.00  0.00    -0.015 A 
ATOM     20  C   UNL A   1      39.219  21.910  26.404  1.00  0.00    -0.050 A 
ATOM     21  C   UNL A   1      38.521  24.190  26.611  1.00  0.00    -0.046 A 
ATOM     22  C   UNL A   1      38.282  22.905  26.112  1.00  0.00    -0.017 A 
ATOM     23  H   UNL A   1      39.060  20.954  26.049  1.00  0.00     0.063 H 
ATOM     24  H   UNL A   1      37.829  24.932  26.423  1.00  0.00     0.064 H 
BRANCH  18  25
ATOM     25  C   UNL A   1      41.917  23.819  28.348  1.00  0.00    -0.039 C 
ATOM     26  H   UNL A   1      41.718  24.514  29.138  1.00  0.00     0.028 H 
ATOM     27  H   UNL A   1      42.608  24.252  27.657  1.00  0.00     0.028 H 
ATOM     28  H   UNL A   1      42.335  22.924  28.758  1.00  0.00     0.028 H 
ENDBRANCH  18  25
BRANCH  19  29
ATOM     29  C   UNL A   1      39.806  25.892  27.862  1.00  0.00    -0.018 A 
ATOM     30  C   UNL A   1      40.401  26.881  27.058  1.00  0.00    -0.054 A 
ATOM     31  C   UNL A   1      39.353  26.263  29.138  1.00  0.00    -0.054 A 
ATOM     32  C   UNL A   1      40.524  28.197  27.507  1.00  0.00    -0.062 A 
ATOM     33  H   UNL A   1      40.754  26.629  26.121  1.00  0.00     0.063 H 
ATOM     34  C   UNL A   1      39.462  27.583  29.582  1.00  0.00    -0.062 A 
ATOM     35  H   UNL A   1      38.934  25.550  29.756  1.00  0.00     0.063 H 
ATOM     36  C   UNL A   1      40.047  28.549  28.767  1.00  0.00    -0.062 A 
ATOM     37  H   UNL A   1      40.967  28.909  26.905  1.00  0.00     0.062 H 
ATOM     38  H   UNL A   1      39.109  27.842  30.517  1.00  0.00     0.062 H 
ATOM     39  H   UNL A   1      40.126  29.523  29.096  1.00  0.00     0.062 H 
ENDBRANCH  19  29
BRANCH  22  40
ATOM     40  C   UNL A   1      37.099  22.605  25.292  1.00  0.00    -0.018 A 
ATOM     41  C   UNL A   1      36.754  23.408  24.193  1.00  0.00    -0.054 A 
ATOM     42  C   UNL A   1      36.263  21.521  25.607  1.00  0.00    -0.054 A 
ATOM     43  C   UNL A   1      35.609  23.141  23.438  1.00  0.00    -0.062 A 
ATOM     44  H   UNL A   1      37.355  24.208  23.938  1.00  0.00     0.063 H 
ATOM     45  C   UNL A   1      35.116  21.254  24.855  1.00  0.00    -0.062 A 
ATOM     46  H   UNL A   1      36.499  20.912  26.407  1.00  0.00     0.063 H 
ATOM     47  C   UNL A   1      34.789  22.065  23.771  1.00  0.00    -0.062 A 
ATOM     48  H   UNL A   1      35.371  23.740  22.632  1.00  0.00     0.062 H 
ATOM     49  H   UNL A   1      34.512  20.455  25.103  1.00  0.00     0.062 H 
ATOM     50  H   UNL A   1      33.941  21.870  23.216  1.00  0.00     0.062 H 
ENDBRANCH  22  40
ENDBRANCH  14  17
ENDBRANCH  11  14
ENDBRANCH   7  10
ENDBRANCH   4   7
ENDBRANCH   1   4
BRANCH   1  51
ATOM     51  C   UNL A   1      44.167  25.398  25.376  1.00  0.00    -0.052 C 
ATOM     52  H   UNL A   1      44.450  25.756  24.409  1.00  0.00     0.027 H 
ATOM     53  H   UNL A   1      44.952  24.910  25.916  1.00  0.00     0.027 H 
BRANCH  51  54
ATOM     54  C   UNL A   1      43.782  26.611  26.229  1.00  0.00    -0.036 C 
ATOM     55  H   UNL A   1      42.925  26.350  26.816  1.00  0.00     0.028 H 
ATOM     56  H   UNL A   1      43.589  27.416  25.550  1.00  0.00     0.028 H 
BRANCH  54  57
ATOM     57  C   UNL A   1      44.879  27.086  27.171  1.00  0.00     0.018 C 
ATOM     58  H   UNL A   1      44.654  26.733  28.155  1.00  0.00     0.049 H 
ATOM     59  H   UNL A   1      44.900  28.154  27.113  1.00  0.00     0.049 H 
BRANCH  57  60
ATOM     60  N   UNL A   1      46.211  26.617  26.808  1.00  0.00    -0.352 N 
ATOM     61  C   UNL A   1      47.123  25.900  27.562  1.00  0.00     0.251 C 
ATOM     62  H   UNL A   1      46.503  26.842  25.895  1.00  0.00     0.163 HD
ATOM     63  O   UNL A   1      48.223  25.625  27.109  1.00  0.00    -0.269 OA
BRANCH  61  64
ATOM     64  C   UNL A   1      46.703  25.357  28.874  1.00  0.00     0.039 A 
ATOM     65  C   UNL A   1      45.582  24.519  28.904  1.00  0.00    -0.049 A 
ATOM     66  C   UNL A   1      47.268  25.818  30.060  1.00  0.00    -0.049 A 
ATOM     67  C   UNL A   1      44.891  24.346  30.100  1.00  0.00    -0.053 A 
ATOM     68  H   UNL A   1      45.271  24.033  28.047  1.00  0.00     0.063 H 
ATOM     69  C   UNL A   1      46.540  25.722  31.230  1.00  0.00    -0.053 A 
ATOM     70  H   UNL A   1      48.217  26.225  30.065  1.00  0.00     0.063 H 
ATOM     71  C   UNL A   1      45.317  25.045  31.231  1.00  0.00    -0.014 A 
ATOM     72  H   UNL A   1      44.078  23.713  30.151  1.00  0.00     0.063 H 
ATOM     73  H   UNL A   1      46.896  26.148  32.099  1.00  0.00     0.063 H 
BRANCH  71  74
ATOM     74  C   UNL A   1      44.476  25.222  32.407  1.00  0.00     0.031 A 
ATOM     75  C   UNL A   1      43.846  26.523  32.696  1.00  0.00     0.074 A 
ATOM     76  C   UNL A   1      44.248  24.161  33.213  1.00  0.00     0.049 A 
ATOM     77  N   UNL A   1      43.552  26.940  33.881  1.00  0.00    -0.248 NA
ATOM     78  C   UNL A   1      43.527  27.482  31.647  1.00  0.00    -0.034 C 
ATOM     79  C   UNL A   1      43.282  24.067  34.304  1.00  0.00    -0.036 A 
ATOM     80  N   UNL A   1      45.020  22.992  33.324  1.00  0.00    -0.354 N 
ATOM     81  C   UNL A   1      42.793  28.081  33.747  1.00  0.00     0.074 A 
ATOM     82  C   UNL A   1      42.857  28.408  32.340  1.00  0.00    -0.034 C 
ATOM     83  H   UNL A   1      43.757  27.455  30.642  1.00  0.00     0.065 H 
ATOM     84  C   UNL A   1      43.674  23.095  35.143  1.00  0.00    -0.036 A 
ATOM     85  H   UNL A   1      42.437  24.651  34.411  1.00  0.00     0.065 H 
ATOM     86  C   UNL A   1      44.976  22.637  34.691  1.00  0.00     0.049 A 
ATOM     87  H   UNL A   1      45.491  22.518  32.601  1.00  0.00     0.167 HD
ATOM     88  C   UNL A   1      42.081  28.545  34.817  1.00  0.00     0.037 A 
ATOM     89  H   UNL A   1      42.436  29.253  31.923  1.00  0.00     0.065 H 
ATOM     90  H   UNL A   1      43.148  22.741  35.957  1.00  0.00     0.065 H 
ATOM     91  C   UNL A   1      46.105  22.611  35.457  1.00  0.00     0.037 A 
ATOM     92  C   UNL A   1      42.299  27.715  35.998  1.00  0.00     0.049 A 
ATOM     93  C   UNL A   1      46.051  23.530  36.653  1.00  0.00     0.074 A 
ATOM     94  C   UNL A   1      41.579  26.656  36.527  1.00  0.00    -0.036 A 
ATOM     95  N   UNL A   1      43.540  27.704  36.626  1.00  0.00    -0.354 N 
ATOM     96  N   UNL A   1      45.248  24.551  36.746  1.00  0.00    -0.248 NA
ATOM     97  C   UNL A   1      46.933  23.398  37.809  1.00  0.00    -0.034 C 
ATOM     98  C   UNL A   1      42.413  25.970  37.441  1.00  0.00    -0.036 A 
ATOM     99  H   UNL A   1      40.605  26.409  36.293  1.00  0.00     0.065 H 
ATOM    100  C   UNL A   1      43.632  26.624  37.485  1.00  0.00     0.049 A 
ATOM    101  H   UNL A   1      44.251  28.369  36.480  1.00  0.00     0.167 HD
ATOM    102  C   UNL A   1      45.503  25.220  37.914  1.00  0.00     0.074 A 
ATOM    103  C   UNL A   1      46.552  24.450  38.555  1.00  0.00    -0.034 C 
ATOM    104  H   UNL A   1      47.656  22.686  38.003  1.00  0.00     0.065 H 
ATOM    105  H   UNL A   1      42.157  25.129  37.981  1.00  0.00     0.065 H 
ATOM    106  C   UNL A   1      44.839  26.363  38.250  1.00  0.00     0.037 A 
ATOM    107  H   UNL A   1      46.959  24.681  39.475  1.00  0.00     0.065 H 
BRANCH  88 108
ATOM    108  C   UNL A   1      40.945  29.539  34.695  1.00  0.00     0.064 A 
ATOM    109  C   UNL A   1      40.920  30.715  35.479  1.00  0.00     0.173 A 
ATOM    110  C   UNL A   1      39.819  29.360  33.873  1.00  0.00     0.173 A 
ATOM    111  F   UNL A   1      41.975  31.094  36.211  1.00  0.00    -0.203 F 
ATOM    112  C   UNL A   1      39.801  31.550  35.546  1.00  0.00     0.198 A 
ATOM    113  C   UNL A   1      38.677  30.162  33.980  1.00  0.00     0.198 A 
ATOM    114  F   UNL A   1      39.809  28.432  32.906  1.00  0.00    -0.203 F 
ATOM    115  F   UNL A   1      39.832  32.641  36.325  1.00  0.00    -0.200 F 
ATOM    116  C   UNL A   1      38.662  31.248  34.832  1.00  0.00     0.200 A 
ATOM    117  F   UNL A   1      37.589  29.872  33.253  1.00  0.00    -0.200 F 
ATOM    118  F   UNL A   1      37.568  32.014  34.940  1.00  0.00    -0.200 F 
ENDBRANCH  88 108
BRANCH  91 119
ATOM    119  C   UNL A   1      47.341  22.309  34.689  1.00  0.00     0.064 A 
ATOM    120  C   UNL A   1      48.201  23.371  34.350  1.00  0.00     0.173 A 
ATOM    121  C   UNL A   1      47.852  21.009  34.601  1.00  0.00     0.173 A 
ATOM    122  F   UNL A   1      47.759  24.637  34.418  1.00  0.00    -0.203 F 
ATOM    123  C   UNL A   1      49.542  23.149  34.047  1.00  0.00     0.198 A 
ATOM    124  C   UNL A   1      49.193  20.789  34.282  1.00  0.00     0.198 A 
ATOM    125  F   UNL A   1      47.088  19.955  34.925  1.00  0.00    -0.203 F 
ATOM    126  F   UNL A   1      50.360  24.190  33.835  1.00  0.00    -0.200 F 
ATOM    127  C   UNL A   1      50.043  21.859  34.039  1.00  0.00     0.200 A 
ATOM    128  F   UNL A   1      49.686  19.542  34.299  1.00  0.00    -0.200 F 
ATOM    129  F   UNL A   1      51.351  21.648  33.835  1.00  0.00    -0.200 F 
ENDBRANCH  91 119
BRANCH 106 130
ATOM    130  C   UNL A   1      45.198  27.275  39.393  1.00  0.00     0.064 A 
ATOM    131  C   UNL A   1      45.793  28.535  39.222  1.00  0.00     0.173 A 
ATOM    132  C   UNL A   1      44.813  26.951  40.715  1.00  0.00     0.173 A 
ATOM    133  F   UNL A   1      46.093  29.002  38.002  1.00  0.00    -0.203 F 
ATOM    134  C   UNL A   1      46.048  29.382  40.303  1.00  0.00     0.198 A 
ATOM    135  C   UNL A   1      45.020  27.821  41.783  1.00  0.00     0.198 A 
ATOM    136  F   UNL A   1      44.206  25.789  41.000  1.00  0.00    -0.203 F 
ATOM    137  F   UNL A   1      46.657  30.558  40.096  1.00  0.00    -0.200 F 
ATOM    138  C   UNL A   1      45.653  29.030  41.581  1.00  0.00     0.200 A 
ATOM    139  F   UNL A   1      44.587  27.488  43.008  1.00  0.00    -0.200 F 
ATOM    140  F   UNL A   1      45.864  29.862  42.608  1.00  0.00    -0.200 F 
ENDBRANCH 106 130
ENDBRANCH  71  74
ENDBRANCH  61  64
ENDBRANCH  57  60
ENDBRANCH  54  57
ENDBRANCH  51  54
ENDBRANCH   1  51
TORSDOF 17
ENDMDL
MODEL 6
REMARK VINA RESULT:     -12.6      1.071      3.260
REMARK SMILES Cc1c(CC(=O)NCCCCCCNC(=O)c2ccc(-c3c4nc(c(-c5c(F)c(F)c(F)c(F)c5F)c5ccc([nH]5)c(-c5c(F)c(F)c(F)c(F)c5F)c5nc(c(-c6c(F)c(F)c(F)c(F)c6F)c6ccc3[nH]6)C=C5)C=C4)cc2)cc(-c2ccccc2)cc1-c1ccccc1
REMARK SMILES IDX 10 1 9 4 8 7 7 10 5 11 6 12 4 14 3 17 2 18 89 19 80 20 88 21
REMARK SMILES IDX 81 22 1 25 90 29 91 30 95 31 92 32 94 34 93 36 82 40 83 41
REMARK SMILES IDX 87 42 84 43 86 45 85 47 11 51 12 54 13 57 14 60 15 61 16 63
REMARK SMILES IDX 17 64 18 65 79 66 19 67 78 69 20 71 21 74 22 75 72 76 23 77
REMARK SMILES IDX 77 78 71 79 73 80 24 81 76 82 70 84 69 86 25 88 57 91 37 92
REMARK SMILES IDX 56 93 38 94 41 95 55 96 74 97 39 98 40 100 54 102 75 103
REMARK SMILES IDX 42 106 26 108 27 109 35 110 28 111 29 112 33 113 36 114
REMARK SMILES IDX 30 115 31 116 34 117 32 118 58 119 59 120 67 121 60 122
REMARK SMILES IDX 61 123 65 124 68 125 62 126 63 127 66 128 64 129 43 130
REMARK SMILES IDX 44 131 52 132 45 133 46 134 50 135 53 136 47 137 48 138
REMARK SMILES IDX 51 139 49 140
REMARK H PARENT 10 2 10 3 9 5 9 6 8 8 8 9 7 13 4 15 4 16 80 23 88 24 1 26 1 27
REMARK H PARENT 1 28 91 33 95 35 92 37 94 38 93 39 83 44 87 46 84 48 86 49
REMARK H PARENT 85 50 11 52 11 53 12 55 12 56 13 58 13 59 14 62 18 68 79 70
REMARK H PARENT 19 72 78 73 77 83 71 85 73 87 76 89 70 90 38 99 41 101 74 104
REMARK H PARENT 39 105 75 107
REMARK Flexibility Score: inf
ROOT
ATOM      1  C   UNL A   1      32.306  28.001  25.104  1.00  0.00    -0.052 C 
ATOM      2  H   UNL A   1      31.439  27.457  25.414  1.00  0.00     0.027 H 
ATOM      3  H   UNL A   1      32.113  29.003  24.784  1.00  0.00     0.027 H 
ENDROOT
BRANCH   1   4
ATOM      4  C   UNL A   1      32.889  27.290  23.876  1.00  0.00    -0.036 C 
ATOM      5  H   UNL A   1      33.105  28.031  23.134  1.00  0.00     0.028 H 
ATOM      6  H   UNL A   1      33.757  26.765  24.217  1.00  0.00     0.028 H 
BRANCH   4   7
ATOM      7  C   UNL A   1      31.976  26.239  23.244  1.00  0.00     0.017 C 
ATOM      8  H   UNL A   1      31.573  25.623  24.021  1.00  0.00     0.049 H 
ATOM      9  H   UNL A   1      31.206  26.757  22.711  1.00  0.00     0.049 H 
BRANCH   7  10
ATOM     10  N   UNL A   1      32.670  25.393  22.297  1.00  0.00    -0.356 N 
ATOM     11  C   UNL A   1      32.926  24.053  22.372  1.00  0.00     0.224 C 
ATOM     12  O   UNL A   1      33.514  23.520  21.428  1.00  0.00    -0.275 OA
ATOM     13  H   UNL A   1      33.002  25.845  21.489  1.00  0.00     0.163 HD
BRANCH  11  14
ATOM     14  C   UNL A   1      32.458  23.239  23.573  1.00  0.00     0.052 C 
ATOM     15  H   UNL A   1      32.183  23.918  24.354  1.00  0.00     0.042 H 
ATOM     16  H   UNL A   1      31.636  22.641  23.238  1.00  0.00     0.042 H 
BRANCH  14  17
ATOM     17  C   UNL A   1      33.502  22.281  24.119  1.00  0.00    -0.035 A 
ATOM     18  C   UNL A   1      34.768  22.694  24.612  1.00  0.00    -0.040 A 
ATOM     19  C   UNL A   1      35.694  21.710  25.053  1.00  0.00    -0.015 A 
ATOM     20  C   UNL A   1      33.165  20.912  24.134  1.00  0.00    -0.050 A 
ATOM     21  C   UNL A   1      35.314  20.351  25.027  1.00  0.00    -0.046 A 
ATOM     22  C   UNL A   1      34.054  19.933  24.585  1.00  0.00    -0.017 A 
ATOM     23  H   UNL A   1      32.232  20.624  23.800  1.00  0.00     0.063 H 
ATOM     24  H   UNL A   1      35.991  19.639  25.344  1.00  0.00     0.064 H 
BRANCH  18  25
ATOM     25  C   UNL A   1      35.107  24.166  24.721  1.00  0.00    -0.039 C 
ATOM     26  H   UNL A   1      34.287  24.749  24.359  1.00  0.00     0.028 H 
ATOM     27  H   UNL A   1      35.979  24.375  24.138  1.00  0.00     0.028 H 
ATOM     28  H   UNL A   1      35.295  24.413  25.745  1.00  0.00     0.028 H 
ENDBRANCH  18  25
BRANCH  19  29
ATOM     29  C   UNL A   1      37.060  22.033  25.514  1.00  0.00    -0.018 A 
ATOM     30  C   UNL A   1      38.095  21.091  25.378  1.00  0.00    -0.054 A 
ATOM     31  C   UNL A   1      37.367  23.272  26.098  1.00  0.00    -0.054 A 
ATOM     32  C   UNL A   1      39.396  21.383  25.795  1.00  0.00    -0.062 A 
ATOM     33  H   UNL A   1      37.891  20.168  24.963  1.00  0.00     0.063 H 
ATOM     34  C   UNL A   1      38.670  23.571  26.503  1.00  0.00    -0.062 A 
ATOM     35  H   UNL A   1      36.619  23.971  26.231  1.00  0.00     0.063 H 
ATOM     36  C   UNL A   1      39.683  22.627  26.350  1.00  0.00    -0.062 A 
ATOM     37  H   UNL A   1      40.143  20.678  25.691  1.00  0.00     0.062 H 
ATOM     38  H   UNL A   1      38.883  24.493  26.915  1.00  0.00     0.062 H 
ATOM     39  H   UNL A   1      40.646  22.849  26.649  1.00  0.00     0.062 H 
ENDBRANCH  19  29
BRANCH  22  40
ATOM     40  C   UNL A   1      33.662  18.516  24.609  1.00  0.00    -0.018 A 
ATOM     41  C   UNL A   1      32.579  18.073  25.386  1.00  0.00    -0.054 A 
ATOM     42  C   UNL A   1      34.384  17.559  23.875  1.00  0.00    -0.054 A 
ATOM     43  C   UNL A   1      32.232  16.721  25.432  1.00  0.00    -0.062 A 
ATOM     44  H   UNL A   1      32.031  18.758  25.930  1.00  0.00     0.063 H 
ATOM     45  C   UNL A   1      34.040  16.206  23.923  1.00  0.00    -0.062 A 
ATOM     46  H   UNL A   1      35.180  17.861  23.291  1.00  0.00     0.063 H 
ATOM     47  C   UNL A   1      32.965  15.787  24.702  1.00  0.00    -0.062 A 
ATOM     48  H   UNL A   1      31.432  16.413  26.007  1.00  0.00     0.062 H 
ATOM     49  H   UNL A   1      34.583  15.517  23.380  1.00  0.00     0.062 H 
ATOM     50  H   UNL A   1      32.712  14.788  24.741  1.00  0.00     0.062 H 
ENDBRANCH  22  40
ENDBRANCH  14  17
ENDBRANCH  11  14
ENDBRANCH   7  10
ENDBRANCH   4   7
ENDBRANCH   1   4
BRANCH   1  51
ATOM     51  C   UNL A   1      33.234  28.137  26.324  1.00  0.00    -0.052 C 
ATOM     52  H   UNL A   1      34.235  28.239  25.961  1.00  0.00     0.027 H 
ATOM     53  H   UNL A   1      33.062  27.259  26.911  1.00  0.00     0.027 H 
BRANCH  51  54
ATOM     54  C   UNL A   1      32.957  29.315  27.265  1.00  0.00    -0.036 C 
ATOM     55  H   UNL A   1      33.264  29.036  28.252  1.00  0.00     0.028 H 
ATOM     56  H   UNL A   1      31.908  29.520  27.200  1.00  0.00     0.028 H 
BRANCH  54  57
ATOM     57  C   UNL A   1      33.679  30.599  26.885  1.00  0.00     0.018 C 
ATOM     58  H   UNL A   1      33.069  31.137  26.190  1.00  0.00     0.049 H 
ATOM     59  H   UNL A   1      34.623  30.315  26.469  1.00  0.00     0.049 H 
BRANCH  57  60
ATOM     60  N   UNL A   1      33.964  31.473  28.018  1.00  0.00    -0.352 N 
ATOM     61  C   UNL A   1      34.974  31.387  28.959  1.00  0.00     0.251 C 
ATOM     62  H   UNL A   1      33.349  32.234  28.128  1.00  0.00     0.163 HD
ATOM     63  O   UNL A   1      35.039  32.190  29.875  1.00  0.00    -0.269 OA
BRANCH  61  64
ATOM     64  C   UNL A   1      36.053  30.390  28.766  1.00  0.00     0.039 A 
ATOM     65  C   UNL A   1      36.384  29.569  29.851  1.00  0.00    -0.049 A 
ATOM     66  C   UNL A   1      36.848  30.400  27.624  1.00  0.00    -0.049 A 
ATOM     67  C   UNL A   1      37.631  28.953  29.885  1.00  0.00    -0.053 A 
ATOM     68  H   UNL A   1      35.709  29.423  30.619  1.00  0.00     0.063 H 
ATOM     69  C   UNL A   1      38.120  29.863  27.689  1.00  0.00    -0.053 A 
ATOM     70  H   UNL A   1      36.494  30.802  26.742  1.00  0.00     0.063 H 
ATOM     71  C   UNL A   1      38.533  29.201  28.848  1.00  0.00    -0.014 A 
ATOM     72  H   UNL A   1      37.886  28.323  30.662  1.00  0.00     0.063 H 
ATOM     73  H   UNL A   1      38.762  29.951  26.886  1.00  0.00     0.063 H 
BRANCH  71  74
ATOM     74  C   UNL A   1      39.956  28.912  28.960  1.00  0.00     0.031 A 
ATOM     75  C   UNL A   1      40.497  27.606  28.537  1.00  0.00     0.074 A 
ATOM     76  C   UNL A   1      40.785  29.874  29.422  1.00  0.00     0.049 A 
ATOM     77  N   UNL A   1      41.551  27.059  29.042  1.00  0.00    -0.248 NA
ATOM     78  C   UNL A   1      39.852  26.792  27.516  1.00  0.00    -0.034 C 
ATOM     79  C   UNL A   1      42.245  29.867  29.411  1.00  0.00    -0.036 A 
ATOM     80  N   UNL A   1      40.443  30.995  30.196  1.00  0.00    -0.354 N 
ATOM     81  C   UNL A   1      41.869  25.968  28.264  1.00  0.00     0.074 A 
ATOM     82  C   UNL A   1      40.748  25.811  27.365  1.00  0.00    -0.034 C 
ATOM     83  H   UNL A   1      38.948  26.932  27.039  1.00  0.00     0.065 H 
ATOM     84  C   UNL A   1      42.686  30.718  30.352  1.00  0.00    -0.036 A 
ATOM     85  H   UNL A   1      42.840  29.303  28.784  1.00  0.00     0.065 H 
ATOM     86  C   UNL A   1      41.523  31.184  31.088  1.00  0.00     0.049 A 
ATOM     87  H   UNL A   1      39.624  31.537  30.131  1.00  0.00     0.167 HD
ATOM     88  C   UNL A   1      43.107  25.402  28.374  1.00  0.00     0.037 A 
ATOM     89  H   UNL A   1      40.652  25.037  26.689  1.00  0.00     0.065 H 
ATOM     90  H   UNL A   1      43.667  30.988  30.522  1.00  0.00     0.065 H 
ATOM     91  C   UNL A   1      41.358  31.080  32.438  1.00  0.00     0.037 A 
ATOM     92  C   UNL A   1      43.909  26.076  29.392  1.00  0.00     0.049 A 
ATOM     93  C   UNL A   1      42.228  30.026  33.078  1.00  0.00     0.074 A 
ATOM     94  C   UNL A   1      44.852  27.087  29.303  1.00  0.00    -0.036 A 
ATOM     95  N   UNL A   1      43.567  25.971  30.735  1.00  0.00    -0.354 N 
ATOM     96  N   UNL A   1      42.755  29.028  32.428  1.00  0.00    -0.248 NA
ATOM     97  C   UNL A   1      42.527  29.988  34.507  1.00  0.00    -0.034 C 
ATOM     98  C   UNL A   1      45.039  27.630  30.595  1.00  0.00    -0.036 A 
ATOM     99  H   UNL A   1      45.334  27.392  28.443  1.00  0.00     0.065 H 
ATOM    100  C   UNL A   1      44.227  26.935  31.474  1.00  0.00     0.049 A 
ATOM    101  H   UNL A   1      42.944  25.305  31.108  1.00  0.00     0.167 HD
ATOM    102  C   UNL A   1      43.418  28.215  33.309  1.00  0.00     0.074 A 
ATOM    103  C   UNL A   1      43.263  28.868  34.595  1.00  0.00    -0.034 C 
ATOM    104  H   UNL A   1      42.247  30.647  35.251  1.00  0.00     0.065 H 
ATOM    105  H   UNL A   1      45.672  28.407  30.841  1.00  0.00     0.065 H 
ATOM    106  C   UNL A   1      44.026  27.062  32.907  1.00  0.00     0.037 A 
ATOM    107  H   UNL A   1      43.671  28.513  35.475  1.00  0.00     0.065 H 
BRANCH  88 108
ATOM    108  C   UNL A   1      43.693  24.468  27.336  1.00  0.00     0.064 A 
ATOM    109  C   UNL A   1      44.567  24.948  26.334  1.00  0.00     0.173 A 
ATOM    110  C   UNL A   1      43.382  23.100  27.235  1.00  0.00     0.173 A 
ATOM    111  F   UNL A   1      45.063  26.191  26.372  1.00  0.00    -0.203 F 
ATOM    112  C   UNL A   1      44.966  24.167  25.247  1.00  0.00     0.198 A 
ATOM    113  C   UNL A   1      43.733  22.333  26.118  1.00  0.00     0.198 A 
ATOM    114  F   UNL A   1      42.770  22.454  28.236  1.00  0.00    -0.203 F 
ATOM    115  F   UNL A   1      45.782  24.686  24.319  1.00  0.00    -0.200 F 
ATOM    116  C   UNL A   1      44.511  22.873  25.114  1.00  0.00     0.200 A 
ATOM    117  F   UNL A   1      43.308  21.065  26.022  1.00  0.00    -0.200 F 
ATOM    118  F   UNL A   1      44.844  22.141  24.043  1.00  0.00    -0.200 F 
ENDBRANCH  88 108
BRANCH  91 119
ATOM    119  C   UNL A   1      39.991  31.432  32.902  1.00  0.00     0.064 A 
ATOM    120  C   UNL A   1      39.622  32.791  32.942  1.00  0.00     0.173 A 
ATOM    121  C   UNL A   1      38.966  30.481  32.958  1.00  0.00     0.173 A 
ATOM    122  F   UNL A   1      40.568  33.743  32.890  1.00  0.00    -0.203 F 
ATOM    123  C   UNL A   1      38.285  33.179  32.924  1.00  0.00     0.198 A 
ATOM    124  C   UNL A   1      37.627  30.874  32.955  1.00  0.00     0.198 A 
ATOM    125  F   UNL A   1      39.251  29.172  32.908  1.00  0.00    -0.203 F 
ATOM    126  F   UNL A   1      37.968  34.480  32.853  1.00  0.00    -0.200 F 
ATOM    127  C   UNL A   1      37.288  32.220  32.905  1.00  0.00     0.200 A 
ATOM    128  F   UNL A   1      36.660  29.946  32.910  1.00  0.00    -0.200 F 
ATOM    129  F   UNL A   1      36.003  32.588  32.799  1.00  0.00    -0.200 F 
ENDBRANCH  91 119
BRANCH 106 130
ATOM    130  C   UNL A   1      44.585  26.008  33.825  1.00  0.00     0.064 A 
ATOM    131  C   UNL A   1      43.789  25.088  34.525  1.00  0.00     0.173 A 
ATOM    132  C   UNL A   1      45.982  25.805  33.915  1.00  0.00     0.173 A 
ATOM    133  F   UNL A   1      42.453  25.106  34.423  1.00  0.00    -0.203 F 
ATOM    134  C   UNL A   1      44.348  24.080  35.314  1.00  0.00     0.198 A 
ATOM    135  C   UNL A   1      46.536  24.764  34.660  1.00  0.00     0.198 A 
ATOM    136  F   UNL A   1      46.847  26.598  33.264  1.00  0.00    -0.203 F 
ATOM    137  F   UNL A   1      43.547  23.251  35.998  1.00  0.00    -0.200 F 
ATOM    138  C   UNL A   1      45.719  23.912  35.373  1.00  0.00     0.200 A 
ATOM    139  F   UNL A   1      47.864  24.584  34.666  1.00  0.00    -0.200 F 
ATOM    140  F   UNL A   1      46.249  22.919  36.099  1.00  0.00    -0.200 F 
ENDBRANCH 106 130
ENDBRANCH  71  74
ENDBRANCH  61  64
ENDBRANCH  57  60
ENDBRANCH  54  57
ENDBRANCH  51  54
ENDBRANCH   1  51
TORSDOF 17
ENDMDL
MODEL 7
REMARK VINA RESULT:     -12.5      3.688      9.735
REMARK SMILES Cc1c(CC(=O)NCCCCCCNC(=O)c2ccc(-c3c4nc(c(-c5c(F)c(F)c(F)c(F)c5F)c5ccc([nH]5)c(-c5c(F)c(F)c(F)c(F)c5F)c5nc(c(-c6c(F)c(F)c(F)c(F)c6F)c6ccc3[nH]6)C=C5)C=C4)cc2)cc(-c2ccccc2)cc1-c1ccccc1
REMARK SMILES IDX 10 1 9 4 8 7 7 10 5 11 6 12 4 14 3 17 2 18 89 19 80 20 88 21
REMARK SMILES IDX 81 22 1 25 90 29 91 30 95 31 92 32 94 34 93 36 82 40 83 41
REMARK SMILES IDX 87 42 84 43 86 45 85 47 11 51 12 54 13 57 14 60 15 61 16 63
REMARK SMILES IDX 17 64 18 65 79 66 19 67 78 69 20 71 21 74 22 75 72 76 23 77
REMARK SMILES IDX 77 78 71 79 73 80 24 81 76 82 70 84 69 86 25 88 57 91 37 92
REMARK SMILES IDX 56 93 38 94 41 95 55 96 74 97 39 98 40 100 54 102 75 103
REMARK SMILES IDX 42 106 26 108 27 109 35 110 28 111 29 112 33 113 36 114
REMARK SMILES IDX 30 115 31 116 34 117 32 118 58 119 59 120 67 121 60 122
REMARK SMILES IDX 61 123 65 124 68 125 62 126 63 127 66 128 64 129 43 130
REMARK SMILES IDX 44 131 52 132 45 133 46 134 50 135 53 136 47 137 48 138
REMARK SMILES IDX 51 139 49 140
REMARK H PARENT 10 2 10 3 9 5 9 6 8 8 8 9 7 13 4 15 4 16 80 23 88 24 1 26 1 27
REMARK H PARENT 1 28 91 33 95 35 92 37 94 38 93 39 83 44 87 46 84 48 86 49
REMARK H PARENT 85 50 11 52 11 53 12 55 12 56 13 58 13 59 14 62 18 68 79 70
REMARK H PARENT 19 72 78 73 77 83 71 85 73 87 76 89 70 90 38 99 41 101 74 104
REMARK H PARENT 39 105 75 107
REMARK Flexibility Score: inf
ROOT
ATOM      1  C   UNL A   1      41.412  19.537  26.099  1.00  0.00    -0.052 C 
ATOM      2  H   UNL A   1      41.456  19.741  25.049  1.00  0.00     0.027 H 
ATOM      3  H   UNL A   1      40.712  18.777  26.376  1.00  0.00     0.027 H 
ENDROOT
BRANCH   1   4
ATOM      4  C   UNL A   1      40.928  20.811  26.803  1.00  0.00    -0.036 C 
ATOM      5  H   UNL A   1      40.701  20.564  27.819  1.00  0.00     0.028 H 
ATOM      6  H   UNL A   1      41.718  21.526  26.706  1.00  0.00     0.028 H 
BRANCH   4   7
ATOM      7  C   UNL A   1      39.688  21.459  26.185  1.00  0.00     0.017 C 
ATOM      8  H   UNL A   1      39.902  21.705  25.166  1.00  0.00     0.049 H 
ATOM      9  H   UNL A   1      38.884  20.756  26.262  1.00  0.00     0.049 H 
BRANCH   7  10
ATOM     10  N   UNL A   1      39.284  22.663  26.877  1.00  0.00    -0.356 N 
ATOM     11  C   UNL A   1      38.422  23.640  26.465  1.00  0.00     0.224 C 
ATOM     12  O   UNL A   1      38.195  24.577  27.235  1.00  0.00    -0.275 OA
ATOM     13  H   UNL A   1      39.684  22.797  27.766  1.00  0.00     0.163 HD
BRANCH  11  14
ATOM     14  C   UNL A   1      37.733  23.546  25.108  1.00  0.00     0.052 C 
ATOM     15  H   UNL A   1      37.886  24.470  24.589  1.00  0.00     0.042 H 
ATOM     16  H   UNL A   1      38.166  22.710  24.600  1.00  0.00     0.042 H 
BRANCH  14  17
ATOM     17  C   UNL A   1      36.239  23.285  25.188  1.00  0.00    -0.035 A 
ATOM     18  C   UNL A   1      35.654  22.002  25.016  1.00  0.00    -0.040 A 
ATOM     19  C   UNL A   1      34.239  21.876  25.058  1.00  0.00    -0.015 A 
ATOM     20  C   UNL A   1      35.412  24.393  25.457  1.00  0.00    -0.050 A 
ATOM     21  C   UNL A   1      33.456  23.022  25.310  1.00  0.00    -0.046 A 
ATOM     22  C   UNL A   1      34.020  24.284  25.526  1.00  0.00    -0.017 A 
ATOM     23  H   UNL A   1      35.848  25.317  25.609  1.00  0.00     0.063 H 
ATOM     24  H   UNL A   1      32.428  22.927  25.336  1.00  0.00     0.064 H 
BRANCH  18  25
ATOM     25  C   UNL A   1      36.526  20.776  24.846  1.00  0.00    -0.039 C 
ATOM     26  H   UNL A   1      36.073  20.110  24.142  1.00  0.00     0.028 H 
ATOM     27  H   UNL A   1      36.633  20.282  25.789  1.00  0.00     0.028 H 
ATOM     28  H   UNL A   1      37.490  21.072  24.487  1.00  0.00     0.028 H 
ENDBRANCH  18  25
BRANCH  19  29
ATOM     29  C   UNL A   1      33.533  20.600  24.819  1.00  0.00    -0.018 A 
ATOM     30  C   UNL A   1      32.991  20.316  23.552  1.00  0.00    -0.054 A 
ATOM     31  C   UNL A   1      33.379  19.642  25.833  1.00  0.00    -0.054 A 
ATOM     32  C   UNL A   1      32.333  19.110  23.304  1.00  0.00    -0.062 A 
ATOM     33  H   UNL A   1      33.081  21.011  22.794  1.00  0.00     0.063 H 
ATOM     34  C   UNL A   1      32.733  18.429  25.582  1.00  0.00    -0.062 A 
ATOM     35  H   UNL A   1      33.747  19.837  26.778  1.00  0.00     0.063 H 
ATOM     36  C   UNL A   1      32.211  18.164  24.318  1.00  0.00    -0.062 A 
ATOM     37  H   UNL A   1      31.937  18.920  22.369  1.00  0.00     0.062 H 
ATOM     38  H   UNL A   1      32.642  17.728  26.334  1.00  0.00     0.062 H 
ATOM     39  H   UNL A   1      31.735  17.267  24.133  1.00  0.00     0.062 H 
ENDBRANCH  19  29
BRANCH  22  40
ATOM     40  C   UNL A   1      33.188  25.457  25.831  1.00  0.00    -0.018 A 
ATOM     41  C   UNL A   1      33.761  26.727  26.016  1.00  0.00    -0.054 A 
ATOM     42  C   UNL A   1      31.797  25.332  25.979  1.00  0.00    -0.054 A 
ATOM     43  C   UNL A   1      32.970  27.831  26.341  1.00  0.00    -0.062 A 
ATOM     44  H   UNL A   1      34.780  26.845  25.908  1.00  0.00     0.063 H 
ATOM     45  C   UNL A   1      31.005  26.435  26.307  1.00  0.00    -0.062 A 
ATOM     46  H   UNL A   1      31.352  24.410  25.842  1.00  0.00     0.063 H 
ATOM     47  C   UNL A   1      31.592  27.685  26.489  1.00  0.00    -0.062 A 
ATOM     48  H   UNL A   1      33.406  28.758  26.471  1.00  0.00     0.062 H 
ATOM     49  H   UNL A   1      29.985  26.324  26.414  1.00  0.00     0.062 H 
ATOM     50  H   UNL A   1      31.009  28.500  26.734  1.00  0.00     0.062 H 
ENDBRANCH  22  40
ENDBRANCH  14  17
ENDBRANCH  11  14
ENDBRANCH   7  10
ENDBRANCH   4   7
ENDBRANCH   1   4
BRANCH   1  51
ATOM     51  C   UNL A   1      42.788  18.995  26.527  1.00  0.00    -0.052 C 
ATOM     52  H   UNL A   1      42.621  18.135  27.142  1.00  0.00     0.027 H 
ATOM     53  H   UNL A   1      43.270  19.809  27.026  1.00  0.00     0.027 H 
BRANCH  51  54
ATOM     54  C   UNL A   1      43.741  18.585  25.400  1.00  0.00    -0.036 C 
ATOM     55  H   UNL A   1      43.164  18.436  24.510  1.00  0.00     0.028 H 
ATOM     56  H   UNL A   1      44.237  17.694  25.726  1.00  0.00     0.028 H 
BRANCH  54  57
ATOM     57  C   UNL A   1      44.827  19.607  25.100  1.00  0.00     0.018 C 
ATOM     58  H   UNL A   1      45.740  19.084  24.907  1.00  0.00     0.049 H 
ATOM     59  H   UNL A   1      44.895  20.250  25.953  1.00  0.00     0.049 H 
BRANCH  57  60
ATOM     60  N   UNL A   1      44.536  20.458  23.952  1.00  0.00    -0.352 N 
ATOM     61  C   UNL A   1      44.455  21.837  23.881  1.00  0.00     0.251 C 
ATOM     62  H   UNL A   1      44.374  19.983  23.105  1.00  0.00     0.163 HD
ATOM     63  O   UNL A   1      44.155  22.389  22.835  1.00  0.00    -0.269 OA
BRANCH  61  64
ATOM     64  C   UNL A   1      44.865  22.643  25.055  1.00  0.00     0.039 A 
ATOM     65  C   UNL A   1      44.367  22.268  26.309  1.00  0.00    -0.049 A 
ATOM     66  C   UNL A   1      45.552  23.844  24.901  1.00  0.00    -0.049 A 
ATOM     67  C   UNL A   1      44.345  23.203  27.341  1.00  0.00    -0.053 A 
ATOM     68  H   UNL A   1      44.020  21.309  26.467  1.00  0.00     0.063 H 
ATOM     69  C   UNL A   1      45.454  24.802  25.891  1.00  0.00    -0.053 A 
ATOM     70  H   UNL A   1      46.125  24.016  24.060  1.00  0.00     0.063 H 
ATOM     71  C   UNL A   1      44.789  24.502  27.082  1.00  0.00    -0.014 A 
ATOM     72  H   UNL A   1      44.006  22.942  28.279  1.00  0.00     0.063 H 
ATOM     73  H   UNL A   1      45.870  25.736  25.752  1.00  0.00     0.063 H 
BRANCH  71  74
ATOM     74  C   UNL A   1      44.477  25.625  27.955  1.00  0.00     0.031 A 
ATOM     75  C   UNL A   1      43.126  26.215  27.973  1.00  0.00     0.074 A 
ATOM     76  C   UNL A   1      45.436  26.097  28.782  1.00  0.00     0.049 A 
ATOM     77  N   UNL A   1      42.875  27.448  28.262  1.00  0.00    -0.248 NA
ATOM     78  C   UNL A   1      41.938  25.448  27.624  1.00  0.00    -0.034 C 
ATOM     79  C   UNL A   1      45.275  27.056  29.871  1.00  0.00    -0.036 A 
ATOM     80  N   UNL A   1      46.827  25.936  28.657  1.00  0.00    -0.354 N 
ATOM     81  C   UNL A   1      41.511  27.580  28.385  1.00  0.00     0.074 A 
ATOM     82  C   UNL A   1      40.970  26.322  27.920  1.00  0.00    -0.034 C 
ATOM     83  H   UNL A   1      41.863  24.490  27.249  1.00  0.00     0.065 H 
ATOM     84  C   UNL A   1      46.466  27.624  30.124  1.00  0.00    -0.036 A 
ATOM     85  H   UNL A   1      44.393  27.264  30.365  1.00  0.00     0.065 H 
ATOM     86  C   UNL A   1      47.392  27.149  29.110  1.00  0.00     0.049 A 
ATOM     87  H   UNL A   1      47.306  25.143  28.325  1.00  0.00     0.167 HD
ATOM     88  C   UNL A   1      40.994  28.687  28.996  1.00  0.00     0.037 A 
ATOM     89  H   UNL A   1      39.962  26.123  27.829  1.00  0.00     0.065 H 
ATOM     90  H   UNL A   1      46.683  28.275  30.894  1.00  0.00     0.065 H 
ATOM     91  C   UNL A   1      48.118  27.950  28.277  1.00  0.00     0.037 A 
ATOM     92  C   UNL A   1      42.051  29.610  29.399  1.00  0.00     0.049 A 
ATOM     93  C   UNL A   1      47.560  29.344  28.133  1.00  0.00     0.074 A 
ATOM     94  C   UNL A   1      42.714  29.784  30.604  1.00  0.00    -0.036 A 
ATOM     95  N   UNL A   1      42.792  30.290  28.438  1.00  0.00    -0.354 N 
ATOM     96  N   UNL A   1      46.323  29.659  28.391  1.00  0.00    -0.248 NA
ATOM     97  C   UNL A   1      48.339  30.476  27.638  1.00  0.00    -0.034 C 
ATOM     98  C   UNL A   1      43.890  30.529  30.356  1.00  0.00    -0.036 A 
ATOM     99  H   UNL A   1      42.404  29.430  31.522  1.00  0.00     0.065 H 
ATOM    100  C   UNL A   1      43.932  30.828  29.005  1.00  0.00     0.049 A 
ATOM    101  H   UNL A   1      42.540  30.376  27.490  1.00  0.00     0.167 HD
ATOM    102  C   UNL A   1      46.120  30.979  28.084  1.00  0.00     0.074 A 
ATOM    103  C   UNL A   1      47.416  31.452  27.635  1.00  0.00    -0.034 C 
ATOM    104  H   UNL A   1      49.334  30.515  27.364  1.00  0.00     0.065 H 
ATOM    105  H   UNL A   1      44.594  30.804  31.059  1.00  0.00     0.065 H 
ATOM    106  C   UNL A   1      44.897  31.569  28.211  1.00  0.00     0.037 A 
ATOM    107  H   UNL A   1      47.607  32.425  27.346  1.00  0.00     0.065 H 
BRANCH  88 108
ATOM    108  C   UNL A   1      39.575  28.768  29.517  1.00  0.00     0.064 A 
ATOM    109  C   UNL A   1      38.522  29.229  28.694  1.00  0.00     0.173 A 
ATOM    110  C   UNL A   1      39.196  28.467  30.838  1.00  0.00     0.173 A 
ATOM    111  F   UNL A   1      38.693  29.428  27.381  1.00  0.00    -0.203 F 
ATOM    112  C   UNL A   1      37.246  29.508  29.191  1.00  0.00     0.198 A 
ATOM    113  C   UNL A   1      37.937  28.799  31.350  1.00  0.00     0.198 A 
ATOM    114  F   UNL A   1      40.018  27.798  31.658  1.00  0.00    -0.203 F 
ATOM    115  F   UNL A   1      36.295  29.963  28.363  1.00  0.00    -0.200 F 
ATOM    116  C   UNL A   1      36.967  29.337  30.530  1.00  0.00     0.200 A 
ATOM    117  F   UNL A   1      37.672  28.595  32.649  1.00  0.00    -0.200 F 
ATOM    118  F   UNL A   1      35.763  29.661  31.020  1.00  0.00    -0.200 F 
ENDBRANCH  88 108
BRANCH  91 119
ATOM    119  C   UNL A   1      48.813  27.210  27.193  1.00  0.00     0.064 A 
ATOM    120  C   UNL A   1      48.261  27.237  25.897  1.00  0.00     0.173 A 
ATOM    121  C   UNL A   1      50.144  26.796  27.321  1.00  0.00     0.173 A 
ATOM    122  F   UNL A   1      46.989  27.627  25.720  1.00  0.00    -0.203 F 
ATOM    123  C   UNL A   1      49.039  26.972  24.773  1.00  0.00     0.198 A 
ATOM    124  C   UNL A   1      50.916  26.516  26.191  1.00  0.00     0.198 A 
ATOM    125  F   UNL A   1      50.732  26.763  28.525  1.00  0.00    -0.203 F 
ATOM    126  F   UNL A   1      48.511  27.112  23.548  1.00  0.00    -0.200 F 
ATOM    127  C   UNL A   1      50.373  26.637  24.920  1.00  0.00     0.200 A 
ATOM    128  F   UNL A   1      52.216  26.217  26.332  1.00  0.00    -0.200 F 
ATOM    129  F   UNL A   1      51.146  26.467  23.838  1.00  0.00    -0.200 F 
ENDBRANCH  91 119
BRANCH 106 130
ATOM    130  C   UNL A   1      44.533  32.937  27.698  1.00  0.00     0.064 A 
ATOM    131  C   UNL A   1      44.098  33.184  26.387  1.00  0.00     0.173 A 
ATOM    132  C   UNL A   1      44.479  34.041  28.582  1.00  0.00     0.173 A 
ATOM    133  F   UNL A   1      43.993  32.192  25.492  1.00  0.00    -0.203 F 
ATOM    134  C   UNL A   1      43.703  34.456  25.968  1.00  0.00     0.198 A 
ATOM    135  C   UNL A   1      44.033  35.297  28.175  1.00  0.00     0.198 A 
ATOM    136  F   UNL A   1      44.838  33.923  29.869  1.00  0.00    -0.203 F 
ATOM    137  F   UNL A   1      43.336  34.652  24.694  1.00  0.00    -0.200 F 
ATOM    138  C   UNL A   1      43.661  35.509  26.863  1.00  0.00     0.200 A 
ATOM    139  F   UNL A   1      43.951  36.295  29.066  1.00  0.00    -0.200 F 
ATOM    140  F   UNL A   1      43.244  36.719  26.467  1.00  0.00    -0.200 F 
ENDBRANCH 106 130
ENDBRANCH  71  74
ENDBRANCH  61  64
ENDBRANCH  57  60
ENDBRANCH  54  57
ENDBRANCH  51  54
ENDBRANCH   1  51
TORSDOF 17
ENDMDL
MODEL 8
REMARK VINA RESULT:     -12.5      3.961      9.583
REMARK SMILES Cc1c(CC(=O)NCCCCCCNC(=O)c2ccc(-c3c4nc(c(-c5c(F)c(F)c(F)c(F)c5F)c5ccc([nH]5)c(-c5c(F)c(F)c(F)c(F)c5F)c5nc(c(-c6c(F)c(F)c(F)c(F)c6F)c6ccc3[nH]6)C=C5)C=C4)cc2)cc(-c2ccccc2)cc1-c1ccccc1
REMARK SMILES IDX 10 1 9 4 8 7 7 10 5 11 6 12 4 14 3 17 2 18 89 19 80 20 88 21
REMARK SMILES IDX 81 22 1 25 90 29 91 30 95 31 92 32 94 34 93 36 82 40 83 41
REMARK SMILES IDX 87 42 84 43 86 45 85 47 11 51 12 54 13 57 14 60 15 61 16 63
REMARK SMILES IDX 17 64 18 65 79 66 19 67 78 69 20 71 21 74 22 75 72 76 23 77
REMARK SMILES IDX 77 78 71 79 73 80 24 81 76 82 70 84 69 86 25 88 57 91 37 92
REMARK SMILES IDX 56 93 38 94 41 95 55 96 74 97 39 98 40 100 54 102 75 103
REMARK SMILES IDX 42 106 26 108 27 109 35 110 28 111 29 112 33 113 36 114
REMARK SMILES IDX 30 115 31 116 34 117 32 118 58 119 59 120 67 121 60 122
REMARK SMILES IDX 61 123 65 124 68 125 62 126 63 127 66 128 64 129 43 130
REMARK SMILES IDX 44 131 52 132 45 133 46 134 50 135 53 136 47 137 48 138
REMARK SMILES IDX 51 139 49 140
REMARK H PARENT 10 2 10 3 9 5 9 6 8 8 8 9 7 13 4 15 4 16 80 23 88 24 1 26 1 27
REMARK H PARENT 1 28 91 33 95 35 92 37 94 38 93 39 83 44 87 46 84 48 86 49
REMARK H PARENT 85 50 11 52 11 53 12 55 12 56 13 58 13 59 14 62 18 68 79 70
REMARK H PARENT 19 72 78 73 77 83 71 85 73 87 76 89 70 90 38 99 41 101 74 104
REMARK H PARENT 39 105 75 107
REMARK Flexibility Score: inf
ROOT
ATOM      1  C   UNL A   1      41.870  21.460  27.327  1.00  0.00    -0.052 C 
ATOM      2  H   UNL A   1      42.472  20.923  28.031  1.00  0.00     0.027 H 
ATOM      3  H   UNL A   1      41.626  22.459  27.620  1.00  0.00     0.027 H 
ENDROOT
BRANCH   1   4
ATOM      4  C   UNL A   1      40.525  20.731  27.212  1.00  0.00    -0.036 C 
ATOM      5  H   UNL A   1      40.723  19.695  27.032  1.00  0.00     0.028 H 
ATOM      6  H   UNL A   1      40.007  20.911  28.130  1.00  0.00     0.028 H 
BRANCH   4   7
ATOM      7  C   UNL A   1      39.609  21.239  26.098  1.00  0.00     0.017 C 
ATOM      8  H   UNL A   1      40.211  21.520  25.260  1.00  0.00     0.049 H 
ATOM      9  H   UNL A   1      38.931  20.449  25.852  1.00  0.00     0.049 H 
BRANCH   7  10
ATOM     10  N   UNL A   1      38.818  22.382  26.504  1.00  0.00    -0.356 N 
ATOM     11  C   UNL A   1      37.763  22.965  25.862  1.00  0.00     0.224 C 
ATOM     12  O   UNL A   1      37.209  23.924  26.406  1.00  0.00    -0.275 OA
ATOM     13  H   UNL A   1      39.077  22.795  27.358  1.00  0.00     0.163 HD
BRANCH  11  14
ATOM     14  C   UNL A   1      37.262  22.414  24.531  1.00  0.00     0.052 C 
ATOM     15  H   UNL A   1      37.273  23.208  23.813  1.00  0.00     0.042 H 
ATOM     16  H   UNL A   1      37.915  21.608  24.266  1.00  0.00     0.042 H 
BRANCH  14  17
ATOM     17  C   UNL A   1      35.858  21.839  24.586  1.00  0.00    -0.035 A 
ATOM     18  C   UNL A   1      35.579  20.451  24.703  1.00  0.00    -0.040 A 
ATOM     19  C   UNL A   1      34.228  20.013  24.693  1.00  0.00    -0.015 A 
ATOM     20  C   UNL A   1      34.791  22.757  24.525  1.00  0.00    -0.050 A 
ATOM     21  C   UNL A   1      33.197  20.973  24.608  1.00  0.00    -0.046 A 
ATOM     22  C   UNL A   1      33.455  22.347  24.537  1.00  0.00    -0.017 A 
ATOM     23  H   UNL A   1      35.003  23.766  24.468  1.00  0.00     0.063 H 
ATOM     24  H   UNL A   1      32.216  20.651  24.597  1.00  0.00     0.064 H 
BRANCH  18  25
ATOM     25  C   UNL A   1      36.704  19.455  24.893  1.00  0.00    -0.039 C 
ATOM     26  H   UNL A   1      36.341  18.466  24.703  1.00  0.00     0.028 H 
ATOM     27  H   UNL A   1      37.068  19.515  25.896  1.00  0.00     0.028 H 
ATOM     28  H   UNL A   1      37.498  19.680  24.211  1.00  0.00     0.028 H 
ENDBRANCH  18  25
BRANCH  19  29
ATOM     29  C   UNL A   1      33.838  18.588  24.736  1.00  0.00    -0.018 A 
ATOM     30  C   UNL A   1      32.925  18.133  25.704  1.00  0.00    -0.054 A 
ATOM     31  C   UNL A   1      34.360  17.654  23.828  1.00  0.00    -0.054 A 
ATOM     32  C   UNL A   1      32.534  16.793  25.752  1.00  0.00    -0.062 A 
ATOM     33  H   UNL A   1      32.538  18.799  26.391  1.00  0.00     0.063 H 
ATOM     34  C   UNL A   1      33.959  16.316  23.866  1.00  0.00    -0.062 A 
ATOM     35  H   UNL A   1      35.050  17.959  23.124  1.00  0.00     0.063 H 
ATOM     36  C   UNL A   1      33.046  15.887  24.827  1.00  0.00    -0.062 A 
ATOM     37  H   UNL A   1      31.866  16.475  26.472  1.00  0.00     0.062 H 
ATOM     38  H   UNL A   1      34.339  15.645  23.181  1.00  0.00     0.062 H 
ATOM     39  H   UNL A   1      32.750  14.899  24.854  1.00  0.00     0.062 H 
ENDBRANCH  19  29
BRANCH  22  40
ATOM     40  C   UNL A   1      32.365  23.333  24.494  1.00  0.00    -0.018 A 
ATOM     41  C   UNL A   1      31.522  23.437  23.376  1.00  0.00    -0.054 A 
ATOM     42  C   UNL A   1      32.158  24.221  25.563  1.00  0.00    -0.054 A 
ATOM     43  C   UNL A   1      30.510  24.399  23.326  1.00  0.00    -0.062 A 
ATOM     44  H   UNL A   1      31.651  22.793  22.580  1.00  0.00     0.063 H 
ATOM     45  C   UNL A   1      31.149  25.186  25.513  1.00  0.00    -0.062 A 
ATOM     46  H   UNL A   1      32.762  24.160  26.399  1.00  0.00     0.063 H 
ATOM     47  C   UNL A   1      30.326  25.275  24.393  1.00  0.00    -0.062 A 
ATOM     48  H   UNL A   1      29.898  24.461  22.496  1.00  0.00     0.062 H 
ATOM     49  H   UNL A   1      31.013  25.832  26.306  1.00  0.00     0.062 H 
ATOM     50  H   UNL A   1      29.582  25.989  24.354  1.00  0.00     0.062 H 
ENDBRANCH  22  40
ENDBRANCH  14  17
ENDBRANCH  11  14
ENDBRANCH   7  10
ENDBRANCH   4   7
ENDBRANCH   1   4
BRANCH   1  51
ATOM     51  C   UNL A   1      42.686  21.606  26.030  1.00  0.00    -0.052 C 
ATOM     52  H   UNL A   1      42.255  20.955  25.300  1.00  0.00     0.027 H 
ATOM     53  H   UNL A   1      43.693  21.365  26.300  1.00  0.00     0.027 H 
BRANCH  51  54
ATOM     54  C   UNL A   1      42.755  23.011  25.422  1.00  0.00    -0.036 C 
ATOM     55  H   UNL A   1      43.178  23.672  26.150  1.00  0.00     0.028 H 
ATOM     56  H   UNL A   1      41.754  23.278  25.152  1.00  0.00     0.028 H 
BRANCH  54  57
ATOM     57  C   UNL A   1      43.591  23.100  24.153  1.00  0.00     0.018 C 
ATOM     58  H   UNL A   1      44.020  24.079  24.100  1.00  0.00     0.049 H 
ATOM     59  H   UNL A   1      42.935  22.894  23.332  1.00  0.00     0.049 H 
BRANCH  57  60
ATOM     60  N   UNL A   1      44.670  22.121  24.087  1.00  0.00    -0.352 N 
ATOM     61  C   UNL A   1      45.904  22.135  24.712  1.00  0.00     0.251 C 
ATOM     62  H   UNL A   1      44.494  21.338  23.517  1.00  0.00     0.163 HD
ATOM     63  O   UNL A   1      46.712  21.243  24.509  1.00  0.00    -0.269 OA
BRANCH  61  64
ATOM     64  C   UNL A   1      46.183  23.174  25.731  1.00  0.00     0.039 A 
ATOM     65  C   UNL A   1      45.939  22.853  27.072  1.00  0.00    -0.049 A 
ATOM     66  C   UNL A   1      46.481  24.483  25.362  1.00  0.00    -0.049 A 
ATOM     67  C   UNL A   1      45.755  23.879  27.995  1.00  0.00    -0.053 A 
ATOM     68  H   UNL A   1      45.897  21.866  27.373  1.00  0.00     0.063 H 
ATOM     69  C   UNL A   1      46.214  25.505  26.252  1.00  0.00    -0.053 A 
ATOM     70  H   UNL A   1      46.895  24.686  24.439  1.00  0.00     0.063 H 
ATOM     71  C   UNL A   1      45.784  25.201  27.547  1.00  0.00    -0.014 A 
ATOM     72  H   UNL A   1      45.600  23.667  28.992  1.00  0.00     0.063 H 
ATOM     73  H   UNL A   1      46.332  26.489  25.963  1.00  0.00     0.063 H 
BRANCH  71  74
ATOM     74  C   UNL A   1      45.254  26.307  28.333  1.00  0.00     0.031 A 
ATOM     75  C   UNL A   1      43.848  26.729  28.191  1.00  0.00     0.074 A 
ATOM     76  C   UNL A   1      46.061  26.919  29.228  1.00  0.00     0.049 A 
ATOM     77  N   UNL A   1      43.426  27.931  28.397  1.00  0.00    -0.248 NA
ATOM     78  C   UNL A   1      42.801  25.812  27.763  1.00  0.00    -0.034 C 
ATOM     79  C   UNL A   1      45.678  27.888  30.251  1.00  0.00    -0.036 A 
ATOM     80  N   UNL A   1      47.466  26.924  29.247  1.00  0.00    -0.354 N 
ATOM     81  C   UNL A   1      42.050  27.900  28.381  1.00  0.00     0.074 A 
ATOM     82  C   UNL A   1      41.712  26.571  27.923  1.00  0.00    -0.034 C 
ATOM     83  H   UNL A   1      42.878  24.839  27.426  1.00  0.00     0.065 H 
ATOM     84  C   UNL A   1      46.761  28.604  30.592  1.00  0.00    -0.036 A 
ATOM     85  H   UNL A   1      44.731  28.003  30.646  1.00  0.00     0.065 H 
ATOM     86  C   UNL A   1      47.835  28.212  29.696  1.00  0.00     0.049 A 
ATOM     87  H   UNL A   1      48.068  26.185  28.999  1.00  0.00     0.167 HD
ATOM     88  C   UNL A   1      41.347  28.956  28.887  1.00  0.00     0.037 A 
ATOM     89  H   UNL A   1      40.749  26.248  27.742  1.00  0.00     0.065 H 
ATOM     90  H   UNL A   1      46.819  29.303  31.349  1.00  0.00     0.065 H 
ATOM     91  C   UNL A   1      48.544  29.066  28.904  1.00  0.00     0.037 A 
ATOM     92  C   UNL A   1      42.241  30.014  29.349  1.00  0.00     0.049 A 
ATOM     93  C   UNL A   1      47.844  30.377  28.642  1.00  0.00     0.074 A 
ATOM     94  C   UNL A   1      42.752  30.308  30.603  1.00  0.00    -0.036 A 
ATOM     95  N   UNL A   1      42.991  30.746  28.435  1.00  0.00    -0.354 N 
ATOM     96  N   UNL A   1      46.558  30.548  28.763  1.00  0.00    -0.248 NA
ATOM     97  C   UNL A   1      48.531  31.578  28.174  1.00  0.00    -0.034 C 
ATOM     98  C   UNL A   1      43.851  31.181  30.438  1.00  0.00    -0.036 A 
ATOM     99  H   UNL A   1      42.393  29.950  31.502  1.00  0.00     0.065 H 
ATOM    100  C   UNL A   1      43.997  31.437  29.085  1.00  0.00     0.049 A 
ATOM    101  H   UNL A   1      42.830  30.769  27.464  1.00  0.00     0.167 HD
ATOM    102  C   UNL A   1      46.235  31.822  28.377  1.00  0.00     0.074 A 
ATOM    103  C   UNL A   1      47.505  32.434  28.036  1.00  0.00    -0.034 C 
ATOM    104  H   UNL A   1      49.537  31.728  27.997  1.00  0.00     0.065 H 
ATOM    105  H   UNL A   1      44.442  31.563  31.193  1.00  0.00     0.065 H 
ATOM    106  C   UNL A   1      44.944  32.263  28.356  1.00  0.00     0.037 A 
ATOM    107  H   UNL A   1      47.609  33.413  27.724  1.00  0.00     0.065 H 
BRANCH  88 108
ATOM    108  C   UNL A   1      39.882  28.881  29.262  1.00  0.00     0.064 A 
ATOM    109  C   UNL A   1      38.875  29.264  28.347  1.00  0.00     0.173 A 
ATOM    110  C   UNL A   1      39.407  28.502  30.530  1.00  0.00     0.173 A 
ATOM    111  F   UNL A   1      39.155  29.522  27.063  1.00  0.00    -0.203 F 
ATOM    112  C   UNL A   1      37.535  29.402  28.717  1.00  0.00     0.198 A 
ATOM    113  C   UNL A   1      38.076  28.693  30.919  1.00  0.00     0.198 A 
ATOM    114  F   UNL A   1      40.206  27.890  31.414  1.00  0.00    -0.203 F 
ATOM    115  F   UNL A   1      36.630  29.788  27.807  1.00  0.00    -0.200 F 
ATOM    116  C   UNL A   1      37.143  29.161  30.016  1.00  0.00     0.200 A 
ATOM    117  F   UNL A   1      37.705  28.422  32.179  1.00  0.00    -0.200 F 
ATOM    118  F   UNL A   1      35.870  29.349  30.388  1.00  0.00    -0.200 F 
ENDBRANCH  88 108
BRANCH  91 119
ATOM    119  C   UNL A   1      49.429  28.380  27.927  1.00  0.00     0.064 A 
ATOM    120  C   UNL A   1      50.641  27.830  28.387  1.00  0.00     0.173 A 
ATOM    121  C   UNL A   1      48.958  27.957  26.679  1.00  0.00     0.173 A 
ATOM    122  F   UNL A   1      51.136  28.202  29.578  1.00  0.00    -0.203 F 
ATOM    123  C   UNL A   1      51.291  26.820  27.682  1.00  0.00     0.198 A 
ATOM    124  C   UNL A   1      49.621  26.955  25.968  1.00  0.00     0.198 A 
ATOM    125  F   UNL A   1      47.802  28.432  26.193  1.00  0.00    -0.203 F 
ATOM    126  F   UNL A   1      52.384  26.241  28.200  1.00  0.00    -0.200 F 
ATOM    127  C   UNL A   1      50.766  26.365  26.485  1.00  0.00     0.200 A 
ATOM    128  F   UNL A   1      49.098  26.496  24.822  1.00  0.00    -0.200 F 
ATOM    129  F   UNL A   1      51.339  25.334  25.848  1.00  0.00    -0.200 F 
ENDBRANCH  91 119
BRANCH 106 130
ATOM    130  C   UNL A   1      44.476  33.559  27.749  1.00  0.00     0.064 A 
ATOM    131  C   UNL A   1      43.923  33.658  26.463  1.00  0.00     0.173 A 
ATOM    132  C   UNL A   1      44.445  34.742  28.524  1.00  0.00     0.173 A 
ATOM    133  F   UNL A   1      43.789  32.578  25.680  1.00  0.00    -0.203 F 
ATOM    134  C   UNL A   1      43.437  34.867  25.960  1.00  0.00     0.198 A 
ATOM    135  C   UNL A   1      43.910  35.934  28.039  1.00  0.00     0.198 A 
ATOM    136  F   UNL A   1      44.915  34.767  29.780  1.00  0.00    -0.203 F 
ATOM    137  F   UNL A   1      42.956  34.920  24.710  1.00  0.00    -0.200 F 
ATOM    138  C   UNL A   1      43.421  36.001  26.751  1.00  0.00     0.200 A 
ATOM    139  F   UNL A   1      43.856  37.012  28.834  1.00  0.00    -0.200 F 
ATOM    140  F   UNL A   1      42.917  37.149  26.278  1.00  0.00    -0.200 F 
ENDBRANCH 106 130
ENDBRANCH  71  74
ENDBRANCH  61  64
ENDBRANCH  57  60
ENDBRANCH  54  57
ENDBRANCH  51  54
ENDBRANCH   1  51
TORSDOF 17
ENDMDL
MODEL 9
REMARK VINA RESULT:     -12.2      3.708      9.855
REMARK SMILES Cc1c(CC(=O)NCCCCCCNC(=O)c2ccc(-c3c4nc(c(-c5c(F)c(F)c(F)c(F)c5F)c5ccc([nH]5)c(-c5c(F)c(F)c(F)c(F)c5F)c5nc(c(-c6c(F)c(F)c(F)c(F)c6F)c6ccc3[nH]6)C=C5)C=C4)cc2)cc(-c2ccccc2)cc1-c1ccccc1
REMARK SMILES IDX 10 1 9 4 8 7 7 10 5 11 6 12 4 14 3 17 2 18 89 19 80 20 88 21
REMARK SMILES IDX 81 22 1 25 90 29 91 30 95 31 92 32 94 34 93 36 82 40 83 41
REMARK SMILES IDX 87 42 84 43 86 45 85 47 11 51 12 54 13 57 14 60 15 61 16 63
REMARK SMILES IDX 17 64 18 65 79 66 19 67 78 69 20 71 21 74 22 75 72 76 23 77
REMARK SMILES IDX 77 78 71 79 73 80 24 81 76 82 70 84 69 86 25 88 57 91 37 92
REMARK SMILES IDX 56 93 38 94 41 95 55 96 74 97 39 98 40 100 54 102 75 103
REMARK SMILES IDX 42 106 26 108 27 109 35 110 28 111 29 112 33 113 36 114
REMARK SMILES IDX 30 115 31 116 34 117 32 118 58 119 59 120 67 121 60 122
REMARK SMILES IDX 61 123 65 124 68 125 62 126 63 127 66 128 64 129 43 130
REMARK SMILES IDX 44 131 52 132 45 133 46 134 50 135 53 136 47 137 48 138
REMARK SMILES IDX 51 139 49 140
REMARK H PARENT 10 2 10 3 9 5 9 6 8 8 8 9 7 13 4 15 4 16 80 23 88 24 1 26 1 27
REMARK H PARENT 1 28 91 33 95 35 92 37 94 38 93 39 83 44 87 46 84 48 86 49
REMARK H PARENT 85 50 11 52 11 53 12 55 12 56 13 58 13 59 14 62 18 68 79 70
REMARK H PARENT 19 72 78 73 77 83 71 85 73 87 76 89 70 90 38 99 41 101 74 104
REMARK H PARENT 39 105 75 107
REMARK Flexibility Score: inf
ROOT
ATOM      1  C   UNL A   1      41.328  19.491  26.125  1.00  0.00    -0.052 C 
ATOM      2  H   UNL A   1      41.350  19.599  25.060  1.00  0.00     0.027 H 
ATOM      3  H   UNL A   1      40.614  18.781  26.486  1.00  0.00     0.027 H 
ENDROOT
BRANCH   1   4
ATOM      4  C   UNL A   1      40.898  20.837  26.721  1.00  0.00    -0.036 C 
ATOM      5  H   UNL A   1      40.275  20.641  27.569  1.00  0.00     0.028 H 
ATOM      6  H   UNL A   1      41.799  21.358  26.968  1.00  0.00     0.028 H 
BRANCH   4   7
ATOM      7  C   UNL A   1      40.127  21.749  25.767  1.00  0.00     0.017 C 
ATOM      8  H   UNL A   1      40.808  22.458  25.344  1.00  0.00     0.049 H 
ATOM      9  H   UNL A   1      39.683  21.130  25.015  1.00  0.00     0.049 H 
BRANCH   7  10
ATOM     10  N   UNL A   1      39.058  22.471  26.425  1.00  0.00    -0.356 N 
ATOM     11  C   UNL A   1      37.779  22.687  25.996  1.00  0.00     0.224 C 
ATOM     12  O   UNL A   1      37.015  23.311  26.737  1.00  0.00    -0.275 OA
ATOM     13  H   UNL A   1      39.284  22.858  27.301  1.00  0.00     0.163 HD
BRANCH  11  14
ATOM     14  C   UNL A   1      37.305  22.133  24.657  1.00  0.00     0.052 C 
ATOM     15  H   UNL A   1      37.525  22.855  23.898  1.00  0.00     0.042 H 
ATOM     16  H   UNL A   1      37.819  21.206  24.507  1.00  0.00     0.042 H 
BRANCH  14  17
ATOM     17  C   UNL A   1      35.819  21.823  24.604  1.00  0.00    -0.035 A 
ATOM     18  C   UNL A   1      34.812  22.815  24.473  1.00  0.00    -0.040 A 
ATOM     19  C   UNL A   1      33.447  22.421  24.487  1.00  0.00    -0.015 A 
ATOM     20  C   UNL A   1      35.449  20.465  24.683  1.00  0.00    -0.050 A 
ATOM     21  C   UNL A   1      33.130  21.050  24.590  1.00  0.00    -0.046 A 
ATOM     22  C   UNL A   1      34.112  20.057  24.675  1.00  0.00    -0.017 A 
ATOM     23  H   UNL A   1      36.189  19.749  24.750  1.00  0.00     0.063 H 
ATOM     24  H   UNL A   1      32.137  20.768  24.604  1.00  0.00     0.064 H 
BRANCH  18  25
ATOM     25  C   UNL A   1      35.186  24.267  24.264  1.00  0.00    -0.039 C 
ATOM     26  H   UNL A   1      34.346  24.889  24.495  1.00  0.00     0.028 H 
ATOM     27  H   UNL A   1      35.474  24.418  23.245  1.00  0.00     0.028 H 
ATOM     28  H   UNL A   1      36.004  24.520  24.906  1.00  0.00     0.028 H 
ENDBRANCH  18  25
BRANCH  19  29
ATOM     29  C   UNL A   1      32.326  23.383  24.430  1.00  0.00    -0.018 A 
ATOM     30  C   UNL A   1      31.733  23.708  23.196  1.00  0.00    -0.054 A 
ATOM     31  C   UNL A   1      31.824  23.999  25.587  1.00  0.00    -0.054 A 
ATOM     32  C   UNL A   1      30.665  24.604  23.124  1.00  0.00    -0.062 A 
ATOM     33  H   UNL A   1      32.095  23.277  22.330  1.00  0.00     0.063 H 
ATOM     34  C   UNL A   1      30.745  24.884  25.517  1.00  0.00    -0.062 A 
ATOM     35  H   UNL A   1      32.258  23.795  26.501  1.00  0.00     0.063 H 
ATOM     36  C   UNL A   1      30.167  25.185  24.286  1.00  0.00    -0.062 A 
ATOM     37  H   UNL A   1      30.244  24.834  22.210  1.00  0.00     0.062 H 
ATOM     38  H   UNL A   1      30.377  25.315  26.379  1.00  0.00     0.062 H 
ATOM     39  H   UNL A   1      29.370  25.839  24.236  1.00  0.00     0.062 H 
ENDBRANCH  19  29
BRANCH  22  40
ATOM     40  C   UNL A   1      33.761  18.631  24.736  1.00  0.00    -0.018 A 
ATOM     41  C   UNL A   1      32.832  18.150  25.673  1.00  0.00    -0.054 A 
ATOM     42  C   UNL A   1      34.373  17.703  23.877  1.00  0.00    -0.054 A 
ATOM     43  C   UNL A   1      32.528  16.789  25.751  1.00  0.00    -0.062 A 
ATOM     44  H   UNL A   1      32.366  18.812  26.313  1.00  0.00     0.063 H 
ATOM     45  C   UNL A   1      34.072  16.341  23.955  1.00  0.00    -0.062 A 
ATOM     46  H   UNL A   1      35.055  18.033  23.175  1.00  0.00     0.063 H 
ATOM     47  C   UNL A   1      33.150  15.884  24.893  1.00  0.00    -0.062 A 
ATOM     48  H   UNL A   1      31.841  16.452  26.444  1.00  0.00     0.062 H 
ATOM     49  H   UNL A   1      34.533  15.674  23.317  1.00  0.00     0.062 H 
ATOM     50  H   UNL A   1      32.929  14.878  24.954  1.00  0.00     0.062 H 
ENDBRANCH  22  40
ENDBRANCH  14  17
ENDBRANCH  11  14
ENDBRANCH   7  10
ENDBRANCH   4   7
ENDBRANCH   1   4
BRANCH   1  51
ATOM     51  C   UNL A   1      42.698  18.949  26.569  1.00  0.00    -0.052 C 
ATOM     52  H   UNL A   1      42.523  18.123  27.226  1.00  0.00     0.027 H 
ATOM     53  H   UNL A   1      43.198  19.778  27.023  1.00  0.00     0.027 H 
BRANCH  51  54
ATOM     54  C   UNL A   1      43.635  18.469  25.456  1.00  0.00    -0.036 C 
ATOM     55  H   UNL A   1      43.053  18.313  24.571  1.00  0.00     0.028 H 
ATOM     56  H   UNL A   1      44.099  17.572  25.809  1.00  0.00     0.028 H 
BRANCH  54  57
ATOM     57  C   UNL A   1      44.758  19.441  25.123  1.00  0.00     0.018 C 
ATOM     58  H   UNL A   1      45.656  18.881  24.969  1.00  0.00     0.049 H 
ATOM     59  H   UNL A   1      44.835  20.121  25.946  1.00  0.00     0.049 H 
BRANCH  57  60
ATOM     60  N   UNL A   1      44.508  20.246  23.933  1.00  0.00    -0.352 N 
ATOM     61  C   UNL A   1      44.440  21.622  23.804  1.00  0.00     0.251 C 
ATOM     62  H   UNL A   1      44.370  19.738  23.102  1.00  0.00     0.163 HD
ATOM     63  O   UNL A   1      44.177  22.132  22.727  1.00  0.00    -0.269 OA
BRANCH  61  64
ATOM     64  C   UNL A   1      44.820  22.472  24.957  1.00  0.00     0.039 A 
ATOM     65  C   UNL A   1      44.351  22.101  26.223  1.00  0.00    -0.049 A 
ATOM     66  C   UNL A   1      45.445  23.702  24.770  1.00  0.00    -0.049 A 
ATOM     67  C   UNL A   1      44.290  23.056  27.234  1.00  0.00    -0.053 A 
ATOM     68  H   UNL A   1      44.053  21.129  26.405  1.00  0.00     0.063 H 
ATOM     69  C   UNL A   1      45.308  24.676  25.740  1.00  0.00    -0.053 A 
ATOM     70  H   UNL A   1      46.002  23.883  23.921  1.00  0.00     0.063 H 
ATOM     71  C   UNL A   1      44.667  24.369  26.944  1.00  0.00    -0.014 A 
ATOM     72  H   UNL A   1      43.973  22.799  28.182  1.00  0.00     0.063 H 
ATOM     73  H   UNL A   1      45.675  25.626  25.577  1.00  0.00     0.063 H 
BRANCH  71  74
ATOM     74  C   UNL A   1      44.308  25.495  27.796  1.00  0.00     0.031 A 
ATOM     75  C   UNL A   1      43.000  26.162  27.652  1.00  0.00     0.074 A 
ATOM     76  C   UNL A   1      45.175  25.896  28.751  1.00  0.00     0.049 A 
ATOM     77  N   UNL A   1      42.784  27.403  27.935  1.00  0.00    -0.248 NA
ATOM     78  C   UNL A   1      41.827  25.471  27.134  1.00  0.00    -0.034 C 
ATOM     79  C   UNL A   1      44.927  26.846  29.832  1.00  0.00    -0.036 A 
ATOM     80  N   UNL A   1      46.559  25.656  28.803  1.00  0.00    -0.354 N 
ATOM     81  C   UNL A   1      41.424  27.612  27.884  1.00  0.00     0.074 A 
ATOM     82  C   UNL A   1      40.880  26.395  27.323  1.00  0.00    -0.034 C 
ATOM     83  H   UNL A   1      41.749  24.525  26.730  1.00  0.00     0.065 H 
ATOM     84  C   UNL A   1      46.105  27.339  30.250  1.00  0.00    -0.036 A 
ATOM     85  H   UNL A   1      44.001  27.096  30.212  1.00  0.00     0.065 H 
ATOM     86  C   UNL A   1      47.127  26.827  29.353  1.00  0.00     0.049 A 
ATOM     87  H   UNL A   1      47.033  24.842  28.517  1.00  0.00     0.167 HD
ATOM     88  C   UNL A   1      40.895  28.737  28.449  1.00  0.00     0.037 A 
ATOM     89  H   UNL A   1      39.882  26.257  27.098  1.00  0.00     0.065 H 
ATOM     90  H   UNL A   1      46.255  27.964  31.056  1.00  0.00     0.065 H 
ATOM     91  C   UNL A   1      47.999  27.597  28.641  1.00  0.00     0.037 A 
ATOM     92  C   UNL A   1      41.940  29.591  29.007  1.00  0.00     0.049 A 
ATOM     93  C   UNL A   1      47.543  29.024  28.458  1.00  0.00     0.074 A 
ATOM     94  C   UNL A   1      42.449  29.706  30.291  1.00  0.00    -0.036 A 
ATOM     95  N   UNL A   1      42.836  30.242  28.166  1.00  0.00    -0.354 N 
ATOM     96  N   UNL A   1      46.302  29.407  28.561  1.00  0.00    -0.248 NA
ATOM     97  C   UNL A   1      48.442  30.116  28.094  1.00  0.00    -0.034 C 
ATOM     98  C   UNL A   1      43.687  30.385  30.214  1.00  0.00    -0.036 A 
ATOM     99  H   UNL A   1      42.002  29.357  31.152  1.00  0.00     0.065 H 
ATOM    100  C   UNL A   1      43.922  30.703  28.888  1.00  0.00     0.049 A 
ATOM    101  H   UNL A   1      42.715  30.358  27.195  1.00  0.00     0.167 HD
ATOM    102  C   UNL A   1      46.216  30.741  28.261  1.00  0.00     0.074 A 
ATOM    103  C   UNL A   1      47.583  31.145  27.995  1.00  0.00    -0.034 C 
ATOM    104  H   UNL A   1      49.465  30.101  27.952  1.00  0.00     0.065 H 
ATOM    105  H   UNL A   1      44.307  30.607  31.009  1.00  0.00     0.065 H 
ATOM    106  C   UNL A   1      45.021  31.399  28.243  1.00  0.00     0.037 A 
ATOM    107  H   UNL A   1      47.864  32.109  27.757  1.00  0.00     0.065 H 
BRANCH  88 108
ATOM    108  C   UNL A   1      39.426  28.892  28.783  1.00  0.00     0.064 A 
ATOM    109  C   UNL A   1      38.524  29.460  27.855  1.00  0.00     0.173 A 
ATOM    110  C   UNL A   1      38.857  28.561  30.026  1.00  0.00     0.173 A 
ATOM    111  F   UNL A   1      38.881  29.704  26.588  1.00  0.00    -0.203 F 
ATOM    112  C   UNL A   1      37.213  29.804  28.195  1.00  0.00     0.198 A 
ATOM    113  C   UNL A   1      37.563  28.956  30.386  1.00  0.00     0.198 A 
ATOM    114  F   UNL A   1      39.519  27.802  30.910  1.00  0.00    -0.203 F 
ATOM    115  F   UNL A   1      36.411  30.358  27.274  1.00  0.00    -0.200 F 
ATOM    116  C   UNL A   1      36.747  29.595  29.475  1.00  0.00     0.200 A 
ATOM    117  F   UNL A   1      37.115  28.715  31.627  1.00  0.00    -0.200 F 
ATOM    118  F   UNL A   1      35.511  29.978  29.820  1.00  0.00    -0.200 F 
ENDBRANCH  88 108
BRANCH  91 119
ATOM    119  C   UNL A   1      48.788  26.835  27.638  1.00  0.00     0.064 A 
ATOM    120  C   UNL A   1      48.386  26.881  26.289  1.00  0.00     0.173 A 
ATOM    121  C   UNL A   1      50.082  26.379  27.913  1.00  0.00     0.173 A 
ATOM    122  F   UNL A   1      47.154  27.312  25.972  1.00  0.00    -0.203 F 
ATOM    123  C   UNL A   1      49.276  26.591  25.258  1.00  0.00     0.198 A 
ATOM    124  C   UNL A   1      50.966  26.074  26.876  1.00  0.00     0.198 A 
ATOM    125  F   UNL A   1      50.530  26.327  29.175  1.00  0.00    -0.203 F 
ATOM    126  F   UNL A   1      48.894  26.749  23.982  1.00  0.00    -0.200 F 
ATOM    127  C   UNL A   1      50.574  26.213  25.552  1.00  0.00     0.200 A 
ATOM    128  F   UNL A   1      52.232  25.733  27.160  1.00  0.00    -0.200 F 
ATOM    129  F   UNL A   1      51.458  26.018  24.563  1.00  0.00    -0.200 F 
ENDBRANCH  91 119
BRANCH 106 130
ATOM    130  C   UNL A   1      44.804  32.794  27.720  1.00  0.00     0.064 A 
ATOM    131  C   UNL A   1      44.206  33.074  26.481  1.00  0.00     0.173 A 
ATOM    132  C   UNL A   1      45.074  33.915  28.539  1.00  0.00     0.173 A 
ATOM    133  F   UNL A   1      43.798  32.089  25.668  1.00  0.00    -0.203 F 
ATOM    134  C   UNL A   1      43.960  34.383  26.061  1.00  0.00     0.198 A 
ATOM    135  C   UNL A   1      44.776  35.217  28.139  1.00  0.00     0.198 A 
ATOM    136  F   UNL A   1      45.614  33.775  29.759  1.00  0.00    -0.203 F 
ATOM    137  F   UNL A   1      43.426  34.601  24.851  1.00  0.00    -0.200 F 
ATOM    138  C   UNL A   1      44.234  35.452  26.892  1.00  0.00     0.200 A 
ATOM    139  F   UNL A   1      45.002  36.239  28.977  1.00  0.00    -0.200 F 
ATOM    140  F   UNL A   1      43.959  36.703  26.501  1.00  0.00    -0.200 F 
ENDBRANCH 106 130
ENDBRANCH  71  74
ENDBRANCH  61  64
ENDBRANCH  57  60
ENDBRANCH  54  57
ENDBRANCH  51  54
ENDBRANCH   1  51
TORSDOF 17
ENDMDL
MODEL 10
REMARK VINA RESULT:     -12.2      3.191      9.617
REMARK SMILES Cc1c(CC(=O)NCCCCCCNC(=O)c2ccc(-c3c4nc(c(-c5c(F)c(F)c(F)c(F)c5F)c5ccc([nH]5)c(-c5c(F)c(F)c(F)c(F)c5F)c5nc(c(-c6c(F)c(F)c(F)c(F)c6F)c6ccc3[nH]6)C=C5)C=C4)cc2)cc(-c2ccccc2)cc1-c1ccccc1
REMARK SMILES IDX 10 1 9 4 8 7 7 10 5 11 6 12 4 14 3 17 2 18 89 19 80 20 88 21
REMARK SMILES IDX 81 22 1 25 90 29 91 30 95 31 92 32 94 34 93 36 82 40 83 41
REMARK SMILES IDX 87 42 84 43 86 45 85 47 11 51 12 54 13 57 14 60 15 61 16 63
REMARK SMILES IDX 17 64 18 65 79 66 19 67 78 69 20 71 21 74 22 75 72 76 23 77
REMARK SMILES IDX 77 78 71 79 73 80 24 81 76 82 70 84 69 86 25 88 57 91 37 92
REMARK SMILES IDX 56 93 38 94 41 95 55 96 74 97 39 98 40 100 54 102 75 103
REMARK SMILES IDX 42 106 26 108 27 109 35 110 28 111 29 112 33 113 36 114
REMARK SMILES IDX 30 115 31 116 34 117 32 118 58 119 59 120 67 121 60 122
REMARK SMILES IDX 61 123 65 124 68 125 62 126 63 127 66 128 64 129 43 130
REMARK SMILES IDX 44 131 52 132 45 133 46 134 50 135 53 136 47 137 48 138
REMARK SMILES IDX 51 139 49 140
REMARK H PARENT 10 2 10 3 9 5 9 6 8 8 8 9 7 13 4 15 4 16 80 23 88 24 1 26 1 27
REMARK H PARENT 1 28 91 33 95 35 92 37 94 38 93 39 83 44 87 46 84 48 86 49
REMARK H PARENT 85 50 11 52 11 53 12 55 12 56 13 58 13 59 14 62 18 68 79 70
REMARK H PARENT 19 72 78 73 77 83 71 85 73 87 76 89 70 90 38 99 41 101 74 104
REMARK H PARENT 39 105 75 107
REMARK Flexibility Score: inf
ROOT
ATOM      1  C   UNL A   1      40.999  21.717  27.762  1.00  0.00    -0.052 C 
ATOM      2  H   UNL A   1      41.209  21.051  28.573  1.00  0.00     0.027 H 
ATOM      3  H   UNL A   1      40.139  22.337  27.906  1.00  0.00     0.027 H 
ENDROOT
BRANCH   1   4
ATOM      4  C   UNL A   1      40.680  20.863  26.527  1.00  0.00    -0.036 C 
ATOM      5  H   UNL A   1      41.467  21.002  25.816  1.00  0.00     0.028 H 
ATOM      6  H   UNL A   1      40.594  19.855  26.874  1.00  0.00     0.028 H 
BRANCH   4   7
ATOM      7  C   UNL A   1      39.355  21.193  25.839  1.00  0.00     0.017 C 
ATOM      8  H   UNL A   1      39.542  21.364  24.799  1.00  0.00     0.049 H 
ATOM      9  H   UNL A   1      38.697  20.363  25.991  1.00  0.00     0.049 H 
BRANCH   7  10
ATOM     10  N   UNL A   1      38.715  22.366  26.393  1.00  0.00    -0.356 N 
ATOM     11  C   UNL A   1      37.718  23.131  25.857  1.00  0.00     0.224 C 
ATOM     12  O   UNL A   1      37.294  24.082  26.521  1.00  0.00    -0.275 OA
ATOM     13  H   UNL A   1      39.043  22.652  27.276  1.00  0.00     0.163 HD
BRANCH  11  14
ATOM     14  C   UNL A   1      37.122  22.790  24.496  1.00  0.00     0.052 C 
ATOM     15  H   UNL A   1      37.211  23.649  23.865  1.00  0.00     0.042 H 
ATOM     16  H   UNL A   1      37.666  21.946  24.125  1.00  0.00     0.042 H 
BRANCH  14  17
ATOM     17  C   UNL A   1      35.660  22.382  24.543  1.00  0.00    -0.035 A 
ATOM     18  C   UNL A   1      34.583  23.307  24.515  1.00  0.00    -0.040 A 
ATOM     19  C   UNL A   1      33.251  22.822  24.617  1.00  0.00    -0.015 A 
ATOM     20  C   UNL A   1      35.386  21.001  24.610  1.00  0.00    -0.050 A 
ATOM     21  C   UNL A   1      33.033  21.430  24.703  1.00  0.00    -0.046 A 
ATOM     22  C   UNL A   1      34.082  20.504  24.687  1.00  0.00    -0.017 A 
ATOM     23  H   UNL A   1      36.174  20.334  24.602  1.00  0.00     0.063 H 
ATOM     24  H   UNL A   1      32.064  21.082  24.780  1.00  0.00     0.064 H 
BRANCH  18  25
ATOM     25  C   UNL A   1      34.845  24.786  24.321  1.00  0.00    -0.039 C 
ATOM     26  H   UNL A   1      34.904  25.265  25.276  1.00  0.00     0.028 H 
ATOM     27  H   UNL A   1      34.049  25.217  23.752  1.00  0.00     0.028 H 
ATOM     28  H   UNL A   1      35.769  24.918  23.798  1.00  0.00     0.028 H 
ENDBRANCH  18  25
BRANCH  19  29
ATOM     29  C   UNL A   1      32.069  23.707  24.669  1.00  0.00    -0.018 A 
ATOM     30  C   UNL A   1      31.605  24.198  25.903  1.00  0.00    -0.054 A 
ATOM     31  C   UNL A   1      31.376  24.081  23.507  1.00  0.00    -0.054 A 
ATOM     32  C   UNL A   1      30.498  25.046  25.971  1.00  0.00    -0.062 A 
ATOM     33  H   UNL A   1      32.091  23.926  26.772  1.00  0.00     0.063 H 
ATOM     34  C   UNL A   1      30.278  24.941  23.572  1.00  0.00    -0.062 A 
ATOM     35  H   UNL A   1      31.683  23.714  22.591  1.00  0.00     0.063 H 
ATOM     36  C   UNL A   1      29.840  25.423  24.803  1.00  0.00    -0.062 A 
ATOM     37  H   UNL A   1      30.169  25.394  26.885  1.00  0.00     0.062 H 
ATOM     38  H   UNL A   1      29.790  25.220  22.706  1.00  0.00     0.062 H 
ATOM     39  H   UNL A   1      29.029  26.060  24.850  1.00  0.00     0.062 H 
ENDBRANCH  19  29
BRANCH  22  40
ATOM     40  C   UNL A   1      33.831  19.056  24.732  1.00  0.00    -0.018 A 
ATOM     41  C   UNL A   1      32.554  18.548  25.023  1.00  0.00    -0.054 A 
ATOM     42  C   UNL A   1      34.873  18.139  24.516  1.00  0.00    -0.054 A 
ATOM     43  C   UNL A   1      32.327  17.172  25.100  1.00  0.00    -0.062 A 
ATOM     44  H   UNL A   1      31.771  19.202  25.182  1.00  0.00     0.063 H 
ATOM     45  C   UNL A   1      34.649  16.762  24.594  1.00  0.00    -0.062 A 
ATOM     46  H   UNL A   1      35.819  18.488  24.294  1.00  0.00     0.063 H 
ATOM     47  C   UNL A   1      33.376  16.279  24.888  1.00  0.00    -0.062 A 
ATOM     48  H   UNL A   1      31.382  16.815  25.313  1.00  0.00     0.062 H 
ATOM     49  H   UNL A   1      35.427  16.103  24.435  1.00  0.00     0.062 H 
ATOM     50  H   UNL A   1      33.210  15.263  24.949  1.00  0.00     0.062 H 
ENDBRANCH  22  40
ENDBRANCH  14  17
ENDBRANCH  11  14
ENDBRANCH   7  10
ENDBRANCH   4   7
ENDBRANCH   1   4
BRANCH   1  51
ATOM     51  C   UNL A   1      42.184  22.691  27.638  1.00  0.00    -0.052 C 
ATOM     52  H   UNL A   1      42.106  23.176  26.687  1.00  0.00     0.027 H 
ATOM     53  H   UNL A   1      43.060  22.089  27.758  1.00  0.00     0.027 H 
BRANCH  51  54
ATOM     54  C   UNL A   1      42.288  23.780  28.711  1.00  0.00    -0.036 C 
ATOM     55  H   UNL A   1      42.943  23.429  29.482  1.00  0.00     0.028 H 
ATOM     56  H   UNL A   1      41.294  23.961  29.062  1.00  0.00     0.028 H 
BRANCH  54  57
ATOM     57  C   UNL A   1      42.822  25.110  28.200  1.00  0.00     0.018 C 
ATOM     58  H   UNL A   1      43.828  25.225  28.546  1.00  0.00     0.049 H 
ATOM     59  H   UNL A   1      42.170  25.872  28.573  1.00  0.00     0.049 H 
BRANCH  57  60
ATOM     60  N   UNL A   1      42.821  25.227  26.746  1.00  0.00    -0.352 N 
ATOM     61  C   UNL A   1      41.937  25.901  25.922  1.00  0.00     0.251 C 
ATOM     62  H   UNL A   1      43.555  24.761  26.284  1.00  0.00     0.163 HD
ATOM     63  O   UNL A   1      42.063  25.858  24.709  1.00  0.00    -0.269 OA
BRANCH  61  64
ATOM     64  C   UNL A   1      40.914  26.782  26.533  1.00  0.00     0.039 A 
ATOM     65  C   UNL A   1      41.140  28.164  26.499  1.00  0.00    -0.049 A 
ATOM     66  C   UNL A   1      39.870  26.258  27.290  1.00  0.00    -0.049 A 
ATOM     67  C   UNL A   1      40.480  28.985  27.409  1.00  0.00    -0.053 A 
ATOM     68  H   UNL A   1      41.790  28.569  25.807  1.00  0.00     0.063 H 
ATOM     69  C   UNL A   1      39.277  27.053  28.252  1.00  0.00    -0.053 A 
ATOM     70  H   UNL A   1      39.544  25.291  27.135  1.00  0.00     0.063 H 
ATOM     71  C   UNL A   1      39.636  28.399  28.355  1.00  0.00    -0.014 A 
ATOM     72  H   UNL A   1      40.612  30.008  27.385  1.00  0.00     0.063 H 
ATOM     73  H   UNL A   1      38.573  26.654  28.892  1.00  0.00     0.063 H 
BRANCH  71  74
ATOM     74  C   UNL A   1      39.193  29.101  29.552  1.00  0.00     0.031 A 
ATOM     75  C   UNL A   1      38.366  30.318  29.451  1.00  0.00     0.074 A 
ATOM     76  C   UNL A   1      39.518  28.598  30.763  1.00  0.00     0.049 A 
ATOM     77  N   UNL A   1      38.362  31.268  30.325  1.00  0.00    -0.248 NA
ATOM     78  C   UNL A   1      37.493  30.573  28.313  1.00  0.00    -0.034 C 
ATOM     79  C   UNL A   1      39.004  29.017  32.064  1.00  0.00    -0.036 A 
ATOM     80  N   UNL A   1      40.564  27.710  31.066  1.00  0.00    -0.354 N 
ATOM     81  C   UNL A   1      37.327  32.120  30.012  1.00  0.00     0.074 A 
ATOM     82  C   UNL A   1      36.856  31.676  28.719  1.00  0.00    -0.034 C 
ATOM     83  H   UNL A   1      37.393  30.045  27.432  1.00  0.00     0.065 H 
ATOM     84  C   UNL A   1      39.882  28.648  33.012  1.00  0.00    -0.036 A 
ATOM     85  H   UNL A   1      38.114  29.513  32.229  1.00  0.00     0.065 H 
ATOM     86  C   UNL A   1      41.048  28.111  32.332  1.00  0.00     0.049 A 
ATOM     87  H   UNL A   1      40.890  26.964  30.513  1.00  0.00     0.167 HD
ATOM     88  C   UNL A   1      36.892  33.021  30.942  1.00  0.00     0.037 A 
ATOM     89  H   UNL A   1      36.119  32.153  28.177  1.00  0.00     0.065 H 
ATOM     90  H   UNL A   1      39.752  28.731  34.032  1.00  0.00     0.065 H 
ATOM     91  C   UNL A   1      42.325  28.562  32.495  1.00  0.00     0.037 A 
ATOM     92  C   UNL A   1      37.682  32.939  32.168  1.00  0.00     0.049 A 
ATOM     93  C   UNL A   1      42.410  29.960  33.056  1.00  0.00     0.074 A 
ATOM     94  C   UNL A   1      37.470  32.259  33.357  1.00  0.00    -0.036 A 
ATOM     95  N   UNL A   1      39.014  33.338  32.171  1.00  0.00    -0.354 N 
ATOM     96  N   UNL A   1      41.439  30.826  32.995  1.00  0.00    -0.248 NA
ATOM     97  C   UNL A   1      43.614  30.505  33.679  1.00  0.00    -0.034 C 
ATOM     98  C   UNL A   1      38.699  32.203  34.056  1.00  0.00    -0.036 A 
ATOM     99  H   UNL A   1      36.574  31.863  33.677  1.00  0.00     0.065 H 
ATOM    100  C   UNL A   1      39.652  32.867  33.303  1.00  0.00     0.049 A 
ATOM    101  H   UNL A   1      39.442  33.878  31.467  1.00  0.00     0.167 HD
ATOM    102  C   UNL A   1      41.863  32.018  33.520  1.00  0.00     0.074 A 
ATOM    103  C   UNL A   1      43.224  31.762  33.952  1.00  0.00    -0.034 C 
ATOM    104  H   UNL A   1      44.521  30.047  33.860  1.00  0.00     0.065 H 
ATOM    105  H   UNL A   1      38.857  31.748  34.969  1.00  0.00     0.065 H 
ATOM    106  C   UNL A   1      41.062  33.122  33.541  1.00  0.00     0.037 A 
ATOM    107  H   UNL A   1      43.824  32.463  34.416  1.00  0.00     0.065 H 
BRANCH  88 108
ATOM    108  C   UNL A   1      35.557  33.730  30.858  1.00  0.00     0.064 A 
ATOM    109  C   UNL A   1      35.220  34.516  29.733  1.00  0.00     0.173 A 
ATOM    110  C   UNL A   1      34.592  33.727  31.881  1.00  0.00     0.173 A 
ATOM    111  F   UNL A   1      35.970  34.514  28.624  1.00  0.00    -0.203 F 
ATOM    112  C   UNL A   1      34.093  35.343  29.704  1.00  0.00     0.198 A 
ATOM    113  C   UNL A   1      33.494  34.595  31.877  1.00  0.00     0.198 A 
ATOM    114  F   UNL A   1      34.656  32.848  32.890  1.00  0.00    -0.203 F 
ATOM    115  F   UNL A   1      33.839  36.080  28.614  1.00  0.00    -0.200 F 
ATOM    116  C   UNL A   1      33.256  35.418  30.796  1.00  0.00     0.200 A 
ATOM    117  F   UNL A   1      32.671  34.632  32.935  1.00  0.00    -0.200 F 
ATOM    118  F   UNL A   1      32.209  36.254  30.793  1.00  0.00    -0.200 F 
ENDBRANCH  88 108
BRANCH  91 119
ATOM    119  C   UNL A   1      43.290  27.990  31.520  1.00  0.00     0.064 A 
ATOM    120  C   UNL A   1      43.603  28.734  30.366  1.00  0.00     0.173 A 
ATOM    121  C   UNL A   1      44.146  26.938  31.864  1.00  0.00     0.173 A 
ATOM    122  F   UNL A   1      42.813  29.754  29.993  1.00  0.00    -0.203 F 
ATOM    123  C   UNL A   1      44.779  28.508  29.656  1.00  0.00     0.198 A 
ATOM    124  C   UNL A   1      45.317  26.704  31.140  1.00  0.00     0.198 A 
ATOM    125  F   UNL A   1      43.912  26.202  32.960  1.00  0.00    -0.203 F 
ATOM    126  F   UNL A   1      45.101  29.305  28.627  1.00  0.00    -0.200 F 
ATOM    127  C   UNL A   1      45.648  27.510  30.059  1.00  0.00     0.200 A 
ATOM    128  F   UNL A   1      46.172  25.755  31.546  1.00  0.00    -0.200 F 
ATOM    129  F   UNL A   1      46.821  27.346  29.432  1.00  0.00    -0.200 F 
ENDBRANCH  91 119
BRANCH 106 130
ATOM    130  C   UNL A   1      41.510  34.515  33.895  1.00  0.00     0.064 A 
ATOM    131  C   UNL A   1      41.258  35.118  35.137  1.00  0.00     0.173 A 
ATOM    132  C   UNL A   1      42.347  35.242  33.017  1.00  0.00     0.173 A 
ATOM    133  F   UNL A   1      40.576  34.476  36.096  1.00  0.00    -0.203 F 
ATOM    134  C   UNL A   1      41.749  36.387  35.453  1.00  0.00     0.198 A 
ATOM    135  C   UNL A   1      42.880  36.484  33.357  1.00  0.00     0.198 A 
ATOM    136  F   UNL A   1      42.688  34.756  31.814  1.00  0.00    -0.203 F 
ATOM    137  F   UNL A   1      41.446  36.940  36.636  1.00  0.00    -0.200 F 
ATOM    138  C   UNL A   1      42.568  37.065  34.569  1.00  0.00     0.200 A 
ATOM    139  F   UNL A   1      43.713  37.106  32.509  1.00  0.00    -0.200 F 
ATOM    140  F   UNL A   1      43.069  38.264  34.892  1.00  0.00    -0.200 F 
ENDBRANCH 106 130
ENDBRANCH  71  74
ENDBRANCH  61  64
ENDBRANCH  57  60
ENDBRANCH  54  57
ENDBRANCH  51  54
ENDBRANCH   1  51
TORSDOF 17
ENDMDL
