MODEL 1
REMARK VINA RESULT:      -9.9      0.000      0.000
REMARK SMILES CC(=O)Oc1ccccc1SCCCCCC(=O)NCCCCCCNC(=O)c1ccc(-c2c3nc(c(-c4c(F)c(F)c(F)c(F)c4F)c4ccc([nH]4)c(-c4c(F)c(F)c(F)c(F)c4F)c4nc(c(-c5c(F)c(F)c(F)c(F)c5F)c5ccc2[nH]5)C=C4)C=C3)cc1
REMARK SMILES IDX 17 1 18 2 19 3 16 5 15 8 14 11 13 14 12 17 11 20 10 21 5 22
REMARK SMILES IDX 6 23 7 24 9 26 8 27 4 31 2 32 3 33 1 34 20 38 21 41 22 44
REMARK SMILES IDX 23 47 24 50 25 53 26 56 27 57 28 59 29 60 30 61 91 62 31 63
REMARK SMILES IDX 90 65 32 67 33 70 34 71 84 72 35 73 89 74 83 75 85 76 36 77
REMARK SMILES IDX 88 78 82 80 81 82 37 84 69 87 49 88 68 89 50 90 53 91 67 92
REMARK SMILES IDX 86 93 51 94 52 96 66 98 87 99 54 102 38 104 39 105 47 106
REMARK SMILES IDX 40 107 41 108 45 109 48 110 42 111 43 112 46 113 44 114
REMARK SMILES IDX 70 115 71 116 79 117 72 118 73 119 77 120 80 121 74 122
REMARK SMILES IDX 75 123 78 124 76 125 55 126 56 127 64 128 57 129 58 130
REMARK SMILES IDX 62 131 65 132 59 133 60 134 63 135 61 136
REMARK H PARENT 19 4 16 6 16 7 15 9 15 10 14 12 14 13 13 15 13 16 12 18 12 19
REMARK H PARENT 6 25 7 28 9 29 8 30 1 35 1 36 1 37 20 39 20 40 21 42 21 43
REMARK H PARENT 22 45 22 46 23 48 23 49 24 51 24 52 25 54 25 55 26 58 30 64
REMARK H PARENT 91 66 31 68 90 69 89 79 83 81 85 83 88 85 82 86 50 95 53 97
REMARK H PARENT 86 100 51 101 87 103
REMARK Flexibility Score: inf
ROOT
ATOM      1  C   UNL A   1      33.189  29.342  27.119  1.00  0.00     0.219 C 
ATOM      2  O   UNL A   1      31.991  29.258  27.394  1.00  0.00    -0.275 OA
ATOM      3  N   UNL A   1      34.006  30.043  27.949  1.00  0.00    -0.356 N 
ATOM      4  H   UNL A   1      33.598  30.360  28.785  1.00  0.00     0.163 HD
ENDROOT
BRANCH   1   5
ATOM      5  C   UNL A   1      33.765  28.660  25.896  1.00  0.00     0.026 C 
ATOM      6  H   UNL A   1      33.425  29.184  25.028  1.00  0.00     0.037 H 
ATOM      7  H   UNL A   1      34.830  28.684  26.004  1.00  0.00     0.037 H 
BRANCH   5   8
ATOM      8  C   UNL A   1      33.372  27.188  25.753  1.00  0.00    -0.044 C 
ATOM      9  H   UNL A   1      33.821  26.666  26.572  1.00  0.00     0.027 H 
ATOM     10  H   UNL A   1      32.304  27.220  25.718  1.00  0.00     0.027 H 
BRANCH   8  11
ATOM     11  C   UNL A   1      33.748  26.414  24.471  1.00  0.00    -0.052 C 
ATOM     12  H   UNL A   1      34.276  27.098  23.839  1.00  0.00     0.027 H 
ATOM     13  H   UNL A   1      34.294  25.571  24.839  1.00  0.00     0.027 H 
BRANCH  11  14
ATOM     14  C   UNL A   1      32.645  25.780  23.617  1.00  0.00    -0.044 C 
ATOM     15  H   UNL A   1      32.034  25.228  24.302  1.00  0.00     0.028 H 
ATOM     16  H   UNL A   1      32.273  26.642  23.106  1.00  0.00     0.028 H 
BRANCH  14  17
ATOM     17  C   UNL A   1      32.892  24.832  22.431  1.00  0.00    -0.002 C 
ATOM     18  H   UNL A   1      31.978  24.849  21.875  1.00  0.00     0.038 H 
ATOM     19  H   UNL A   1      33.820  25.241  22.089  1.00  0.00     0.038 H 
BRANCH  17  20
ATOM     20  S   UNL A   1      33.370  23.077  22.474  1.00  0.00    -0.122 SA
BRANCH  20  21
ATOM     21  C   UNL A   1      34.489  22.852  23.833  1.00  0.00     0.050 A 
ATOM     22  C   UNL A   1      34.232  22.487  25.158  1.00  0.00     0.144 A 
ATOM     23  C   UNL A   1      35.280  22.066  25.998  1.00  0.00    -0.018 A 
ATOM     24  C   UNL A   1      36.598  22.063  25.544  1.00  0.00    -0.058 A 
ATOM     25  H   UNL A   1      35.070  21.757  26.960  1.00  0.00     0.066 H 
ATOM     26  C   UNL A   1      35.840  22.934  23.434  1.00  0.00    -0.045 A 
ATOM     27  C   UNL A   1      36.882  22.528  24.269  1.00  0.00    -0.061 A 
ATOM     28  H   UNL A   1      37.356  21.718  26.154  1.00  0.00     0.062 H 
ATOM     29  H   UNL A   1      36.064  23.304  22.496  1.00  0.00     0.064 H 
ATOM     30  H   UNL A   1      37.860  22.574  23.939  1.00  0.00     0.062 H 
BRANCH  22  31
ATOM     31  O   UNL A   1      32.951  22.211  25.709  1.00  0.00    -0.426 OA
BRANCH  31  32
ATOM     32  C   UNL A   1      32.279  22.782  26.788  1.00  0.00     0.308 C 
ATOM     33  O   UNL A   1      32.566  22.680  27.966  1.00  0.00    -0.252 OA
BRANCH  32  34
ATOM     34  C   UNL A   1      31.126  23.578  26.230  1.00  0.00     0.034 C 
ATOM     35  H   UNL A   1      30.563  24.003  27.035  1.00  0.00     0.035 H 
ATOM     36  H   UNL A   1      30.494  22.935  25.653  1.00  0.00     0.035 H 
ATOM     37  H   UNL A   1      31.503  24.361  25.605  1.00  0.00     0.035 H 
ENDBRANCH  32  34
ENDBRANCH  31  32
ENDBRANCH  22  31
ENDBRANCH  20  21
ENDBRANCH  17  20
ENDBRANCH  14  17
ENDBRANCH  11  14
ENDBRANCH   8  11
ENDBRANCH   5   8
ENDBRANCH   1   5
BRANCH   3  38
ATOM     38  C   UNL A   1      35.397  30.383  27.761  1.00  0.00     0.017 C 
ATOM     39  H   UNL A   1      35.681  30.167  26.753  1.00  0.00     0.049 H 
ATOM     40  H   UNL A   1      35.992  29.806  28.439  1.00  0.00     0.049 H 
BRANCH  38  41
ATOM     41  C   UNL A   1      35.620  31.867  28.042  1.00  0.00    -0.036 C 
ATOM     42  H   UNL A   1      35.735  32.374  27.107  1.00  0.00     0.028 H 
ATOM     43  H   UNL A   1      36.492  31.942  28.657  1.00  0.00     0.028 H 
BRANCH  41  44
ATOM     44  C   UNL A   1      34.478  32.521  28.806  1.00  0.00    -0.052 C 
ATOM     45  H   UNL A   1      34.489  32.154  29.811  1.00  0.00     0.027 H 
ATOM     46  H   UNL A   1      33.572  32.271  28.294  1.00  0.00     0.027 H 
BRANCH  44  47
ATOM     47  C   UNL A   1      34.569  34.049  28.845  1.00  0.00    -0.052 C 
ATOM     48  H   UNL A   1      34.990  34.379  27.918  1.00  0.00     0.027 H 
ATOM     49  H   UNL A   1      35.171  34.289  29.697  1.00  0.00     0.027 H 
BRANCH  47  50
ATOM     50  C   UNL A   1      33.235  34.778  29.047  1.00  0.00    -0.036 C 
ATOM     51  H   UNL A   1      32.634  34.196  29.716  1.00  0.00     0.028 H 
ATOM     52  H   UNL A   1      32.797  34.886  28.077  1.00  0.00     0.028 H 
BRANCH  50  53
ATOM     53  C   UNL A   1      33.363  36.186  29.626  1.00  0.00     0.018 C 
ATOM     54  H   UNL A   1      33.070  36.896  28.881  1.00  0.00     0.049 H 
ATOM     55  H   UNL A   1      34.381  36.339  29.917  1.00  0.00     0.049 H 
BRANCH  53  56
ATOM     56  N   UNL A   1      32.520  36.354  30.799  1.00  0.00    -0.352 N 
ATOM     57  C   UNL A   1      32.562  35.708  32.004  1.00  0.00     0.251 C 
ATOM     58  H   UNL A   1      31.813  37.034  30.712  1.00  0.00     0.163 HD
ATOM     59  O   UNL A   1      31.593  35.737  32.756  1.00  0.00    -0.269 OA
BRANCH  57  60
ATOM     60  C   UNL A   1      33.781  34.980  32.401  1.00  0.00     0.039 A 
ATOM     61  C   UNL A   1      33.673  33.653  32.823  1.00  0.00    -0.049 A 
ATOM     62  C   UNL A   1      35.022  35.623  32.398  1.00  0.00    -0.049 A 
ATOM     63  C   UNL A   1      34.819  32.957  33.203  1.00  0.00    -0.053 A 
ATOM     64  H   UNL A   1      32.751  33.192  32.854  1.00  0.00     0.063 H 
ATOM     65  C   UNL A   1      36.173  34.907  32.705  1.00  0.00    -0.053 A 
ATOM     66  H   UNL A   1      35.084  36.627  32.169  1.00  0.00     0.063 H 
ATOM     67  C   UNL A   1      36.080  33.571  33.123  1.00  0.00    -0.014 A 
ATOM     68  H   UNL A   1      34.742  31.987  33.546  1.00  0.00     0.063 H 
ATOM     69  H   UNL A   1      37.097  35.358  32.624  1.00  0.00     0.063 H 
BRANCH  67  70
ATOM     70  C   UNL A   1      37.315  32.835  33.485  1.00  0.00     0.031 A 
ATOM     71  C   UNL A   1      38.036  33.155  34.763  1.00  0.00     0.074 A 
ATOM     72  C   UNL A   1      37.816  31.923  32.631  1.00  0.00     0.049 A 
ATOM     73  N   UNL A   1      39.163  32.671  35.223  1.00  0.00    -0.248 NA
ATOM     74  C   UNL A   1      37.425  34.177  35.627  1.00  0.00    -0.034 C 
ATOM     75  C   UNL A   1      37.230  31.565  31.339  1.00  0.00    -0.036 A 
ATOM     76  N   UNL A   1      38.940  31.141  32.716  1.00  0.00    -0.354 N 
ATOM     77  C   UNL A   1      39.396  33.334  36.421  1.00  0.00     0.074 A 
ATOM     78  C   UNL A   1      38.330  34.299  36.586  1.00  0.00    -0.034 C 
ATOM     79  H   UNL A   1      36.526  34.671  35.516  1.00  0.00     0.065 H 
ATOM     80  C   UNL A   1      37.989  30.624  30.758  1.00  0.00    -0.036 A 
ATOM     81  H   UNL A   1      36.370  31.972  30.939  1.00  0.00     0.065 H 
ATOM     82  C   UNL A   1      39.135  30.340  31.617  1.00  0.00     0.049 A 
ATOM     83  H   UNL A   1      39.548  31.153  33.489  1.00  0.00     0.167 HD
ATOM     84  C   UNL A   1      40.394  33.136  37.315  1.00  0.00     0.037 A 
ATOM     85  H   UNL A   1      38.283  34.990  37.351  1.00  0.00     0.065 H 
ATOM     86  H   UNL A   1      37.795  30.174  29.850  1.00  0.00     0.065 H 
ATOM     87  C   UNL A   1      40.131  29.482  31.332  1.00  0.00     0.037 A 
ATOM     88  C   UNL A   1      41.445  32.166  37.146  1.00  0.00     0.049 A 
ATOM     89  C   UNL A   1      41.237  29.288  32.334  1.00  0.00     0.074 A 
ATOM     90  C   UNL A   1      42.479  31.853  38.011  1.00  0.00    -0.036 A 
ATOM     91  N   UNL A   1      41.599  31.356  36.030  1.00  0.00    -0.354 N 
ATOM     92  N   UNL A   1      41.412  29.868  33.497  1.00  0.00    -0.248 NA
ATOM     93  C   UNL A   1      42.277  28.309  31.990  1.00  0.00    -0.034 C 
ATOM     94  C   UNL A   1      43.285  30.889  37.397  1.00  0.00    -0.036 A 
ATOM     95  H   UNL A   1      42.629  32.260  38.947  1.00  0.00     0.065 H 
ATOM     96  C   UNL A   1      42.723  30.558  36.174  1.00  0.00     0.049 A 
ATOM     97  H   UNL A   1      40.998  31.349  35.250  1.00  0.00     0.167 HD
ATOM     98  C   UNL A   1      42.564  29.312  34.034  1.00  0.00     0.074 A 
ATOM     99  C   UNL A   1      43.036  28.332  33.077  1.00  0.00    -0.034 C 
ATOM    100  H   UNL A   1      42.388  27.752  31.130  1.00  0.00     0.065 H 
ATOM    101  H   UNL A   1      44.154  30.492  37.789  1.00  0.00     0.065 H 
ATOM    102  C   UNL A   1      43.177  29.586  35.212  1.00  0.00     0.037 A 
ATOM    103  H   UNL A   1      43.861  27.728  33.222  1.00  0.00     0.065 H 
BRANCH  84 104
ATOM    104  C   UNL A   1      40.392  33.984  38.554  1.00  0.00     0.064 A 
ATOM    105  C   UNL A   1      41.087  35.203  38.612  1.00  0.00     0.173 A 
ATOM    106  C   UNL A   1      39.671  33.588  39.691  1.00  0.00     0.173 A 
ATOM    107  F   UNL A   1      41.801  35.624  37.558  1.00  0.00    -0.203 F 
ATOM    108  C   UNL A   1      41.089  35.974  39.772  1.00  0.00     0.198 A 
ATOM    109  C   UNL A   1      39.648  34.378  40.838  1.00  0.00     0.198 A 
ATOM    110  F   UNL A   1      38.984  32.436  39.690  1.00  0.00    -0.203 F 
ATOM    111  F   UNL A   1      41.808  37.104  39.822  1.00  0.00    -0.200 F 
ATOM    112  C   UNL A   1      40.365  35.564  40.881  1.00  0.00     0.200 A 
ATOM    113  F   UNL A   1      38.936  33.989  41.904  1.00  0.00    -0.200 F 
ATOM    114  F   UNL A   1      40.365  36.309  41.996  1.00  0.00    -0.200 F 
ENDBRANCH  84 104
BRANCH  87 115
ATOM    115  C   UNL A   1      40.116  28.732  30.049  1.00  0.00     0.064 A 
ATOM    116  C   UNL A   1      40.702  29.267  28.894  1.00  0.00     0.173 A 
ATOM    117  C   UNL A   1      39.525  27.464  29.954  1.00  0.00     0.173 A 
ATOM    118  F   UNL A   1      41.264  30.484  28.931  1.00  0.00    -0.203 F 
ATOM    119  C   UNL A   1      40.679  28.571  27.687  1.00  0.00     0.198 A 
ATOM    120  C   UNL A   1      39.530  26.755  28.754  1.00  0.00     0.198 A 
ATOM    121  F   UNL A   1      38.959  26.903  31.033  1.00  0.00    -0.203 F 
ATOM    122  F   UNL A   1      41.208  29.125  26.587  1.00  0.00    -0.200 F 
ATOM    123  C   UNL A   1      40.100  27.313  27.620  1.00  0.00     0.200 A 
ATOM    124  F   UNL A   1      38.987  25.532  28.698  1.00  0.00    -0.200 F 
ATOM    125  F   UNL A   1      40.086  26.641  26.461  1.00  0.00    -0.200 F 
ENDBRANCH  87 115
BRANCH 102 126
ATOM    126  C   UNL A   1      44.408  28.794  35.547  1.00  0.00     0.064 A 
ATOM    127  C   UNL A   1      44.337  27.587  36.258  1.00  0.00     0.173 A 
ATOM    128  C   UNL A   1      45.670  29.231  35.118  1.00  0.00     0.173 A 
ATOM    129  F   UNL A   1      43.156  27.134  36.704  1.00  0.00    -0.203 F 
ATOM    130  C   UNL A   1      45.489  26.861  36.550  1.00  0.00     0.198 A 
ATOM    131  C   UNL A   1      46.815  28.486  35.383  1.00  0.00     0.198 A 
ATOM    132  F   UNL A   1      45.793  30.376  34.430  1.00  0.00    -0.203 F 
ATOM    133  F   UNL A   1      45.404  25.736  37.274  1.00  0.00    -0.200 F 
ATOM    134  C   UNL A   1      46.725  27.305  36.105  1.00  0.00     0.200 A 
ATOM    135  F   UNL A   1      48.006  28.909  34.940  1.00  0.00    -0.200 F 
ATOM    136  F   UNL A   1      47.830  26.600  36.380  1.00  0.00    -0.200 F 
ENDBRANCH 102 126
ENDBRANCH  67  70
ENDBRANCH  57  60
ENDBRANCH  53  56
ENDBRANCH  50  53
ENDBRANCH  47  50
ENDBRANCH  44  47
ENDBRANCH  41  44
ENDBRANCH  38  41
ENDBRANCH   3  38
TORSDOF 22
ENDMDL
MODEL 2
REMARK VINA RESULT:      -9.9      0.804      2.375
REMARK SMILES CC(=O)Oc1ccccc1SCCCCCC(=O)NCCCCCCNC(=O)c1ccc(-c2c3nc(c(-c4c(F)c(F)c(F)c(F)c4F)c4ccc([nH]4)c(-c4c(F)c(F)c(F)c(F)c4F)c4nc(c(-c5c(F)c(F)c(F)c(F)c5F)c5ccc2[nH]5)C=C4)C=C3)cc1
REMARK SMILES IDX 17 1 18 2 19 3 16 5 15 8 14 11 13 14 12 17 11 20 10 21 5 22
REMARK SMILES IDX 6 23 7 24 9 26 8 27 4 31 2 32 3 33 1 34 20 38 21 41 22 44
REMARK SMILES IDX 23 47 24 50 25 53 26 56 27 57 28 59 29 60 30 61 91 62 31 63
REMARK SMILES IDX 90 65 32 67 33 70 34 71 84 72 35 73 89 74 83 75 85 76 36 77
REMARK SMILES IDX 88 78 82 80 81 82 37 84 69 87 49 88 68 89 50 90 53 91 67 92
REMARK SMILES IDX 86 93 51 94 52 96 66 98 87 99 54 102 38 104 39 105 47 106
REMARK SMILES IDX 40 107 41 108 45 109 48 110 42 111 43 112 46 113 44 114
REMARK SMILES IDX 70 115 71 116 79 117 72 118 73 119 77 120 80 121 74 122
REMARK SMILES IDX 75 123 78 124 76 125 55 126 56 127 64 128 57 129 58 130
REMARK SMILES IDX 62 131 65 132 59 133 60 134 63 135 61 136
REMARK H PARENT 19 4 16 6 16 7 15 9 15 10 14 12 14 13 13 15 13 16 12 18 12 19
REMARK H PARENT 6 25 7 28 9 29 8 30 1 35 1 36 1 37 20 39 20 40 21 42 21 43
REMARK H PARENT 22 45 22 46 23 48 23 49 24 51 24 52 25 54 25 55 26 58 30 64
REMARK H PARENT 91 66 31 68 90 69 89 79 83 81 85 83 88 85 82 86 50 95 53 97
REMARK H PARENT 86 100 51 101 87 103
REMARK Flexibility Score: inf
ROOT
ATOM      1  C   UNL A   1      33.015  29.457  27.170  1.00  0.00     0.219 C 
ATOM      2  O   UNL A   1      31.790  29.477  27.303  1.00  0.00    -0.275 OA
ATOM      3  N   UNL A   1      33.772  30.298  27.923  1.00  0.00    -0.356 N 
ATOM      4  H   UNL A   1      33.289  30.809  28.611  1.00  0.00     0.163 HD
ENDROOT
BRANCH   1   5
ATOM      5  C   UNL A   1      33.686  28.499  26.209  1.00  0.00     0.026 C 
ATOM      6  H   UNL A   1      34.730  28.733  26.176  1.00  0.00     0.037 H 
ATOM      7  H   UNL A   1      33.495  27.511  26.575  1.00  0.00     0.037 H 
BRANCH   5   8
ATOM      8  C   UNL A   1      33.137  28.550  24.782  1.00  0.00    -0.044 C 
ATOM      9  H   UNL A   1      32.271  27.922  24.760  1.00  0.00     0.027 H 
ATOM     10  H   UNL A   1      32.988  29.596  24.612  1.00  0.00     0.027 H 
BRANCH   8  11
ATOM     11  C   UNL A   1      34.030  28.120  23.599  1.00  0.00    -0.052 C 
ATOM     12  H   UNL A   1      34.497  29.007  23.224  1.00  0.00     0.027 H 
ATOM     13  H   UNL A   1      34.670  27.377  24.026  1.00  0.00     0.027 H 
BRANCH  11  14
ATOM     14  C   UNL A   1      33.404  27.404  22.397  1.00  0.00    -0.044 C 
ATOM     15  H   UNL A   1      32.346  27.513  22.517  1.00  0.00     0.028 H 
ATOM     16  H   UNL A   1      33.927  27.877  21.593  1.00  0.00     0.028 H 
BRANCH  14  17
ATOM     17  C   UNL A   1      33.628  25.922  22.047  1.00  0.00    -0.002 C 
ATOM     18  H   UNL A   1      33.545  25.880  20.981  1.00  0.00     0.038 H 
ATOM     19  H   UNL A   1      34.534  25.763  22.594  1.00  0.00     0.038 H 
BRANCH  17  20
ATOM     20  S   UNL A   1      32.698  24.475  22.638  1.00  0.00    -0.122 SA
BRANCH  20  21
ATOM     21  C   UNL A   1      31.826  24.952  24.109  1.00  0.00     0.050 A 
ATOM     22  C   UNL A   1      32.221  24.886  25.448  1.00  0.00     0.144 A 
ATOM     23  C   UNL A   1      31.511  25.593  26.436  1.00  0.00    -0.018 A 
ATOM     24  C   UNL A   1      30.369  26.322  26.108  1.00  0.00    -0.058 A 
ATOM     25  H   UNL A   1      31.841  25.572  27.414  1.00  0.00     0.066 H 
ATOM     26  C   UNL A   1      30.613  25.613  23.822  1.00  0.00    -0.045 A 
ATOM     27  C   UNL A   1      29.900  26.306  24.803  1.00  0.00    -0.061 A 
ATOM     28  H   UNL A   1      29.876  26.868  26.831  1.00  0.00     0.062 H 
ATOM     29  H   UNL A   1      30.241  25.584  22.859  1.00  0.00     0.064 H 
ATOM     30  H   UNL A   1      29.030  26.804  24.558  1.00  0.00     0.062 H 
BRANCH  22  31
ATOM     31  O   UNL A   1      33.468  24.395  25.922  1.00  0.00    -0.426 OA
BRANCH  31  32
ATOM     32  C   UNL A   1      34.313  23.409  25.416  1.00  0.00     0.308 C 
ATOM     33  O   UNL A   1      34.062  22.226  25.286  1.00  0.00    -0.252 OA
BRANCH  32  34
ATOM     34  C   UNL A   1      35.609  24.079  25.034  1.00  0.00     0.034 C 
ATOM     35  H   UNL A   1      36.303  24.002  25.844  1.00  0.00     0.035 H 
ATOM     36  H   UNL A   1      35.426  25.112  24.817  1.00  0.00     0.035 H 
ATOM     37  H   UNL A   1      36.016  23.600  24.167  1.00  0.00     0.035 H 
ENDBRANCH  32  34
ENDBRANCH  31  32
ENDBRANCH  22  31
ENDBRANCH  20  21
ENDBRANCH  17  20
ENDBRANCH  14  17
ENDBRANCH  11  14
ENDBRANCH   8  11
ENDBRANCH   5   8
ENDBRANCH   1   5
BRANCH   3  38
ATOM     38  C   UNL A   1      35.193  30.540  27.843  1.00  0.00     0.017 C 
ATOM     39  H   UNL A   1      35.556  30.203  26.895  1.00  0.00     0.049 H 
ATOM     40  H   UNL A   1      35.683  30.008  28.631  1.00  0.00     0.049 H 
BRANCH  38  41
ATOM     41  C   UNL A   1      35.483  32.032  27.992  1.00  0.00    -0.036 C 
ATOM     42  H   UNL A   1      35.443  32.483  27.023  1.00  0.00     0.028 H 
ATOM     43  H   UNL A   1      36.449  32.120  28.443  1.00  0.00     0.028 H 
BRANCH  41  44
ATOM     44  C   UNL A   1      34.500  32.756  28.901  1.00  0.00    -0.052 C 
ATOM     45  H   UNL A   1      34.785  32.581  29.917  1.00  0.00     0.027 H 
ATOM     46  H   UNL A   1      33.526  32.370  28.682  1.00  0.00     0.027 H 
BRANCH  44  47
ATOM     47  C   UNL A   1      34.452  34.268  28.663  1.00  0.00    -0.052 C 
ATOM     48  H   UNL A   1      34.634  34.445  27.623  1.00  0.00     0.027 H 
ATOM     49  H   UNL A   1      35.196  34.692  29.305  1.00  0.00     0.027 H 
BRANCH  47  50
ATOM     50  C   UNL A   1      33.129  34.947  29.037  1.00  0.00    -0.036 C 
ATOM     51  H   UNL A   1      32.618  34.319  29.737  1.00  0.00     0.028 H 
ATOM     52  H   UNL A   1      32.588  35.083  28.123  1.00  0.00     0.028 H 
BRANCH  50  53
ATOM     53  C   UNL A   1      33.281  36.332  29.662  1.00  0.00     0.018 C 
ATOM     54  H   UNL A   1      32.980  37.071  28.950  1.00  0.00     0.049 H 
ATOM     55  H   UNL A   1      34.306  36.466  29.938  1.00  0.00     0.049 H 
BRANCH  53  56
ATOM     56  N   UNL A   1      32.464  36.465  30.857  1.00  0.00    -0.352 N 
ATOM     57  C   UNL A   1      32.522  35.773  32.037  1.00  0.00     0.251 C 
ATOM     58  H   UNL A   1      31.764  37.156  30.811  1.00  0.00     0.163 HD
ATOM     59  O   UNL A   1      31.568  35.785  32.808  1.00  0.00    -0.269 OA
BRANCH  57  60
ATOM     60  C   UNL A   1      33.739  35.016  32.381  1.00  0.00     0.039 A 
ATOM     61  C   UNL A   1      34.986  35.620  32.205  1.00  0.00    -0.049 A 
ATOM     62  C   UNL A   1      33.648  33.697  32.832  1.00  0.00    -0.049 A 
ATOM     63  C   UNL A   1      36.144  34.912  32.524  1.00  0.00    -0.053 A 
ATOM     64  H   UNL A   1      35.050  36.583  31.842  1.00  0.00     0.063 H 
ATOM     65  C   UNL A   1      34.797  33.018  33.221  1.00  0.00    -0.053 A 
ATOM     66  H   UNL A   1      32.731  33.227  32.877  1.00  0.00     0.063 H 
ATOM     67  C   UNL A   1      36.056  33.615  33.058  1.00  0.00    -0.014 A 
ATOM     68  H   UNL A   1      37.069  35.341  32.368  1.00  0.00     0.063 H 
ATOM     69  H   UNL A   1      34.725  32.075  33.631  1.00  0.00     0.063 H 
BRANCH  67  70
ATOM     70  C   UNL A   1      37.274  32.861  33.440  1.00  0.00     0.031 A 
ATOM     71  C   UNL A   1      37.981  33.173  34.729  1.00  0.00     0.074 A 
ATOM     72  C   UNL A   1      37.774  31.939  32.595  1.00  0.00     0.049 A 
ATOM     73  N   UNL A   1      39.092  32.673  35.206  1.00  0.00    -0.248 NA
ATOM     74  C   UNL A   1      37.372  34.206  35.581  1.00  0.00    -0.034 C 
ATOM     75  C   UNL A   1      37.202  31.588  31.295  1.00  0.00    -0.036 A 
ATOM     76  N   UNL A   1      38.884  31.140  32.699  1.00  0.00    -0.354 N 
ATOM     77  C   UNL A   1      39.317  33.334  36.407  1.00  0.00     0.074 A 
ATOM     78  C   UNL A   1      38.264  34.316  36.554  1.00  0.00    -0.034 C 
ATOM     79  H   UNL A   1      36.482  34.713  35.455  1.00  0.00     0.065 H 
ATOM     80  C   UNL A   1      37.956  30.634  30.728  1.00  0.00    -0.036 A 
ATOM     81  H   UNL A   1      36.355  32.007  30.881  1.00  0.00     0.065 H 
ATOM     82  C   UNL A   1      39.084  30.334  31.605  1.00  0.00     0.049 A 
ATOM     83  H   UNL A   1      39.480  31.145  33.481  1.00  0.00     0.167 HD
ATOM     84  C   UNL A   1      40.298  33.123  37.316  1.00  0.00     0.037 A 
ATOM     85  H   UNL A   1      38.215  35.009  37.316  1.00  0.00     0.065 H 
ATOM     86  H   UNL A   1      37.769  30.185  29.818  1.00  0.00     0.065 H 
ATOM     87  C   UNL A   1      40.072  29.460  31.337  1.00  0.00     0.037 A 
ATOM     88  C   UNL A   1      41.337  32.137  37.165  1.00  0.00     0.049 A 
ATOM     89  C   UNL A   1      41.158  29.252  32.357  1.00  0.00     0.074 A 
ATOM     90  C   UNL A   1      42.353  31.810  38.046  1.00  0.00    -0.036 A 
ATOM     91  N   UNL A   1      41.495  31.322  36.053  1.00  0.00    -0.354 N 
ATOM     92  N   UNL A   1      41.324  29.832  33.520  1.00  0.00    -0.248 NA
ATOM     93  C   UNL A   1      42.188  28.257  32.030  1.00  0.00    -0.034 C 
ATOM     94  C   UNL A   1      43.153  30.833  37.447  1.00  0.00    -0.036 A 
ATOM     95  H   UNL A   1      42.494  32.217  38.984  1.00  0.00     0.065 H 
ATOM     96  C   UNL A   1      42.605  30.508  36.216  1.00  0.00     0.049 A 
ATOM     97  H   UNL A   1      40.906  31.323  35.264  1.00  0.00     0.167 HD
ATOM     98  C   UNL A   1      42.459  29.259  34.076  1.00  0.00     0.074 A 
ATOM     99  C   UNL A   1      42.932  28.270  33.128  1.00  0.00    -0.034 C 
ATOM    100  H   UNL A   1      42.304  27.696  31.172  1.00  0.00     0.065 H 
ATOM    101  H   UNL A   1      44.009  30.423  37.853  1.00  0.00     0.065 H 
ATOM    102  C   UNL A   1      43.058  29.527  35.263  1.00  0.00     0.037 A 
ATOM    103  H   UNL A   1      43.744  27.654  33.287  1.00  0.00     0.065 H 
BRANCH  84 104
ATOM    104  C   UNL A   1      40.290  33.974  38.553  1.00  0.00     0.064 A 
ATOM    105  C   UNL A   1      41.001  35.183  38.619  1.00  0.00     0.173 A 
ATOM    106  C   UNL A   1      39.547  33.591  39.680  1.00  0.00     0.173 A 
ATOM    107  F   UNL A   1      41.736  35.592  37.575  1.00  0.00    -0.203 F 
ATOM    108  C   UNL A   1      40.997  35.957  39.777  1.00  0.00     0.198 A 
ATOM    109  C   UNL A   1      39.519  34.383  40.825  1.00  0.00     0.198 A 
ATOM    110  F   UNL A   1      38.845  32.448  39.672  1.00  0.00    -0.203 F 
ATOM    111  F   UNL A   1      41.731  37.076  39.836  1.00  0.00    -0.200 F 
ATOM    112  C   UNL A   1      40.252  35.559  40.877  1.00  0.00     0.200 A 
ATOM    113  F   UNL A   1      38.786  34.006  41.882  1.00  0.00    -0.200 F 
ATOM    114  F   UNL A   1      40.246  36.306  41.990  1.00  0.00    -0.200 F 
ENDBRANCH  84 104
BRANCH  87 115
ATOM    115  C   UNL A   1      40.064  28.708  30.055  1.00  0.00     0.064 A 
ATOM    116  C   UNL A   1      39.447  27.454  29.958  1.00  0.00     0.173 A 
ATOM    117  C   UNL A   1      40.664  29.232  28.901  1.00  0.00     0.173 A 
ATOM    118  F   UNL A   1      38.876  26.904  31.039  1.00  0.00    -0.203 F 
ATOM    119  C   UNL A   1      39.448  26.743  28.760  1.00  0.00     0.198 A 
ATOM    120  C   UNL A   1      40.637  28.534  27.695  1.00  0.00     0.198 A 
ATOM    121  F   UNL A   1      41.259  30.434  28.938  1.00  0.00    -0.203 F 
ATOM    122  F   UNL A   1      38.890  25.526  28.706  1.00  0.00    -0.200 F 
ATOM    123  C   UNL A   1      40.037  27.287  27.627  1.00  0.00     0.200 A 
ATOM    124  F   UNL A   1      41.190  29.072  26.600  1.00  0.00    -0.200 F 
ATOM    125  F   UNL A   1      40.030  26.605  26.474  1.00  0.00    -0.200 F 
ENDBRANCH  87 115
BRANCH 102 126
ATOM    126  C   UNL A   1      44.272  28.717  35.619  1.00  0.00     0.064 A 
ATOM    127  C   UNL A   1      45.565  29.133  35.268  1.00  0.00     0.173 A 
ATOM    128  C   UNL A   1      44.140  27.529  36.353  1.00  0.00     0.173 A 
ATOM    129  F   UNL A   1      45.744  30.253  34.552  1.00  0.00    -0.203 F 
ATOM    130  C   UNL A   1      46.679  28.374  35.617  1.00  0.00     0.198 A 
ATOM    131  C   UNL A   1      45.259  26.791  36.729  1.00  0.00     0.198 A 
ATOM    132  F   UNL A   1      42.927  27.090  36.719  1.00  0.00    -0.203 F 
ATOM    133  F   UNL A   1      47.901  28.764  35.228  1.00  0.00    -0.200 F 
ATOM    134  C   UNL A   1      46.527  27.209  36.354  1.00  0.00     0.200 A 
ATOM    135  F   UNL A   1      45.110  25.674  37.454  1.00  0.00    -0.200 F 
ATOM    136  F   UNL A   1      47.601  26.485  36.696  1.00  0.00    -0.200 F 
ENDBRANCH 102 126
ENDBRANCH  67  70
ENDBRANCH  57  60
ENDBRANCH  53  56
ENDBRANCH  50  53
ENDBRANCH  47  50
ENDBRANCH  44  47
ENDBRANCH  41  44
ENDBRANCH  38  41
ENDBRANCH   3  38
TORSDOF 22
ENDMDL
MODEL 3
REMARK VINA RESULT:      -9.6      5.061     11.058
REMARK SMILES CC(=O)Oc1ccccc1SCCCCCC(=O)NCCCCCCNC(=O)c1ccc(-c2c3nc(c(-c4c(F)c(F)c(F)c(F)c4F)c4ccc([nH]4)c(-c4c(F)c(F)c(F)c(F)c4F)c4nc(c(-c5c(F)c(F)c(F)c(F)c5F)c5ccc2[nH]5)C=C4)C=C3)cc1
REMARK SMILES IDX 17 1 18 2 19 3 16 5 15 8 14 11 13 14 12 17 11 20 10 21 5 22
REMARK SMILES IDX 6 23 7 24 9 26 8 27 4 31 2 32 3 33 1 34 20 38 21 41 22 44
REMARK SMILES IDX 23 47 24 50 25 53 26 56 27 57 28 59 29 60 30 61 91 62 31 63
REMARK SMILES IDX 90 65 32 67 33 70 34 71 84 72 35 73 89 74 83 75 85 76 36 77
REMARK SMILES IDX 88 78 82 80 81 82 37 84 69 87 49 88 68 89 50 90 53 91 67 92
REMARK SMILES IDX 86 93 51 94 52 96 66 98 87 99 54 102 38 104 39 105 47 106
REMARK SMILES IDX 40 107 41 108 45 109 48 110 42 111 43 112 46 113 44 114
REMARK SMILES IDX 70 115 71 116 79 117 72 118 73 119 77 120 80 121 74 122
REMARK SMILES IDX 75 123 78 124 76 125 55 126 56 127 64 128 57 129 58 130
REMARK SMILES IDX 62 131 65 132 59 133 60 134 63 135 61 136
REMARK H PARENT 19 4 16 6 16 7 15 9 15 10 14 12 14 13 13 15 13 16 12 18 12 19
REMARK H PARENT 6 25 7 28 9 29 8 30 1 35 1 36 1 37 20 39 20 40 21 42 21 43
REMARK H PARENT 22 45 22 46 23 48 23 49 24 51 24 52 25 54 25 55 26 58 30 64
REMARK H PARENT 91 66 31 68 90 69 89 79 83 81 85 83 88 85 82 86 50 95 53 97
REMARK H PARENT 86 100 51 101 87 103
REMARK Flexibility Score: inf
ROOT
ATOM      1  C   UNL A   1      33.416  26.048  22.590  1.00  0.00     0.219 C 
ATOM      2  O   UNL A   1      34.027  26.508  21.624  1.00  0.00    -0.275 OA
ATOM      3  N   UNL A   1      32.775  24.857  22.455  1.00  0.00    -0.356 N 
ATOM      4  H   UNL A   1      32.927  24.382  21.607  1.00  0.00     0.163 HD
ENDROOT
BRANCH   1   5
ATOM      5  C   UNL A   1      33.390  26.768  23.921  1.00  0.00     0.026 C 
ATOM      6  H   UNL A   1      33.264  26.040  24.694  1.00  0.00     0.037 H 
ATOM      7  H   UNL A   1      34.316  27.301  24.000  1.00  0.00     0.037 H 
BRANCH   5   8
ATOM      8  C   UNL A   1      32.275  27.807  24.053  1.00  0.00    -0.044 C 
ATOM      9  H   UNL A   1      32.718  28.686  24.473  1.00  0.00     0.027 H 
ATOM     10  H   UNL A   1      31.887  27.881  23.059  1.00  0.00     0.027 H 
BRANCH   8  11
ATOM     11  C   UNL A   1      31.025  27.488  24.902  1.00  0.00    -0.052 C 
ATOM     12  H   UNL A   1      30.331  28.287  24.746  1.00  0.00     0.027 H 
ATOM     13  H   UNL A   1      30.733  26.516  24.561  1.00  0.00     0.027 H 
BRANCH  11  14
ATOM     14  C   UNL A   1      31.164  27.308  26.418  1.00  0.00    -0.044 C 
ATOM     15  H   UNL A   1      30.169  27.146  26.779  1.00  0.00     0.028 H 
ATOM     16  H   UNL A   1      31.906  26.540  26.457  1.00  0.00     0.028 H 
BRANCH  14  17
ATOM     17  C   UNL A   1      31.782  28.347  27.370  1.00  0.00    -0.002 C 
ATOM     18  H   UNL A   1      31.188  28.288  28.258  1.00  0.00     0.038 H 
ATOM     19  H   UNL A   1      32.805  28.040  27.299  1.00  0.00     0.038 H 
BRANCH  17  20
ATOM     20  S   UNL A   1      32.014  30.130  27.091  1.00  0.00    -0.122 SA
BRANCH  20  21
ATOM     21  C   UNL A   1      33.740  30.492  27.293  1.00  0.00     0.050 A 
ATOM     22  C   UNL A   1      34.373  31.693  27.626  1.00  0.00     0.144 A 
ATOM     23  C   UNL A   1      35.720  31.700  28.033  1.00  0.00    -0.018 A 
ATOM     24  C   UNL A   1      36.463  30.521  28.056  1.00  0.00    -0.058 A 
ATOM     25  H   UNL A   1      36.161  32.588  28.320  1.00  0.00     0.066 H 
ATOM     26  C   UNL A   1      34.542  29.332  27.229  1.00  0.00    -0.045 A 
ATOM     27  C   UNL A   1      35.881  29.339  27.622  1.00  0.00    -0.061 A 
ATOM     28  H   UNL A   1      37.438  30.528  28.392  1.00  0.00     0.062 H 
ATOM     29  H   UNL A   1      34.125  28.454  26.881  1.00  0.00     0.064 H 
ATOM     30  H   UNL A   1      36.436  28.469  27.590  1.00  0.00     0.062 H 
BRANCH  22  31
ATOM     31  O   UNL A   1      33.722  32.931  27.881  1.00  0.00    -0.426 OA
BRANCH  31  32
ATOM     32  C   UNL A   1      33.880  33.849  28.917  1.00  0.00     0.308 C 
ATOM     33  O   UNL A   1      33.654  33.665  30.098  1.00  0.00    -0.252 OA
BRANCH  32  34
ATOM     34  C   UNL A   1      34.405  35.126  28.312  1.00  0.00     0.034 C 
ATOM     35  H   UNL A   1      35.305  35.416  28.814  1.00  0.00     0.035 H 
ATOM     36  H   UNL A   1      33.672  35.899  28.418  1.00  0.00     0.035 H 
ATOM     37  H   UNL A   1      34.610  34.970  27.273  1.00  0.00     0.035 H 
ENDBRANCH  32  34
ENDBRANCH  31  32
ENDBRANCH  22  31
ENDBRANCH  20  21
ENDBRANCH  17  20
ENDBRANCH  14  17
ENDBRANCH  11  14
ENDBRANCH   8  11
ENDBRANCH   5   8
ENDBRANCH   1   5
BRANCH   3  38
ATOM     38  C   UNL A   1      31.899  24.198  23.395  1.00  0.00     0.017 C 
ATOM     39  H   UNL A   1      31.037  23.832  22.878  1.00  0.00     0.049 H 
ATOM     40  H   UNL A   1      31.602  24.899  24.147  1.00  0.00     0.049 H 
BRANCH  38  41
ATOM     41  C   UNL A   1      32.622  23.029  24.060  1.00  0.00    -0.036 C 
ATOM     42  H   UNL A   1      31.908  22.258  24.257  1.00  0.00     0.028 H 
ATOM     43  H   UNL A   1      33.072  23.407  24.954  1.00  0.00     0.028 H 
BRANCH  41  44
ATOM     44  C   UNL A   1      33.741  22.443  23.212  1.00  0.00    -0.052 C 
ATOM     45  H   UNL A   1      33.867  23.058  22.345  1.00  0.00     0.027 H 
ATOM     46  H   UNL A   1      33.456  21.443  22.961  1.00  0.00     0.027 H 
BRANCH  44  47
ATOM     47  C   UNL A   1      35.082  22.361  23.947  1.00  0.00    -0.052 C 
ATOM     48  H   UNL A   1      35.725  23.119  23.549  1.00  0.00     0.027 H 
ATOM     49  H   UNL A   1      35.446  21.367  23.790  1.00  0.00     0.027 H 
BRANCH  47  50
ATOM     50  C   UNL A   1      35.007  22.551  25.467  1.00  0.00    -0.036 C 
ATOM     51  H   UNL A   1      34.694  21.626  25.904  1.00  0.00     0.028 H 
ATOM     52  H   UNL A   1      34.317  23.351  25.639  1.00  0.00     0.028 H 
BRANCH  50  53
ATOM     53  C   UNL A   1      36.324  22.965  26.120  1.00  0.00     0.018 C 
ATOM     54  H   UNL A   1      36.133  23.267  27.128  1.00  0.00     0.049 H 
ATOM     55  H   UNL A   1      36.741  23.772  25.554  1.00  0.00     0.049 H 
BRANCH  53  56
ATOM     56  N   UNL A   1      37.278  21.868  26.127  1.00  0.00    -0.352 N 
ATOM     57  C   UNL A   1      38.646  21.900  26.127  1.00  0.00     0.251 C 
ATOM     58  H   UNL A   1      36.880  20.967  26.132  1.00  0.00     0.163 HD
ATOM     59  O   UNL A   1      39.288  20.904  25.810  1.00  0.00    -0.269 OA
BRANCH  57  60
ATOM     60  C   UNL A   1      39.348  23.136  26.517  1.00  0.00     0.039 A 
ATOM     61  C   UNL A   1      40.199  23.114  27.624  1.00  0.00    -0.049 A 
ATOM     62  C   UNL A   1      39.128  24.325  25.816  1.00  0.00    -0.049 A 
ATOM     63  C   UNL A   1      40.865  24.278  28.003  1.00  0.00    -0.053 A 
ATOM     64  H   UNL A   1      40.334  22.241  28.158  1.00  0.00     0.063 H 
ATOM     65  C   UNL A   1      39.849  25.466  26.148  1.00  0.00    -0.053 A 
ATOM     66  H   UNL A   1      38.433  24.357  25.055  1.00  0.00     0.063 H 
ATOM     67  C   UNL A   1      40.714  25.457  27.253  1.00  0.00    -0.014 A 
ATOM     68  H   UNL A   1      41.471  24.275  28.838  1.00  0.00     0.063 H 
ATOM     69  H   UNL A   1      39.749  26.322  25.581  1.00  0.00     0.063 H 
BRANCH  67  70
ATOM     70  C   UNL A   1      41.444  26.695  27.617  1.00  0.00     0.031 A 
ATOM     71  C   UNL A   1      42.871  26.883  27.186  1.00  0.00     0.074 A 
ATOM     72  C   UNL A   1      40.838  27.618  28.387  1.00  0.00     0.049 A 
ATOM     73  N   UNL A   1      43.697  27.861  27.459  1.00  0.00    -0.248 NA
ATOM     74  C   UNL A   1      43.456  25.815  26.361  1.00  0.00    -0.034 C 
ATOM     75  C   UNL A   1      39.474  27.520  28.906  1.00  0.00    -0.036 A 
ATOM     76  N   UNL A   1      41.297  28.814  28.878  1.00  0.00    -0.354 N 
ATOM     77  C   UNL A   1      44.897  27.522  26.848  1.00  0.00     0.074 A 
ATOM     78  C   UNL A   1      44.712  26.220  26.244  1.00  0.00    -0.034 C 
ATOM     79  H   UNL A   1      43.007  24.970  25.974  1.00  0.00     0.065 H 
ATOM     80  C   UNL A   1      39.200  28.615  29.631  1.00  0.00    -0.036 A 
ATOM     81  H   UNL A   1      38.826  26.733  28.742  1.00  0.00     0.065 H 
ATOM     82  C   UNL A   1      40.380  29.474  29.659  1.00  0.00     0.049 A 
ATOM     83  H   UNL A   1      42.196  29.164  28.689  1.00  0.00     0.167 HD
ATOM     84  C   UNL A   1      46.040  28.244  26.774  1.00  0.00     0.037 A 
ATOM     85  H   UNL A   1      45.460  25.679  25.784  1.00  0.00     0.065 H 
ATOM     86  H   UNL A   1      38.300  28.819  30.094  1.00  0.00     0.065 H 
ATOM     87  C   UNL A   1      40.486  30.636  30.329  1.00  0.00     0.037 A 
ATOM     88  C   UNL A   1      46.211  29.544  27.370  1.00  0.00     0.049 A 
ATOM     89  C   UNL A   1      41.770  31.415  30.243  1.00  0.00     0.074 A 
ATOM     90  C   UNL A   1      47.312  30.380  27.317  1.00  0.00    -0.036 A 
ATOM     91  N   UNL A   1      45.253  30.193  28.136  1.00  0.00    -0.354 N 
ATOM     92  N   UNL A   1      42.876  31.119  29.605  1.00  0.00    -0.248 NA
ATOM     93  C   UNL A   1      41.816  32.695  30.961  1.00  0.00    -0.034 C 
ATOM     94  C   UNL A   1      47.038  31.513  28.091  1.00  0.00    -0.036 A 
ATOM     95  H   UNL A   1      48.185  30.200  26.796  1.00  0.00     0.065 H 
ATOM     96  C   UNL A   1      45.745  31.410  28.579  1.00  0.00     0.049 A 
ATOM     97  H   UNL A   1      44.356  29.840  28.335  1.00  0.00     0.167 HD
ATOM     98  C   UNL A   1      43.740  32.183  29.822  1.00  0.00     0.074 A 
ATOM     99  C   UNL A   1      43.022  33.141  30.637  1.00  0.00    -0.034 C 
ATOM    100  H   UNL A   1      41.099  33.132  31.561  1.00  0.00     0.065 H 
ATOM    101  H   UNL A   1      47.689  32.293  28.269  1.00  0.00     0.065 H 
ATOM    102  C   UNL A   1      45.014  32.352  29.388  1.00  0.00     0.037 A 
ATOM    103  H   UNL A   1      43.401  34.056  30.929  1.00  0.00     0.065 H 
BRANCH  84 104
ATOM    104  C   UNL A   1      47.191  27.643  26.020  1.00  0.00     0.064 A 
ATOM    105  C   UNL A   1      47.325  27.803  24.631  1.00  0.00     0.173 A 
ATOM    106  C   UNL A   1      48.184  26.914  26.692  1.00  0.00     0.173 A 
ATOM    107  F   UNL A   1      46.398  28.481  23.937  1.00  0.00    -0.203 F 
ATOM    108  C   UNL A   1      48.389  27.228  23.941  1.00  0.00     0.198 A 
ATOM    109  C   UNL A   1      49.265  26.369  26.003  1.00  0.00     0.198 A 
ATOM    110  F   UNL A   1      48.111  26.733  28.019  1.00  0.00    -0.203 F 
ATOM    111  F   UNL A   1      48.463  27.346  22.608  1.00  0.00    -0.200 F 
ATOM    112  C   UNL A   1      49.361  26.517  24.628  1.00  0.00     0.200 A 
ATOM    113  F   UNL A   1      50.211  25.694  26.670  1.00  0.00    -0.200 F 
ATOM    114  F   UNL A   1      50.387  25.967  23.962  1.00  0.00    -0.200 F 
ENDBRANCH  84 104
BRANCH  87 115
ATOM    115  C   UNL A   1      39.334  31.136  31.125  1.00  0.00     0.064 A 
ATOM    116  C   UNL A   1      39.099  30.670  32.426  1.00  0.00     0.173 A 
ATOM    117  C   UNL A   1      38.453  32.096  30.606  1.00  0.00     0.173 A 
ATOM    118  F   UNL A   1      39.904  29.739  32.959  1.00  0.00    -0.203 F 
ATOM    119  C   UNL A   1      38.014  31.130  33.169  1.00  0.00     0.198 A 
ATOM    120  C   UNL A   1      37.387  32.578  31.363  1.00  0.00     0.198 A 
ATOM    121  F   UNL A   1      38.640  32.582  29.370  1.00  0.00    -0.203 F 
ATOM    122  F   UNL A   1      37.787  30.635  34.394  1.00  0.00    -0.200 F 
ATOM    123  C   UNL A   1      37.163  32.088  32.640  1.00  0.00     0.200 A 
ATOM    124  F   UNL A   1      36.578  33.517  30.855  1.00  0.00    -0.200 F 
ATOM    125  F   UNL A   1      36.125  32.535  33.359  1.00  0.00    -0.200 F 
ENDBRANCH  87 115
BRANCH 102 126
ATOM    126  C   UNL A   1      45.702  33.635  29.758  1.00  0.00     0.064 A 
ATOM    127  C   UNL A   1      46.477  33.748  30.921  1.00  0.00     0.173 A 
ATOM    128  C   UNL A   1      45.614  34.754  28.916  1.00  0.00     0.173 A 
ATOM    129  F   UNL A   1      46.580  32.711  31.767  1.00  0.00    -0.203 F 
ATOM    130  C   UNL A   1      47.117  34.942  31.242  1.00  0.00     0.198 A 
ATOM    131  C   UNL A   1      46.282  35.936  29.223  1.00  0.00     0.198 A 
ATOM    132  F   UNL A   1      44.890  34.698  27.788  1.00  0.00    -0.203 F 
ATOM    133  F   UNL A   1      47.811  35.043  32.384  1.00  0.00    -0.200 F 
ATOM    134  C   UNL A   1      47.026  36.032  30.389  1.00  0.00     0.200 A 
ATOM    135  F   UNL A   1      46.205  36.983  28.390  1.00  0.00    -0.200 F 
ATOM    136  F   UNL A   1      47.650  37.178  30.696  1.00  0.00    -0.200 F 
ENDBRANCH 102 126
ENDBRANCH  67  70
ENDBRANCH  57  60
ENDBRANCH  53  56
ENDBRANCH  50  53
ENDBRANCH  47  50
ENDBRANCH  44  47
ENDBRANCH  41  44
ENDBRANCH  38  41
ENDBRANCH   3  38
TORSDOF 22
ENDMDL
MODEL 4
REMARK VINA RESULT:      -9.6      6.796     12.563
REMARK SMILES CC(=O)Oc1ccccc1SCCCCCC(=O)NCCCCCCNC(=O)c1ccc(-c2c3nc(c(-c4c(F)c(F)c(F)c(F)c4F)c4ccc([nH]4)c(-c4c(F)c(F)c(F)c(F)c4F)c4nc(c(-c5c(F)c(F)c(F)c(F)c5F)c5ccc2[nH]5)C=C4)C=C3)cc1
REMARK SMILES IDX 17 1 18 2 19 3 16 5 15 8 14 11 13 14 12 17 11 20 10 21 5 22
REMARK SMILES IDX 6 23 7 24 9 26 8 27 4 31 2 32 3 33 1 34 20 38 21 41 22 44
REMARK SMILES IDX 23 47 24 50 25 53 26 56 27 57 28 59 29 60 30 61 91 62 31 63
REMARK SMILES IDX 90 65 32 67 33 70 34 71 84 72 35 73 89 74 83 75 85 76 36 77
REMARK SMILES IDX 88 78 82 80 81 82 37 84 69 87 49 88 68 89 50 90 53 91 67 92
REMARK SMILES IDX 86 93 51 94 52 96 66 98 87 99 54 102 38 104 39 105 47 106
REMARK SMILES IDX 40 107 41 108 45 109 48 110 42 111 43 112 46 113 44 114
REMARK SMILES IDX 70 115 71 116 79 117 72 118 73 119 77 120 80 121 74 122
REMARK SMILES IDX 75 123 78 124 76 125 55 126 56 127 64 128 57 129 58 130
REMARK SMILES IDX 62 131 65 132 59 133 60 134 63 135 61 136
REMARK H PARENT 19 4 16 6 16 7 15 9 15 10 14 12 14 13 13 15 13 16 12 18 12 19
REMARK H PARENT 6 25 7 28 9 29 8 30 1 35 1 36 1 37 20 39 20 40 21 42 21 43
REMARK H PARENT 22 45 22 46 23 48 23 49 24 51 24 52 25 54 25 55 26 58 30 64
REMARK H PARENT 91 66 31 68 90 69 89 79 83 81 85 83 88 85 82 86 50 95 53 97
REMARK H PARENT 86 100 51 101 87 103
REMARK Flexibility Score: inf
ROOT
ATOM      1  C   UNL A   1      37.206  22.711  24.743  1.00  0.00     0.219 C 
ATOM      2  O   UNL A   1      36.988  21.881  23.858  1.00  0.00    -0.275 OA
ATOM      3  N   UNL A   1      38.380  22.650  25.425  1.00  0.00    -0.356 N 
ATOM      4  H   UNL A   1      39.036  21.996  25.093  1.00  0.00     0.163 HD
ENDROOT
BRANCH   1   5
ATOM      5  C   UNL A   1      36.207  23.803  25.060  1.00  0.00     0.026 C 
ATOM      6  H   UNL A   1      36.630  24.436  25.812  1.00  0.00     0.037 H 
ATOM      7  H   UNL A   1      36.015  24.321  24.143  1.00  0.00     0.037 H 
BRANCH   5   8
ATOM      8  C   UNL A   1      34.856  23.293  25.567  1.00  0.00    -0.044 C 
ATOM      9  H   UNL A   1      34.416  22.736  24.766  1.00  0.00     0.027 H 
ATOM     10  H   UNL A   1      35.113  22.756  26.455  1.00  0.00     0.027 H 
BRANCH   8  11
ATOM     11  C   UNL A   1      33.790  24.297  26.052  1.00  0.00    -0.052 C 
ATOM     12  H   UNL A   1      34.066  24.590  27.044  1.00  0.00     0.027 H 
ATOM     13  H   UNL A   1      33.801  25.058  25.299  1.00  0.00     0.027 H 
BRANCH  11  14
ATOM     14  C   UNL A   1      32.318  23.873  26.108  1.00  0.00    -0.044 C 
ATOM     15  H   UNL A   1      32.141  23.331  25.202  1.00  0.00     0.028 H 
ATOM     16  H   UNL A   1      32.289  23.391  27.062  1.00  0.00     0.028 H 
BRANCH  14  17
ATOM     17  C   UNL A   1      31.131  24.843  26.245  1.00  0.00    -0.002 C 
ATOM     18  H   UNL A   1      30.345  24.251  26.666  1.00  0.00     0.038 H 
ATOM     19  H   UNL A   1      31.633  25.640  26.754  1.00  0.00     0.038 H 
BRANCH  17  20
ATOM     20  S   UNL A   1      30.322  25.820  24.941  1.00  0.00    -0.122 SA
BRANCH  20  21
ATOM     21  C   UNL A   1      31.009  27.456  24.982  1.00  0.00     0.050 A 
ATOM     22  C   UNL A   1      30.578  28.627  24.354  1.00  0.00     0.144 A 
ATOM     23  C   UNL A   1      31.080  29.879  24.755  1.00  0.00    -0.018 A 
ATOM     24  C   UNL A   1      32.059  29.969  25.744  1.00  0.00    -0.058 A 
ATOM     25  H   UNL A   1      30.720  30.739  24.314  1.00  0.00     0.066 H 
ATOM     26  C   UNL A   1      32.069  27.569  25.907  1.00  0.00    -0.045 A 
ATOM     27  C   UNL A   1      32.578  28.808  26.298  1.00  0.00    -0.061 A 
ATOM     28  H   UNL A   1      32.395  30.892  26.059  1.00  0.00     0.062 H 
ATOM     29  H   UNL A   1      32.481  26.709  26.305  1.00  0.00     0.064 H 
ATOM     30  H   UNL A   1      33.336  28.861  26.997  1.00  0.00     0.062 H 
BRANCH  22  31
ATOM     31  O   UNL A   1      29.440  28.745  23.508  1.00  0.00    -0.426 OA
BRANCH  31  32
ATOM     32  C   UNL A   1      29.207  29.558  22.400  1.00  0.00     0.308 C 
ATOM     33  O   UNL A   1      29.959  29.753  21.464  1.00  0.00    -0.252 OA
BRANCH  32  34
ATOM     34  C   UNL A   1      27.830  30.151  22.559  1.00  0.00     0.034 C 
ATOM     35  H   UNL A   1      27.428  30.385  21.596  1.00  0.00     0.035 H 
ATOM     36  H   UNL A   1      27.891  31.044  23.147  1.00  0.00     0.035 H 
ATOM     37  H   UNL A   1      27.192  29.445  23.050  1.00  0.00     0.035 H 
ENDBRANCH  32  34
ENDBRANCH  31  32
ENDBRANCH  22  31
ENDBRANCH  20  21
ENDBRANCH  17  20
ENDBRANCH  14  17
ENDBRANCH  11  14
ENDBRANCH   8  11
ENDBRANCH   5   8
ENDBRANCH   1   5
BRANCH   3  38
ATOM     38  C   UNL A   1      38.790  23.423  26.574  1.00  0.00     0.017 C 
ATOM     39  H   UNL A   1      38.073  23.299  27.358  1.00  0.00     0.049 H 
ATOM     40  H   UNL A   1      38.854  24.454  26.297  1.00  0.00     0.049 H 
BRANCH  38  41
ATOM     41  C   UNL A   1      40.158  22.952  27.064  1.00  0.00    -0.036 C 
ATOM     42  H   UNL A   1      40.266  23.238  28.089  1.00  0.00     0.028 H 
ATOM     43  H   UNL A   1      40.891  23.409  26.433  1.00  0.00     0.028 H 
BRANCH  41  44
ATOM     44  C   UNL A   1      40.357  21.447  26.961  1.00  0.00    -0.052 C 
ATOM     45  H   UNL A   1      39.681  21.065  26.226  1.00  0.00     0.027 H 
ATOM     46  H   UNL A   1      40.174  21.038  27.933  1.00  0.00     0.027 H 
BRANCH  44  47
ATOM     47  C   UNL A   1      41.782  21.049  26.564  1.00  0.00    -0.052 C 
ATOM     48  H   UNL A   1      42.383  21.044  27.450  1.00  0.00     0.027 H 
ATOM     49  H   UNL A   1      42.099  21.767  25.837  1.00  0.00     0.027 H 
BRANCH  47  50
ATOM     50  C   UNL A   1      41.913  19.676  25.892  1.00  0.00    -0.036 C 
ATOM     51  H   UNL A   1      41.904  19.821  24.832  1.00  0.00     0.028 H 
ATOM     52  H   UNL A   1      41.090  19.087  26.241  1.00  0.00     0.028 H 
BRANCH  50  53
ATOM     53  C   UNL A   1      43.183  18.910  26.258  1.00  0.00     0.018 C 
ATOM     54  H   UNL A   1      42.910  17.975  26.701  1.00  0.00     0.049 H 
ATOM     55  H   UNL A   1      43.748  19.504  26.945  1.00  0.00     0.049 H 
BRANCH  53  56
ATOM     56  N   UNL A   1      44.004  18.658  25.085  1.00  0.00    -0.352 N 
ATOM     57  C   UNL A   1      44.620  19.543  24.243  1.00  0.00     0.251 C 
ATOM     58  H   UNL A   1      44.135  17.707  24.863  1.00  0.00     0.163 HD
ATOM     59  O   UNL A   1      44.998  19.181  23.134  1.00  0.00    -0.269 OA
BRANCH  57  60
ATOM     60  C   UNL A   1      44.835  20.935  24.678  1.00  0.00     0.039 A 
ATOM     61  C   UNL A   1      44.427  21.978  23.844  1.00  0.00    -0.049 A 
ATOM     62  C   UNL A   1      45.481  21.207  25.888  1.00  0.00    -0.049 A 
ATOM     63  C   UNL A   1      44.629  23.298  24.244  1.00  0.00    -0.053 A 
ATOM     64  H   UNL A   1      43.980  21.773  22.937  1.00  0.00     0.063 H 
ATOM     65  C   UNL A   1      45.614  22.521  26.320  1.00  0.00    -0.053 A 
ATOM     66  H   UNL A   1      45.857  20.434  26.458  1.00  0.00     0.063 H 
ATOM     67  C   UNL A   1      45.202  23.579  25.496  1.00  0.00    -0.014 A 
ATOM     68  H   UNL A   1      44.358  24.072  23.618  1.00  0.00     0.063 H 
ATOM     69  H   UNL A   1      46.016  22.719  27.249  1.00  0.00     0.063 H 
BRANCH  67  70
ATOM     70  C   UNL A   1      45.388  24.976  25.957  1.00  0.00     0.031 A 
ATOM     71  C   UNL A   1      46.748  25.612  25.902  1.00  0.00     0.074 A 
ATOM     72  C   UNL A   1      44.344  25.645  26.480  1.00  0.00     0.049 A 
ATOM     73  N   UNL A   1      47.127  26.794  26.318  1.00  0.00    -0.248 NA
ATOM     74  C   UNL A   1      47.834  24.800  25.331  1.00  0.00    -0.034 C 
ATOM     75  C   UNL A   1      42.990  25.112  26.630  1.00  0.00    -0.036 A 
ATOM     76  N   UNL A   1      44.262  26.914  26.995  1.00  0.00    -0.354 N 
ATOM     77  C   UNL A   1      48.491  26.863  26.065  1.00  0.00     0.074 A 
ATOM     78  C   UNL A   1      48.886  25.582  25.520  1.00  0.00    -0.034 C 
ATOM     79  H   UNL A   1      47.788  23.865  24.895  1.00  0.00     0.065 H 
ATOM     80  C   UNL A   1      42.208  26.050  27.185  1.00  0.00    -0.036 A 
ATOM     81  H   UNL A   1      42.685  24.165  26.354  1.00  0.00     0.065 H 
ATOM     82  C   UNL A   1      43.013  27.235  27.464  1.00  0.00     0.049 A 
ATOM     83  H   UNL A   1      45.026  27.533  27.025  1.00  0.00     0.167 HD
ATOM     84  C   UNL A   1      49.332  27.909  26.246  1.00  0.00     0.037 A 
ATOM     85  H   UNL A   1      49.859  25.313  25.308  1.00  0.00     0.065 H 
ATOM     86  H   UNL A   1      41.200  25.951  27.382  1.00  0.00     0.065 H 
ATOM     87  C   UNL A   1      42.570  28.357  28.062  1.00  0.00     0.037 A 
ATOM     88  C   UNL A   1      48.927  29.183  26.780  1.00  0.00     0.049 A 
ATOM     89  C   UNL A   1      43.525  29.502  28.264  1.00  0.00     0.074 A 
ATOM     90  C   UNL A   1      49.688  30.325  26.962  1.00  0.00    -0.036 A 
ATOM     91  N   UNL A   1      47.646  29.482  27.224  1.00  0.00    -0.354 N 
ATOM     92  N   UNL A   1      44.797  29.583  27.958  1.00  0.00    -0.248 NA
ATOM     93  C   UNL A   1      42.980  30.717  28.885  1.00  0.00    -0.034 C 
ATOM     94  C   UNL A   1      48.880  31.297  27.562  1.00  0.00    -0.036 A 
ATOM     95  H   UNL A   1      50.680  30.439  26.700  1.00  0.00     0.065 H 
ATOM     96  C   UNL A   1      47.601  30.782  27.701  1.00  0.00     0.049 A 
ATOM     97  H   UNL A   1      46.883  28.861  27.205  1.00  0.00     0.167 HD
ATOM     98  C   UNL A   1      45.200  30.860  28.324  1.00  0.00     0.074 A 
ATOM     99  C   UNL A   1      44.030  31.526  28.859  1.00  0.00    -0.034 C 
ATOM    100  H   UNL A   1      42.030  30.893  29.247  1.00  0.00     0.065 H 
ATOM    101  H   UNL A   1      49.187  32.239  27.853  1.00  0.00     0.065 H 
ATOM    102  C   UNL A   1      46.426  31.430  28.228  1.00  0.00     0.037 A 
ATOM    103  H   UNL A   1      44.015  32.507  29.180  1.00  0.00     0.065 H 
BRANCH  84 104
ATOM    104  C   UNL A   1      50.770  27.716  25.859  1.00  0.00     0.064 A 
ATOM    105  C   UNL A   1      51.738  27.330  26.800  1.00  0.00     0.173 A 
ATOM    106  C   UNL A   1      51.185  27.897  24.531  1.00  0.00     0.173 A 
ATOM    107  F   UNL A   1      51.399  27.153  28.086  1.00  0.00    -0.203 F 
ATOM    108  C   UNL A   1      53.072  27.168  26.433  1.00  0.00     0.198 A 
ATOM    109  C   UNL A   1      52.513  27.702  24.161  1.00  0.00     0.198 A 
ATOM    110  F   UNL A   1      50.302  28.261  23.589  1.00  0.00    -0.203 F 
ATOM    111  F   UNL A   1      53.988  26.857  27.361  1.00  0.00    -0.200 F 
ATOM    112  C   UNL A   1      53.457  27.348  25.114  1.00  0.00     0.200 A 
ATOM    113  F   UNL A   1      52.881  27.862  22.883  1.00  0.00    -0.200 F 
ATOM    114  F   UNL A   1      54.741  27.188  24.760  1.00  0.00    -0.200 F 
ENDBRANCH  84 104
BRANCH  87 115
ATOM    115  C   UNL A   1      41.152  28.453  28.495  1.00  0.00     0.064 A 
ATOM    116  C   UNL A   1      40.163  28.935  27.626  1.00  0.00     0.173 A 
ATOM    117  C   UNL A   1      40.754  28.055  29.779  1.00  0.00     0.173 A 
ATOM    118  F   UNL A   1      40.497  29.345  26.394  1.00  0.00    -0.203 F 
ATOM    119  C   UNL A   1      38.835  29.036  28.034  1.00  0.00     0.198 A 
ATOM    120  C   UNL A   1      39.420  28.127  30.175  1.00  0.00     0.198 A 
ATOM    121  F   UNL A   1      41.660  27.577  30.645  1.00  0.00    -0.203 F 
ATOM    122  F   UNL A   1      37.917  29.542  27.198  1.00  0.00    -0.200 F 
ATOM    123  C   UNL A   1      38.463  28.625  29.305  1.00  0.00     0.200 A 
ATOM    124  F   UNL A   1      39.063  27.711  31.397  1.00  0.00    -0.200 F 
ATOM    125  F   UNL A   1      37.183  28.714  29.692  1.00  0.00    -0.200 F 
ENDBRANCH  87 115
BRANCH 102 126
ATOM    126  C   UNL A   1      46.559  32.856  28.680  1.00  0.00     0.064 A 
ATOM    127  C   UNL A   1      46.916  33.181  29.997  1.00  0.00     0.173 A 
ATOM    128  C   UNL A   1      46.364  33.908  27.773  1.00  0.00     0.173 A 
ATOM    129  F   UNL A   1      47.100  32.212  30.907  1.00  0.00    -0.203 F 
ATOM    130  C   UNL A   1      47.046  34.509  30.395  1.00  0.00     0.198 A 
ATOM    131  C   UNL A   1      46.526  35.233  28.166  1.00  0.00     0.198 A 
ATOM    132  F   UNL A   1      46.027  33.651  26.500  1.00  0.00    -0.203 F 
ATOM    133  F   UNL A   1      47.339  34.799  31.671  1.00  0.00    -0.200 F 
ATOM    134  C   UNL A   1      46.860  35.533  29.479  1.00  0.00     0.200 A 
ATOM    135  F   UNL A   1      46.360  36.220  27.276  1.00  0.00    -0.200 F 
ATOM    136  F   UNL A   1      46.993  36.810  29.862  1.00  0.00    -0.200 F 
ENDBRANCH 102 126
ENDBRANCH  67  70
ENDBRANCH  57  60
ENDBRANCH  53  56
ENDBRANCH  50  53
ENDBRANCH  47  50
ENDBRANCH  44  47
ENDBRANCH  41  44
ENDBRANCH  38  41
ENDBRANCH   3  38
TORSDOF 22
ENDMDL
MODEL 5
REMARK VINA RESULT:      -9.5      2.709      8.425
REMARK SMILES CC(=O)Oc1ccccc1SCCCCCC(=O)NCCCCCCNC(=O)c1ccc(-c2c3nc(c(-c4c(F)c(F)c(F)c(F)c4F)c4ccc([nH]4)c(-c4c(F)c(F)c(F)c(F)c4F)c4nc(c(-c5c(F)c(F)c(F)c(F)c5F)c5ccc2[nH]5)C=C4)C=C3)cc1
REMARK SMILES IDX 17 1 18 2 19 3 16 5 15 8 14 11 13 14 12 17 11 20 10 21 5 22
REMARK SMILES IDX 6 23 7 24 9 26 8 27 4 31 2 32 3 33 1 34 20 38 21 41 22 44
REMARK SMILES IDX 23 47 24 50 25 53 26 56 27 57 28 59 29 60 30 61 91 62 31 63
REMARK SMILES IDX 90 65 32 67 33 70 34 71 84 72 35 73 89 74 83 75 85 76 36 77
REMARK SMILES IDX 88 78 82 80 81 82 37 84 69 87 49 88 68 89 50 90 53 91 67 92
REMARK SMILES IDX 86 93 51 94 52 96 66 98 87 99 54 102 38 104 39 105 47 106
REMARK SMILES IDX 40 107 41 108 45 109 48 110 42 111 43 112 46 113 44 114
REMARK SMILES IDX 70 115 71 116 79 117 72 118 73 119 77 120 80 121 74 122
REMARK SMILES IDX 75 123 78 124 76 125 55 126 56 127 64 128 57 129 58 130
REMARK SMILES IDX 62 131 65 132 59 133 60 134 63 135 61 136
REMARK H PARENT 19 4 16 6 16 7 15 9 15 10 14 12 14 13 13 15 13 16 12 18 12 19
REMARK H PARENT 6 25 7 28 9 29 8 30 1 35 1 36 1 37 20 39 20 40 21 42 21 43
REMARK H PARENT 22 45 22 46 23 48 23 49 24 51 24 52 25 54 25 55 26 58 30 64
REMARK H PARENT 91 66 31 68 90 69 89 79 83 81 85 83 88 85 82 86 50 95 53 97
REMARK H PARENT 86 100 51 101 87 103
REMARK Flexibility Score: inf
ROOT
ATOM      1  C   UNL A   1      30.634  24.450  24.082  1.00  0.00     0.219 C 
ATOM      2  O   UNL A   1      30.638  23.345  24.627  1.00  0.00    -0.275 OA
ATOM      3  N   UNL A   1      31.210  24.581  22.857  1.00  0.00    -0.356 N 
ATOM      4  H   UNL A   1      31.510  23.745  22.433  1.00  0.00     0.163 HD
ENDROOT
BRANCH   1   5
ATOM      5  C   UNL A   1      29.981  25.648  24.737  1.00  0.00     0.026 C 
ATOM      6  H   UNL A   1      29.722  26.349  23.971  1.00  0.00     0.037 H 
ATOM      7  H   UNL A   1      29.127  25.281  25.268  1.00  0.00     0.037 H 
BRANCH   5   8
ATOM      8  C   UNL A   1      30.861  26.362  25.764  1.00  0.00    -0.044 C 
ATOM      9  H   UNL A   1      31.294  27.206  25.267  1.00  0.00     0.027 H 
ATOM     10  H   UNL A   1      30.188  26.561  26.571  1.00  0.00     0.027 H 
BRANCH   8  11
ATOM     11  C   UNL A   1      32.020  25.602  26.443  1.00  0.00    -0.052 C 
ATOM     12  H   UNL A   1      32.169  26.054  27.401  1.00  0.00     0.027 H 
ATOM     13  H   UNL A   1      31.692  24.583  26.431  1.00  0.00     0.027 H 
BRANCH  11  14
ATOM     14  C   UNL A   1      33.391  25.542  25.761  1.00  0.00    -0.044 C 
ATOM     15  H   UNL A   1      33.254  25.994  24.801  1.00  0.00     0.028 H 
ATOM     16  H   UNL A   1      34.003  25.997  26.511  1.00  0.00     0.028 H 
BRANCH  14  17
ATOM     17  C   UNL A   1      34.183  24.249  25.497  1.00  0.00    -0.002 C 
ATOM     18  H   UNL A   1      34.111  23.696  26.411  1.00  0.00     0.038 H 
ATOM     19  H   UNL A   1      33.720  23.963  24.575  1.00  0.00     0.038 H 
BRANCH  17  20
ATOM     20  S   UNL A   1      35.922  24.078  24.992  1.00  0.00    -0.122 SA
BRANCH  20  21
ATOM     21  C   UNL A   1      36.376  22.372  25.173  1.00  0.00     0.050 A 
ATOM     22  C   UNL A   1      35.602  21.217  25.029  1.00  0.00     0.144 A 
ATOM     23  C   UNL A   1      36.217  19.956  24.915  1.00  0.00    -0.018 A 
ATOM     24  C   UNL A   1      37.603  19.830  25.002  1.00  0.00    -0.058 A 
ATOM     25  H   UNL A   1      35.636  19.117  24.763  1.00  0.00     0.066 H 
ATOM     26  C   UNL A   1      37.764  22.204  25.358  1.00  0.00    -0.045 A 
ATOM     27  C   UNL A   1      38.376  20.953  25.257  1.00  0.00    -0.061 A 
ATOM     28  H   UNL A   1      38.049  18.907  24.880  1.00  0.00     0.062 H 
ATOM     29  H   UNL A   1      38.345  23.030  25.576  1.00  0.00     0.064 H 
ATOM     30  H   UNL A   1      39.398  20.864  25.370  1.00  0.00     0.062 H 
BRANCH  22  31
ATOM     31  O   UNL A   1      34.221  21.179  24.692  1.00  0.00    -0.426 OA
BRANCH  31  32
ATOM     32  C   UNL A   1      33.112  20.772  25.432  1.00  0.00     0.308 C 
ATOM     33  O   UNL A   1      32.101  20.249  25.006  1.00  0.00    -0.252 OA
BRANCH  32  34
ATOM     34  C   UNL A   1      33.398  21.085  26.880  1.00  0.00     0.034 C 
ATOM     35  H   UNL A   1      34.372  21.518  26.966  1.00  0.00     0.035 H 
ATOM     36  H   UNL A   1      33.355  20.183  27.455  1.00  0.00     0.035 H 
ATOM     37  H   UNL A   1      32.665  21.776  27.246  1.00  0.00     0.035 H 
ENDBRANCH  32  34
ENDBRANCH  31  32
ENDBRANCH  22  31
ENDBRANCH  20  21
ENDBRANCH  17  20
ENDBRANCH  14  17
ENDBRANCH  11  14
ENDBRANCH   8  11
ENDBRANCH   5   8
ENDBRANCH   1   5
BRANCH   3  38
ATOM     38  C   UNL A   1      31.438  25.787  22.098  1.00  0.00     0.017 C 
ATOM     39  H   UNL A   1      31.208  26.637  22.706  1.00  0.00     0.049 H 
ATOM     40  H   UNL A   1      30.811  25.778  21.230  1.00  0.00     0.049 H 
BRANCH  38  41
ATOM     41  C   UNL A   1      32.898  25.865  21.657  1.00  0.00    -0.036 C 
ATOM     42  H   UNL A   1      32.927  25.912  20.589  1.00  0.00     0.028 H 
ATOM     43  H   UNL A   1      33.388  24.994  22.040  1.00  0.00     0.028 H 
BRANCH  41  44
ATOM     44  C   UNL A   1      33.639  27.072  22.212  1.00  0.00    -0.052 C 
ATOM     45  H   UNL A   1      34.043  27.628  21.392  1.00  0.00     0.027 H 
ATOM     46  H   UNL A   1      34.402  26.702  22.865  1.00  0.00     0.027 H 
BRANCH  44  47
ATOM     47  C   UNL A   1      32.749  28.005  23.039  1.00  0.00    -0.052 C 
ATOM     48  H   UNL A   1      32.247  27.414  23.777  1.00  0.00     0.027 H 
ATOM     49  H   UNL A   1      32.085  28.474  22.343  1.00  0.00     0.027 H 
BRANCH  47  50
ATOM     50  C   UNL A   1      33.484  29.142  23.759  1.00  0.00    -0.036 C 
ATOM     51  H   UNL A   1      33.130  30.071  23.365  1.00  0.00     0.028 H 
ATOM     52  H   UNL A   1      34.529  28.985  23.588  1.00  0.00     0.028 H 
BRANCH  50  53
ATOM     53  C   UNL A   1      33.291  29.162  25.274  1.00  0.00     0.018 C 
ATOM     54  H   UNL A   1      34.230  28.966  25.748  1.00  0.00     0.049 H 
ATOM     55  H   UNL A   1      32.572  28.413  25.532  1.00  0.00     0.049 H 
BRANCH  53  56
ATOM     56  N   UNL A   1      32.792  30.451  25.726  1.00  0.00    -0.352 N 
ATOM     57  C   UNL A   1      33.104  31.163  26.853  1.00  0.00     0.251 C 
ATOM     58  H   UNL A   1      32.131  30.876  25.132  1.00  0.00     0.163 HD
ATOM     59  O   UNL A   1      32.366  32.063  27.239  1.00  0.00    -0.269 OA
BRANCH  57  60
ATOM     60  C   UNL A   1      34.335  30.847  27.598  1.00  0.00     0.039 A 
ATOM     61  C   UNL A   1      35.341  31.812  27.689  1.00  0.00    -0.049 A 
ATOM     62  C   UNL A   1      34.514  29.582  28.166  1.00  0.00    -0.049 A 
ATOM     63  C   UNL A   1      36.511  31.523  28.389  1.00  0.00    -0.053 A 
ATOM     64  H   UNL A   1      35.218  32.734  27.241  1.00  0.00     0.063 H 
ATOM     65  C   UNL A   1      35.648  29.320  28.927  1.00  0.00    -0.053 A 
ATOM     66  H   UNL A   1      33.807  28.845  28.022  1.00  0.00     0.063 H 
ATOM     67  C   UNL A   1      36.662  30.283  29.034  1.00  0.00    -0.014 A 
ATOM     68  H   UNL A   1      37.269  32.220  28.434  1.00  0.00     0.063 H 
ATOM     69  H   UNL A   1      35.743  28.417  29.414  1.00  0.00     0.063 H 
BRANCH  67  70
ATOM     70  C   UNL A   1      37.882  29.971  29.816  1.00  0.00     0.031 A 
ATOM     71  C   UNL A   1      38.904  29.015  29.270  1.00  0.00     0.074 A 
ATOM     72  C   UNL A   1      38.036  30.503  31.044  1.00  0.00     0.049 A 
ATOM     73  N   UNL A   1      39.999  28.564  29.828  1.00  0.00    -0.248 NA
ATOM     74  C   UNL A   1      38.645  28.469  27.929  1.00  0.00    -0.034 C 
ATOM     75  C   UNL A   1      37.086  31.404  31.697  1.00  0.00    -0.036 A 
ATOM     76  N   UNL A   1      39.041  30.352  31.964  1.00  0.00    -0.354 N 
ATOM     77  C   UNL A   1      40.552  27.680  28.911  1.00  0.00     0.074 A 
ATOM     78  C   UNL A   1      39.642  27.608  27.789  1.00  0.00    -0.034 C 
ATOM     79  H   UNL A   1      37.886  28.697  27.268  1.00  0.00     0.065 H 
ATOM     80  C   UNL A   1      37.560  31.738  32.907  1.00  0.00    -0.036 A 
ATOM     81  H   UNL A   1      36.194  31.731  31.292  1.00  0.00     0.065 H 
ATOM     82  C   UNL A   1      38.826  31.046  33.130  1.00  0.00     0.049 A 
ATOM     83  H   UNL A   1      39.839  29.799  31.805  1.00  0.00     0.167 HD
ATOM     84  C   UNL A   1      41.727  27.010  28.987  1.00  0.00     0.037 A 
ATOM     85  H   UNL A   1      39.754  26.969  26.987  1.00  0.00     0.065 H 
ATOM     86  H   UNL A   1      37.103  32.381  33.573  1.00  0.00     0.065 H 
ATOM     87  C   UNL A   1      39.563  31.107  34.254  1.00  0.00     0.037 A 
ATOM     88  C   UNL A   1      42.632  27.096  30.104  1.00  0.00     0.049 A 
ATOM     89  C   UNL A   1      40.858  30.345  34.321  1.00  0.00     0.074 A 
ATOM     90  C   UNL A   1      43.868  26.495  30.263  1.00  0.00    -0.036 A 
ATOM     91  N   UNL A   1      42.392  27.827  31.259  1.00  0.00    -0.354 N 
ATOM     92  N   UNL A   1      41.407  29.566  33.421  1.00  0.00    -0.248 NA
ATOM     93  C   UNL A   1      41.641  30.479  35.556  1.00  0.00    -0.034 C 
ATOM     94  C   UNL A   1      44.353  26.823  31.533  1.00  0.00    -0.036 A 
ATOM     95  H   UNL A   1      44.350  25.907  29.564  1.00  0.00     0.065 H 
ATOM     96  C   UNL A   1      43.447  27.675  32.144  1.00  0.00     0.049 A 
ATOM     97  H   UNL A   1      41.589  28.373  31.425  1.00  0.00     0.167 HD
ATOM     98  C   UNL A   1      42.609  29.137  33.967  1.00  0.00     0.074 A 
ATOM     99  C   UNL A   1      42.717  29.758  35.271  1.00  0.00    -0.034 C 
ATOM    100  H   UNL A   1      41.414  30.997  36.419  1.00  0.00     0.065 H 
ATOM    101  H   UNL A   1      45.237  26.486  31.946  1.00  0.00     0.065 H 
ATOM    102  C   UNL A   1      43.539  28.304  33.438  1.00  0.00     0.037 A 
ATOM    103  H   UNL A   1      43.529  29.653  35.900  1.00  0.00     0.065 H 
BRANCH  84 104
ATOM    104  C   UNL A   1      42.098  26.130  27.828  1.00  0.00     0.064 A 
ATOM    105  C   UNL A   1      41.588  24.828  27.701  1.00  0.00     0.173 A 
ATOM    106  C   UNL A   1      42.956  26.597  26.821  1.00  0.00     0.173 A 
ATOM    107  F   UNL A   1      40.773  24.327  28.641  1.00  0.00    -0.203 F 
ATOM    108  C   UNL A   1      41.951  24.016  26.630  1.00  0.00     0.198 A 
ATOM    109  C   UNL A   1      43.290  25.794  25.733  1.00  0.00     0.198 A 
ATOM    110  F   UNL A   1      43.469  27.835  26.887  1.00  0.00    -0.203 F 
ATOM    111  F   UNL A   1      41.498  22.756  26.562  1.00  0.00    -0.200 F 
ATOM    112  C   UNL A   1      42.796  24.501  25.644  1.00  0.00     0.200 A 
ATOM    113  F   UNL A   1      44.095  26.269  24.773  1.00  0.00    -0.200 F 
ATOM    114  F   UNL A   1      43.142  23.719  24.611  1.00  0.00    -0.200 F 
ENDBRANCH  84 104
BRANCH  87 115
ATOM    115  C   UNL A   1      39.097  31.934  35.398  1.00  0.00     0.064 A 
ATOM    116  C   UNL A   1      39.399  33.301  35.470  1.00  0.00     0.173 A 
ATOM    117  C   UNL A   1      38.332  31.379  36.434  1.00  0.00     0.173 A 
ATOM    118  F   UNL A   1      40.142  33.874  34.512  1.00  0.00    -0.203 F 
ATOM    119  C   UNL A   1      38.972  34.076  36.547  1.00  0.00     0.198 A 
ATOM    120  C   UNL A   1      37.880  32.162  37.494  1.00  0.00     0.198 A 
ATOM    121  F   UNL A   1      38.008  30.078  36.407  1.00  0.00    -0.203 F 
ATOM    122  F   UNL A   1      39.313  35.370  36.613  1.00  0.00    -0.200 F 
ATOM    123  C   UNL A   1      38.207  33.507  37.555  1.00  0.00     0.200 A 
ATOM    124  F   UNL A   1      37.125  31.613  38.455  1.00  0.00    -0.200 F 
ATOM    125  F   UNL A   1      37.790  34.256  38.584  1.00  0.00    -0.200 F 
ENDBRANCH  87 115
BRANCH 102 126
ATOM    126  C   UNL A   1      44.771  28.041  34.256  1.00  0.00     0.064 A 
ATOM    127  C   UNL A   1      45.907  28.858  34.162  1.00  0.00     0.173 A 
ATOM    128  C   UNL A   1      44.799  26.979  35.172  1.00  0.00     0.173 A 
ATOM    129  F   UNL A   1      45.935  29.877  33.290  1.00  0.00    -0.203 F 
ATOM    130  C   UNL A   1      47.035  28.605  34.937  1.00  0.00     0.198 A 
ATOM    131  C   UNL A   1      45.917  26.749  35.969  1.00  0.00     0.198 A 
ATOM    132  F   UNL A   1      43.737  26.170  35.305  1.00  0.00    -0.203 F 
ATOM    133  F   UNL A   1      48.128  29.369  34.795  1.00  0.00    -0.200 F 
ATOM    134  C   UNL A   1      47.037  27.558  35.846  1.00  0.00     0.200 A 
ATOM    135  F   UNL A   1      45.911  25.745  36.856  1.00  0.00    -0.200 F 
ATOM    136  F   UNL A   1      48.122  27.321  36.596  1.00  0.00    -0.200 F 
ENDBRANCH 102 126
ENDBRANCH  67  70
ENDBRANCH  57  60
ENDBRANCH  53  56
ENDBRANCH  50  53
ENDBRANCH  47  50
ENDBRANCH  44  47
ENDBRANCH  41  44
ENDBRANCH  38  41
ENDBRANCH   3  38
TORSDOF 22
ENDMDL
MODEL 6
REMARK VINA RESULT:      -9.5      4.892      9.345
REMARK SMILES CC(=O)Oc1ccccc1SCCCCCC(=O)NCCCCCCNC(=O)c1ccc(-c2c3nc(c(-c4c(F)c(F)c(F)c(F)c4F)c4ccc([nH]4)c(-c4c(F)c(F)c(F)c(F)c4F)c4nc(c(-c5c(F)c(F)c(F)c(F)c5F)c5ccc2[nH]5)C=C4)C=C3)cc1
REMARK SMILES IDX 17 1 18 2 19 3 16 5 15 8 14 11 13 14 12 17 11 20 10 21 5 22
REMARK SMILES IDX 6 23 7 24 9 26 8 27 4 31 2 32 3 33 1 34 20 38 21 41 22 44
REMARK SMILES IDX 23 47 24 50 25 53 26 56 27 57 28 59 29 60 30 61 91 62 31 63
REMARK SMILES IDX 90 65 32 67 33 70 34 71 84 72 35 73 89 74 83 75 85 76 36 77
REMARK SMILES IDX 88 78 82 80 81 82 37 84 69 87 49 88 68 89 50 90 53 91 67 92
REMARK SMILES IDX 86 93 51 94 52 96 66 98 87 99 54 102 38 104 39 105 47 106
REMARK SMILES IDX 40 107 41 108 45 109 48 110 42 111 43 112 46 113 44 114
REMARK SMILES IDX 70 115 71 116 79 117 72 118 73 119 77 120 80 121 74 122
REMARK SMILES IDX 75 123 78 124 76 125 55 126 56 127 64 128 57 129 58 130
REMARK SMILES IDX 62 131 65 132 59 133 60 134 63 135 61 136
REMARK H PARENT 19 4 16 6 16 7 15 9 15 10 14 12 14 13 13 15 13 16 12 18 12 19
REMARK H PARENT 6 25 7 28 9 29 8 30 1 35 1 36 1 37 20 39 20 40 21 42 21 43
REMARK H PARENT 22 45 22 46 23 48 23 49 24 51 24 52 25 54 25 55 26 58 30 64
REMARK H PARENT 91 66 31 68 90 69 89 79 83 81 85 83 88 85 82 86 50 95 53 97
REMARK H PARENT 86 100 51 101 87 103
REMARK Flexibility Score: inf
ROOT
ATOM      1  C   UNL A   1      33.204  25.681  22.354  1.00  0.00     0.219 C 
ATOM      2  O   UNL A   1      33.644  26.201  21.328  1.00  0.00    -0.275 OA
ATOM      3  N   UNL A   1      32.406  24.586  22.247  1.00  0.00    -0.356 N 
ATOM      4  H   UNL A   1      32.312  24.212  21.342  1.00  0.00     0.163 HD
ENDROOT
BRANCH   1   5
ATOM      5  C   UNL A   1      33.557  26.223  23.723  1.00  0.00     0.026 C 
ATOM      6  H   UNL A   1      33.469  25.426  24.432  1.00  0.00     0.037 H 
ATOM      7  H   UNL A   1      34.553  26.609  23.654  1.00  0.00     0.037 H 
BRANCH   5   8
ATOM      8  C   UNL A   1      32.670  27.379  24.190  1.00  0.00    -0.044 C 
ATOM      9  H   UNL A   1      33.227  27.919  24.927  1.00  0.00     0.027 H 
ATOM     10  H   UNL A   1      32.434  27.892  23.282  1.00  0.00     0.027 H 
BRANCH   8  11
ATOM     11  C   UNL A   1      31.285  27.085  24.805  1.00  0.00    -0.052 C 
ATOM     12  H   UNL A   1      30.579  27.701  24.288  1.00  0.00     0.027 H 
ATOM     13  H   UNL A   1      31.181  26.026  24.693  1.00  0.00     0.027 H 
BRANCH  11  14
ATOM     14  C   UNL A   1      31.058  27.309  26.304  1.00  0.00    -0.044 C 
ATOM     15  H   UNL A   1      30.026  27.580  26.400  1.00  0.00     0.028 H 
ATOM     16  H   UNL A   1      31.434  26.390  26.699  1.00  0.00     0.028 H 
BRANCH  14  17
ATOM     17  C   UNL A   1      31.831  28.324  27.165  1.00  0.00    -0.002 C 
ATOM     18  H   UNL A   1      31.347  28.294  28.119  1.00  0.00     0.038 H 
ATOM     19  H   UNL A   1      32.824  27.973  26.974  1.00  0.00     0.038 H 
BRANCH  17  20
ATOM     20  S   UNL A   1      32.103  30.094  26.845  1.00  0.00    -0.122 SA
BRANCH  20  21
ATOM     21  C   UNL A   1      33.794  30.463  27.235  1.00  0.00     0.050 A 
ATOM     22  C   UNL A   1      34.363  31.631  27.751  1.00  0.00     0.144 A 
ATOM     23  C   UNL A   1      35.669  31.619  28.274  1.00  0.00    -0.018 A 
ATOM     24  C   UNL A   1      36.441  30.458  28.232  1.00  0.00    -0.058 A 
ATOM     25  H   UNL A   1      36.059  32.477  28.693  1.00  0.00     0.066 H 
ATOM     26  C   UNL A   1      34.631  29.334  27.115  1.00  0.00    -0.045 A 
ATOM     27  C   UNL A   1      35.932  29.321  27.622  1.00  0.00    -0.061 A 
ATOM     28  H   UNL A   1      37.384  30.446  28.651  1.00  0.00     0.062 H 
ATOM     29  H   UNL A   1      34.271  28.491  26.638  1.00  0.00     0.064 H 
ATOM     30  H   UNL A   1      36.511  28.471  27.544  1.00  0.00     0.062 H 
BRANCH  22  31
ATOM     31  O   UNL A   1      33.658  32.821  28.082  1.00  0.00    -0.426 OA
BRANCH  31  32
ATOM     32  C   UNL A   1      33.984  33.865  28.946  1.00  0.00     0.308 C 
ATOM     33  O   UNL A   1      33.948  33.848  30.161  1.00  0.00    -0.252 OA
BRANCH  32  34
ATOM     34  C   UNL A   1      34.414  35.035  28.096  1.00  0.00     0.034 C 
ATOM     35  H   UNL A   1      34.513  34.720  27.079  1.00  0.00     0.035 H 
ATOM     36  H   UNL A   1      35.354  35.406  28.449  1.00  0.00     0.035 H 
ATOM     37  H   UNL A   1      33.679  35.811  28.161  1.00  0.00     0.035 H 
ENDBRANCH  32  34
ENDBRANCH  31  32
ENDBRANCH  22  31
ENDBRANCH  20  21
ENDBRANCH  17  20
ENDBRANCH  14  17
ENDBRANCH  11  14
ENDBRANCH   8  11
ENDBRANCH   5   8
ENDBRANCH   1   5
BRANCH   3  38
ATOM     38  C   UNL A   1      31.679  23.900  23.289  1.00  0.00     0.017 C 
ATOM     39  H   UNL A   1      30.831  23.407  22.862  1.00  0.00     0.049 H 
ATOM     40  H   UNL A   1      31.358  24.614  24.019  1.00  0.00     0.049 H 
BRANCH  38  41
ATOM     41  C   UNL A   1      32.577  22.865  23.965  1.00  0.00    -0.036 C 
ATOM     42  H   UNL A   1      32.008  21.972  24.116  1.00  0.00     0.028 H 
ATOM     43  H   UNL A   1      32.913  23.296  24.884  1.00  0.00     0.028 H 
BRANCH  41  44
ATOM     44  C   UNL A   1      33.817  22.514  23.157  1.00  0.00    -0.052 C 
ATOM     45  H   UNL A   1      33.844  23.139  22.289  1.00  0.00     0.027 H 
ATOM     46  H   UNL A   1      33.747  21.476  22.906  1.00  0.00     0.027 H 
BRANCH  44  47
ATOM     47  C   UNL A   1      35.123  22.706  23.933  1.00  0.00    -0.052 C 
ATOM     48  H   UNL A   1      35.725  23.412  23.400  1.00  0.00     0.027 H 
ATOM     49  H   UNL A   1      35.568  21.735  24.008  1.00  0.00     0.027 H 
BRANCH  47  50
ATOM     50  C   UNL A   1      34.959  23.212  25.372  1.00  0.00    -0.036 C 
ATOM     51  H   UNL A   1      34.339  22.518  25.901  1.00  0.00     0.028 H 
ATOM     52  H   UNL A   1      34.530  24.190  25.304  1.00  0.00     0.028 H 
BRANCH  50  53
ATOM     53  C   UNL A   1      36.269  23.364  26.143  1.00  0.00     0.018 C 
ATOM     54  H   UNL A   1      36.047  23.601  27.162  1.00  0.00     0.049 H 
ATOM     55  H   UNL A   1      36.839  24.146  25.687  1.00  0.00     0.049 H 
BRANCH  53  56
ATOM     56  N   UNL A   1      37.053  22.140  26.101  1.00  0.00    -0.352 N 
ATOM     57  C   UNL A   1      38.411  21.971  26.120  1.00  0.00     0.251 C 
ATOM     58  H   UNL A   1      36.527  21.308  26.051  1.00  0.00     0.163 HD
ATOM     59  O   UNL A   1      38.907  20.910  25.756  1.00  0.00    -0.269 OA
BRANCH  57  60
ATOM     60  C   UNL A   1      39.277  23.069  26.586  1.00  0.00     0.039 A 
ATOM     61  C   UNL A   1      39.118  24.341  26.032  1.00  0.00    -0.049 A 
ATOM     62  C   UNL A   1      40.274  22.829  27.536  1.00  0.00    -0.049 A 
ATOM     63  C   UNL A   1      39.935  25.386  26.464  1.00  0.00    -0.053 A 
ATOM     64  H   UNL A   1      38.402  24.507  25.308  1.00  0.00     0.063 H 
ATOM     65  C   UNL A   1      41.036  23.886  28.020  1.00  0.00    -0.053 A 
ATOM     66  H   UNL A   1      40.443  21.871  27.877  1.00  0.00     0.063 H 
ATOM     67  C   UNL A   1      40.883  25.171  27.479  1.00  0.00    -0.014 A 
ATOM     68  H   UNL A   1      39.843  26.320  26.037  1.00  0.00     0.063 H 
ATOM     69  H   UNL A   1      41.715  23.725  28.779  1.00  0.00     0.063 H 
BRANCH  67  70
ATOM     70  C   UNL A   1      41.733  26.277  27.979  1.00  0.00     0.031 A 
ATOM     71  C   UNL A   1      41.148  27.332  28.874  1.00  0.00     0.074 A 
ATOM     72  C   UNL A   1      43.014  26.362  27.574  1.00  0.00     0.049 A 
ATOM     73  N   UNL A   1      41.708  28.411  29.360  1.00  0.00    -0.248 NA
ATOM     74  C   UNL A   1      39.735  27.168  29.251  1.00  0.00    -0.034 C 
ATOM     75  C   UNL A   1      43.676  25.425  26.667  1.00  0.00    -0.036 A 
ATOM     76  N   UNL A   1      43.984  27.288  27.864  1.00  0.00    -0.354 N 
ATOM     77  C   UNL A   1      40.717  29.054  30.090  1.00  0.00     0.074 A 
ATOM     78  C   UNL A   1      39.504  28.280  29.932  1.00  0.00    -0.034 C 
ATOM     79  H   UNL A   1      39.091  26.389  29.040  1.00  0.00     0.065 H 
ATOM     80  C   UNL A   1      44.947  25.814  26.485  1.00  0.00    -0.036 A 
ATOM     81  H   UNL A   1      43.236  24.597  26.235  1.00  0.00     0.065 H 
ATOM     82  C   UNL A   1      45.179  27.047  27.231  1.00  0.00     0.049 A 
ATOM     83  H   UNL A   1      43.837  28.052  28.467  1.00  0.00     0.167 HD
ATOM     84  C   UNL A   1      40.817  30.173  30.846  1.00  0.00     0.037 A 
ATOM     85  H   UNL A   1      38.582  28.559  30.301  1.00  0.00     0.065 H 
ATOM     86  H   UNL A   1      45.649  25.321  25.910  1.00  0.00     0.065 H 
ATOM     87  C   UNL A   1      46.327  27.749  27.244  1.00  0.00     0.037 A 
ATOM     88  C   UNL A   1      42.030  30.931  31.006  1.00  0.00     0.049 A 
ATOM     89  C   UNL A   1      46.411  28.996  28.081  1.00  0.00     0.074 A 
ATOM     90  C   UNL A   1      42.252  32.054  31.783  1.00  0.00    -0.036 A 
ATOM     91  N   UNL A   1      43.229  30.645  30.367  1.00  0.00    -0.354 N 
ATOM     92  N   UNL A   1      45.488  29.558  28.824  1.00  0.00    -0.248 NA
ATOM     93  C   UNL A   1      47.700  29.701  28.091  1.00  0.00    -0.034 C 
ATOM     94  C   UNL A   1      43.570  32.475  31.577  1.00  0.00    -0.036 A 
ATOM     95  H   UNL A   1      41.564  32.503  32.408  1.00  0.00     0.065 H 
ATOM     96  C   UNL A   1      44.188  31.582  30.716  1.00  0.00     0.049 A 
ATOM     97  H   UNL A   1      43.376  29.887  29.755  1.00  0.00     0.167 HD
ATOM     98  C   UNL A   1      46.088  30.665  29.408  1.00  0.00     0.074 A 
ATOM     99  C   UNL A   1      47.461  30.685  28.947  1.00  0.00    -0.034 C 
ATOM    100  H   UNL A   1      48.563  29.487  27.568  1.00  0.00     0.065 H 
ATOM    101  H   UNL A   1      44.008  33.311  31.996  1.00  0.00     0.065 H 
ATOM    102  C   UNL A   1      45.551  31.584  30.249  1.00  0.00     0.037 A 
ATOM    103  H   UNL A   1      48.166  31.377  29.246  1.00  0.00     0.065 H 
BRANCH  84 104
ATOM    104  C   UNL A   1      39.580  30.640  31.558  1.00  0.00     0.064 A 
ATOM    105  C   UNL A   1      39.281  30.222  32.865  1.00  0.00     0.173 A 
ATOM    106  C   UNL A   1      38.691  31.532  30.938  1.00  0.00     0.173 A 
ATOM    107  F   UNL A   1      40.090  29.361  33.500  1.00  0.00    -0.203 F 
ATOM    108  C   UNL A   1      38.123  30.650  33.509  1.00  0.00     0.198 A 
ATOM    109  C   UNL A   1      37.551  31.985  31.599  1.00  0.00     0.198 A 
ATOM    110  F   UNL A   1      38.929  31.969  29.692  1.00  0.00    -0.203 F 
ATOM    111  F   UNL A   1      37.830  30.191  34.733  1.00  0.00    -0.200 F 
ATOM    112  C   UNL A   1      37.263  31.536  32.878  1.00  0.00     0.200 A 
ATOM    113  F   UNL A   1      36.728  32.852  30.993  1.00  0.00    -0.200 F 
ATOM    114  F   UNL A   1      36.150  31.950  33.501  1.00  0.00    -0.200 F 
ENDBRANCH  84 104
BRANCH  87 115
ATOM    115  C   UNL A   1      47.491  27.275  26.451  1.00  0.00     0.064 A 
ATOM    116  C   UNL A   1      47.671  27.680  25.122  1.00  0.00     0.173 A 
ATOM    117  C   UNL A   1      48.451  26.417  27.008  1.00  0.00     0.173 A 
ATOM    118  F   UNL A   1      46.771  28.485  24.540  1.00  0.00    -0.203 F 
ATOM    119  C   UNL A   1      48.756  27.228  24.373  1.00  0.00     0.198 A 
ATOM    120  C   UNL A   1      49.551  25.991  26.268  1.00  0.00     0.198 A 
ATOM    121  F   UNL A   1      48.329  26.008  28.279  1.00  0.00    -0.203 F 
ATOM    122  F   UNL A   1      48.880  27.596  23.090  1.00  0.00    -0.200 F 
ATOM    123  C   UNL A   1      49.699  26.389  24.949  1.00  0.00     0.200 A 
ATOM    124  F   UNL A   1      50.470  25.197  26.834  1.00  0.00    -0.200 F 
ATOM    125  F   UNL A   1      50.746  25.963  24.230  1.00  0.00    -0.200 F 
ENDBRANCH  87 115
BRANCH 102 126
ATOM    126  C   UNL A   1      46.460  32.669  30.751  1.00  0.00     0.064 A 
ATOM    127  C   UNL A   1      47.209  32.518  31.927  1.00  0.00     0.173 A 
ATOM    128  C   UNL A   1      46.609  33.860  30.025  1.00  0.00     0.173 A 
ATOM    129  F   UNL A   1      47.090  31.405  32.666  1.00  0.00    -0.203 F 
ATOM    130  C   UNL A   1      48.055  33.531  32.371  1.00  0.00     0.198 A 
ATOM    131  C   UNL A   1      47.481  34.857  30.454  1.00  0.00     0.198 A 
ATOM    132  F   UNL A   1      45.920  34.053  28.890  1.00  0.00    -0.203 F 
ATOM    133  F   UNL A   1      48.724  33.387  33.524  1.00  0.00    -0.200 F 
ATOM    134  C   UNL A   1      48.197  34.695  31.631  1.00  0.00     0.200 A 
ATOM    135  F   UNL A   1      47.627  35.975  29.730  1.00  0.00    -0.200 F 
ATOM    136  F   UNL A   1      49.018  35.666  32.056  1.00  0.00    -0.200 F 
ENDBRANCH 102 126
ENDBRANCH  67  70
ENDBRANCH  57  60
ENDBRANCH  53  56
ENDBRANCH  50  53
ENDBRANCH  47  50
ENDBRANCH  44  47
ENDBRANCH  41  44
ENDBRANCH  38  41
ENDBRANCH   3  38
TORSDOF 22
ENDMDL
MODEL 7
REMARK VINA RESULT:      -9.2      3.734      5.967
REMARK SMILES CC(=O)Oc1ccccc1SCCCCCC(=O)NCCCCCCNC(=O)c1ccc(-c2c3nc(c(-c4c(F)c(F)c(F)c(F)c4F)c4ccc([nH]4)c(-c4c(F)c(F)c(F)c(F)c4F)c4nc(c(-c5c(F)c(F)c(F)c(F)c5F)c5ccc2[nH]5)C=C4)C=C3)cc1
REMARK SMILES IDX 17 1 18 2 19 3 16 5 15 8 14 11 13 14 12 17 11 20 10 21 5 22
REMARK SMILES IDX 6 23 7 24 9 26 8 27 4 31 2 32 3 33 1 34 20 38 21 41 22 44
REMARK SMILES IDX 23 47 24 50 25 53 26 56 27 57 28 59 29 60 30 61 91 62 31 63
REMARK SMILES IDX 90 65 32 67 33 70 34 71 84 72 35 73 89 74 83 75 85 76 36 77
REMARK SMILES IDX 88 78 82 80 81 82 37 84 69 87 49 88 68 89 50 90 53 91 67 92
REMARK SMILES IDX 86 93 51 94 52 96 66 98 87 99 54 102 38 104 39 105 47 106
REMARK SMILES IDX 40 107 41 108 45 109 48 110 42 111 43 112 46 113 44 114
REMARK SMILES IDX 70 115 71 116 79 117 72 118 73 119 77 120 80 121 74 122
REMARK SMILES IDX 75 123 78 124 76 125 55 126 56 127 64 128 57 129 58 130
REMARK SMILES IDX 62 131 65 132 59 133 60 134 63 135 61 136
REMARK H PARENT 19 4 16 6 16 7 15 9 15 10 14 12 14 13 13 15 13 16 12 18 12 19
REMARK H PARENT 6 25 7 28 9 29 8 30 1 35 1 36 1 37 20 39 20 40 21 42 21 43
REMARK H PARENT 22 45 22 46 23 48 23 49 24 51 24 52 25 54 25 55 26 58 30 64
REMARK H PARENT 91 66 31 68 90 69 89 79 83 81 85 83 88 85 82 86 50 95 53 97
REMARK H PARENT 86 100 51 101 87 103
REMARK Flexibility Score: inf
ROOT
ATOM      1  C   UNL A   1      31.324  23.821  23.967  1.00  0.00     0.219 C 
ATOM      2  O   UNL A   1      30.642  23.555  22.976  1.00  0.00    -0.275 OA
ATOM      3  N   UNL A   1      30.809  23.581  25.202  1.00  0.00    -0.356 N 
ATOM      4  H   UNL A   1      29.946  23.108  25.223  1.00  0.00     0.163 HD
ENDROOT
BRANCH   1   5
ATOM      5  C   UNL A   1      32.724  24.379  23.832  1.00  0.00     0.026 C 
ATOM      6  H   UNL A   1      32.660  25.332  23.348  1.00  0.00     0.037 H 
ATOM      7  H   UNL A   1      33.127  24.444  24.822  1.00  0.00     0.037 H 
BRANCH   5   8
ATOM      8  C   UNL A   1      33.679  23.496  23.027  1.00  0.00    -0.044 C 
ATOM      9  H   UNL A   1      33.111  22.657  22.683  1.00  0.00     0.027 H 
ATOM     10  H   UNL A   1      34.067  24.162  22.286  1.00  0.00     0.027 H 
BRANCH   8  11
ATOM     11  C   UNL A   1      34.949  22.929  23.697  1.00  0.00    -0.052 C 
ATOM     12  H   UNL A   1      35.131  21.970  23.258  1.00  0.00     0.027 H 
ATOM     13  H   UNL A   1      35.683  23.690  23.527  1.00  0.00     0.027 H 
BRANCH  11  14
ATOM     14  C   UNL A   1      34.983  22.736  25.217  1.00  0.00    -0.044 C 
ATOM     15  H   UNL A   1      35.955  23.062  25.526  1.00  0.00     0.028 H 
ATOM     16  H   UNL A   1      34.099  23.266  25.502  1.00  0.00     0.028 H 
BRANCH  14  17
ATOM     17  C   UNL A   1      34.752  21.394  25.935  1.00  0.00    -0.002 C 
ATOM     18  H   UNL A   1      35.458  20.724  25.490  1.00  0.00     0.038 H 
ATOM     19  H   UNL A   1      34.797  21.743  26.946  1.00  0.00     0.038 H 
BRANCH  17  20
ATOM     20  S   UNL A   1      33.214  20.430  26.049  1.00  0.00    -0.122 SA
BRANCH  20  21
ATOM     21  C   UNL A   1      33.082  19.440  24.582  1.00  0.00     0.050 A 
ATOM     22  C   UNL A   1      33.218  18.059  24.414  1.00  0.00     0.144 A 
ATOM     23  C   UNL A   1      32.777  17.437  23.232  1.00  0.00    -0.018 A 
ATOM     24  C   UNL A   1      32.252  18.191  22.184  1.00  0.00    -0.058 A 
ATOM     25  H   UNL A   1      32.842  16.411  23.141  1.00  0.00     0.066 H 
ATOM     26  C   UNL A   1      32.640  20.187  23.469  1.00  0.00    -0.045 A 
ATOM     27  C   UNL A   1      32.213  19.573  22.291  1.00  0.00    -0.061 A 
ATOM     28  H   UNL A   1      31.895  17.724  21.336  1.00  0.00     0.062 H 
ATOM     29  H   UNL A   1      32.634  21.218  23.528  1.00  0.00     0.064 H 
ATOM     30  H   UNL A   1      31.869  20.145  21.503  1.00  0.00     0.062 H 
BRANCH  22  31
ATOM     31  O   UNL A   1      33.509  17.123  25.445  1.00  0.00    -0.426 OA
BRANCH  31  32
ATOM     32  C   UNL A   1      33.859  15.776  25.382  1.00  0.00     0.308 C 
ATOM     33  O   UNL A   1      34.954  15.316  25.118  1.00  0.00    -0.252 OA
BRANCH  32  34
ATOM     34  C   UNL A   1      32.628  14.974  25.720  1.00  0.00     0.034 C 
ATOM     35  H   UNL A   1      32.713  14.591  26.715  1.00  0.00     0.035 H 
ATOM     36  H   UNL A   1      32.531  14.160  25.031  1.00  0.00     0.035 H 
ATOM     37  H   UNL A   1      31.763  15.602  25.651  1.00  0.00     0.035 H 
ENDBRANCH  32  34
ENDBRANCH  31  32
ENDBRANCH  22  31
ENDBRANCH  20  21
ENDBRANCH  17  20
ENDBRANCH  14  17
ENDBRANCH  11  14
ENDBRANCH   8  11
ENDBRANCH   5   8
ENDBRANCH   1   5
BRANCH   3  38
ATOM     38  C   UNL A   1      31.364  23.931  26.488  1.00  0.00     0.017 C 
ATOM     39  H   UNL A   1      32.062  23.178  26.789  1.00  0.00     0.049 H 
ATOM     40  H   UNL A   1      30.571  23.999  27.204  1.00  0.00     0.049 H 
BRANCH  38  41
ATOM     41  C   UNL A   1      32.079  25.277  26.406  1.00  0.00    -0.036 C 
ATOM     42  H   UNL A   1      32.603  25.325  25.474  1.00  0.00     0.028 H 
ATOM     43  H   UNL A   1      32.738  25.334  27.247  1.00  0.00     0.028 H 
BRANCH  41  44
ATOM     44  C   UNL A   1      31.141  26.472  26.492  1.00  0.00    -0.052 C 
ATOM     45  H   UNL A   1      30.464  26.313  27.305  1.00  0.00     0.027 H 
ATOM     46  H   UNL A   1      30.635  26.544  25.552  1.00  0.00     0.027 H 
BRANCH  44  47
ATOM     47  C   UNL A   1      31.868  27.800  26.719  1.00  0.00    -0.052 C 
ATOM     48  H   UNL A   1      31.480  28.242  27.614  1.00  0.00     0.027 H 
ATOM     49  H   UNL A   1      31.692  28.388  25.842  1.00  0.00     0.027 H 
BRANCH  47  50
ATOM     50  C   UNL A   1      33.392  27.696  26.862  1.00  0.00    -0.036 C 
ATOM     51  H   UNL A   1      33.692  26.724  26.529  1.00  0.00     0.028 H 
ATOM     52  H   UNL A   1      33.613  27.872  27.894  1.00  0.00     0.028 H 
BRANCH  50  53
ATOM     53  C   UNL A   1      34.176  28.736  26.065  1.00  0.00     0.018 C 
ATOM     54  H   UNL A   1      33.888  28.677  25.037  1.00  0.00     0.049 H 
ATOM     55  H   UNL A   1      35.220  28.530  26.179  1.00  0.00     0.049 H 
BRANCH  53  56
ATOM     56  N   UNL A   1      33.918  30.081  26.554  1.00  0.00    -0.352 N 
ATOM     57  C   UNL A   1      34.510  30.766  27.581  1.00  0.00     0.251 C 
ATOM     58  H   UNL A   1      33.211  30.572  26.075  1.00  0.00     0.163 HD
ATOM     59  O   UNL A   1      33.963  31.751  28.063  1.00  0.00    -0.269 OA
BRANCH  57  60
ATOM     60  C   UNL A   1      35.814  30.318  28.101  1.00  0.00     0.039 A 
ATOM     61  C   UNL A   1      35.875  29.731  29.367  1.00  0.00    -0.049 A 
ATOM     62  C   UNL A   1      36.981  30.520  27.357  1.00  0.00    -0.049 A 
ATOM     63  C   UNL A   1      37.105  29.307  29.870  1.00  0.00    -0.053 A 
ATOM     64  H   UNL A   1      35.016  29.612  29.926  1.00  0.00     0.063 H 
ATOM     65  C   UNL A   1      38.193  30.030  27.826  1.00  0.00    -0.053 A 
ATOM     66  H   UNL A   1      36.941  31.032  26.463  1.00  0.00     0.063 H 
ATOM     67  C   UNL A   1      38.268  29.431  29.093  1.00  0.00    -0.014 A 
ATOM     68  H   UNL A   1      37.160  28.901  30.816  1.00  0.00     0.063 H 
ATOM     69  H   UNL A   1      39.040  30.106  27.243  1.00  0.00     0.063 H 
BRANCH  67  70
ATOM     70  C   UNL A   1      39.578  28.950  29.594  1.00  0.00     0.031 A 
ATOM     71  C   UNL A   1      40.355  29.772  30.582  1.00  0.00     0.074 A 
ATOM     72  C   UNL A   1      40.092  27.803  29.109  1.00  0.00     0.049 A 
ATOM     73  N   UNL A   1      41.544  29.557  31.086  1.00  0.00    -0.248 NA
ATOM     74  C   UNL A   1      39.725  31.019  31.043  1.00  0.00    -0.034 C 
ATOM     75  C   UNL A   1      39.451  26.948  28.111  1.00  0.00    -0.036 A 
ATOM     76  N   UNL A   1      41.276  27.168  29.383  1.00  0.00    -0.354 N 
ATOM     77  C   UNL A   1      41.804  30.641  31.915  1.00  0.00     0.074 A 
ATOM     78  C   UNL A   1      40.679  31.543  31.797  1.00  0.00    -0.034 C 
ATOM     79  H   UNL A   1      38.784  31.389  30.835  1.00  0.00     0.065 H 
ATOM     80  C   UNL A   1      40.242  25.893  27.865  1.00  0.00    -0.036 A 
ATOM     81  H   UNL A   1      38.537  27.128  27.665  1.00  0.00     0.065 H 
ATOM     82  C   UNL A   1      41.460  26.016  28.659  1.00  0.00     0.049 A 
ATOM     83  H   UNL A   1      41.931  27.506  30.034  1.00  0.00     0.167 HD
ATOM     84  C   UNL A   1      42.871  30.850  32.722  1.00  0.00     0.037 A 
ATOM     85  H   UNL A   1      40.628  32.473  32.241  1.00  0.00     0.065 H 
ATOM     86  H   UNL A   1      40.024  25.118  27.219  1.00  0.00     0.065 H 
ATOM     87  C   UNL A   1      42.500  25.162  28.633  1.00  0.00     0.037 A 
ATOM     88  C   UNL A   1      43.981  29.941  32.840  1.00  0.00     0.049 A 
ATOM     89  C   UNL A   1      43.681  25.421  29.528  1.00  0.00     0.074 A 
ATOM     90  C   UNL A   1      45.091  30.035  33.661  1.00  0.00    -0.036 A 
ATOM     91  N   UNL A   1      44.124  28.770  32.108  1.00  0.00    -0.354 N 
ATOM     92  N   UNL A   1      43.886  26.413  30.361  1.00  0.00    -0.248 NA
ATOM     93  C   UNL A   1      44.769  24.436  29.489  1.00  0.00    -0.034 C 
ATOM     94  C   UNL A   1      45.928  28.947  33.390  1.00  0.00    -0.036 A 
ATOM     95  H   UNL A   1      45.271  30.778  34.354  1.00  0.00     0.065 H 
ATOM     96  C   UNL A   1      45.314  28.144  32.442  1.00  0.00     0.049 A 
ATOM     97  H   UNL A   1      43.475  28.435  31.448  1.00  0.00     0.167 HD
ATOM     98  C   UNL A   1      45.111  26.162  30.962  1.00  0.00     0.074 A 
ATOM     99  C   UNL A   1      45.595  24.912  30.411  1.00  0.00    -0.034 C 
ATOM    100  H   UNL A   1      44.866  23.595  28.900  1.00  0.00     0.065 H 
ATOM    101  H   UNL A   1      46.849  28.773  33.822  1.00  0.00     0.065 H 
ATOM    102  C   UNL A   1      45.778  26.898  31.885  1.00  0.00     0.037 A 
ATOM    103  H   UNL A   1      46.472  24.450  30.700  1.00  0.00     0.065 H 
BRANCH  84 104
ATOM    104  C   UNL A   1      42.884  32.110  33.539  1.00  0.00     0.064 A 
ATOM    105  C   UNL A   1      43.474  33.291  33.061  1.00  0.00     0.173 A 
ATOM    106  C   UNL A   1      42.283  32.147  34.807  1.00  0.00     0.173 A 
ATOM    107  F   UNL A   1      44.072  33.309  31.860  1.00  0.00    -0.203 F 
ATOM    108  C   UNL A   1      43.493  34.449  33.834  1.00  0.00     0.198 A 
ATOM    109  C   UNL A   1      42.275  33.316  35.563  1.00  0.00     0.198 A 
ATOM    110  F   UNL A   1      41.700  31.050  35.312  1.00  0.00    -0.203 F 
ATOM    111  F   UNL A   1      44.114  35.546  33.379  1.00  0.00    -0.200 F 
ATOM    112  C   UNL A   1      42.888  34.462  35.081  1.00  0.00     0.200 A 
ATOM    113  F   UNL A   1      41.677  33.332  36.762  1.00  0.00    -0.200 F 
ATOM    114  F   UNL A   1      42.904  35.579  35.823  1.00  0.00    -0.200 F 
ENDBRANCH  84 104
BRANCH  87 115
ATOM    115  C   UNL A   1      42.458  23.975  27.739  1.00  0.00     0.064 A 
ATOM    116  C   UNL A   1      42.879  24.062  26.405  1.00  0.00     0.173 A 
ATOM    117  C   UNL A   1      42.008  22.730  28.202  1.00  0.00     0.173 A 
ATOM    118  F   UNL A   1      43.301  25.235  25.911  1.00  0.00    -0.203 F 
ATOM    119  C   UNL A   1      42.830  22.953  25.562  1.00  0.00     0.198 A 
ATOM    120  C   UNL A   1      41.990  21.615  27.367  1.00  0.00     0.198 A 
ATOM    121  F   UNL A   1      41.605  22.592  29.473  1.00  0.00    -0.203 F 
ATOM    122  F   UNL A   1      43.196  23.075  24.279  1.00  0.00    -0.200 F 
ATOM    123  C   UNL A   1      42.392  21.729  26.046  1.00  0.00     0.200 A 
ATOM    124  F   UNL A   1      41.585  20.431  27.844  1.00  0.00    -0.200 F 
ATOM    125  F   UNL A   1      42.355  20.662  25.236  1.00  0.00    -0.200 F 
ENDBRANCH  87 115
BRANCH 102 126
ATOM    126  C   UNL A   1      47.087  26.356  32.383  1.00  0.00     0.064 A 
ATOM    127  C   UNL A   1      47.153  25.471  33.470  1.00  0.00     0.173 A 
ATOM    128  C   UNL A   1      48.286  26.697  31.740  1.00  0.00     0.173 A 
ATOM    129  F   UNL A   1      46.036  25.126  34.129  1.00  0.00    -0.203 F 
ATOM    130  C   UNL A   1      48.374  24.969  33.910  1.00  0.00     0.198 A 
ATOM    131  C   UNL A   1      49.502  26.167  32.162  1.00  0.00     0.198 A 
ATOM    132  F   UNL A   1      48.278  27.534  30.692  1.00  0.00    -0.203 F 
ATOM    133  F   UNL A   1      48.420  24.165  34.981  1.00  0.00    -0.200 F 
ATOM    134  C   UNL A   1      49.546  25.310  33.251  1.00  0.00     0.200 A 
ATOM    135  F   UNL A   1      50.631  26.487  31.515  1.00  0.00    -0.200 F 
ATOM    136  F   UNL A   1      50.720  24.819  33.672  1.00  0.00    -0.200 F 
ENDBRANCH 102 126
ENDBRANCH  67  70
ENDBRANCH  57  60
ENDBRANCH  53  56
ENDBRANCH  50  53
ENDBRANCH  47  50
ENDBRANCH  44  47
ENDBRANCH  41  44
ENDBRANCH  38  41
ENDBRANCH   3  38
TORSDOF 22
ENDMDL
MODEL 8
REMARK VINA RESULT:      -9.2      6.693     12.299
REMARK SMILES CC(=O)Oc1ccccc1SCCCCCC(=O)NCCCCCCNC(=O)c1ccc(-c2c3nc(c(-c4c(F)c(F)c(F)c(F)c4F)c4ccc([nH]4)c(-c4c(F)c(F)c(F)c(F)c4F)c4nc(c(-c5c(F)c(F)c(F)c(F)c5F)c5ccc2[nH]5)C=C4)C=C3)cc1
REMARK SMILES IDX 17 1 18 2 19 3 16 5 15 8 14 11 13 14 12 17 11 20 10 21 5 22
REMARK SMILES IDX 6 23 7 24 9 26 8 27 4 31 2 32 3 33 1 34 20 38 21 41 22 44
REMARK SMILES IDX 23 47 24 50 25 53 26 56 27 57 28 59 29 60 30 61 91 62 31 63
REMARK SMILES IDX 90 65 32 67 33 70 34 71 84 72 35 73 89 74 83 75 85 76 36 77
REMARK SMILES IDX 88 78 82 80 81 82 37 84 69 87 49 88 68 89 50 90 53 91 67 92
REMARK SMILES IDX 86 93 51 94 52 96 66 98 87 99 54 102 38 104 39 105 47 106
REMARK SMILES IDX 40 107 41 108 45 109 48 110 42 111 43 112 46 113 44 114
REMARK SMILES IDX 70 115 71 116 79 117 72 118 73 119 77 120 80 121 74 122
REMARK SMILES IDX 75 123 78 124 76 125 55 126 56 127 64 128 57 129 58 130
REMARK SMILES IDX 62 131 65 132 59 133 60 134 63 135 61 136
REMARK H PARENT 19 4 16 6 16 7 15 9 15 10 14 12 14 13 13 15 13 16 12 18 12 19
REMARK H PARENT 6 25 7 28 9 29 8 30 1 35 1 36 1 37 20 39 20 40 21 42 21 43
REMARK H PARENT 22 45 22 46 23 48 23 49 24 51 24 52 25 54 25 55 26 58 30 64
REMARK H PARENT 91 66 31 68 90 69 89 79 83 81 85 83 88 85 82 86 50 95 53 97
REMARK H PARENT 86 100 51 101 87 103
REMARK Flexibility Score: inf
ROOT
ATOM      1  C   UNL A   1      37.171  22.714  24.956  1.00  0.00     0.219 C 
ATOM      2  O   UNL A   1      36.806  22.114  23.944  1.00  0.00    -0.275 OA
ATOM      3  N   UNL A   1      38.439  22.530  25.408  1.00  0.00    -0.356 N 
ATOM      4  H   UNL A   1      39.028  21.995  24.829  1.00  0.00     0.163 HD
ENDROOT
BRANCH   1   5
ATOM      5  C   UNL A   1      36.245  23.667  25.682  1.00  0.00     0.026 C 
ATOM      6  H   UNL A   1      36.406  23.555  26.734  1.00  0.00     0.037 H 
ATOM      7  H   UNL A   1      36.478  24.651  25.330  1.00  0.00     0.037 H 
BRANCH   5   8
ATOM      8  C   UNL A   1      34.759  23.440  25.397  1.00  0.00    -0.044 C 
ATOM      9  H   UNL A   1      34.600  23.683  24.367  1.00  0.00     0.027 H 
ATOM     10  H   UNL A   1      34.604  22.423  25.690  1.00  0.00     0.027 H 
BRANCH   8  11
ATOM     11  C   UNL A   1      33.695  24.211  26.207  1.00  0.00    -0.052 C 
ATOM     12  H   UNL A   1      32.822  23.593  26.242  1.00  0.00     0.027 H 
ATOM     13  H   UNL A   1      34.186  24.414  27.136  1.00  0.00     0.027 H 
BRANCH  11  14
ATOM     14  C   UNL A   1      33.240  25.596  25.735  1.00  0.00    -0.044 C 
ATOM     15  H   UNL A   1      32.883  25.456  24.736  1.00  0.00     0.028 H 
ATOM     16  H   UNL A   1      32.579  25.867  26.531  1.00  0.00     0.028 H 
BRANCH  14  17
ATOM     17  C   UNL A   1      34.141  26.842  25.679  1.00  0.00    -0.002 C 
ATOM     18  H   UNL A   1      34.430  27.014  26.695  1.00  0.00     0.038 H 
ATOM     19  H   UNL A   1      34.806  26.524  24.902  1.00  0.00     0.038 H 
BRANCH  17  20
ATOM     20  S   UNL A   1      33.738  28.494  25.031  1.00  0.00    -0.122 SA
BRANCH  20  21
ATOM     21  C   UNL A   1      32.361  28.323  23.925  1.00  0.00     0.050 A 
ATOM     22  C   UNL A   1      32.207  27.506  22.801  1.00  0.00     0.144 A 
ATOM     23  C   UNL A   1      30.933  27.293  22.242  1.00  0.00    -0.018 A 
ATOM     24  C   UNL A   1      29.812  27.939  22.760  1.00  0.00    -0.058 A 
ATOM     25  H   UNL A   1      30.829  26.652  21.440  1.00  0.00     0.066 H 
ATOM     26  C   UNL A   1      31.228  29.039  24.365  1.00  0.00    -0.045 A 
ATOM     27  C   UNL A   1      29.965  28.839  23.805  1.00  0.00    -0.061 A 
ATOM     28  H   UNL A   1      28.876  27.749  22.369  1.00  0.00     0.062 H 
ATOM     29  H   UNL A   1      31.336  29.732  25.123  1.00  0.00     0.064 H 
ATOM     30  H   UNL A   1      29.148  29.358  24.166  1.00  0.00     0.062 H 
BRANCH  22  31
ATOM     31  O   UNL A   1      33.180  26.602  22.293  1.00  0.00    -0.426 OA
BRANCH  31  32
ATOM     32  C   UNL A   1      33.054  25.517  21.427  1.00  0.00     0.308 C 
ATOM     33  O   UNL A   1      33.062  25.547  20.211  1.00  0.00    -0.252 OA
BRANCH  32  34
ATOM     34  C   UNL A   1      32.923  24.277  22.275  1.00  0.00     0.034 C 
ATOM     35  H   UNL A   1      33.311  24.470  23.252  1.00  0.00     0.035 H 
ATOM     36  H   UNL A   1      33.471  23.476  21.824  1.00  0.00     0.035 H 
ATOM     37  H   UNL A   1      31.890  24.004  22.347  1.00  0.00     0.035 H 
ENDBRANCH  32  34
ENDBRANCH  31  32
ENDBRANCH  22  31
ENDBRANCH  20  21
ENDBRANCH  17  20
ENDBRANCH  14  17
ENDBRANCH  11  14
ENDBRANCH   8  11
ENDBRANCH   5   8
ENDBRANCH   1   5
BRANCH   3  38
ATOM     38  C   UNL A   1      39.036  23.018  26.629  1.00  0.00     0.017 C 
ATOM     39  H   UNL A   1      38.830  22.330  27.422  1.00  0.00     0.049 H 
ATOM     40  H   UNL A   1      38.622  23.977  26.862  1.00  0.00     0.049 H 
BRANCH  38  41
ATOM     41  C   UNL A   1      40.547  23.155  26.460  1.00  0.00    -0.036 C 
ATOM     42  H   UNL A   1      40.798  24.194  26.492  1.00  0.00     0.028 H 
ATOM     43  H   UNL A   1      40.800  22.702  25.524  1.00  0.00     0.028 H 
BRANCH  41  44
ATOM     44  C   UNL A   1      41.348  22.434  27.534  1.00  0.00    -0.052 C 
ATOM     45  H   UNL A   1      41.209  22.947  28.462  1.00  0.00     0.027 H 
ATOM     46  H   UNL A   1      42.371  22.436  27.219  1.00  0.00     0.027 H 
BRANCH  44  47
ATOM     47  C   UNL A   1      40.936  20.971  27.721  1.00  0.00    -0.052 C 
ATOM     48  H   UNL A   1      39.995  20.827  27.230  1.00  0.00     0.027 H 
ATOM     49  H   UNL A   1      40.894  20.807  28.778  1.00  0.00     0.027 H 
BRANCH  47  50
ATOM     50  C   UNL A   1      41.925  19.937  27.169  1.00  0.00    -0.036 C 
ATOM     51  H   UNL A   1      41.641  18.973  27.540  1.00  0.00     0.028 H 
ATOM     52  H   UNL A   1      42.897  20.242  27.495  1.00  0.00     0.028 H 
BRANCH  50  53
ATOM     53  C   UNL A   1      41.979  19.863  25.644  1.00  0.00     0.018 C 
ATOM     54  H   UNL A   1      41.889  20.851  25.245  1.00  0.00     0.049 H 
ATOM     55  H   UNL A   1      41.176  19.242  25.308  1.00  0.00     0.049 H 
BRANCH  53  56
ATOM     56  N   UNL A   1      43.231  19.280  25.188  1.00  0.00    -0.352 N 
ATOM     57  C   UNL A   1      44.393  19.894  24.806  1.00  0.00     0.251 C 
ATOM     58  H   UNL A   1      43.245  18.296  25.149  1.00  0.00     0.163 HD
ATOM     59  O   UNL A   1      45.229  19.282  24.151  1.00  0.00    -0.269 OA
BRANCH  57  60
ATOM     60  C   UNL A   1      44.638  21.296  25.190  1.00  0.00     0.039 A 
ATOM     61  C   UNL A   1      44.417  22.307  24.252  1.00  0.00    -0.049 A 
ATOM     62  C   UNL A   1      45.131  21.605  26.461  1.00  0.00    -0.049 A 
ATOM     63  C   UNL A   1      44.649  23.635  24.604  1.00  0.00    -0.053 A 
ATOM     64  H   UNL A   1      44.083  22.071  23.304  1.00  0.00     0.063 H 
ATOM     65  C   UNL A   1      45.291  22.934  26.836  1.00  0.00    -0.053 A 
ATOM     66  H   UNL A   1      45.375  20.850  27.119  1.00  0.00     0.063 H 
ATOM     67  C   UNL A   1      45.064  23.960  25.906  1.00  0.00    -0.014 A 
ATOM     68  H   UNL A   1      44.517  24.383  23.906  1.00  0.00     0.063 H 
ATOM     69  H   UNL A   1      45.576  23.167  27.799  1.00  0.00     0.063 H 
BRANCH  67  70
ATOM     70  C   UNL A   1      45.279  25.370  26.312  1.00  0.00     0.031 A 
ATOM     71  C   UNL A   1      46.652  25.975  26.238  1.00  0.00     0.074 A 
ATOM     72  C   UNL A   1      44.247  26.082  26.804  1.00  0.00     0.049 A 
ATOM     73  N   UNL A   1      47.054  27.164  26.608  1.00  0.00    -0.248 NA
ATOM     74  C   UNL A   1      47.722  25.118  25.704  1.00  0.00    -0.034 C 
ATOM     75  C   UNL A   1      42.881  25.583  26.968  1.00  0.00    -0.036 A 
ATOM     76  N   UNL A   1      44.190  27.371  27.267  1.00  0.00    -0.354 N 
ATOM     77  C   UNL A   1      48.421  27.194  26.359  1.00  0.00     0.074 A 
ATOM     78  C   UNL A   1      48.790  25.885  25.867  1.00  0.00    -0.034 C 
ATOM     79  H   UNL A   1      47.658  24.168  25.306  1.00  0.00     0.065 H 
ATOM     80  C   UNL A   1      42.118  26.559  27.482  1.00  0.00    -0.036 A 
ATOM     81  H   UNL A   1      42.557  24.633  26.729  1.00  0.00     0.065 H 
ATOM     82  C   UNL A   1      42.946  27.737  27.718  1.00  0.00     0.049 A 
ATOM     83  H   UNL A   1      44.967  27.975  27.277  1.00  0.00     0.167 HD
ATOM     84  C   UNL A   1      49.282  28.229  26.502  1.00  0.00     0.037 A 
ATOM     85  H   UNL A   1      49.758  25.588  25.670  1.00  0.00     0.065 H 
ATOM     86  H   UNL A   1      41.107  26.489  27.679  1.00  0.00     0.065 H 
ATOM     87  C   UNL A   1      42.526  28.891  28.269  1.00  0.00     0.037 A 
ATOM     88  C   UNL A   1      48.903  29.532  26.983  1.00  0.00     0.049 A 
ATOM     89  C   UNL A   1      43.504  30.023  28.430  1.00  0.00     0.074 A 
ATOM     90  C   UNL A   1      49.687  30.663  27.123  1.00  0.00    -0.036 A 
ATOM     91  N   UNL A   1      47.627  29.875  27.410  1.00  0.00    -0.354 N 
ATOM     92  N   UNL A   1      44.778  30.065  28.126  1.00  0.00    -0.248 NA
ATOM     93  C   UNL A   1      42.982  31.272  28.999  1.00  0.00    -0.034 C 
ATOM     94  C   UNL A   1      48.898  31.675  27.681  1.00  0.00    -0.036 A 
ATOM     95  H   UNL A   1      50.682  30.747  26.861  1.00  0.00     0.065 H 
ATOM     96  C   UNL A   1      47.608  31.194  27.834  1.00  0.00     0.049 A 
ATOM     97  H   UNL A   1      46.851  29.270  27.411  1.00  0.00     0.167 HD
ATOM     98  C   UNL A   1      45.206  31.346  28.443  1.00  0.00     0.074 A 
ATOM     99  C   UNL A   1      44.049  32.058  28.946  1.00  0.00    -0.034 C 
ATOM    100  H   UNL A   1      42.035  31.483  29.349  1.00  0.00     0.065 H 
ATOM    101  H   UNL A   1      49.223  32.621  27.935  1.00  0.00     0.065 H 
ATOM    102  C   UNL A   1      46.445  31.886  28.329  1.00  0.00     0.037 A 
ATOM    103  H   UNL A   1      44.053  33.051  29.227  1.00  0.00     0.065 H 
BRANCH  84 104
ATOM    104  C   UNL A   1      50.718  27.991  26.130  1.00  0.00     0.064 A 
ATOM    105  C   UNL A   1      51.154  28.063  24.797  1.00  0.00     0.173 A 
ATOM    106  C   UNL A   1      51.675  27.708  27.116  1.00  0.00     0.173 A 
ATOM    107  F   UNL A   1      50.279  28.319  23.813  1.00  0.00    -0.203 F 
ATOM    108  C   UNL A   1      52.485  27.825  24.463  1.00  0.00     0.198 A 
ATOM    109  C   UNL A   1      53.011  27.504  26.782  1.00  0.00     0.198 A 
ATOM    110  F   UNL A   1      51.316  27.632  28.406  1.00  0.00    -0.203 F 
ATOM    111  F   UNL A   1      52.864  27.841  23.178  1.00  0.00    -0.200 F 
ATOM    112  C   UNL A   1      53.413  27.552  25.456  1.00  0.00     0.200 A 
ATOM    113  F   UNL A   1      53.910  27.254  27.744  1.00  0.00    -0.200 F 
ATOM    114  F   UNL A   1      54.695  27.327  25.133  1.00  0.00    -0.200 F 
ENDBRANCH  84 104
BRANCH  87 115
ATOM    115  C   UNL A   1      41.108  29.034  28.691  1.00  0.00     0.064 A 
ATOM    116  C   UNL A   1      40.745  28.949  30.042  1.00  0.00     0.173 A 
ATOM    117  C   UNL A   1      40.090  29.268  27.756  1.00  0.00     0.173 A 
ATOM    118  F   UNL A   1      41.681  28.709  30.972  1.00  0.00    -0.203 F 
ATOM    119  C   UNL A   1      39.415  29.072  30.439  1.00  0.00     0.198 A 
ATOM    120  C   UNL A   1      38.764  29.421  28.157  1.00  0.00     0.198 A 
ATOM    121  F   UNL A   1      40.385  29.367  26.451  1.00  0.00    -0.203 F 
ATOM    122  F   UNL A   1      39.091  28.943  31.733  1.00  0.00    -0.200 F 
ATOM    123  C   UNL A   1      38.427  29.315  29.497  1.00  0.00     0.200 A 
ATOM    124  F   UNL A   1      37.816  29.675  27.246  1.00  0.00    -0.200 F 
ATOM    125  F   UNL A   1      37.149  29.441  29.881  1.00  0.00    -0.200 F 
ENDBRANCH  87 115
BRANCH 102 126
ATOM    126  C   UNL A   1      46.606  33.326  28.726  1.00  0.00     0.064 A 
ATOM    127  C   UNL A   1      46.933  33.698  30.038  1.00  0.00     0.173 A 
ATOM    128  C   UNL A   1      46.470  34.343  27.769  1.00  0.00     0.173 A 
ATOM    129  F   UNL A   1      47.059  32.764  30.993  1.00  0.00    -0.203 F 
ATOM    130  C   UNL A   1      47.090  35.037  30.384  1.00  0.00     0.198 A 
ATOM    131  C   UNL A   1      46.660  35.679  28.111  1.00  0.00     0.198 A 
ATOM    132  F   UNL A   1      46.165  34.042  26.498  1.00  0.00    -0.203 F 
ATOM    133  F   UNL A   1      47.351  35.373  31.655  1.00  0.00    -0.200 F 
ATOM    134  C   UNL A   1      46.962  36.026  29.420  1.00  0.00     0.200 A 
ATOM    135  F   UNL A   1      46.551  36.631  27.175  1.00  0.00    -0.200 F 
ATOM    136  F   UNL A   1      47.122  37.314  29.753  1.00  0.00    -0.200 F 
ENDBRANCH 102 126
ENDBRANCH  67  70
ENDBRANCH  57  60
ENDBRANCH  53  56
ENDBRANCH  50  53
ENDBRANCH  47  50
ENDBRANCH  44  47
ENDBRANCH  41  44
ENDBRANCH  38  41
ENDBRANCH   3  38
TORSDOF 22
ENDMDL
MODEL 9
REMARK VINA RESULT:      -9.2      5.090      9.541
REMARK SMILES CC(=O)Oc1ccccc1SCCCCCC(=O)NCCCCCCNC(=O)c1ccc(-c2c3nc(c(-c4c(F)c(F)c(F)c(F)c4F)c4ccc([nH]4)c(-c4c(F)c(F)c(F)c(F)c4F)c4nc(c(-c5c(F)c(F)c(F)c(F)c5F)c5ccc2[nH]5)C=C4)C=C3)cc1
REMARK SMILES IDX 17 1 18 2 19 3 16 5 15 8 14 11 13 14 12 17 11 20 10 21 5 22
REMARK SMILES IDX 6 23 7 24 9 26 8 27 4 31 2 32 3 33 1 34 20 38 21 41 22 44
REMARK SMILES IDX 23 47 24 50 25 53 26 56 27 57 28 59 29 60 30 61 91 62 31 63
REMARK SMILES IDX 90 65 32 67 33 70 34 71 84 72 35 73 89 74 83 75 85 76 36 77
REMARK SMILES IDX 88 78 82 80 81 82 37 84 69 87 49 88 68 89 50 90 53 91 67 92
REMARK SMILES IDX 86 93 51 94 52 96 66 98 87 99 54 102 38 104 39 105 47 106
REMARK SMILES IDX 40 107 41 108 45 109 48 110 42 111 43 112 46 113 44 114
REMARK SMILES IDX 70 115 71 116 79 117 72 118 73 119 77 120 80 121 74 122
REMARK SMILES IDX 75 123 78 124 76 125 55 126 56 127 64 128 57 129 58 130
REMARK SMILES IDX 62 131 65 132 59 133 60 134 63 135 61 136
REMARK H PARENT 19 4 16 6 16 7 15 9 15 10 14 12 14 13 13 15 13 16 12 18 12 19
REMARK H PARENT 6 25 7 28 9 29 8 30 1 35 1 36 1 37 20 39 20 40 21 42 21 43
REMARK H PARENT 22 45 22 46 23 48 23 49 24 51 24 52 25 54 25 55 26 58 30 64
REMARK H PARENT 91 66 31 68 90 69 89 79 83 81 85 83 88 85 82 86 50 95 53 97
REMARK H PARENT 86 100 51 101 87 103
REMARK Flexibility Score: inf
ROOT
ATOM      1  C   UNL A   1      33.111  25.350  22.442  1.00  0.00     0.219 C 
ATOM      2  O   UNL A   1      33.654  25.836  21.449  1.00  0.00    -0.275 OA
ATOM      3  N   UNL A   1      32.452  24.168  22.317  1.00  0.00    -0.356 N 
ATOM      4  H   UNL A   1      32.538  23.718  21.446  1.00  0.00     0.163 HD
ENDROOT
BRANCH   1   5
ATOM      5  C   UNL A   1      33.189  26.028  23.793  1.00  0.00     0.026 C 
ATOM      6  H   UNL A   1      33.450  25.291  24.523  1.00  0.00     0.037 H 
ATOM      7  H   UNL A   1      33.922  26.804  23.706  1.00  0.00     0.037 H 
BRANCH   5   8
ATOM      8  C   UNL A   1      31.889  26.702  24.235  1.00  0.00    -0.044 C 
ATOM      9  H   UNL A   1      32.092  27.750  24.308  1.00  0.00     0.027 H 
ATOM     10  H   UNL A   1      31.184  26.390  23.492  1.00  0.00     0.027 H 
BRANCH   8  11
ATOM     11  C   UNL A   1      31.219  26.284  25.561  1.00  0.00    -0.052 C 
ATOM     12  H   UNL A   1      30.246  25.913  25.314  1.00  0.00     0.027 H 
ATOM     13  H   UNL A   1      31.913  25.588  25.983  1.00  0.00     0.027 H 
BRANCH  11  14
ATOM     14  C   UNL A   1      31.030  27.320  26.675  1.00  0.00    -0.044 C 
ATOM     15  H   UNL A   1      30.251  27.969  26.334  1.00  0.00     0.028 H 
ATOM     16  H   UNL A   1      30.894  26.678  27.519  1.00  0.00     0.028 H 
BRANCH  14  17
ATOM     17  C   UNL A   1      32.138  28.249  27.203  1.00  0.00    -0.002 C 
ATOM     18  H   UNL A   1      32.124  28.111  28.264  1.00  0.00     0.038 H 
ATOM     19  H   UNL A   1      32.932  27.935  26.558  1.00  0.00     0.038 H 
BRANCH  17  20
ATOM     20  S   UNL A   1      32.300  30.047  26.977  1.00  0.00    -0.122 SA
BRANCH  20  21
ATOM     21  C   UNL A   1      33.991  30.484  27.292  1.00  0.00     0.050 A 
ATOM     22  C   UNL A   1      34.542  31.699  27.709  1.00  0.00     0.144 A 
ATOM     23  C   UNL A   1      35.862  31.756  28.193  1.00  0.00    -0.018 A 
ATOM     24  C   UNL A   1      36.662  30.614  28.211  1.00  0.00    -0.058 A 
ATOM     25  H   UNL A   1      36.240  32.651  28.540  1.00  0.00     0.066 H 
ATOM     26  C   UNL A   1      34.854  29.370  27.227  1.00  0.00    -0.045 A 
ATOM     27  C   UNL A   1      36.167  29.425  27.696  1.00  0.00    -0.061 A 
ATOM     28  H   UNL A   1      37.616  30.655  28.602  1.00  0.00     0.062 H 
ATOM     29  H   UNL A   1      34.503  28.487  26.821  1.00  0.00     0.064 H 
ATOM     30  H   UNL A   1      36.767  28.586  27.662  1.00  0.00     0.062 H 
BRANCH  22  31
ATOM     31  O   UNL A   1      33.815  32.892  27.975  1.00  0.00    -0.426 OA
BRANCH  31  32
ATOM     32  C   UNL A   1      34.253  34.176  28.297  1.00  0.00     0.308 C 
ATOM     33  O   UNL A   1      34.761  34.985  27.544  1.00  0.00    -0.252 OA
BRANCH  32  34
ATOM     34  C   UNL A   1      33.966  34.396  29.761  1.00  0.00     0.034 C 
ATOM     35  H   UNL A   1      34.200  35.406  30.022  1.00  0.00     0.035 H 
ATOM     36  H   UNL A   1      34.564  33.728  30.346  1.00  0.00     0.035 H 
ATOM     37  H   UNL A   1      32.930  34.207  29.953  1.00  0.00     0.035 H 
ENDBRANCH  32  34
ENDBRANCH  31  32
ENDBRANCH  22  31
ENDBRANCH  20  21
ENDBRANCH  17  20
ENDBRANCH  14  17
ENDBRANCH  11  14
ENDBRANCH   8  11
ENDBRANCH   5   8
ENDBRANCH   1   5
BRANCH   3  38
ATOM     38  C   UNL A   1      31.641  23.485  23.298  1.00  0.00     0.017 C 
ATOM     39  H   UNL A   1      30.912  22.884  22.797  1.00  0.00     0.049 H 
ATOM     40  H   UNL A   1      31.154  24.211  23.915  1.00  0.00     0.049 H 
BRANCH  38  41
ATOM     41  C   UNL A   1      32.515  22.591  24.175  1.00  0.00    -0.036 C 
ATOM     42  H   UNL A   1      31.922  21.769  24.517  1.00  0.00     0.028 H 
ATOM     43  H   UNL A   1      32.874  23.197  24.980  1.00  0.00     0.028 H 
BRANCH  41  44
ATOM     44  C   UNL A   1      33.736  22.038  23.455  1.00  0.00    -0.052 C 
ATOM     45  H   UNL A   1      33.795  22.494  22.489  1.00  0.00     0.027 H 
ATOM     46  H   UNL A   1      33.612  20.976  23.395  1.00  0.00     0.027 H 
BRANCH  44  47
ATOM     47  C   UNL A   1      35.050  22.300  24.197  1.00  0.00    -0.052 C 
ATOM     48  H   UNL A   1      35.722  22.785  23.519  1.00  0.00     0.027 H 
ATOM     49  H   UNL A   1      35.397  21.344  24.531  1.00  0.00     0.027 H 
BRANCH  47  50
ATOM     50  C   UNL A   1      34.929  23.173  25.452  1.00  0.00    -0.036 C 
ATOM     51  H   UNL A   1      34.231  22.707  26.117  1.00  0.00     0.028 H 
ATOM     52  H   UNL A   1      34.611  24.139  25.121  1.00  0.00     0.028 H 
BRANCH  50  53
ATOM     53  C   UNL A   1      36.240  23.382  26.207  1.00  0.00     0.018 C 
ATOM     54  H   UNL A   1      36.021  23.583  27.235  1.00  0.00     0.049 H 
ATOM     55  H   UNL A   1      36.758  24.205  25.761  1.00  0.00     0.049 H 
BRANCH  53  56
ATOM     56  N   UNL A   1      37.091  22.206  26.125  1.00  0.00    -0.352 N 
ATOM     57  C   UNL A   1      38.456  22.116  26.080  1.00  0.00     0.251 C 
ATOM     58  H   UNL A   1      36.613  21.345  26.096  1.00  0.00     0.163 HD
ATOM     59  O   UNL A   1      38.995  21.086  25.690  1.00  0.00    -0.269 OA
BRANCH  57  60
ATOM     60  C   UNL A   1      39.277  23.262  26.510  1.00  0.00     0.039 A 
ATOM     61  C   UNL A   1      40.018  23.163  27.690  1.00  0.00    -0.049 A 
ATOM     62  C   UNL A   1      39.279  24.448  25.771  1.00  0.00    -0.049 A 
ATOM     63  C   UNL A   1      40.795  24.242  28.107  1.00  0.00    -0.053 A 
ATOM     64  H   UNL A   1      39.989  22.296  28.250  1.00  0.00     0.063 H 
ATOM     65  C   UNL A   1      40.111  25.496  26.147  1.00  0.00    -0.053 A 
ATOM     66  H   UNL A   1      38.663  24.547  24.949  1.00  0.00     0.063 H 
ATOM     67  C   UNL A   1      40.867  25.407  27.325  1.00  0.00    -0.014 A 
ATOM     68  H   UNL A   1      41.319  24.186  28.994  1.00  0.00     0.063 H 
ATOM     69  H   UNL A   1      40.175  26.340  25.557  1.00  0.00     0.063 H 
BRANCH  67  70
ATOM     70  C   UNL A   1      41.719  26.550  27.732  1.00  0.00     0.031 A 
ATOM     71  C   UNL A   1      41.163  27.626  28.620  1.00  0.00     0.074 A 
ATOM     72  C   UNL A   1      42.972  26.647  27.247  1.00  0.00     0.049 A 
ATOM     73  N   UNL A   1      41.725  28.735  29.030  1.00  0.00    -0.248 NA
ATOM     74  C   UNL A   1      39.779  27.446  29.087  1.00  0.00    -0.034 C 
ATOM     75  C   UNL A   1      43.601  25.689  26.338  1.00  0.00    -0.036 A 
ATOM     76  N   UNL A   1      43.934  27.604  27.443  1.00  0.00    -0.354 N 
ATOM     77  C   UNL A   1      40.764  29.384  29.795  1.00  0.00     0.074 A 
ATOM     78  C   UNL A   1      39.564  28.579  29.739  1.00  0.00    -0.034 C 
ATOM     79  H   UNL A   1      39.143  26.646  28.946  1.00  0.00     0.065 H 
ATOM     80  C   UNL A   1      44.849  26.098  26.065  1.00  0.00    -0.036 A 
ATOM     81  H   UNL A   1      43.155  24.836  25.965  1.00  0.00     0.065 H 
ATOM     82  C   UNL A   1      45.095  27.364  26.749  1.00  0.00     0.049 A 
ATOM     83  H   UNL A   1      43.806  28.387  28.024  1.00  0.00     0.167 HD
ATOM     84  C   UNL A   1      40.883  30.534  30.501  1.00  0.00     0.037 A 
ATOM     85  H   UNL A   1      38.658  28.853  30.152  1.00  0.00     0.065 H 
ATOM     86  H   UNL A   1      45.526  25.598  25.468  1.00  0.00     0.065 H 
ATOM     87  C   UNL A   1      46.225  28.090  26.666  1.00  0.00     0.037 A 
ATOM     88  C   UNL A   1      42.085  31.324  30.558  1.00  0.00     0.049 A 
ATOM     89  C   UNL A   1      46.329  29.371  27.449  1.00  0.00     0.074 A 
ATOM     90  C   UNL A   1      42.326  32.480  31.278  1.00  0.00    -0.036 A 
ATOM     91  N   UNL A   1      43.250  31.038  29.859  1.00  0.00    -0.354 N 
ATOM     92  N   UNL A   1      45.439  29.941  28.224  1.00  0.00    -0.248 NA
ATOM     93  C   UNL A   1      47.599  30.102  27.354  1.00  0.00    -0.034 C 
ATOM     94  C   UNL A   1      43.619  32.921  30.977  1.00  0.00    -0.036 A 
ATOM     95  H   UNL A   1      41.666  32.938  31.926  1.00  0.00     0.065 H 
ATOM     96  C   UNL A   1      44.206  32.009  30.114  1.00  0.00     0.049 A 
ATOM     97  H   UNL A   1      43.378  30.261  29.269  1.00  0.00     0.167 HD
ATOM     98  C   UNL A   1      46.046  31.083  28.729  1.00  0.00     0.074 A 
ATOM     99  C   UNL A   1      47.388  31.114  28.185  1.00  0.00    -0.034 C 
ATOM    100  H   UNL A   1      48.434  29.887  26.789  1.00  0.00     0.065 H 
ATOM    101  H   UNL A   1      44.061  33.781  31.337  1.00  0.00     0.065 H 
ATOM    102  C   UNL A   1      45.539  32.022  29.566  1.00  0.00     0.037 A 
ATOM    103  H   UNL A   1      48.093  31.833  28.416  1.00  0.00     0.065 H 
BRANCH  84 104
ATOM    104  C   UNL A   1      39.679  31.002  31.268  1.00  0.00     0.064 A 
ATOM    105  C   UNL A   1      38.788  31.946  30.733  1.00  0.00     0.173 A 
ATOM    106  C   UNL A   1      39.399  30.487  32.542  1.00  0.00     0.173 A 
ATOM    107  F   UNL A   1      39.014  32.479  29.523  1.00  0.00    -0.203 F 
ATOM    108  C   UNL A   1      37.683  32.383  31.460  1.00  0.00     0.198 A 
ATOM    109  C   UNL A   1      38.275  30.901  33.253  1.00  0.00     0.198 A 
ATOM    110  F   UNL A   1      40.213  29.578  33.100  1.00  0.00    -0.203 F 
ATOM    111  F   UNL A   1      36.881  33.329  30.953  1.00  0.00    -0.200 F 
ATOM    112  C   UNL A   1      37.424  31.856  32.716  1.00  0.00     0.200 A 
ATOM    113  F   UNL A   1      38.017  30.381  34.460  1.00  0.00    -0.200 F 
ATOM    114  F   UNL A   1      36.359  32.275  33.414  1.00  0.00    -0.200 F 
ENDBRANCH  84 104
BRANCH  87 115
ATOM    115  C   UNL A   1      47.350  27.611  25.823  1.00  0.00     0.064 A 
ATOM    116  C   UNL A   1      48.422  26.903  26.384  1.00  0.00     0.173 A 
ATOM    117  C   UNL A   1      47.372  27.840  24.439  1.00  0.00     0.173 A 
ATOM    118  F   UNL A   1      48.455  26.674  27.704  1.00  0.00    -0.203 F 
ATOM    119  C   UNL A   1      49.483  26.462  25.596  1.00  0.00     0.198 A 
ATOM    120  C   UNL A   1      48.419  27.371  23.648  1.00  0.00     0.198 A 
ATOM    121  F   UNL A   1      46.366  28.503  23.852  1.00  0.00    -0.203 F 
ATOM    122  F   UNL A   1      50.517  25.826  26.165  1.00  0.00    -0.200 F 
ATOM    123  C   UNL A   1      49.478  26.690  24.228  1.00  0.00     0.200 A 
ATOM    124  F   UNL A   1      48.400  27.577  22.325  1.00  0.00    -0.200 F 
ATOM    125  F   UNL A   1      50.495  26.257  23.471  1.00  0.00    -0.200 F 
ENDBRANCH  87 115
BRANCH 102 126
ATOM    126  C   UNL A   1      46.449  33.145  29.971  1.00  0.00     0.064 A 
ATOM    127  C   UNL A   1      46.430  34.384  29.314  1.00  0.00     0.173 A 
ATOM    128  C   UNL A   1      47.325  32.990  31.057  1.00  0.00     0.173 A 
ATOM    129  F   UNL A   1      45.621  34.578  28.261  1.00  0.00    -0.203 F 
ATOM    130  C   UNL A   1      47.273  35.418  29.712  1.00  0.00     0.198 A 
ATOM    131  C   UNL A   1      48.143  34.037  31.472  1.00  0.00     0.198 A 
ATOM    132  F   UNL A   1      47.378  31.828  31.723  1.00  0.00    -0.203 F 
ATOM    133  F   UNL A   1      47.274  36.577  29.038  1.00  0.00    -0.200 F 
ATOM    134  C   UNL A   1      48.122  35.247  30.795  1.00  0.00     0.200 A 
ATOM    135  F   UNL A   1      48.952  33.875  32.528  1.00  0.00    -0.200 F 
ATOM    136  F   UNL A   1      48.927  36.247  31.182  1.00  0.00    -0.200 F 
ENDBRANCH 102 126
ENDBRANCH  67  70
ENDBRANCH  57  60
ENDBRANCH  53  56
ENDBRANCH  50  53
ENDBRANCH  47  50
ENDBRANCH  44  47
ENDBRANCH  41  44
ENDBRANCH  38  41
ENDBRANCH   3  38
TORSDOF 22
ENDMDL
MODEL 10
REMARK VINA RESULT:      -9.2      1.777      2.420
REMARK SMILES CC(=O)Oc1ccccc1SCCCCCC(=O)NCCCCCCNC(=O)c1ccc(-c2c3nc(c(-c4c(F)c(F)c(F)c(F)c4F)c4ccc([nH]4)c(-c4c(F)c(F)c(F)c(F)c4F)c4nc(c(-c5c(F)c(F)c(F)c(F)c5F)c5ccc2[nH]5)C=C4)C=C3)cc1
REMARK SMILES IDX 17 1 18 2 19 3 16 5 15 8 14 11 13 14 12 17 11 20 10 21 5 22
REMARK SMILES IDX 6 23 7 24 9 26 8 27 4 31 2 32 3 33 1 34 20 38 21 41 22 44
REMARK SMILES IDX 23 47 24 50 25 53 26 56 27 57 28 59 29 60 30 61 91 62 31 63
REMARK SMILES IDX 90 65 32 67 33 70 34 71 84 72 35 73 89 74 83 75 85 76 36 77
REMARK SMILES IDX 88 78 82 80 81 82 37 84 69 87 49 88 68 89 50 90 53 91 67 92
REMARK SMILES IDX 86 93 51 94 52 96 66 98 87 99 54 102 38 104 39 105 47 106
REMARK SMILES IDX 40 107 41 108 45 109 48 110 42 111 43 112 46 113 44 114
REMARK SMILES IDX 70 115 71 116 79 117 72 118 73 119 77 120 80 121 74 122
REMARK SMILES IDX 75 123 78 124 76 125 55 126 56 127 64 128 57 129 58 130
REMARK SMILES IDX 62 131 65 132 59 133 60 134 63 135 61 136
REMARK H PARENT 19 4 16 6 16 7 15 9 15 10 14 12 14 13 13 15 13 16 12 18 12 19
REMARK H PARENT 6 25 7 28 9 29 8 30 1 35 1 36 1 37 20 39 20 40 21 42 21 43
REMARK H PARENT 22 45 22 46 23 48 23 49 24 51 24 52 25 54 25 55 26 58 30 64
REMARK H PARENT 91 66 31 68 90 69 89 79 83 81 85 83 88 85 82 86 50 95 53 97
REMARK H PARENT 86 100 51 101 87 103
REMARK Flexibility Score: inf
ROOT
ATOM      1  C   UNL A   1      31.396  29.046  24.420  1.00  0.00     0.219 C 
ATOM      2  O   UNL A   1      30.480  29.852  24.247  1.00  0.00    -0.275 OA
ATOM      3  N   UNL A   1      32.418  29.380  25.251  1.00  0.00    -0.356 N 
ATOM      4  H   UNL A   1      32.308  30.222  25.749  1.00  0.00     0.163 HD
ENDROOT
BRANCH   1   5
ATOM      5  C   UNL A   1      31.387  27.690  23.747  1.00  0.00     0.026 C 
ATOM      6  H   UNL A   1      31.233  27.837  22.698  1.00  0.00     0.037 H 
ATOM      7  H   UNL A   1      32.328  27.231  23.968  1.00  0.00     0.037 H 
BRANCH   5   8
ATOM      8  C   UNL A   1      30.304  26.739  24.262  1.00  0.00    -0.044 C 
ATOM      9  H   UNL A   1      29.362  27.202  24.056  1.00  0.00     0.027 H 
ATOM     10  H   UNL A   1      30.521  25.822  23.756  1.00  0.00     0.027 H 
BRANCH   8  11
ATOM     11  C   UNL A   1      30.286  26.331  25.750  1.00  0.00    -0.052 C 
ATOM     12  H   UNL A   1      30.065  27.214  26.313  1.00  0.00     0.027 H 
ATOM     13  H   UNL A   1      29.566  25.539  25.784  1.00  0.00     0.027 H 
BRANCH  11  14
ATOM     14  C   UNL A   1      31.535  25.704  26.380  1.00  0.00    -0.044 C 
ATOM     15  H   UNL A   1      32.365  26.229  25.954  1.00  0.00     0.028 H 
ATOM     16  H   UNL A   1      31.294  25.788  27.419  1.00  0.00     0.028 H 
BRANCH  14  17
ATOM     17  C   UNL A   1      31.904  24.212  26.295  1.00  0.00    -0.002 C 
ATOM     18  H   UNL A   1      32.742  24.103  26.952  1.00  0.00     0.038 H 
ATOM     19  H   UNL A   1      30.933  23.797  26.472  1.00  0.00     0.038 H 
BRANCH  17  20
ATOM     20  S   UNL A   1      32.349  23.247  24.819  1.00  0.00    -0.122 SA
BRANCH  20  21
ATOM     21  C   UNL A   1      33.834  22.346  25.185  1.00  0.00     0.050 A 
ATOM     22  C   UNL A   1      34.181  21.026  24.886  1.00  0.00     0.144 A 
ATOM     23  C   UNL A   1      35.517  20.597  24.993  1.00  0.00    -0.018 A 
ATOM     24  C   UNL A   1      36.506  21.463  25.455  1.00  0.00    -0.058 A 
ATOM     25  H   UNL A   1      35.766  19.632  24.725  1.00  0.00     0.066 H 
ATOM     26  C   UNL A   1      34.835  23.169  25.744  1.00  0.00    -0.045 A 
ATOM     27  C   UNL A   1      36.159  22.742  25.863  1.00  0.00    -0.061 A 
ATOM     28  H   UNL A   1      37.490  21.153  25.496  1.00  0.00     0.062 H 
ATOM     29  H   UNL A   1      34.581  24.113  26.076  1.00  0.00     0.064 H 
ATOM     30  H   UNL A   1      36.876  23.376  26.250  1.00  0.00     0.062 H 
BRANCH  22  31
ATOM     31  O   UNL A   1      33.365  20.090  24.192  1.00  0.00    -0.426 OA
BRANCH  31  32
ATOM     32  C   UNL A   1      32.792  18.891  24.611  1.00  0.00     0.308 C 
ATOM     33  O   UNL A   1      32.523  18.569  25.753  1.00  0.00    -0.252 OA
BRANCH  32  34
ATOM     34  C   UNL A   1      32.544  18.056  23.381  1.00  0.00     0.034 C 
ATOM     35  H   UNL A   1      31.873  18.573  22.727  1.00  0.00     0.035 H 
ATOM     36  H   UNL A   1      32.112  17.118  23.667  1.00  0.00     0.035 H 
ATOM     37  H   UNL A   1      33.472  17.881  22.876  1.00  0.00     0.035 H 
ENDBRANCH  32  34
ENDBRANCH  31  32
ENDBRANCH  22  31
ENDBRANCH  20  21
ENDBRANCH  17  20
ENDBRANCH  14  17
ENDBRANCH  11  14
ENDBRANCH   8  11
ENDBRANCH   5   8
ENDBRANCH   1   5
BRANCH   3  38
ATOM     38  C   UNL A   1      33.645  28.661  25.498  1.00  0.00     0.017 C 
ATOM     39  H   UNL A   1      34.296  28.774  24.657  1.00  0.00     0.049 H 
ATOM     40  H   UNL A   1      33.419  27.626  25.648  1.00  0.00     0.049 H 
BRANCH  38  41
ATOM     41  C   UNL A   1      34.334  29.207  26.747  1.00  0.00    -0.036 C 
ATOM     42  H   UNL A   1      35.186  29.777  26.441  1.00  0.00     0.028 H 
ATOM     43  H   UNL A   1      34.602  28.365  27.350  1.00  0.00     0.028 H 
BRANCH  41  44
ATOM     44  C   UNL A   1      33.439  30.097  27.596  1.00  0.00    -0.052 C 
ATOM     45  H   UNL A   1      33.411  29.700  28.589  1.00  0.00     0.027 H 
ATOM     46  H   UNL A   1      32.473  30.105  27.136  1.00  0.00     0.027 H 
BRANCH  44  47
ATOM     47  C   UNL A   1      33.919  31.550  27.668  1.00  0.00    -0.052 C 
ATOM     48  H   UNL A   1      34.571  31.724  26.837  1.00  0.00     0.027 H 
ATOM     49  H   UNL A   1      34.399  31.658  28.618  1.00  0.00     0.027 H 
BRANCH  47  50
ATOM     50  C   UNL A   1      32.808  32.607  27.629  1.00  0.00    -0.036 C 
ATOM     51  H   UNL A   1      32.327  32.620  28.586  1.00  0.00     0.028 H 
ATOM     52  H   UNL A   1      32.150  32.328  26.833  1.00  0.00     0.028 H 
BRANCH  50  53
ATOM     53  C   UNL A   1      33.291  34.023  27.319  1.00  0.00     0.018 C 
ATOM     54  H   UNL A   1      32.863  34.341  26.392  1.00  0.00     0.049 H 
ATOM     55  H   UNL A   1      34.358  34.009  27.260  1.00  0.00     0.049 H 
BRANCH  53  56
ATOM     56  N   UNL A   1      32.901  34.954  28.366  1.00  0.00    -0.352 N 
ATOM     57  C   UNL A   1      33.223  34.958  29.696  1.00  0.00     0.251 C 
ATOM     58  H   UNL A   1      32.319  35.694  28.073  1.00  0.00     0.163 HD
ATOM     59  O   UNL A   1      32.560  35.617  30.491  1.00  0.00    -0.269 OA
BRANCH  57  60
ATOM     60  C   UNL A   1      34.374  34.170  30.171  1.00  0.00     0.039 A 
ATOM     61  C   UNL A   1      35.653  34.488  29.708  1.00  0.00    -0.049 A 
ATOM     62  C   UNL A   1      34.183  33.090  31.038  1.00  0.00    -0.049 A 
ATOM     63  C   UNL A   1      36.748  33.747  30.149  1.00  0.00    -0.053 A 
ATOM     64  H   UNL A   1      35.785  35.267  29.044  1.00  0.00     0.063 H 
ATOM     65  C   UNL A   1      35.283  32.400  31.535  1.00  0.00    -0.053 A 
ATOM     66  H   UNL A   1      33.229  32.805  31.308  1.00  0.00     0.063 H 
ATOM     67  C   UNL A   1      36.574  32.714  31.084  1.00  0.00    -0.014 A 
ATOM     68  H   UNL A   1      37.691  33.958  29.786  1.00  0.00     0.063 H 
ATOM     69  H   UNL A   1      35.150  31.657  32.237  1.00  0.00     0.063 H 
BRANCH  67  70
ATOM     70  C   UNL A   1      37.731  31.940  31.595  1.00  0.00     0.031 A 
ATOM     71  C   UNL A   1      38.308  32.252  32.947  1.00  0.00     0.074 A 
ATOM     72  C   UNL A   1      38.296  31.001  30.813  1.00  0.00     0.049 A 
ATOM     73  N   UNL A   1      39.355  31.735  33.539  1.00  0.00    -0.248 NA
ATOM     74  C   UNL A   1      37.637  33.304  33.724  1.00  0.00    -0.034 C 
ATOM     75  C   UNL A   1      37.853  30.648  29.464  1.00  0.00    -0.036 A 
ATOM     76  N   UNL A   1      39.374  30.182  31.036  1.00  0.00    -0.354 N 
ATOM     77  C   UNL A   1      39.470  32.404  34.751  1.00  0.00     0.074 A 
ATOM     78  C   UNL A   1      38.427  33.406  34.782  1.00  0.00    -0.034 C 
ATOM     79  H   UNL A   1      36.774  33.827  33.504  1.00  0.00     0.065 H 
ATOM     80  C   UNL A   1      38.642  29.675  28.984  1.00  0.00    -0.036 A 
ATOM     81  H   UNL A   1      37.061  31.079  28.962  1.00  0.00     0.065 H 
ATOM     82  C   UNL A   1      39.668  29.362  29.974  1.00  0.00     0.049 A 
ATOM     83  H   UNL A   1      39.887  30.183  31.875  1.00  0.00     0.167 HD
ATOM     84  C   UNL A   1      40.349  32.183  35.758  1.00  0.00     0.037 A 
ATOM     85  H   UNL A   1      38.314  34.108  35.530  1.00  0.00     0.065 H 
ATOM     86  H   UNL A   1      38.540  29.220  28.063  1.00  0.00     0.065 H 
ATOM     87  C   UNL A   1      40.660  28.467  29.816  1.00  0.00     0.037 A 
ATOM     88  C   UNL A   1      41.377  31.176  35.722  1.00  0.00     0.049 A 
ATOM     89  C   UNL A   1      41.633  28.248  30.942  1.00  0.00     0.074 A 
ATOM     90  C   UNL A   1      42.291  30.839  36.704  1.00  0.00    -0.036 A 
ATOM     91  N   UNL A   1      41.632  30.347  34.638  1.00  0.00    -0.354 N 
ATOM     92  N   UNL A   1      41.691  28.836  32.112  1.00  0.00    -0.248 NA
ATOM     93  C   UNL A   1      42.671  27.230  30.731  1.00  0.00    -0.034 C 
ATOM     94  C   UNL A   1      43.129  29.840  36.197  1.00  0.00    -0.036 A 
ATOM     95  H   UNL A   1      42.344  31.252  37.649  1.00  0.00     0.065 H 
ATOM     96  C   UNL A   1      42.703  29.514  34.920  1.00  0.00     0.049 A 
ATOM     97  H   UNL A   1      41.127  30.351  33.793  1.00  0.00     0.167 HD
ATOM     98  C   UNL A   1      42.751  28.247  32.785  1.00  0.00     0.074 A 
ATOM     99  C   UNL A   1      43.298  27.240  31.899  1.00  0.00    -0.034 C 
ATOM    100  H   UNL A   1      42.862  26.659  29.893  1.00  0.00     0.065 H 
ATOM    101  H   UNL A   1      43.931  29.418  36.692  1.00  0.00     0.065 H 
ATOM    102  C   UNL A   1      43.232  28.515  34.025  1.00  0.00     0.037 A 
ATOM    103  H   UNL A   1      44.078  26.610  32.144  1.00  0.00     0.065 H 
BRANCH  84 104
ATOM    104  C   UNL A   1      40.231  33.046  36.981  1.00  0.00     0.064 A 
ATOM    105  C   UNL A   1      41.097  34.129  37.203  1.00  0.00     0.173 A 
ATOM    106  C   UNL A   1      39.229  32.804  37.933  1.00  0.00     0.173 A 
ATOM    107  F   UNL A   1      42.079  34.399  36.330  1.00  0.00    -0.203 F 
ATOM    108  C   UNL A   1      40.987  34.913  38.349  1.00  0.00     0.198 A 
ATOM    109  C   UNL A   1      39.102  33.611  39.061  1.00  0.00     0.198 A 
ATOM    110  F   UNL A   1      38.371  31.786  37.771  1.00  0.00    -0.203 F 
ATOM    111  F   UNL A   1      41.863  35.904  38.567  1.00  0.00    -0.200 F 
ATOM    112  C   UNL A   1      39.986  34.658  39.273  1.00  0.00     0.200 A 
ATOM    113  F   UNL A   1      38.125  33.372  39.947  1.00  0.00    -0.200 F 
ATOM    114  F   UNL A   1      39.879  35.415  40.374  1.00  0.00    -0.200 F 
ENDBRANCH  84 104
BRANCH  87 115
ATOM    115  C   UNL A   1      40.769  27.703  28.545  1.00  0.00     0.064 A 
ATOM    116  C   UNL A   1      41.544  28.181  27.480  1.00  0.00     0.173 A 
ATOM    117  C   UNL A   1      40.110  26.477  28.375  1.00  0.00     0.173 A 
ATOM    118  F   UNL A   1      42.178  29.357  27.589  1.00  0.00    -0.203 F 
ATOM    119  C   UNL A   1      41.638  27.471  26.284  1.00  0.00     0.198 A 
ATOM    120  C   UNL A   1      40.230  25.753  27.190  1.00  0.00     0.198 A 
ATOM    121  F   UNL A   1      39.364  25.971  29.368  1.00  0.00    -0.203 F 
ATOM    122  F   UNL A   1      42.350  27.973  25.265  1.00  0.00    -0.200 F 
ATOM    123  C   UNL A   1      40.987  26.255  26.143  1.00  0.00     0.200 A 
ATOM    124  F   UNL A   1      39.616  24.570  27.065  1.00  0.00    -0.200 F 
ATOM    125  F   UNL A   1      41.086  25.570  24.996  1.00  0.00    -0.200 F 
ENDBRANCH  87 115
BRANCH 102 126
ATOM    126  C   UNL A   1      44.386  27.686  34.509  1.00  0.00     0.064 A 
ATOM    127  C   UNL A   1      44.191  26.455  35.153  1.00  0.00     0.173 A 
ATOM    128  C   UNL A   1      45.705  28.112  34.291  1.00  0.00     0.173 A 
ATOM    129  F   UNL A   1      42.950  26.011  35.399  1.00  0.00    -0.203 F 
ATOM    130  C   UNL A   1      45.275  25.695  35.585  1.00  0.00     0.198 A 
ATOM    131  C   UNL A   1      46.786  27.333  34.695  1.00  0.00     0.198 A 
ATOM    132  F   UNL A   1      45.947  29.278  33.675  1.00  0.00    -0.203 F 
ATOM    133  F   UNL A   1      45.065  24.546  36.243  1.00  0.00    -0.200 F 
ATOM    134  C   UNL A   1      46.570  26.129  35.348  1.00  0.00     0.200 A 
ATOM    135  F   UNL A   1      48.036  27.748  34.452  1.00  0.00    -0.200 F 
ATOM    136  F   UNL A   1      47.611  25.391  35.758  1.00  0.00    -0.200 F 
ENDBRANCH 102 126
ENDBRANCH  67  70
ENDBRANCH  57  60
ENDBRANCH  53  56
ENDBRANCH  50  53
ENDBRANCH  47  50
ENDBRANCH  44  47
ENDBRANCH  41  44
ENDBRANCH  38  41
ENDBRANCH   3  38
TORSDOF 22
ENDMDL
