MODEL 1
REMARK VINA RESULT:     -12.5      0.000      0.000
REMARK SMILES O=C(Cc1ccccc1Nc1c(F)cccc1C(F)(F)F)NCCCCCCNC(=O)c1ccc(-c2c3nc(c(-c4c(F)c(F)c(F)c(F)c4F)c4ccc([nH]4)c(-c4c(F)c(F)c(F)c(F)c4F)c4nc(c(-c5c(F)c(F)c(F)c(F)c5F)c5ccc2[nH]5)C=C4)C=C3)cc1
REMARK SMILES IDX 24 1 23 4 22 7 1 8 2 9 3 11 4 14 5 15 9 16 6 17 8 19 7 20
REMARK SMILES IDX 10 24 11 26 12 27 17 28 13 29 14 30 16 31 15 32 18 36 19 37
REMARK SMILES IDX 20 38 21 39 25 40 26 43 27 46 28 49 29 52 30 53 31 55 32 56
REMARK SMILES IDX 33 57 94 58 34 59 93 61 35 63 36 66 37 67 87 68 38 69 92 70
REMARK SMILES IDX 86 71 88 72 39 73 91 74 85 76 84 78 40 80 72 83 52 84 71 85
REMARK SMILES IDX 53 86 56 87 70 88 89 89 54 90 55 92 69 94 90 95 57 98 41 100
REMARK SMILES IDX 42 101 50 102 43 103 44 104 48 105 51 106 45 107 46 108
REMARK SMILES IDX 49 109 47 110 73 111 74 112 82 113 75 114 76 115 80 116
REMARK SMILES IDX 83 117 77 118 78 119 81 120 79 121 58 122 59 123 67 124
REMARK SMILES IDX 60 125 61 126 65 127 68 128 62 129 63 130 66 131 64 132
REMARK H PARENT 24 2 24 3 23 5 23 6 22 10 3 12 3 13 5 18 6 21 8 22 7 23 10 25
REMARK H PARENT 14 33 16 34 15 35 25 41 25 42 26 44 26 45 27 47 27 48 28 50
REMARK H PARENT 28 51 29 54 33 60 94 62 34 64 93 65 92 75 86 77 88 79 91 81
REMARK H PARENT 85 82 53 91 56 93 89 96 54 97 90 99
REMARK Flexibility Score: inf
ROOT
ATOM      1  C   UNL A   1      35.932  23.449  24.887  1.00  0.00    -0.036 C 
ATOM      2  H   UNL A   1      35.827  23.254  25.933  1.00  0.00     0.028 H 
ATOM      3  H   UNL A   1      36.559  24.290  24.673  1.00  0.00     0.028 H 
ENDROOT
BRANCH   1   4
ATOM      4  C   UNL A   1      34.548  23.791  24.327  1.00  0.00     0.017 C 
ATOM      5  H   UNL A   1      34.390  23.235  23.426  1.00  0.00     0.049 H 
ATOM      6  H   UNL A   1      33.813  23.536  25.061  1.00  0.00     0.049 H 
BRANCH   4   7
ATOM      7  N   UNL A   1      34.431  25.203  24.036  1.00  0.00    -0.356 N 
ATOM      8  O   UNL A   1      33.262  25.808  25.912  1.00  0.00    -0.275 OA
ATOM      9  C   UNL A   1      33.766  26.104  24.832  1.00  0.00     0.224 C 
ATOM     10  H   UNL A   1      34.855  25.540  23.214  1.00  0.00     0.163 HD
BRANCH   9  11
ATOM     11  C   UNL A   1      33.571  27.470  24.197  1.00  0.00     0.054 C 
ATOM     12  H   UNL A   1      32.806  27.377  23.457  1.00  0.00     0.042 H 
ATOM     13  H   UNL A   1      34.533  27.744  23.815  1.00  0.00     0.042 H 
BRANCH  11  14
ATOM     14  C   UNL A   1      33.176  28.601  25.127  1.00  0.00    -0.015 A 
ATOM     15  C   UNL A   1      33.917  28.769  26.313  1.00  0.00    -0.056 A 
ATOM     16  C   UNL A   1      32.086  29.464  24.875  1.00  0.00     0.042 A 
ATOM     17  C   UNL A   1      33.567  29.741  27.249  1.00  0.00    -0.062 A 
ATOM     18  H   UNL A   1      34.733  28.162  26.490  1.00  0.00     0.063 H 
ATOM     19  C   UNL A   1      31.740  30.423  25.842  1.00  0.00    -0.038 A 
ATOM     20  C   UNL A   1      32.473  30.561  27.020  1.00  0.00    -0.060 A 
ATOM     21  H   UNL A   1      34.123  29.850  28.112  1.00  0.00     0.062 H 
ATOM     22  H   UNL A   1      30.927  31.038  25.677  1.00  0.00     0.064 H 
ATOM     23  H   UNL A   1      32.201  31.272  27.718  1.00  0.00     0.062 H 
BRANCH  16  24
ATOM     24  N   UNL A   1      31.336  29.361  23.680  1.00  0.00    -0.352 N 
ATOM     25  H   UNL A   1      31.862  29.395  22.848  1.00  0.00     0.167 HD
BRANCH  24  26
ATOM     26  C   UNL A   1      29.938  29.215  23.509  1.00  0.00     0.087 A 
ATOM     27  C   UNL A   1      29.183  30.395  23.345  1.00  0.00     0.147 A 
ATOM     28  C   UNL A   1      29.253  27.982  23.491  1.00  0.00     0.082 A 
ATOM     29  F   UNL A   1      29.811  31.580  23.416  1.00  0.00    -0.205 F 
ATOM     30  C   UNL A   1      27.809  30.382  23.134  1.00  0.00    -0.024 A 
ATOM     31  C   UNL A   1      27.857  27.982  23.248  1.00  0.00    -0.048 A 
ATOM     32  C   UNL A   1      27.142  29.167  23.074  1.00  0.00    -0.059 A 
ATOM     33  H   UNL A   1      27.290  31.268  23.023  1.00  0.00     0.065 H 
ATOM     34  H   UNL A   1      27.356  27.081  23.199  1.00  0.00     0.063 H 
ATOM     35  H   UNL A   1      26.126  29.140  22.900  1.00  0.00     0.062 H 
BRANCH  28  36
ATOM     36  C   UNL A   1      29.889  26.644  23.795  1.00  0.00     0.418 C 
ATOM     37  F   UNL A   1      30.921  26.370  22.938  1.00  0.00    -0.166 F 
ATOM     38  F   UNL A   1      30.437  26.588  25.039  1.00  0.00    -0.166 F 
ATOM     39  F   UNL A   1      29.062  25.573  23.674  1.00  0.00    -0.166 F 
ENDBRANCH  28  36
ENDBRANCH  24  26
ENDBRANCH  16  24
ENDBRANCH  11  14
ENDBRANCH   9  11
ENDBRANCH   4   7
ENDBRANCH   1   4
BRANCH   1  40
ATOM     40  C   UNL A   1      36.610  22.234  24.241  1.00  0.00    -0.052 C 
ATOM     41  H   UNL A   1      37.592  22.526  23.933  1.00  0.00     0.027 H 
ATOM     42  H   UNL A   1      35.979  21.937  23.430  1.00  0.00     0.027 H 
BRANCH  40  43
ATOM     43  C   UNL A   1      36.743  21.008  25.145  1.00  0.00    -0.052 C 
ATOM     44  H   UNL A   1      35.859  20.417  25.028  1.00  0.00     0.027 H 
ATOM     45  H   UNL A   1      36.884  21.392  26.133  1.00  0.00     0.027 H 
BRANCH  43  46
ATOM     46  C   UNL A   1      37.943  20.107  24.880  1.00  0.00    -0.036 C 
ATOM     47  H   UNL A   1      38.241  20.240  23.861  1.00  0.00     0.028 H 
ATOM     48  H   UNL A   1      37.628  19.109  25.098  1.00  0.00     0.028 H 
BRANCH  46  49
ATOM     49  C   UNL A   1      39.150  20.384  25.767  1.00  0.00     0.018 C 
ATOM     50  H   UNL A   1      38.802  20.651  26.743  1.00  0.00     0.049 H 
ATOM     51  H   UNL A   1      39.707  21.176  25.311  1.00  0.00     0.049 H 
BRANCH  49  52
ATOM     52  N   UNL A   1      40.041  19.239  25.888  1.00  0.00    -0.352 N 
ATOM     53  C   UNL A   1      41.396  19.203  26.126  1.00  0.00     0.251 C 
ATOM     54  H   UNL A   1      39.609  18.360  25.786  1.00  0.00     0.163 HD
ATOM     55  O   UNL A   1      42.009  18.145  26.052  1.00  0.00    -0.269 OA
BRANCH  53  56
ATOM     56  C   UNL A   1      42.119  20.457  26.428  1.00  0.00     0.039 A 
ATOM     57  C   UNL A   1      42.679  21.186  25.376  1.00  0.00    -0.049 A 
ATOM     58  C   UNL A   1      42.214  20.933  27.738  1.00  0.00    -0.049 A 
ATOM     59  C   UNL A   1      43.244  22.438  25.626  1.00  0.00    -0.053 A 
ATOM     60  H   UNL A   1      42.672  20.801  24.419  1.00  0.00     0.063 H 
ATOM     61  C   UNL A   1      42.699  22.215  27.975  1.00  0.00    -0.053 A 
ATOM     62  H   UNL A   1      41.923  20.335  28.529  1.00  0.00     0.063 H 
ATOM     63  C   UNL A   1      43.209  22.985  26.919  1.00  0.00    -0.014 A 
ATOM     64  H   UNL A   1      43.690  22.964  24.858  1.00  0.00     0.063 H 
ATOM     65  H   UNL A   1      42.684  22.601  28.932  1.00  0.00     0.063 H 
BRANCH  63  66
ATOM     66  C   UNL A   1      43.661  24.375  27.183  1.00  0.00     0.031 A 
ATOM     67  C   UNL A   1      42.686  25.417  27.648  1.00  0.00     0.074 A 
ATOM     68  C   UNL A   1      44.936  24.717  26.915  1.00  0.00     0.049 A 
ATOM     69  N   UNL A   1      42.875  26.697  27.849  1.00  0.00    -0.248 NA
ATOM     70  C   UNL A   1      41.307  24.968  27.889  1.00  0.00    -0.034 C 
ATOM     71  C   UNL A   1      45.963  23.812  26.396  1.00  0.00    -0.036 A 
ATOM     72  N   UNL A   1      45.581  25.925  27.021  1.00  0.00    -0.354 N 
ATOM     73  C   UNL A   1      41.641  27.205  28.230  1.00  0.00     0.074 A 
ATOM     74  C   UNL A   1      40.697  26.109  28.172  1.00  0.00    -0.034 C 
ATOM     75  H   UNL A   1      40.917  24.013  27.848  1.00  0.00     0.065 H 
ATOM     76  C   UNL A   1      47.109  24.490  26.241  1.00  0.00    -0.036 A 
ATOM     77  H   UNL A   1      45.825  22.812  26.181  1.00  0.00     0.065 H 
ATOM     78  C   UNL A   1      46.892  25.884  26.612  1.00  0.00     0.049 A 
ATOM     79  H   UNL A   1      45.146  26.740  27.358  1.00  0.00     0.167 HD
ATOM     80  C   UNL A   1      41.328  28.465  28.620  1.00  0.00     0.037 A 
ATOM     81  H   UNL A   1      39.682  26.205  28.331  1.00  0.00     0.065 H 
ATOM     82  H   UNL A   1      48.003  24.090  25.913  1.00  0.00     0.065 H 
ATOM     83  C   UNL A   1      47.812  26.865  26.531  1.00  0.00     0.037 A 
ATOM     84  C   UNL A   1      42.272  29.550  28.684  1.00  0.00     0.049 A 
ATOM     85  C   UNL A   1      47.442  28.258  26.957  1.00  0.00     0.074 A 
ATOM     86  C   UNL A   1      42.071  30.844  29.129  1.00  0.00    -0.036 A 
ATOM     87  N   UNL A   1      43.598  29.468  28.281  1.00  0.00    -0.354 N 
ATOM     88  N   UNL A   1      46.293  28.709  27.396  1.00  0.00    -0.248 NA
ATOM     89  C   UNL A   1      48.498  29.277  26.882  1.00  0.00    -0.034 C 
ATOM     90  C   UNL A   1      43.261  31.560  28.947  1.00  0.00    -0.036 A 
ATOM     91  H   UNL A   1      41.195  31.219  29.526  1.00  0.00     0.065 H 
ATOM     92  C   UNL A   1      44.219  30.698  28.437  1.00  0.00     0.049 A 
ATOM     93  H   UNL A   1      44.034  28.656  27.936  1.00  0.00     0.167 HD
ATOM     94  C   UNL A   1      46.487  30.058  27.661  1.00  0.00     0.074 A 
ATOM     95  C   UNL A   1      47.873  30.346  27.355  1.00  0.00    -0.034 C 
ATOM     96  H   UNL A   1      49.470  29.183  26.549  1.00  0.00     0.065 H 
ATOM     97  H   UNL A   1      43.400  32.561  29.156  1.00  0.00     0.065 H 
ATOM     98  C   UNL A   1      45.596  30.973  28.115  1.00  0.00     0.037 A 
ATOM     99  H   UNL A   1      48.319  31.267  27.489  1.00  0.00     0.065 H 
BRANCH  80 100
ATOM    100  C   UNL A   1      39.901  28.730  29.005  1.00  0.00     0.064 A 
ATOM    101  C   UNL A   1      39.446  28.536  30.319  1.00  0.00     0.173 A 
ATOM    102  C   UNL A   1      38.978  29.194  28.056  1.00  0.00     0.173 A 
ATOM    103  F   UNL A   1      40.284  28.083  31.264  1.00  0.00    -0.203 F 
ATOM    104  C   UNL A   1      38.113  28.754  30.657  1.00  0.00     0.198 A 
ATOM    105  C   UNL A   1      37.654  29.444  28.405  1.00  0.00     0.198 A 
ATOM    106  F   UNL A   1      39.361  29.404  26.787  1.00  0.00    -0.203 F 
ATOM    107  F   UNL A   1      37.689  28.499  31.902  1.00  0.00    -0.200 F 
ATOM    108  C   UNL A   1      37.219  29.213  29.702  1.00  0.00     0.200 A 
ATOM    109  F   UNL A   1      36.793  29.900  27.484  1.00  0.00    -0.200 F 
ATOM    110  F   UNL A   1      35.936  29.421  30.027  1.00  0.00    -0.200 F 
ENDBRANCH  80 100
BRANCH  83 111
ATOM    111  C   UNL A   1      49.175  26.549  26.033  1.00  0.00     0.064 A 
ATOM    112  C   UNL A   1      49.549  26.846  24.715  1.00  0.00     0.173 A 
ATOM    113  C   UNL A   1      50.141  25.973  26.872  1.00  0.00     0.173 A 
ATOM    114  F   UNL A   1      48.654  27.380  23.871  1.00  0.00    -0.203 F 
ATOM    115  C   UNL A   1      50.835  26.571  24.253  1.00  0.00     0.198 A 
ATOM    116  C   UNL A   1      51.434  25.723  26.417  1.00  0.00     0.198 A 
ATOM    117  F   UNL A   1      49.835  25.675  28.144  1.00  0.00    -0.203 F 
ATOM    118  F   UNL A   1      51.156  26.835  22.980  1.00  0.00    -0.200 F 
ATOM    119  C   UNL A   1      51.778  26.017  25.105  1.00  0.00     0.200 A 
ATOM    120  F   UNL A   1      52.346  25.203  27.248  1.00  0.00    -0.200 F 
ATOM    121  F   UNL A   1      53.018  25.766  24.664  1.00  0.00    -0.200 F 
ENDBRANCH  83 111
BRANCH  98 122
ATOM    122  C   UNL A   1      46.095  32.376  28.312  1.00  0.00     0.064 A 
ATOM    123  C   UNL A   1      46.673  32.784  29.523  1.00  0.00     0.173 A 
ATOM    124  C   UNL A   1      46.030  33.310  27.266  1.00  0.00     0.173 A 
ATOM    125  F   UNL A   1      46.743  31.934  30.559  1.00  0.00    -0.203 F 
ATOM    126  C   UNL A   1      47.150  34.083  29.687  1.00  0.00     0.198 A 
ATOM    127  C   UNL A   1      46.534  34.598  27.424  1.00  0.00     0.198 A 
ATOM    128  F   UNL A   1      45.491  32.968  26.087  1.00  0.00    -0.203 F 
ATOM    129  F   UNL A   1      47.657  34.464  30.867  1.00  0.00    -0.200 F 
ATOM    130  C   UNL A   1      47.087  34.985  28.636  1.00  0.00     0.200 A 
ATOM    131  F   UNL A   1      46.484  35.465  26.403  1.00  0.00    -0.200 F 
ATOM    132  F   UNL A   1      47.553  36.232  28.792  1.00  0.00    -0.200 F 
ENDBRANCH  98 122
ENDBRANCH  63  66
ENDBRANCH  53  56
ENDBRANCH  49  52
ENDBRANCH  46  49
ENDBRANCH  43  46
ENDBRANCH  40  43
ENDBRANCH   1  40
TORSDOF 17
ENDMDL
MODEL 2
REMARK VINA RESULT:     -12.5      5.605     11.411
REMARK SMILES O=C(Cc1ccccc1Nc1c(F)cccc1C(F)(F)F)NCCCCCCNC(=O)c1ccc(-c2c3nc(c(-c4c(F)c(F)c(F)c(F)c4F)c4ccc([nH]4)c(-c4c(F)c(F)c(F)c(F)c4F)c4nc(c(-c5c(F)c(F)c(F)c(F)c5F)c5ccc2[nH]5)C=C4)C=C3)cc1
REMARK SMILES IDX 24 1 23 4 22 7 1 8 2 9 3 11 4 14 5 15 9 16 6 17 8 19 7 20
REMARK SMILES IDX 10 24 11 26 12 27 17 28 13 29 14 30 16 31 15 32 18 36 19 37
REMARK SMILES IDX 20 38 21 39 25 40 26 43 27 46 28 49 29 52 30 53 31 55 32 56
REMARK SMILES IDX 33 57 94 58 34 59 93 61 35 63 36 66 37 67 87 68 38 69 92 70
REMARK SMILES IDX 86 71 88 72 39 73 91 74 85 76 84 78 40 80 72 83 52 84 71 85
REMARK SMILES IDX 53 86 56 87 70 88 89 89 54 90 55 92 69 94 90 95 57 98 41 100
REMARK SMILES IDX 42 101 50 102 43 103 44 104 48 105 51 106 45 107 46 108
REMARK SMILES IDX 49 109 47 110 73 111 74 112 82 113 75 114 76 115 80 116
REMARK SMILES IDX 83 117 77 118 78 119 81 120 79 121 58 122 59 123 67 124
REMARK SMILES IDX 60 125 61 126 65 127 68 128 62 129 63 130 66 131 64 132
REMARK H PARENT 24 2 24 3 23 5 23 6 22 10 3 12 3 13 5 18 6 21 8 22 7 23 10 25
REMARK H PARENT 14 33 16 34 15 35 25 41 25 42 26 44 26 45 27 47 27 48 28 50
REMARK H PARENT 28 51 29 54 33 60 94 62 34 64 93 65 92 75 86 77 88 79 91 81
REMARK H PARENT 85 82 53 91 56 93 89 96 54 97 90 99
REMARK Flexibility Score: inf
ROOT
ATOM      1  C   UNL A   1      32.021  27.853  27.210  1.00  0.00    -0.036 C 
ATOM      2  H   UNL A   1      32.334  27.357  28.104  1.00  0.00     0.028 H 
ATOM      3  H   UNL A   1      30.971  28.055  27.182  1.00  0.00     0.028 H 
ENDROOT
BRANCH   1   4
ATOM      4  C   UNL A   1      32.313  26.926  26.026  1.00  0.00     0.017 C 
ATOM      5  H   UNL A   1      31.398  26.717  25.513  1.00  0.00     0.049 H 
ATOM      6  H   UNL A   1      33.007  27.416  25.375  1.00  0.00     0.049 H 
BRANCH   4   7
ATOM      7  N   UNL A   1      32.902  25.680  26.465  1.00  0.00    -0.356 N 
ATOM      8  O   UNL A   1      33.854  25.069  24.472  1.00  0.00    -0.275 OA
ATOM      9  C   UNL A   1      33.600  24.824  25.648  1.00  0.00     0.224 C 
ATOM     10  H   UNL A   1      32.795  25.429  27.411  1.00  0.00     0.163 HD
BRANCH   9  11
ATOM     11  C   UNL A   1      33.905  23.474  26.276  1.00  0.00     0.054 C 
ATOM     12  H   UNL A   1      33.112  22.808  26.012  1.00  0.00     0.042 H 
ATOM     13  H   UNL A   1      33.999  23.666  27.325  1.00  0.00     0.042 H 
BRANCH  11  14
ATOM     14  C   UNL A   1      35.211  22.818  25.873  1.00  0.00    -0.015 A 
ATOM     15  C   UNL A   1      36.370  23.617  25.847  1.00  0.00    -0.056 A 
ATOM     16  C   UNL A   1      35.310  21.460  25.493  1.00  0.00     0.042 A 
ATOM     17  C   UNL A   1      37.593  23.100  25.419  1.00  0.00    -0.062 A 
ATOM     18  H   UNL A   1      36.314  24.601  26.152  1.00  0.00     0.063 H 
ATOM     19  C   UNL A   1      36.546  20.967  25.046  1.00  0.00    -0.038 A 
ATOM     20  C   UNL A   1      37.679  21.778  25.007  1.00  0.00    -0.060 A 
ATOM     21  H   UNL A   1      38.432  23.701  25.407  1.00  0.00     0.062 H 
ATOM     22  H   UNL A   1      36.618  19.984  24.739  1.00  0.00     0.064 H 
ATOM     23  H   UNL A   1      38.579  21.396  24.675  1.00  0.00     0.062 H 
BRANCH  16  24
ATOM     24  N   UNL A   1      34.182  20.607  25.540  1.00  0.00    -0.352 N 
ATOM     25  H   UNL A   1      33.713  20.576  26.406  1.00  0.00     0.167 HD
BRANCH  24  26
ATOM     26  C   UNL A   1      33.631  19.794  24.521  1.00  0.00     0.087 A 
ATOM     27  C   UNL A   1      34.075  18.457  24.453  1.00  0.00     0.147 A 
ATOM     28  C   UNL A   1      32.676  20.222  23.576  1.00  0.00     0.082 A 
ATOM     29  F   UNL A   1      35.026  18.047  25.309  1.00  0.00    -0.205 F 
ATOM     30  C   UNL A   1      33.584  17.549  23.522  1.00  0.00    -0.024 A 
ATOM     31  C   UNL A   1      32.164  19.280  22.649  1.00  0.00    -0.048 A 
ATOM     32  C   UNL A   1      32.614  17.960  22.620  1.00  0.00    -0.059 A 
ATOM     33  H   UNL A   1      33.939  16.579  23.501  1.00  0.00     0.065 H 
ATOM     34  H   UNL A   1      31.439  19.579  21.978  1.00  0.00     0.063 H 
ATOM     35  H   UNL A   1      32.227  17.294  21.934  1.00  0.00     0.062 H 
BRANCH  28  36
ATOM     36  C   UNL A   1      32.205  21.651  23.420  1.00  0.00     0.418 C 
ATOM     37  F   UNL A   1      33.244  22.494  23.126  1.00  0.00    -0.166 F 
ATOM     38  F   UNL A   1      31.322  21.810  22.398  1.00  0.00    -0.166 F 
ATOM     39  F   UNL A   1      31.637  22.195  24.527  1.00  0.00    -0.166 F 
ENDBRANCH  28  36
ENDBRANCH  24  26
ENDBRANCH  16  24
ENDBRANCH  11  14
ENDBRANCH   9  11
ENDBRANCH   4   7
ENDBRANCH   1   4
BRANCH   1  40
ATOM     40  C   UNL A   1      32.722  29.217  27.152  1.00  0.00    -0.052 C 
ATOM     41  H   UNL A   1      33.739  29.054  26.862  1.00  0.00     0.027 H 
ATOM     42  H   UNL A   1      32.619  29.646  28.126  1.00  0.00     0.027 H 
BRANCH  40  43
ATOM     43  C   UNL A   1      32.107  30.222  26.177  1.00  0.00    -0.052 C 
ATOM     44  H   UNL A   1      31.233  29.774  25.754  1.00  0.00     0.027 H 
ATOM     45  H   UNL A   1      32.875  30.440  25.466  1.00  0.00     0.027 H 
BRANCH  43  46
ATOM     46  C   UNL A   1      31.702  31.566  26.769  1.00  0.00    -0.036 C 
ATOM     47  H   UNL A   1      31.026  31.384  27.578  1.00  0.00     0.028 H 
ATOM     48  H   UNL A   1      31.261  32.128  25.973  1.00  0.00     0.028 H 
BRANCH  46  49
ATOM     49  C   UNL A   1      32.861  32.400  27.297  1.00  0.00     0.018 C 
ATOM     50  H   UNL A   1      33.649  32.386  26.574  1.00  0.00     0.049 H 
ATOM     51  H   UNL A   1      33.167  31.970  28.228  1.00  0.00     0.049 H 
BRANCH  49  52
ATOM     52  N   UNL A   1      32.494  33.785  27.557  1.00  0.00    -0.352 N 
ATOM     53  C   UNL A   1      33.014  34.675  28.469  1.00  0.00     0.251 C 
ATOM     54  H   UNL A   1      31.765  34.137  26.997  1.00  0.00     0.163 HD
ATOM     55  O   UNL A   1      32.480  35.762  28.647  1.00  0.00    -0.269 OA
BRANCH  53  56
ATOM     56  C   UNL A   1      34.200  34.294  29.267  1.00  0.00     0.039 A 
ATOM     57  C   UNL A   1      34.012  33.717  30.526  1.00  0.00    -0.049 A 
ATOM     58  C   UNL A   1      35.491  34.470  28.763  1.00  0.00    -0.049 A 
ATOM     59  C   UNL A   1      35.112  33.227  31.233  1.00  0.00    -0.053 A 
ATOM     60  H   UNL A   1      33.065  33.653  30.929  1.00  0.00     0.063 H 
ATOM     61  C   UNL A   1      36.575  33.906  29.427  1.00  0.00    -0.053 A 
ATOM     62  H   UNL A   1      35.640  35.016  27.899  1.00  0.00     0.063 H 
ATOM     63  C   UNL A   1      36.395  33.269  30.664  1.00  0.00    -0.014 A 
ATOM     64  H   UNL A   1      34.981  32.832  32.178  1.00  0.00     0.063 H 
ATOM     65  H   UNL A   1      37.517  33.958  29.008  1.00  0.00     0.063 H 
BRANCH  63  66
ATOM     66  C   UNL A   1      37.555  32.617  31.324  1.00  0.00     0.031 A 
ATOM     67  C   UNL A   1      38.231  31.439  30.686  1.00  0.00     0.074 A 
ATOM     68  C   UNL A   1      37.940  33.035  32.546  1.00  0.00     0.049 A 
ATOM     69  N   UNL A   1      39.200  30.690  31.147  1.00  0.00    -0.248 NA
ATOM     70  C   UNL A   1      37.731  31.029  29.365  1.00  0.00    -0.034 C 
ATOM     71  C   UNL A   1      37.320  34.125  33.301  1.00  0.00    -0.036 A 
ATOM     72  N   UNL A   1      38.931  32.575  33.378  1.00  0.00    -0.354 N 
ATOM     73  C   UNL A   1      39.418  29.717  30.181  1.00  0.00     0.074 A 
ATOM     74  C   UNL A   1      38.439  29.933  29.137  1.00  0.00    -0.034 C 
ATOM     75  H   UNL A   1      37.015  31.478  28.772  1.00  0.00     0.065 H 
ATOM     76  C   UNL A   1      37.952  34.260  34.477  1.00  0.00    -0.036 A 
ATOM     77  H   UNL A   1      36.524  34.697  32.980  1.00  0.00     0.065 H 
ATOM     78  C   UNL A   1      38.994  33.244  34.577  1.00  0.00     0.049 A 
ATOM     79  H   UNL A   1      39.539  31.840  33.139  1.00  0.00     0.167 HD
ATOM     80  C   UNL A   1      40.365  28.748  30.154  1.00  0.00     0.037 A 
ATOM     81  H   UNL A   1      38.312  29.315  28.321  1.00  0.00     0.065 H 
ATOM     82  H   UNL A   1      37.736  34.969  35.195  1.00  0.00     0.065 H 
ATOM     83  C   UNL A   1      39.792  33.049  35.644  1.00  0.00     0.037 A 
ATOM     84  C   UNL A   1      41.342  28.543  31.192  1.00  0.00     0.049 A 
ATOM     85  C   UNL A   1      40.829  31.962  35.599  1.00  0.00     0.074 A 
ATOM     86  C   UNL A   1      42.384  27.634  31.229  1.00  0.00    -0.036 A 
ATOM     87  N   UNL A   1      41.388  29.252  32.384  1.00  0.00    -0.354 N 
ATOM     88  N   UNL A   1      41.082  31.101  34.643  1.00  0.00    -0.248 NA
ATOM     89  C   UNL A   1      41.696  31.823  36.777  1.00  0.00    -0.034 C 
ATOM     90  C   UNL A   1      43.030  27.758  32.464  1.00  0.00    -0.036 A 
ATOM     91  H   UNL A   1      42.641  26.976  30.475  1.00  0.00     0.065 H 
ATOM     92  C   UNL A   1      42.423  28.780  33.177  1.00  0.00     0.049 A 
ATOM     93  H   UNL A   1      40.777  29.983  32.631  1.00  0.00     0.167 HD
ATOM     94  C   UNL A   1      42.142  30.327  35.096  1.00  0.00     0.074 A 
ATOM     95  C   UNL A   1      42.499  30.836  36.405  1.00  0.00    -0.034 C 
ATOM     96  H   UNL A   1      41.683  32.354  37.661  1.00  0.00     0.065 H 
ATOM     97  H   UNL A   1      43.824  27.184  32.790  1.00  0.00     0.065 H 
ATOM     98  C   UNL A   1      42.758  29.287  34.484  1.00  0.00     0.037 A 
ATOM     99  H   UNL A   1      43.281  30.477  36.975  1.00  0.00     0.065 H 
BRANCH  80 100
ATOM    100  C   UNL A   1      40.384  27.839  28.959  1.00  0.00     0.064 A 
ATOM    101  C   UNL A   1      41.129  28.151  27.810  1.00  0.00     0.173 A 
ATOM    102  C   UNL A   1      39.660  26.638  28.962  1.00  0.00     0.173 A 
ATOM    103  F   UNL A   1      41.830  29.292  27.749  1.00  0.00    -0.203 F 
ATOM    104  C   UNL A   1      41.112  27.316  26.696  1.00  0.00     0.198 A 
ATOM    105  C   UNL A   1      39.673  25.788  27.859  1.00  0.00     0.198 A 
ATOM    106  F   UNL A   1      38.937  26.287  30.037  1.00  0.00    -0.203 F 
ATOM    107  F   UNL A   1      41.779  27.668  25.588  1.00  0.00    -0.200 F 
ATOM    108  C   UNL A   1      40.389  26.134  26.722  1.00  0.00     0.200 A 
ATOM    109  F   UNL A   1      38.984  24.640  27.891  1.00  0.00    -0.200 F 
ATOM    110  F   UNL A   1      40.373  25.332  25.649  1.00  0.00    -0.200 F 
ENDBRANCH  80 100
BRANCH  83 111
ATOM    111  C   UNL A   1      39.640  33.918  36.839  1.00  0.00     0.064 A 
ATOM    112  C   UNL A   1      40.276  35.166  36.910  1.00  0.00     0.173 A 
ATOM    113  C   UNL A   1      38.833  33.535  37.920  1.00  0.00     0.173 A 
ATOM    114  F   UNL A   1      41.073  35.567  35.909  1.00  0.00    -0.203 F 
ATOM    115  C   UNL A   1      40.117  35.992  38.020  1.00  0.00     0.198 A 
ATOM    116  C   UNL A   1      38.653  34.373  39.018  1.00  0.00     0.198 A 
ATOM    117  F   UNL A   1      38.198  32.353  37.898  1.00  0.00    -0.203 F 
ATOM    118  F   UNL A   1      40.762  37.165  38.076  1.00  0.00    -0.200 F 
ATOM    119  C   UNL A   1      39.300  35.599  39.069  1.00  0.00     0.200 A 
ATOM    120  F   UNL A   1      37.850  33.997  40.022  1.00  0.00    -0.200 F 
ATOM    121  F   UNL A   1      39.136  36.401  40.131  1.00  0.00    -0.200 F 
ENDBRANCH  83 111
BRANCH  98 122
ATOM    122  C   UNL A   1      43.890  28.631  35.221  1.00  0.00     0.064 A 
ATOM    123  C   UNL A   1      45.219  29.045  35.043  1.00  0.00     0.173 A 
ATOM    124  C   UNL A   1      43.640  27.604  36.145  1.00  0.00     0.173 A 
ATOM    125  F   UNL A   1      45.512  30.011  34.159  1.00  0.00    -0.203 F 
ATOM    126  C   UNL A   1      46.257  28.441  35.747  1.00  0.00     0.198 A 
ATOM    127  C   UNL A   1      44.677  27.023  36.869  1.00  0.00     0.198 A 
ATOM    128  F   UNL A   1      42.387  27.175  36.355  1.00  0.00    -0.203 F 
ATOM    129  F   UNL A   1      47.523  28.822  35.529  1.00  0.00    -0.200 F 
ATOM    130  C   UNL A   1      45.985  27.437  36.665  1.00  0.00     0.200 A 
ATOM    131  F   UNL A   1      44.411  26.062  37.764  1.00  0.00    -0.200 F 
ATOM    132  F   UNL A   1      46.985  26.862  37.348  1.00  0.00    -0.200 F 
ENDBRANCH  98 122
ENDBRANCH  63  66
ENDBRANCH  53  56
ENDBRANCH  49  52
ENDBRANCH  46  49
ENDBRANCH  43  46
ENDBRANCH  40  43
ENDBRANCH   1  40
TORSDOF 17
ENDMDL
MODEL 3
REMARK VINA RESULT:     -12.5      5.715     11.122
REMARK SMILES O=C(Cc1ccccc1Nc1c(F)cccc1C(F)(F)F)NCCCCCCNC(=O)c1ccc(-c2c3nc(c(-c4c(F)c(F)c(F)c(F)c4F)c4ccc([nH]4)c(-c4c(F)c(F)c(F)c(F)c4F)c4nc(c(-c5c(F)c(F)c(F)c(F)c5F)c5ccc2[nH]5)C=C4)C=C3)cc1
REMARK SMILES IDX 24 1 23 4 22 7 1 8 2 9 3 11 4 14 5 15 9 16 6 17 8 19 7 20
REMARK SMILES IDX 10 24 11 26 12 27 17 28 13 29 14 30 16 31 15 32 18 36 19 37
REMARK SMILES IDX 20 38 21 39 25 40 26 43 27 46 28 49 29 52 30 53 31 55 32 56
REMARK SMILES IDX 33 57 94 58 34 59 93 61 35 63 36 66 37 67 87 68 38 69 92 70
REMARK SMILES IDX 86 71 88 72 39 73 91 74 85 76 84 78 40 80 72 83 52 84 71 85
REMARK SMILES IDX 53 86 56 87 70 88 89 89 54 90 55 92 69 94 90 95 57 98 41 100
REMARK SMILES IDX 42 101 50 102 43 103 44 104 48 105 51 106 45 107 46 108
REMARK SMILES IDX 49 109 47 110 73 111 74 112 82 113 75 114 76 115 80 116
REMARK SMILES IDX 83 117 77 118 78 119 81 120 79 121 58 122 59 123 67 124
REMARK SMILES IDX 60 125 61 126 65 127 68 128 62 129 63 130 66 131 64 132
REMARK H PARENT 24 2 24 3 23 5 23 6 22 10 3 12 3 13 5 18 6 21 8 22 7 23 10 25
REMARK H PARENT 14 33 16 34 15 35 25 41 25 42 26 44 26 45 27 47 27 48 28 50
REMARK H PARENT 28 51 29 54 33 60 94 62 34 64 93 65 92 75 86 77 88 79 91 81
REMARK H PARENT 85 82 53 91 56 93 89 96 54 97 90 99
REMARK Flexibility Score: inf
ROOT
ATOM      1  C   UNL A   1      33.143  29.305  24.627  1.00  0.00    -0.036 C 
ATOM      2  H   UNL A   1      33.631  30.253  24.722  1.00  0.00     0.028 H 
ATOM      3  H   UNL A   1      33.689  28.500  25.073  1.00  0.00     0.028 H 
ENDROOT
BRANCH   1   4
ATOM      4  C   UNL A   1      33.033  28.976  23.135  1.00  0.00     0.017 C 
ATOM      5  H   UNL A   1      32.265  29.581  22.700  1.00  0.00     0.049 H 
ATOM      6  H   UNL A   1      33.977  29.176  22.674  1.00  0.00     0.049 H 
BRANCH   4   7
ATOM      7  N   UNL A   1      32.709  27.581  22.926  1.00  0.00    -0.356 N 
ATOM      8  O   UNL A   1      30.652  27.883  21.962  1.00  0.00    -0.275 OA
ATOM      9  C   UNL A   1      31.527  27.134  22.387  1.00  0.00     0.224 C 
ATOM     10  H   UNL A   1      33.379  26.910  23.189  1.00  0.00     0.163 HD
BRANCH   9  11
ATOM     11  C   UNL A   1      31.322  25.633  22.497  1.00  0.00     0.054 C 
ATOM     12  H   UNL A   1      32.224  25.158  22.174  1.00  0.00     0.042 H 
ATOM     13  H   UNL A   1      30.464  25.421  21.893  1.00  0.00     0.042 H 
BRANCH  11  14
ATOM     14  C   UNL A   1      30.984  25.092  23.872  1.00  0.00    -0.015 A 
ATOM     15  C   UNL A   1      30.109  25.845  24.680  1.00  0.00    -0.056 A 
ATOM     16  C   UNL A   1      31.529  23.895  24.388  1.00  0.00     0.042 A 
ATOM     17  C   UNL A   1      29.809  25.448  25.982  1.00  0.00    -0.062 A 
ATOM     18  H   UNL A   1      29.683  26.705  24.300  1.00  0.00     0.063 H 
ATOM     19  C   UNL A   1      31.228  23.525  25.710  1.00  0.00    -0.038 A 
ATOM     20  C   UNL A   1      30.376  24.293  26.501  1.00  0.00    -0.060 A 
ATOM     21  H   UNL A   1      29.165  26.012  26.558  1.00  0.00     0.062 H 
ATOM     22  H   UNL A   1      31.646  22.667  26.102  1.00  0.00     0.064 H 
ATOM     23  H   UNL A   1      30.169  24.004  27.471  1.00  0.00     0.062 H 
BRANCH  16  24
ATOM     24  N   UNL A   1      32.380  23.084  23.602  1.00  0.00    -0.352 N 
ATOM     25  H   UNL A   1      32.002  22.783  22.744  1.00  0.00     0.167 HD
BRANCH  24  26
ATOM     26  C   UNL A   1      33.699  22.645  23.872  1.00  0.00     0.087 A 
ATOM     27  C   UNL A   1      34.742  23.570  23.658  1.00  0.00     0.147 A 
ATOM     28  C   UNL A   1      34.041  21.358  24.336  1.00  0.00     0.082 A 
ATOM     29  F   UNL A   1      34.440  24.782  23.163  1.00  0.00    -0.205 F 
ATOM     30  C   UNL A   1      36.074  23.272  23.921  1.00  0.00    -0.024 A 
ATOM     31  C   UNL A   1      35.399  21.076  24.625  1.00  0.00    -0.048 A 
ATOM     32  C   UNL A   1      36.405  22.021  24.417  1.00  0.00    -0.059 A 
ATOM     33  H   UNL A   1      36.810  23.976  23.747  1.00  0.00     0.065 H 
ATOM     34  H   UNL A   1      35.651  20.147  24.997  1.00  0.00     0.063 H 
ATOM     35  H   UNL A   1      37.387  21.789  24.633  1.00  0.00     0.062 H 
BRANCH  28  36
ATOM     36  C   UNL A   1      33.065  20.211  24.477  1.00  0.00     0.418 C 
ATOM     37  F   UNL A   1      33.703  19.045  24.808  1.00  0.00    -0.166 F 
ATOM     38  F   UNL A   1      32.154  20.409  25.467  1.00  0.00    -0.166 F 
ATOM     39  F   UNL A   1      32.372  19.903  23.350  1.00  0.00    -0.166 F 
ENDBRANCH  28  36
ENDBRANCH  24  26
ENDBRANCH  16  24
ENDBRANCH  11  14
ENDBRANCH   9  11
ENDBRANCH   4   7
ENDBRANCH   1   4
BRANCH   1  40
ATOM     40  C   UNL A   1      31.805  29.381  25.374  1.00  0.00    -0.052 C 
ATOM     41  H   UNL A   1      31.474  28.381  25.563  1.00  0.00     0.027 H 
ATOM     42  H   UNL A   1      31.144  29.938  24.744  1.00  0.00     0.027 H 
BRANCH  40  43
ATOM     43  C   UNL A   1      31.847  30.126  26.709  1.00  0.00    -0.052 C 
ATOM     44  H   UNL A   1      32.789  29.916  27.171  1.00  0.00     0.027 H 
ATOM     45  H   UNL A   1      31.001  29.774  27.261  1.00  0.00     0.027 H 
BRANCH  43  46
ATOM     46  C   UNL A   1      31.690  31.639  26.636  1.00  0.00    -0.036 C 
ATOM     47  H   UNL A   1      30.787  31.906  27.145  1.00  0.00     0.028 H 
ATOM     48  H   UNL A   1      31.676  31.894  25.597  1.00  0.00     0.028 H 
BRANCH  46  49
ATOM     49  C   UNL A   1      32.836  32.425  27.259  1.00  0.00     0.018 C 
ATOM     50  H   UNL A   1      33.677  32.383  26.598  1.00  0.00     0.049 H 
ATOM     51  H   UNL A   1      33.052  31.978  28.207  1.00  0.00     0.049 H 
BRANCH  49  52
ATOM     52  N   UNL A   1      32.503  33.821  27.500  1.00  0.00    -0.352 N 
ATOM     53  C   UNL A   1      33.038  34.707  28.408  1.00  0.00     0.251 C 
ATOM     54  H   UNL A   1      31.789  34.187  26.929  1.00  0.00     0.163 HD
ATOM     55  O   UNL A   1      32.531  35.810  28.569  1.00  0.00    -0.269 OA
BRANCH  53  56
ATOM     56  C   UNL A   1      34.206  34.304  29.222  1.00  0.00     0.039 A 
ATOM     57  C   UNL A   1      33.989  33.639  30.432  1.00  0.00    -0.049 A 
ATOM     58  C   UNL A   1      35.508  34.545  28.778  1.00  0.00    -0.049 A 
ATOM     59  C   UNL A   1      35.077  33.131  31.145  1.00  0.00    -0.053 A 
ATOM     60  H   UNL A   1      33.031  33.524  30.795  1.00  0.00     0.063 H 
ATOM     61  C   UNL A   1      36.584  33.965  29.443  1.00  0.00    -0.053 A 
ATOM     62  H   UNL A   1      35.672  35.152  27.958  1.00  0.00     0.063 H 
ATOM     63  C   UNL A   1      36.378  33.243  30.627  1.00  0.00    -0.014 A 
ATOM     64  H   UNL A   1      34.925  32.670  32.057  1.00  0.00     0.063 H 
ATOM     65  H   UNL A   1      37.538  34.069  29.063  1.00  0.00     0.063 H 
BRANCH  63  66
ATOM     66  C   UNL A   1      37.532  32.577  31.285  1.00  0.00     0.031 A 
ATOM     67  C   UNL A   1      38.209  31.408  30.633  1.00  0.00     0.074 A 
ATOM     68  C   UNL A   1      37.908  32.974  32.516  1.00  0.00     0.049 A 
ATOM     69  N   UNL A   1      39.173  30.649  31.089  1.00  0.00    -0.248 NA
ATOM     70  C   UNL A   1      37.718  31.021  29.302  1.00  0.00    -0.034 C 
ATOM     71  C   UNL A   1      37.286  34.053  33.284  1.00  0.00    -0.036 A 
ATOM     72  N   UNL A   1      38.893  32.499  33.348  1.00  0.00    -0.354 N 
ATOM     73  C   UNL A   1      39.396  29.691  30.109  1.00  0.00     0.074 A 
ATOM     74  C   UNL A   1      38.425  29.927  29.061  1.00  0.00    -0.034 C 
ATOM     75  H   UNL A   1      37.007  31.480  28.711  1.00  0.00     0.065 H 
ATOM     76  C   UNL A   1      37.910  34.167  34.467  1.00  0.00    -0.036 A 
ATOM     77  H   UNL A   1      36.494  34.632  32.967  1.00  0.00     0.065 H 
ATOM     78  C   UNL A   1      38.949  33.147  34.558  1.00  0.00     0.049 A 
ATOM     79  H   UNL A   1      39.500  31.765  33.101  1.00  0.00     0.167 HD
ATOM     80  C   UNL A   1      40.340  28.721  30.072  1.00  0.00     0.037 A 
ATOM     81  H   UNL A   1      38.301  29.322  28.234  1.00  0.00     0.065 H 
ATOM     82  H   UNL A   1      37.690  34.866  35.195  1.00  0.00     0.065 H 
ATOM     83  C   UNL A   1      39.739  32.934  35.627  1.00  0.00     0.037 A 
ATOM     84  C   UNL A   1      41.309  28.496  31.113  1.00  0.00     0.049 A 
ATOM     85  C   UNL A   1      40.774  31.845  35.572  1.00  0.00     0.074 A 
ATOM     86  C   UNL A   1      42.349  27.584  31.143  1.00  0.00    -0.036 A 
ATOM     87  N   UNL A   1      41.349  29.185  32.317  1.00  0.00    -0.354 N 
ATOM     88  N   UNL A   1      41.031  30.999  34.604  1.00  0.00    -0.248 NA
ATOM     89  C   UNL A   1      41.632  31.684  36.753  1.00  0.00    -0.034 C 
ATOM     90  C   UNL A   1      42.986  27.686  32.385  1.00  0.00    -0.036 A 
ATOM     91  H   UNL A   1      42.610  26.938  30.380  1.00  0.00     0.065 H 
ATOM     92  C   UNL A   1      42.377  28.698  33.110  1.00  0.00     0.049 A 
ATOM     93  H   UNL A   1      40.738  29.914  32.571  1.00  0.00     0.167 HD
ATOM     94  C   UNL A   1      42.086  30.215  35.052  1.00  0.00     0.074 A 
ATOM     95  C   UNL A   1      42.436  30.701  36.371  1.00  0.00    -0.034 C 
ATOM     96  H   UNL A   1      41.614  32.201  37.646  1.00  0.00     0.065 H 
ATOM     97  H   UNL A   1      43.777  27.105  32.706  1.00  0.00     0.065 H 
ATOM     98  C   UNL A   1      42.704  29.183  34.427  1.00  0.00     0.037 A 
ATOM     99  H   UNL A   1      43.212  30.331  36.940  1.00  0.00     0.065 H 
BRANCH  80 100
ATOM    100  C   UNL A   1      40.365  27.831  28.863  1.00  0.00     0.064 A 
ATOM    101  C   UNL A   1      39.643  26.627  28.821  1.00  0.00     0.173 A 
ATOM    102  C   UNL A   1      41.110  28.186  27.728  1.00  0.00     0.173 A 
ATOM    103  F   UNL A   1      38.923  26.235  29.883  1.00  0.00    -0.203 F 
ATOM    104  C   UNL A   1      39.700  25.795  27.707  1.00  0.00     0.198 A 
ATOM    105  C   UNL A   1      41.137  27.367  26.602  1.00  0.00     0.198 A 
ATOM    106  F   UNL A   1      41.813  29.329  27.711  1.00  0.00    -0.203 F 
ATOM    107  F   UNL A   1      39.053  24.621  27.717  1.00  0.00    -0.200 F 
ATOM    108  C   UNL A   1      40.442  26.167  26.597  1.00  0.00     0.200 A 
ATOM    109  F   UNL A   1      41.845  27.734  25.525  1.00  0.00    -0.200 F 
ATOM    110  F   UNL A   1      40.498  25.364  25.525  1.00  0.00    -0.200 F 
ENDBRANCH  80 100
BRANCH  83 111
ATOM    111  C   UNL A   1      39.581  33.784  36.835  1.00  0.00     0.064 A 
ATOM    112  C   UNL A   1      40.227  35.023  36.935  1.00  0.00     0.173 A 
ATOM    113  C   UNL A   1      38.756  33.389  37.899  1.00  0.00     0.173 A 
ATOM    114  F   UNL A   1      41.041  35.434  35.950  1.00  0.00    -0.203 F 
ATOM    115  C   UNL A   1      40.063  35.832  38.057  1.00  0.00     0.198 A 
ATOM    116  C   UNL A   1      38.571  34.211  39.009  1.00  0.00     0.198 A 
ATOM    117  F   UNL A   1      38.111  32.215  37.850  1.00  0.00    -0.203 F 
ATOM    118  F   UNL A   1      40.718  36.997  38.141  1.00  0.00    -0.200 F 
ATOM    119  C   UNL A   1      39.229  35.430  39.089  1.00  0.00     0.200 A 
ATOM    120  F   UNL A   1      37.752  33.825  39.997  1.00  0.00    -0.200 F 
ATOM    121  F   UNL A   1      39.060  36.214  40.163  1.00  0.00    -0.200 F 
ENDBRANCH  83 111
BRANCH  98 122
ATOM    122  C   UNL A   1      43.829  28.512  35.161  1.00  0.00     0.064 A 
ATOM    123  C   UNL A   1      43.596  27.446  36.043  1.00  0.00     0.173 A 
ATOM    124  C   UNL A   1      45.158  28.913  34.951  1.00  0.00     0.173 A 
ATOM    125  F   UNL A   1      42.342  27.037  36.291  1.00  0.00    -0.203 F 
ATOM    126  C   UNL A   1      44.650  26.820  36.705  1.00  0.00     0.198 A 
ATOM    127  C   UNL A   1      46.211  28.265  35.591  1.00  0.00     0.198 A 
ATOM    128  F   UNL A   1      45.435  29.923  34.114  1.00  0.00    -0.203 F 
ATOM    129  F   UNL A   1      44.400  25.834  37.577  1.00  0.00    -0.200 F 
ATOM    130  C   UNL A   1      45.956  27.224  36.472  1.00  0.00     0.200 A 
ATOM    131  F   UNL A   1      47.473  28.649  35.356  1.00  0.00    -0.200 F 
ATOM    132  F   UNL A   1      46.970  26.616  37.103  1.00  0.00    -0.200 F 
ENDBRANCH  98 122
ENDBRANCH  63  66
ENDBRANCH  53  56
ENDBRANCH  49  52
ENDBRANCH  46  49
ENDBRANCH  43  46
ENDBRANCH  40  43
ENDBRANCH   1  40
TORSDOF 17
ENDMDL
MODEL 4
REMARK VINA RESULT:     -12.4      5.732     11.476
REMARK SMILES O=C(Cc1ccccc1Nc1c(F)cccc1C(F)(F)F)NCCCCCCNC(=O)c1ccc(-c2c3nc(c(-c4c(F)c(F)c(F)c(F)c4F)c4ccc([nH]4)c(-c4c(F)c(F)c(F)c(F)c4F)c4nc(c(-c5c(F)c(F)c(F)c(F)c5F)c5ccc2[nH]5)C=C4)C=C3)cc1
REMARK SMILES IDX 24 1 23 4 22 7 1 8 2 9 3 11 4 14 5 15 9 16 6 17 8 19 7 20
REMARK SMILES IDX 10 24 11 26 12 27 17 28 13 29 14 30 16 31 15 32 18 36 19 37
REMARK SMILES IDX 20 38 21 39 25 40 26 43 27 46 28 49 29 52 30 53 31 55 32 56
REMARK SMILES IDX 33 57 94 58 34 59 93 61 35 63 36 66 37 67 87 68 38 69 92 70
REMARK SMILES IDX 86 71 88 72 39 73 91 74 85 76 84 78 40 80 72 83 52 84 71 85
REMARK SMILES IDX 53 86 56 87 70 88 89 89 54 90 55 92 69 94 90 95 57 98 41 100
REMARK SMILES IDX 42 101 50 102 43 103 44 104 48 105 51 106 45 107 46 108
REMARK SMILES IDX 49 109 47 110 73 111 74 112 82 113 75 114 76 115 80 116
REMARK SMILES IDX 83 117 77 118 78 119 81 120 79 121 58 122 59 123 67 124
REMARK SMILES IDX 60 125 61 126 65 127 68 128 62 129 63 130 66 131 64 132
REMARK H PARENT 24 2 24 3 23 5 23 6 22 10 3 12 3 13 5 18 6 21 8 22 7 23 10 25
REMARK H PARENT 14 33 16 34 15 35 25 41 25 42 26 44 26 45 27 47 27 48 28 50
REMARK H PARENT 28 51 29 54 33 60 94 62 34 64 93 65 92 75 86 77 88 79 91 81
REMARK H PARENT 85 82 53 91 56 93 89 96 54 97 90 99
REMARK Flexibility Score: inf
ROOT
ATOM      1  C   UNL A   1      31.122  28.370  25.145  1.00  0.00    -0.036 C 
ATOM      2  H   UNL A   1      30.084  28.311  24.893  1.00  0.00     0.028 H 
ATOM      3  H   UNL A   1      31.760  27.895  24.429  1.00  0.00     0.028 H 
ENDROOT
BRANCH   1   4
ATOM      4  C   UNL A   1      31.332  27.625  26.467  1.00  0.00     0.017 C 
ATOM      5  H   UNL A   1      31.776  28.293  27.176  1.00  0.00     0.049 H 
ATOM      6  H   UNL A   1      30.380  27.282  26.817  1.00  0.00     0.049 H 
BRANCH   4   7
ATOM      7  N   UNL A   1      32.196  26.478  26.294  1.00  0.00    -0.356 N 
ATOM      8  O   UNL A   1      34.187  27.606  26.177  1.00  0.00    -0.275 OA
ATOM      9  C   UNL A   1      33.557  26.553  26.126  1.00  0.00     0.224 C 
ATOM     10  H   UNL A   1      31.780  25.586  26.296  1.00  0.00     0.163 HD
BRANCH   9  11
ATOM     11  C   UNL A   1      34.208  25.242  25.720  1.00  0.00     0.054 C 
ATOM     12  H   UNL A   1      33.926  24.504  26.440  1.00  0.00     0.042 H 
ATOM     13  H   UNL A   1      35.257  25.449  25.679  1.00  0.00     0.042 H 
BRANCH  11  14
ATOM     14  C   UNL A   1      33.853  24.705  24.347  1.00  0.00    -0.015 A 
ATOM     15  C   UNL A   1      33.715  25.628  23.293  1.00  0.00    -0.056 A 
ATOM     16  C   UNL A   1      33.625  23.334  24.088  1.00  0.00     0.042 A 
ATOM     17  C   UNL A   1      33.321  25.216  22.021  1.00  0.00    -0.062 A 
ATOM     18  H   UNL A   1      33.909  26.627  23.466  1.00  0.00     0.063 H 
ATOM     19  C   UNL A   1      33.210  22.945  22.804  1.00  0.00    -0.038 A 
ATOM     20  C   UNL A   1      33.058  23.876  21.778  1.00  0.00    -0.060 A 
ATOM     21  H   UNL A   1      33.226  25.908  21.261  1.00  0.00     0.062 H 
ATOM     22  H   UNL A   1      33.014  21.949  22.616  1.00  0.00     0.064 H 
ATOM     23  H   UNL A   1      32.752  23.569  20.841  1.00  0.00     0.062 H 
BRANCH  16  24
ATOM     24  N   UNL A   1      33.791  22.364  25.104  1.00  0.00    -0.352 N 
ATOM     25  H   UNL A   1      33.839  22.718  26.022  1.00  0.00     0.167 HD
BRANCH  24  26
ATOM     26  C   UNL A   1      33.896  20.956  24.989  1.00  0.00     0.087 A 
ATOM     27  C   UNL A   1      32.697  20.215  25.038  1.00  0.00     0.147 A 
ATOM     28  C   UNL A   1      35.106  20.249  24.831  1.00  0.00     0.082 A 
ATOM     29  F   UNL A   1      31.541  20.867  25.245  1.00  0.00    -0.205 F 
ATOM     30  C   UNL A   1      32.664  18.832  24.900  1.00  0.00    -0.024 A 
ATOM     31  C   UNL A   1      35.056  18.843  24.665  1.00  0.00    -0.048 A 
ATOM     32  C   UNL A   1      33.850  18.141  24.702  1.00  0.00    -0.059 A 
ATOM     33  H   UNL A   1      31.766  18.325  24.946  1.00  0.00     0.065 H 
ATOM     34  H   UNL A   1      35.935  18.323  24.514  1.00  0.00     0.063 H 
ATOM     35  H   UNL A   1      33.841  17.117  24.581  1.00  0.00     0.062 H 
BRANCH  28  36
ATOM     36  C   UNL A   1      36.481  20.875  24.904  1.00  0.00     0.418 C 
ATOM     37  F   UNL A   1      37.469  19.929  24.840  1.00  0.00    -0.166 F 
ATOM     38  F   UNL A   1      36.734  21.721  23.869  1.00  0.00    -0.166 F 
ATOM     39  F   UNL A   1      36.744  21.555  26.050  1.00  0.00    -0.166 F 
ENDBRANCH  28  36
ENDBRANCH  24  26
ENDBRANCH  16  24
ENDBRANCH  11  14
ENDBRANCH   9  11
ENDBRANCH   4   7
ENDBRANCH   1   4
BRANCH   1  40
ATOM     40  C   UNL A   1      31.525  29.850  25.165  1.00  0.00    -0.052 C 
ATOM     41  H   UNL A   1      30.673  30.429  24.876  1.00  0.00     0.027 H 
ATOM     42  H   UNL A   1      32.352  29.942  24.492  1.00  0.00     0.027 H 
BRANCH  40  43
ATOM     43  C   UNL A   1      32.016  30.371  26.515  1.00  0.00    -0.052 C 
ATOM     44  H   UNL A   1      33.082  30.275  26.535  1.00  0.00     0.027 H 
ATOM     45  H   UNL A   1      31.510  29.784  27.252  1.00  0.00     0.027 H 
BRANCH  43  46
ATOM     46  C   UNL A   1      31.673  31.820  26.839  1.00  0.00    -0.036 C 
ATOM     47  H   UNL A   1      30.896  31.822  27.575  1.00  0.00     0.028 H 
ATOM     48  H   UNL A   1      31.379  32.276  25.918  1.00  0.00     0.028 H 
BRANCH  46  49
ATOM     49  C   UNL A   1      32.838  32.641  27.376  1.00  0.00     0.018 C 
ATOM     50  H   UNL A   1      33.624  32.634  26.651  1.00  0.00     0.049 H 
ATOM     51  H   UNL A   1      33.144  32.196  28.301  1.00  0.00     0.049 H 
BRANCH  49  52
ATOM     52  N   UNL A   1      32.477  34.023  27.657  1.00  0.00    -0.352 N 
ATOM     53  C   UNL A   1      33.003  34.897  28.581  1.00  0.00     0.251 C 
ATOM     54  H   UNL A   1      31.749  34.387  27.103  1.00  0.00     0.163 HD
ATOM     55  O   UNL A   1      32.474  35.984  28.776  1.00  0.00    -0.269 OA
BRANCH  53  56
ATOM     56  C   UNL A   1      34.188  34.500  29.372  1.00  0.00     0.039 A 
ATOM     57  C   UNL A   1      34.001  33.977  30.654  1.00  0.00    -0.049 A 
ATOM     58  C   UNL A   1      35.475  34.606  28.839  1.00  0.00    -0.049 A 
ATOM     59  C   UNL A   1      35.094  33.470  31.360  1.00  0.00    -0.053 A 
ATOM     60  H   UNL A   1      33.059  33.964  31.076  1.00  0.00     0.063 H 
ATOM     61  C   UNL A   1      36.549  34.024  29.505  1.00  0.00    -0.053 A 
ATOM     62  H   UNL A   1      35.628  35.114  27.954  1.00  0.00     0.063 H 
ATOM     63  C   UNL A   1      36.367  33.440  30.768  1.00  0.00    -0.014 A 
ATOM     64  H   UNL A   1      34.966  33.115  32.321  1.00  0.00     0.063 H 
ATOM     65  H   UNL A   1      37.484  34.023  29.069  1.00  0.00     0.063 H 
BRANCH  63  66
ATOM     66  C   UNL A   1      37.513  32.768  31.432  1.00  0.00     0.031 A 
ATOM     67  C   UNL A   1      38.179  31.587  30.788  1.00  0.00     0.074 A 
ATOM     68  C   UNL A   1      37.893  33.169  32.660  1.00  0.00     0.049 A 
ATOM     69  N   UNL A   1      39.134  30.821  31.251  1.00  0.00    -0.248 NA
ATOM     70  C   UNL A   1      37.685  31.195  29.460  1.00  0.00    -0.034 C 
ATOM     71  C   UNL A   1      37.281  34.261  33.420  1.00  0.00    -0.036 A 
ATOM     72  N   UNL A   1      38.871  32.690  33.496  1.00  0.00    -0.354 N 
ATOM     73  C   UNL A   1      39.348  29.854  30.278  1.00  0.00     0.074 A 
ATOM     74  C   UNL A   1      38.381  30.092  29.228  1.00  0.00    -0.034 C 
ATOM     75  H   UNL A   1      36.980  31.658  28.865  1.00  0.00     0.065 H 
ATOM     76  C   UNL A   1      37.905  34.377  34.602  1.00  0.00    -0.036 A 
ATOM     77  H   UNL A   1      36.495  34.846  33.097  1.00  0.00     0.065 H 
ATOM     78  C   UNL A   1      38.933  33.346  34.702  1.00  0.00     0.049 A 
ATOM     79  H   UNL A   1      39.471  31.948  33.255  1.00  0.00     0.167 HD
ATOM     80  C   UNL A   1      40.282  28.873  30.250  1.00  0.00     0.037 A 
ATOM     81  H   UNL A   1      38.252  29.483  28.405  1.00  0.00     0.065 H 
ATOM     82  H   UNL A   1      37.692  35.082  35.325  1.00  0.00     0.065 H 
ATOM     83  C   UNL A   1      39.719  33.132  35.773  1.00  0.00     0.037 A 
ATOM     84  C   UNL A   1      41.248  28.646  31.293  1.00  0.00     0.049 A 
ATOM     85  C   UNL A   1      40.743  32.032  35.727  1.00  0.00     0.074 A 
ATOM     86  C   UNL A   1      42.278  27.723  31.331  1.00  0.00    -0.036 A 
ATOM     87  N   UNL A   1      41.294  29.343  32.492  1.00  0.00    -0.354 N 
ATOM     88  N   UNL A   1      40.992  31.177  34.766  1.00  0.00    -0.248 NA
ATOM     89  C   UNL A   1      41.598  31.871  36.910  1.00  0.00    -0.034 C 
ATOM     90  C   UNL A   1      42.915  27.828  32.573  1.00  0.00    -0.036 A 
ATOM     91  H   UNL A   1      42.533  27.069  30.573  1.00  0.00     0.065 H 
ATOM     92  C   UNL A   1      42.315  28.851  33.290  1.00  0.00     0.049 A 
ATOM     93  H   UNL A   1      40.690  30.080  32.740  1.00  0.00     0.167 HD
ATOM     94  C   UNL A   1      42.038  30.385  35.220  1.00  0.00     0.074 A 
ATOM     95  C   UNL A   1      42.392  30.877  36.536  1.00  0.00    -0.034 C 
ATOM     96  H   UNL A   1      41.584  32.395  37.800  1.00  0.00     0.065 H 
ATOM     97  H   UNL A   1      43.699  27.241  32.899  1.00  0.00     0.065 H 
ATOM     98  C   UNL A   1      42.647  29.342  34.603  1.00  0.00     0.037 A 
ATOM     99  H   UNL A   1      43.163  30.503  37.109  1.00  0.00     0.065 H 
BRANCH  80 100
ATOM    100  C   UNL A   1      40.299  27.975  29.047  1.00  0.00     0.064 A 
ATOM    101  C   UNL A   1      41.037  28.300  27.896  1.00  0.00     0.173 A 
ATOM    102  C   UNL A   1      39.581  26.770  29.043  1.00  0.00     0.173 A 
ATOM    103  F   UNL A   1      41.732  29.445  27.842  1.00  0.00    -0.203 F 
ATOM    104  C   UNL A   1      41.018  27.475  26.775  1.00  0.00     0.198 A 
ATOM    105  C   UNL A   1      39.593  25.930  27.933  1.00  0.00     0.198 A 
ATOM    106  F   UNL A   1      38.865  26.406  30.118  1.00  0.00    -0.203 F 
ATOM    107  F   UNL A   1      41.678  27.840  25.667  1.00  0.00    -0.200 F 
ATOM    108  C   UNL A   1      40.301  26.289  26.795  1.00  0.00     0.200 A 
ATOM    109  F   UNL A   1      38.909  24.778  27.958  1.00  0.00    -0.200 F 
ATOM    110  F   UNL A   1      40.283  25.496  25.715  1.00  0.00    -0.200 F 
ENDBRANCH  80 100
BRANCH  83 111
ATOM    111  C   UNL A   1      39.569  33.993  36.975  1.00  0.00     0.064 A 
ATOM    112  C   UNL A   1      40.177  35.254  37.040  1.00  0.00     0.173 A 
ATOM    113  C   UNL A   1      38.789  33.586  38.068  1.00  0.00     0.173 A 
ATOM    114  F   UNL A   1      40.948  35.677  36.027  1.00  0.00    -0.203 F 
ATOM    115  C   UNL A   1      40.019  36.071  38.157  1.00  0.00     0.198 A 
ATOM    116  C   UNL A   1      38.610  34.416  39.173  1.00  0.00     0.198 A 
ATOM    117  F   UNL A   1      38.181  32.390  38.052  1.00  0.00    -0.203 F 
ATOM    118  F   UNL A   1      40.638  37.258  38.207  1.00  0.00    -0.200 F 
ATOM    119  C   UNL A   1      39.230  35.656  39.218  1.00  0.00     0.200 A 
ATOM    120  F   UNL A   1      37.833  34.017  40.189  1.00  0.00    -0.200 F 
ATOM    121  F   UNL A   1      39.066  36.448  40.287  1.00  0.00    -0.200 F 
ENDBRANCH  83 111
BRANCH  98 122
ATOM    122  C   UNL A   1      43.763  28.665  35.344  1.00  0.00     0.064 A 
ATOM    123  C   UNL A   1      45.097  29.073  35.191  1.00  0.00     0.173 A 
ATOM    124  C   UNL A   1      43.493  27.624  36.246  1.00  0.00     0.173 A 
ATOM    125  F   UNL A   1      45.410  30.052  34.328  1.00  0.00    -0.203 F 
ATOM    126  C   UNL A   1      46.122  28.449  35.898  1.00  0.00     0.198 A 
ATOM    127  C   UNL A   1      44.517  27.023  36.973  1.00  0.00     0.198 A 
ATOM    128  F   UNL A   1      42.235  27.201  36.432  1.00  0.00    -0.203 F 
ATOM    129  F   UNL A   1      47.393  28.824  35.703  1.00  0.00    -0.200 F 
ATOM    130  C   UNL A   1      45.830  27.431  36.794  1.00  0.00     0.200 A 
ATOM    131  F   UNL A   1      44.232  26.048  37.847  1.00  0.00    -0.200 F 
ATOM    132  F   UNL A   1      46.817  26.837  37.480  1.00  0.00    -0.200 F 
ENDBRANCH  98 122
ENDBRANCH  63  66
ENDBRANCH  53  56
ENDBRANCH  49  52
ENDBRANCH  46  49
ENDBRANCH  43  46
ENDBRANCH  40  43
ENDBRANCH   1  40
TORSDOF 17
ENDMDL
MODEL 5
REMARK VINA RESULT:     -12.4      3.941      8.456
REMARK SMILES O=C(Cc1ccccc1Nc1c(F)cccc1C(F)(F)F)NCCCCCCNC(=O)c1ccc(-c2c3nc(c(-c4c(F)c(F)c(F)c(F)c4F)c4ccc([nH]4)c(-c4c(F)c(F)c(F)c(F)c4F)c4nc(c(-c5c(F)c(F)c(F)c(F)c5F)c5ccc2[nH]5)C=C4)C=C3)cc1
REMARK SMILES IDX 24 1 23 4 22 7 1 8 2 9 3 11 4 14 5 15 9 16 6 17 8 19 7 20
REMARK SMILES IDX 10 24 11 26 12 27 17 28 13 29 14 30 16 31 15 32 18 36 19 37
REMARK SMILES IDX 20 38 21 39 25 40 26 43 27 46 28 49 29 52 30 53 31 55 32 56
REMARK SMILES IDX 33 57 94 58 34 59 93 61 35 63 36 66 37 67 87 68 38 69 92 70
REMARK SMILES IDX 86 71 88 72 39 73 91 74 85 76 84 78 40 80 72 83 52 84 71 85
REMARK SMILES IDX 53 86 56 87 70 88 89 89 54 90 55 92 69 94 90 95 57 98 41 100
REMARK SMILES IDX 42 101 50 102 43 103 44 104 48 105 51 106 45 107 46 108
REMARK SMILES IDX 49 109 47 110 73 111 74 112 82 113 75 114 76 115 80 116
REMARK SMILES IDX 83 117 77 118 78 119 81 120 79 121 58 122 59 123 67 124
REMARK SMILES IDX 60 125 61 126 65 127 68 128 62 129 63 130 66 131 64 132
REMARK H PARENT 24 2 24 3 23 5 23 6 22 10 3 12 3 13 5 18 6 21 8 22 7 23 10 25
REMARK H PARENT 14 33 16 34 15 35 25 41 25 42 26 44 26 45 27 47 27 48 28 50
REMARK H PARENT 28 51 29 54 33 60 94 62 34 64 93 65 92 75 86 77 88 79 91 81
REMARK H PARENT 85 82 53 91 56 93 89 96 54 97 90 99
REMARK Flexibility Score: inf
ROOT
ATOM      1  C   UNL A   1      33.144  26.318  24.674  1.00  0.00    -0.036 C 
ATOM      2  H   UNL A   1      33.468  26.274  23.655  1.00  0.00     0.028 H 
ATOM      3  H   UNL A   1      33.938  26.184  25.378  1.00  0.00     0.028 H 
ENDROOT
BRANCH   1   4
ATOM      4  C   UNL A   1      32.162  25.167  24.909  1.00  0.00     0.017 C 
ATOM      5  H   UNL A   1      31.421  25.479  25.615  1.00  0.00     0.049 H 
ATOM      6  H   UNL A   1      31.709  24.911  23.974  1.00  0.00     0.049 H 
BRANCH   4   7
ATOM      7  N   UNL A   1      32.837  23.995  25.423  1.00  0.00    -0.356 N 
ATOM      8  O   UNL A   1      31.832  23.938  27.482  1.00  0.00    -0.275 OA
ATOM      9  C   UNL A   1      32.650  23.486  26.685  1.00  0.00     0.224 C 
ATOM     10  H   UNL A   1      33.473  23.534  24.830  1.00  0.00     0.163 HD
BRANCH   9  11
ATOM     11  C   UNL A   1      33.646  22.407  27.076  1.00  0.00     0.054 C 
ATOM     12  H   UNL A   1      33.139  21.467  27.031  1.00  0.00     0.042 H 
ATOM     13  H   UNL A   1      33.992  22.683  28.051  1.00  0.00     0.042 H 
BRANCH  11  14
ATOM     14  C   UNL A   1      34.896  22.298  26.226  1.00  0.00    -0.015 A 
ATOM     15  C   UNL A   1      35.743  23.421  26.150  1.00  0.00    -0.056 A 
ATOM     16  C   UNL A   1      35.230  21.141  25.486  1.00  0.00     0.042 A 
ATOM     17  C   UNL A   1      36.872  23.418  25.332  1.00  0.00    -0.062 A 
ATOM     18  H   UNL A   1      35.523  24.259  26.711  1.00  0.00     0.063 H 
ATOM     19  C   UNL A   1      36.361  21.169  24.653  1.00  0.00    -0.038 A 
ATOM     20  C   UNL A   1      37.176  22.296  24.575  1.00  0.00    -0.060 A 
ATOM     21  H   UNL A   1      37.481  24.251  25.290  1.00  0.00     0.062 H 
ATOM     22  H   UNL A   1      36.593  20.337  24.088  1.00  0.00     0.064 H 
ATOM     23  H   UNL A   1      38.002  22.296  23.956  1.00  0.00     0.062 H 
BRANCH  16  24
ATOM     24  N   UNL A   1      34.433  19.974  25.560  1.00  0.00    -0.352 N 
ATOM     25  H   UNL A   1      34.183  19.691  26.470  1.00  0.00     0.167 HD
BRANCH  24  26
ATOM     26  C   UNL A   1      33.942  19.157  24.513  1.00  0.00     0.087 A 
ATOM     27  C   UNL A   1      34.513  17.874  24.378  1.00  0.00     0.147 A 
ATOM     28  C   UNL A   1      32.931  19.531  23.605  1.00  0.00     0.082 A 
ATOM     29  F   UNL A   1      35.516  17.522  25.198  1.00  0.00    -0.205 F 
ATOM     30  C   UNL A   1      34.093  16.965  23.414  1.00  0.00    -0.024 A 
ATOM     31  C   UNL A   1      32.493  18.585  22.645  1.00  0.00    -0.048 A 
ATOM     32  C   UNL A   1      33.068  17.318  22.548  1.00  0.00    -0.059 A 
ATOM     33  H   UNL A   1      34.539  16.036  23.343  1.00  0.00     0.065 H 
ATOM     34  H   UNL A   1      31.729  18.841  22.000  1.00  0.00     0.063 H 
ATOM     35  H   UNL A   1      32.734  16.648  21.838  1.00  0.00     0.062 H 
BRANCH  28  36
ATOM     36  C   UNL A   1      32.321  20.912  23.522  1.00  0.00     0.418 C 
ATOM     37  F   UNL A   1      31.651  21.237  24.671  1.00  0.00    -0.166 F 
ATOM     38  F   UNL A   1      33.250  21.894  23.367  1.00  0.00    -0.166 F 
ATOM     39  F   UNL A   1      31.398  21.077  22.539  1.00  0.00    -0.166 F 
ENDBRANCH  28  36
ENDBRANCH  24  26
ENDBRANCH  16  24
ENDBRANCH  11  14
ENDBRANCH   9  11
ENDBRANCH   4   7
ENDBRANCH   1   4
BRANCH   1  40
ATOM     40  C   UNL A   1      32.573  27.718  24.933  1.00  0.00    -0.052 C 
ATOM     41  H   UNL A   1      32.070  28.041  24.045  1.00  0.00     0.027 H 
ATOM     42  H   UNL A   1      33.406  28.335  25.200  1.00  0.00     0.027 H 
BRANCH  40  43
ATOM     43  C   UNL A   1      31.586  27.812  26.097  1.00  0.00    -0.052 C 
ATOM     44  H   UNL A   1      31.126  26.853  26.213  1.00  0.00     0.027 H 
ATOM     45  H   UNL A   1      30.905  28.595  25.834  1.00  0.00     0.027 H 
BRANCH  43  46
ATOM     46  C   UNL A   1      32.174  28.214  27.443  1.00  0.00    -0.036 C 
ATOM     47  H   UNL A   1      32.175  27.353  28.077  1.00  0.00     0.028 H 
ATOM     48  H   UNL A   1      31.564  29.009  27.817  1.00  0.00     0.028 H 
BRANCH  46  49
ATOM     49  C   UNL A   1      33.596  28.756  27.376  1.00  0.00     0.018 C 
ATOM     50  H   UNL A   1      33.973  28.604  26.386  1.00  0.00     0.049 H 
ATOM     51  H   UNL A   1      34.174  28.229  28.107  1.00  0.00     0.049 H 
BRANCH  49  52
ATOM     52  N   UNL A   1      33.680  30.174  27.693  1.00  0.00    -0.352 N 
ATOM     53  C   UNL A   1      34.718  30.890  28.246  1.00  0.00     0.251 C 
ATOM     54  H   UNL A   1      32.875  30.699  27.481  1.00  0.00     0.163 HD
ATOM     55  O   UNL A   1      34.556  32.058  28.577  1.00  0.00    -0.269 OA
BRANCH  53  56
ATOM     56  C   UNL A   1      36.020  30.228  28.479  1.00  0.00     0.039 A 
ATOM     57  C   UNL A   1      36.984  30.259  27.469  1.00  0.00    -0.049 A 
ATOM     58  C   UNL A   1      36.303  29.613  29.701  1.00  0.00    -0.049 A 
ATOM     59  C   UNL A   1      38.265  29.760  27.720  1.00  0.00    -0.053 A 
ATOM     60  H   UNL A   1      36.752  30.648  26.543  1.00  0.00     0.063 H 
ATOM     61  C   UNL A   1      37.601  29.195  29.980  1.00  0.00    -0.053 A 
ATOM     62  H   UNL A   1      35.553  29.469  30.395  1.00  0.00     0.063 H 
ATOM     63  C   UNL A   1      38.597  29.276  28.996  1.00  0.00    -0.014 A 
ATOM     64  H   UNL A   1      38.970  29.749  26.966  1.00  0.00     0.063 H 
ATOM     65  H   UNL A   1      37.831  28.824  30.915  1.00  0.00     0.063 H 
BRANCH  63  66
ATOM     66  C   UNL A   1      39.990  28.885  29.335  1.00  0.00     0.031 A 
ATOM     67  C   UNL A   1      40.884  29.830  30.085  1.00  0.00     0.074 A 
ATOM     68  C   UNL A   1      40.475  27.712  28.886  1.00  0.00     0.049 A 
ATOM     69  N   UNL A   1      42.149  29.701  30.397  1.00  0.00    -0.248 NA
ATOM     70  C   UNL A   1      40.285  31.102  30.514  1.00  0.00    -0.034 C 
ATOM     71  C   UNL A   1      39.728  26.737  28.090  1.00  0.00    -0.036 A 
ATOM     72  N   UNL A   1      41.722  27.149  29.015  1.00  0.00    -0.354 N 
ATOM     73  C   UNL A   1      42.498  30.876  31.049  1.00  0.00     0.074 A 
ATOM     74  C   UNL A   1      41.329  31.731  31.032  1.00  0.00    -0.034 C 
ATOM     75  H   UNL A   1      39.307  31.422  30.432  1.00  0.00     0.065 H 
ATOM     76  C   UNL A   1      40.523  25.693  27.813  1.00  0.00    -0.036 A 
ATOM     77  H   UNL A   1      38.746  26.838  27.789  1.00  0.00     0.065 H 
ATOM     78  C   UNL A   1      41.846  25.939  28.377  1.00  0.00     0.049 A 
ATOM     79  H   UNL A   1      42.454  27.572  29.518  1.00  0.00     0.167 HD
ATOM     80  C   UNL A   1      43.676  31.203  31.632  1.00  0.00     0.037 A 
ATOM     81  H   UNL A   1      41.313  32.702  31.379  1.00  0.00     0.065 H 
ATOM     82  H   UNL A   1      40.244  24.850  27.287  1.00  0.00     0.065 H 
ATOM     83  C   UNL A   1      42.912  25.126  28.248  1.00  0.00     0.037 A 
ATOM     84  C   UNL A   1      44.833  30.346  31.653  1.00  0.00     0.049 A 
ATOM     85  C   UNL A   1      44.214  25.511  28.893  1.00  0.00     0.074 A 
ATOM     86  C   UNL A   1      46.052  30.555  32.274  1.00  0.00    -0.036 A 
ATOM     87  N   UNL A   1      44.917  29.117  31.013  1.00  0.00    -0.354 N 
ATOM     88  N   UNL A   1      44.508  26.588  29.580  1.00  0.00    -0.248 NA
ATOM     89  C   UNL A   1      45.330  24.566  28.751  1.00  0.00    -0.034 C 
ATOM     90  C   UNL A   1      46.890  29.477  31.968  1.00  0.00    -0.036 A 
ATOM     91  H   UNL A   1      46.300  31.367  32.862  1.00  0.00     0.065 H 
ATOM     92  C   UNL A   1      46.178  28.570  31.199  1.00  0.00     0.049 A 
ATOM     93  H   UNL A   1      44.189  28.695  30.503  1.00  0.00     0.167 HD
ATOM     94  C   UNL A   1      45.836  26.447  29.962  1.00  0.00     0.074 A 
ATOM     95  C   UNL A   1      46.283  25.168  29.449  1.00  0.00    -0.034 C 
ATOM     96  H   UNL A   1      45.362  23.669  28.241  1.00  0.00     0.065 H 
ATOM     97  H   UNL A   1      47.873  29.375  32.264  1.00  0.00     0.065 H 
ATOM     98  C   UNL A   1      46.613  27.302  30.670  1.00  0.00     0.037 A 
ATOM     99  H   UNL A   1      47.223  24.774  29.607  1.00  0.00     0.065 H 
BRANCH  80 100
ATOM    100  C   UNL A   1      43.766  32.548  32.293  1.00  0.00     0.064 A 
ATOM    101  C   UNL A   1      44.150  33.695  31.579  1.00  0.00     0.173 A 
ATOM    102  C   UNL A   1      43.457  32.699  33.653  1.00  0.00     0.173 A 
ATOM    103  F   UNL A   1      44.468  33.604  30.279  1.00  0.00    -0.203 F 
ATOM    104  C   UNL A   1      44.262  34.930  32.210  1.00  0.00     0.198 A 
ATOM    105  C   UNL A   1      43.537  33.943  34.274  1.00  0.00     0.198 A 
ATOM    106  F   UNL A   1      43.078  31.639  34.383  1.00  0.00    -0.203 F 
ATOM    107  F   UNL A   1      44.692  35.996  31.521  1.00  0.00    -0.200 F 
ATOM    108  C   UNL A   1      43.951  35.055  33.555  1.00  0.00     0.200 A 
ATOM    109  F   UNL A   1      43.223  34.065  35.571  1.00  0.00    -0.200 F 
ATOM    110  F   UNL A   1      44.059  36.244  34.163  1.00  0.00    -0.200 F 
ENDBRANCH  80 100
BRANCH  83 111
ATOM    111  C   UNL A   1      42.777  23.860  27.482  1.00  0.00     0.064 A 
ATOM    112  C   UNL A   1      43.113  23.801  26.123  1.00  0.00     0.173 A 
ATOM    113  C   UNL A   1      42.341  22.679  28.100  1.00  0.00     0.173 A 
ATOM    114  F   UNL A   1      43.517  24.909  25.485  1.00  0.00    -0.203 F 
ATOM    115  C   UNL A   1      43.009  22.609  25.407  1.00  0.00     0.198 A 
ATOM    116  C   UNL A   1      42.263  21.482  27.390  1.00  0.00     0.198 A 
ATOM    117  F   UNL A   1      42.013  22.681  29.400  1.00  0.00    -0.203 F 
ATOM    118  F   UNL A   1      43.305  22.588  24.101  1.00  0.00    -0.200 F 
ATOM    119  C   UNL A   1      42.592  21.450  26.043  1.00  0.00     0.200 A 
ATOM    120  F   UNL A   1      41.875  20.361  28.012  1.00  0.00    -0.200 F 
ATOM    121  F   UNL A   1      42.505  20.301  25.358  1.00  0.00    -0.200 F 
ENDBRANCH  83 111
BRANCH  98 122
ATOM    122  C   UNL A   1      48.029  26.880  30.938  1.00  0.00     0.064 A 
ATOM    123  C   UNL A   1      48.355  26.059  32.027  1.00  0.00     0.173 A 
ATOM    124  C   UNL A   1      49.064  27.267  30.073  1.00  0.00     0.173 A 
ATOM    125  F   UNL A   1      47.404  25.676  32.893  1.00  0.00    -0.203 F 
ATOM    126  C   UNL A   1      49.670  25.659  32.254  1.00  0.00     0.198 A 
ATOM    127  C   UNL A   1      50.372  26.841  30.285  1.00  0.00     0.198 A 
ATOM    128  F   UNL A   1      48.804  28.047  29.014  1.00  0.00    -0.203 F 
ATOM    129  F   UNL A   1      49.966  24.912  33.326  1.00  0.00    -0.200 F 
ATOM    130  C   UNL A   1      50.675  26.043  31.379  1.00  0.00     0.200 A 
ATOM    131  F   UNL A   1      51.340  27.203  29.432  1.00  0.00    -0.200 F 
ATOM    132  F   UNL A   1      51.939  25.650  31.593  1.00  0.00    -0.200 F 
ENDBRANCH  98 122
ENDBRANCH  63  66
ENDBRANCH  53  56
ENDBRANCH  49  52
ENDBRANCH  46  49
ENDBRANCH  43  46
ENDBRANCH  40  43
ENDBRANCH   1  40
TORSDOF 17
ENDMDL
MODEL 6
REMARK VINA RESULT:     -12.3      5.688     11.291
REMARK SMILES O=C(Cc1ccccc1Nc1c(F)cccc1C(F)(F)F)NCCCCCCNC(=O)c1ccc(-c2c3nc(c(-c4c(F)c(F)c(F)c(F)c4F)c4ccc([nH]4)c(-c4c(F)c(F)c(F)c(F)c4F)c4nc(c(-c5c(F)c(F)c(F)c(F)c5F)c5ccc2[nH]5)C=C4)C=C3)cc1
REMARK SMILES IDX 24 1 23 4 22 7 1 8 2 9 3 11 4 14 5 15 9 16 6 17 8 19 7 20
REMARK SMILES IDX 10 24 11 26 12 27 17 28 13 29 14 30 16 31 15 32 18 36 19 37
REMARK SMILES IDX 20 38 21 39 25 40 26 43 27 46 28 49 29 52 30 53 31 55 32 56
REMARK SMILES IDX 33 57 94 58 34 59 93 61 35 63 36 66 37 67 87 68 38 69 92 70
REMARK SMILES IDX 86 71 88 72 39 73 91 74 85 76 84 78 40 80 72 83 52 84 71 85
REMARK SMILES IDX 53 86 56 87 70 88 89 89 54 90 55 92 69 94 90 95 57 98 41 100
REMARK SMILES IDX 42 101 50 102 43 103 44 104 48 105 51 106 45 107 46 108
REMARK SMILES IDX 49 109 47 110 73 111 74 112 82 113 75 114 76 115 80 116
REMARK SMILES IDX 83 117 77 118 78 119 81 120 79 121 58 122 59 123 67 124
REMARK SMILES IDX 60 125 61 126 65 127 68 128 62 129 63 130 66 131 64 132
REMARK H PARENT 24 2 24 3 23 5 23 6 22 10 3 12 3 13 5 18 6 21 8 22 7 23 10 25
REMARK H PARENT 14 33 16 34 15 35 25 41 25 42 26 44 26 45 27 47 27 48 28 50
REMARK H PARENT 28 51 29 54 33 60 94 62 34 64 93 65 92 75 86 77 88 79 91 81
REMARK H PARENT 85 82 53 91 56 93 89 96 54 97 90 99
REMARK Flexibility Score: inf
ROOT
ATOM      1  C   UNL A   1      33.470  29.333  24.782  1.00  0.00    -0.036 C 
ATOM      2  H   UNL A   1      34.049  30.232  24.738  1.00  0.00     0.028 H 
ATOM      3  H   UNL A   1      33.841  28.623  25.491  1.00  0.00     0.028 H 
ENDROOT
BRANCH   1   4
ATOM      4  C   UNL A   1      33.548  28.653  23.412  1.00  0.00     0.017 C 
ATOM      5  H   UNL A   1      33.230  29.345  22.660  1.00  0.00     0.049 H 
ATOM      6  H   UNL A   1      34.560  28.349  23.241  1.00  0.00     0.049 H 
BRANCH   4   7
ATOM      7  N   UNL A   1      32.704  27.478  23.358  1.00  0.00    -0.356 N 
ATOM      8  O   UNL A   1      33.618  26.527  21.484  1.00  0.00    -0.275 OA
ATOM      9  C   UNL A   1      32.776  26.518  22.378  1.00  0.00     0.224 C 
ATOM     10  H   UNL A   1      32.034  27.361  24.070  1.00  0.00     0.163 HD
BRANCH   9  11
ATOM     11  C   UNL A   1      31.632  25.519  22.400  1.00  0.00     0.054 C 
ATOM     12  H   UNL A   1      31.934  24.667  21.829  1.00  0.00     0.042 H 
ATOM     13  H   UNL A   1      30.789  26.047  22.003  1.00  0.00     0.042 H 
BRANCH  11  14
ATOM     14  C   UNL A   1      31.186  25.026  23.762  1.00  0.00    -0.015 A 
ATOM     15  C   UNL A   1      30.278  25.822  24.487  1.00  0.00    -0.056 A 
ATOM     16  C   UNL A   1      31.664  23.831  24.346  1.00  0.00     0.042 A 
ATOM     17  C   UNL A   1      29.879  25.469  25.776  1.00  0.00    -0.062 A 
ATOM     18  H   UNL A   1      29.901  26.681  24.056  1.00  0.00     0.063 H 
ATOM     19  C   UNL A   1      31.264  23.506  25.653  1.00  0.00    -0.038 A 
ATOM     20  C   UNL A   1      30.380  24.316  26.364  1.00  0.00    -0.060 A 
ATOM     21  H   UNL A   1      29.212  26.064  26.291  1.00  0.00     0.062 H 
ATOM     22  H   UNL A   1      31.632  22.649  26.096  1.00  0.00     0.064 H 
ATOM     23  H   UNL A   1      30.099  24.059  27.323  1.00  0.00     0.062 H 
BRANCH  16  24
ATOM     24  N   UNL A   1      32.546  22.978  23.642  1.00  0.00    -0.352 N 
ATOM     25  H   UNL A   1      32.453  22.992  22.662  1.00  0.00     0.167 HD
BRANCH  24  26
ATOM     26  C   UNL A   1      33.544  22.109  24.146  1.00  0.00     0.087 A 
ATOM     27  C   UNL A   1      33.216  20.741  24.243  1.00  0.00     0.147 A 
ATOM     28  C   UNL A   1      34.832  22.511  24.553  1.00  0.00     0.082 A 
ATOM     29  F   UNL A   1      31.975  20.348  23.912  1.00  0.00    -0.205 F 
ATOM     30  C   UNL A   1      34.120  19.783  24.687  1.00  0.00    -0.024 A 
ATOM     31  C   UNL A   1      35.753  21.522  24.978  1.00  0.00    -0.048 A 
ATOM     32  C   UNL A   1      35.401  20.173  25.047  1.00  0.00    -0.059 A 
ATOM     33  H   UNL A   1      33.840  18.790  24.748  1.00  0.00     0.065 H 
ATOM     34  H   UNL A   1      36.708  21.806  25.245  1.00  0.00     0.063 H 
ATOM     35  H   UNL A   1      36.089  19.472  25.363  1.00  0.00     0.062 H 
BRANCH  28  36
ATOM     36  C   UNL A   1      35.291  23.950  24.649  1.00  0.00     0.418 C 
ATOM     37  F   UNL A   1      35.088  24.622  23.474  1.00  0.00    -0.166 F 
ATOM     38  F   UNL A   1      34.609  24.662  25.586  1.00  0.00    -0.166 F 
ATOM     39  F   UNL A   1      36.615  24.116  24.905  1.00  0.00    -0.166 F 
ENDBRANCH  28  36
ENDBRANCH  24  26
ENDBRANCH  16  24
ENDBRANCH  11  14
ENDBRANCH   9  11
ENDBRANCH   4   7
ENDBRANCH   1   4
BRANCH   1  40
ATOM     40  C   UNL A   1      32.053  29.700  25.242  1.00  0.00    -0.052 C 
ATOM     41  H   UNL A   1      31.451  28.817  25.199  1.00  0.00     0.027 H 
ATOM     42  H   UNL A   1      31.720  30.478  24.587  1.00  0.00     0.027 H 
BRANCH  40  43
ATOM     43  C   UNL A   1      31.958  30.269  26.658  1.00  0.00    -0.052 C 
ATOM     44  H   UNL A   1      32.891  30.085  27.149  1.00  0.00     0.027 H 
ATOM     45  H   UNL A   1      31.122  29.778  27.110  1.00  0.00     0.027 H 
BRANCH  43  46
ATOM     46  C   UNL A   1      31.663  31.760  26.763  1.00  0.00    -0.036 C 
ATOM     47  H   UNL A   1      30.832  31.890  27.424  1.00  0.00     0.028 H 
ATOM     48  H   UNL A   1      31.464  32.101  25.768  1.00  0.00     0.028 H 
BRANCH  46  49
ATOM     49  C   UNL A   1      32.821  32.599  27.285  1.00  0.00     0.018 C 
ATOM     50  H   UNL A   1      33.599  32.603  26.549  1.00  0.00     0.049 H 
ATOM     51  H   UNL A   1      33.145  32.160  28.206  1.00  0.00     0.049 H 
BRANCH  49  52
ATOM     52  N   UNL A   1      32.444  33.977  27.568  1.00  0.00    -0.352 N 
ATOM     53  C   UNL A   1      32.954  34.853  28.498  1.00  0.00     0.251 C 
ATOM     54  H   UNL A   1      31.715  34.334  27.011  1.00  0.00     0.163 HD
ATOM     55  O   UNL A   1      32.412  35.933  28.693  1.00  0.00    -0.269 OA
BRANCH  53  56
ATOM     56  C   UNL A   1      34.140  34.466  29.294  1.00  0.00     0.039 A 
ATOM     57  C   UNL A   1      33.951  33.927  30.569  1.00  0.00    -0.049 A 
ATOM     58  C   UNL A   1      35.429  34.598  28.773  1.00  0.00    -0.049 A 
ATOM     59  C   UNL A   1      35.046  33.430  31.279  1.00  0.00    -0.053 A 
ATOM     60  H   UNL A   1      33.007  33.896  30.984  1.00  0.00     0.063 H 
ATOM     61  C   UNL A   1      36.507  34.026  29.441  1.00  0.00    -0.053 A 
ATOM     62  H   UNL A   1      35.581  35.118  27.893  1.00  0.00     0.063 H 
ATOM     63  C   UNL A   1      36.324  33.427  30.696  1.00  0.00    -0.014 A 
ATOM     64  H   UNL A   1      34.917  33.064  32.235  1.00  0.00     0.063 H 
ATOM     65  H   UNL A   1      37.445  34.045  29.012  1.00  0.00     0.063 H 
BRANCH  63  66
ATOM     66  C   UNL A   1      37.476  32.765  31.362  1.00  0.00     0.031 A 
ATOM     67  C   UNL A   1      38.156  31.593  30.718  1.00  0.00     0.074 A 
ATOM     68  C   UNL A   1      37.848  33.169  32.592  1.00  0.00     0.049 A 
ATOM     69  N   UNL A   1      39.119  30.836  31.182  1.00  0.00    -0.248 NA
ATOM     70  C   UNL A   1      37.670  31.198  29.388  1.00  0.00    -0.034 C 
ATOM     71  C   UNL A   1      37.223  34.252  33.352  1.00  0.00    -0.036 A 
ATOM     72  N   UNL A   1      38.829  32.699  33.430  1.00  0.00    -0.354 N 
ATOM     73  C   UNL A   1      39.345  29.874  30.208  1.00  0.00     0.074 A 
ATOM     74  C   UNL A   1      38.378  30.103  29.156  1.00  0.00    -0.034 C 
ATOM     75  H   UNL A   1      36.962  31.654  28.791  1.00  0.00     0.065 H 
ATOM     76  C   UNL A   1      37.842  34.373  34.536  1.00  0.00    -0.036 A 
ATOM     77  H   UNL A   1      36.431  34.829  33.028  1.00  0.00     0.065 H 
ATOM     78  C   UNL A   1      38.881  33.354  34.637  1.00  0.00     0.049 A 
ATOM     79  H   UNL A   1      39.438  31.964  33.189  1.00  0.00     0.167 HD
ATOM     80  C   UNL A   1      40.291  28.903  30.181  1.00  0.00     0.037 A 
ATOM     81  H   UNL A   1      38.258  29.494  28.332  1.00  0.00     0.065 H 
ATOM     82  H   UNL A   1      37.619  35.075  35.259  1.00  0.00     0.065 H 
ATOM     83  C   UNL A   1      39.667  33.147  35.710  1.00  0.00     0.037 A 
ATOM     84  C   UNL A   1      41.255  28.684  31.227  1.00  0.00     0.049 A 
ATOM     85  C   UNL A   1      40.702  32.057  35.665  1.00  0.00     0.074 A 
ATOM     86  C   UNL A   1      42.296  27.773  31.266  1.00  0.00    -0.036 A 
ATOM     87  N   UNL A   1      41.290  29.380  32.427  1.00  0.00    -0.354 N 
ATOM     88  N   UNL A   1      40.963  31.207  34.703  1.00  0.00    -0.248 NA
ATOM     89  C   UNL A   1      41.556  31.904  36.850  1.00  0.00    -0.034 C 
ATOM     90  C   UNL A   1      42.928  27.882  32.510  1.00  0.00    -0.036 A 
ATOM     91  H   UNL A   1      42.559  27.123  30.508  1.00  0.00     0.065 H 
ATOM     92  C   UNL A   1      42.315  28.898  33.227  1.00  0.00     0.049 A 
ATOM     93  H   UNL A   1      40.679  30.110  32.675  1.00  0.00     0.167 HD
ATOM     94  C   UNL A   1      42.016  30.425  35.159  1.00  0.00     0.074 A 
ATOM     95  C   UNL A   1      42.361  30.919  36.476  1.00  0.00    -0.034 C 
ATOM     96  H   UNL A   1      41.534  32.426  37.740  1.00  0.00     0.065 H 
ATOM     97  H   UNL A   1      43.717  27.303  32.837  1.00  0.00     0.065 H 
ATOM     98  C   UNL A   1      42.638  29.390  34.542  1.00  0.00     0.037 A 
ATOM     99  H   UNL A   1      43.135  30.552  37.051  1.00  0.00     0.065 H 
BRANCH  80 100
ATOM    100  C   UNL A   1      40.321  28.007  28.977  1.00  0.00     0.064 A 
ATOM    101  C   UNL A   1      39.604  26.799  28.941  1.00  0.00     0.173 A 
ATOM    102  C   UNL A   1      41.063  28.359  27.840  1.00  0.00     0.173 A 
ATOM    103  F   UNL A   1      38.887  26.408  30.005  1.00  0.00    -0.203 F 
ATOM    104  C   UNL A   1      39.666  25.960  27.832  1.00  0.00     0.198 A 
ATOM    105  C   UNL A   1      41.095  27.534  26.719  1.00  0.00     0.198 A 
ATOM    106  F   UNL A   1      41.760  29.506  27.816  1.00  0.00    -0.203 F 
ATOM    107  F   UNL A   1      39.026  24.783  27.849  1.00  0.00    -0.200 F 
ATOM    108  C   UNL A   1      40.406  26.330  26.720  1.00  0.00     0.200 A 
ATOM    109  F   UNL A   1      41.801  27.899  25.639  1.00  0.00    -0.200 F 
ATOM    110  F   UNL A   1      40.466  25.522  25.653  1.00  0.00    -0.200 F 
ENDBRANCH  80 100
BRANCH  83 111
ATOM    111  C   UNL A   1      39.504  34.003  36.912  1.00  0.00     0.064 A 
ATOM    112  C   UNL A   1      38.733  33.577  38.003  1.00  0.00     0.173 A 
ATOM    113  C   UNL A   1      40.140  35.250  37.009  1.00  0.00     0.173 A 
ATOM    114  F   UNL A   1      38.091  32.401  37.949  1.00  0.00    -0.203 F 
ATOM    115  C   UNL A   1      38.597  34.370  39.141  1.00  0.00     0.198 A 
ATOM    116  C   UNL A   1      40.025  36.030  38.158  1.00  0.00     0.198 A 
ATOM    117  F   UNL A   1      40.893  35.701  35.995  1.00  0.00    -0.203 F 
ATOM    118  F   UNL A   1      37.828  33.953  40.155  1.00  0.00    -0.200 F 
ATOM    119  C   UNL A   1      39.249  35.591  39.221  1.00  0.00     0.200 A 
ATOM    120  F   UNL A   1      40.669  37.202  38.238  1.00  0.00    -0.200 F 
ATOM    121  F   UNL A   1      39.129  36.347  40.321  1.00  0.00    -0.200 F 
ENDBRANCH  83 111
BRANCH  98 122
ATOM    122  C   UNL A   1      43.760  28.724  35.285  1.00  0.00     0.064 A 
ATOM    123  C   UNL A   1      45.093  29.123  35.109  1.00  0.00     0.173 A 
ATOM    124  C   UNL A   1      43.495  27.703  36.210  1.00  0.00     0.173 A 
ATOM    125  F   UNL A   1      45.400  30.083  34.224  1.00  0.00    -0.203 F 
ATOM    126  C   UNL A   1      46.123  28.510  35.818  1.00  0.00     0.198 A 
ATOM    127  C   UNL A   1      44.524  27.112  36.939  1.00  0.00     0.198 A 
ATOM    128  F   UNL A   1      42.237  27.288  36.418  1.00  0.00    -0.203 F 
ATOM    129  F   UNL A   1      47.394  28.876  35.603  1.00  0.00    -0.200 F 
ATOM    130  C   UNL A   1      45.837  27.511  36.738  1.00  0.00     0.200 A 
ATOM    131  F   UNL A   1      44.245  26.156  37.836  1.00  0.00    -0.200 F 
ATOM    132  F   UNL A   1      46.828  26.927  37.425  1.00  0.00    -0.200 F 
ENDBRANCH  98 122
ENDBRANCH  63  66
ENDBRANCH  53  56
ENDBRANCH  49  52
ENDBRANCH  46  49
ENDBRANCH  43  46
ENDBRANCH  40  43
ENDBRANCH   1  40
TORSDOF 17
ENDMDL
MODEL 7
REMARK VINA RESULT:     -12.3      6.315     10.858
REMARK SMILES O=C(Cc1ccccc1Nc1c(F)cccc1C(F)(F)F)NCCCCCCNC(=O)c1ccc(-c2c3nc(c(-c4c(F)c(F)c(F)c(F)c4F)c4ccc([nH]4)c(-c4c(F)c(F)c(F)c(F)c4F)c4nc(c(-c5c(F)c(F)c(F)c(F)c5F)c5ccc2[nH]5)C=C4)C=C3)cc1
REMARK SMILES IDX 24 1 23 4 22 7 1 8 2 9 3 11 4 14 5 15 9 16 6 17 8 19 7 20
REMARK SMILES IDX 10 24 11 26 12 27 17 28 13 29 14 30 16 31 15 32 18 36 19 37
REMARK SMILES IDX 20 38 21 39 25 40 26 43 27 46 28 49 29 52 30 53 31 55 32 56
REMARK SMILES IDX 33 57 94 58 34 59 93 61 35 63 36 66 37 67 87 68 38 69 92 70
REMARK SMILES IDX 86 71 88 72 39 73 91 74 85 76 84 78 40 80 72 83 52 84 71 85
REMARK SMILES IDX 53 86 56 87 70 88 89 89 54 90 55 92 69 94 90 95 57 98 41 100
REMARK SMILES IDX 42 101 50 102 43 103 44 104 48 105 51 106 45 107 46 108
REMARK SMILES IDX 49 109 47 110 73 111 74 112 82 113 75 114 76 115 80 116
REMARK SMILES IDX 83 117 77 118 78 119 81 120 79 121 58 122 59 123 67 124
REMARK SMILES IDX 60 125 61 126 65 127 68 128 62 129 63 130 66 131 64 132
REMARK H PARENT 24 2 24 3 23 5 23 6 22 10 3 12 3 13 5 18 6 21 8 22 7 23 10 25
REMARK H PARENT 14 33 16 34 15 35 25 41 25 42 26 44 26 45 27 47 27 48 28 50
REMARK H PARENT 28 51 29 54 33 60 94 62 34 64 93 65 92 75 86 77 88 79 91 81
REMARK H PARENT 85 82 53 91 56 93 89 96 54 97 90 99
REMARK Flexibility Score: inf
ROOT
ATOM      1  C   UNL A   1      35.892  31.415  27.983  1.00  0.00    -0.036 C 
ATOM      2  H   UNL A   1      36.409  31.743  27.107  1.00  0.00     0.028 H 
ATOM      3  H   UNL A   1      36.405  31.649  28.892  1.00  0.00     0.028 H 
ENDROOT
BRANCH   1   4
ATOM      4  C   UNL A   1      35.788  29.888  27.929  1.00  0.00     0.017 C 
ATOM      5  H   UNL A   1      36.267  29.537  27.039  1.00  0.00     0.049 H 
ATOM      6  H   UNL A   1      36.266  29.485  28.798  1.00  0.00     0.049 H 
BRANCH   4   7
ATOM      7  N   UNL A   1      34.408  29.453  27.925  1.00  0.00    -0.356 N 
ATOM      8  O   UNL A   1      34.417  28.421  25.878  1.00  0.00    -0.275 OA
ATOM      9  C   UNL A   1      33.813  28.782  26.884  1.00  0.00     0.224 C 
ATOM     10  H   UNL A   1      33.861  29.652  28.718  1.00  0.00     0.163 HD
BRANCH   9  11
ATOM     11  C   UNL A   1      32.304  28.653  27.010  1.00  0.00     0.054 C 
ATOM     12  H   UNL A   1      31.929  29.583  27.378  1.00  0.00     0.042 H 
ATOM     13  H   UNL A   1      32.146  27.817  27.660  1.00  0.00     0.042 H 
BRANCH  11  14
ATOM     14  C   UNL A   1      31.543  28.319  25.741  1.00  0.00    -0.015 A 
ATOM     15  C   UNL A   1      31.167  29.384  24.899  1.00  0.00    -0.056 A 
ATOM     16  C   UNL A   1      31.169  27.004  25.387  1.00  0.00     0.042 A 
ATOM     17  C   UNL A   1      30.405  29.161  23.753  1.00  0.00    -0.062 A 
ATOM     18  H   UNL A   1      31.462  30.344  25.134  1.00  0.00     0.063 H 
ATOM     19  C   UNL A   1      30.384  26.806  24.239  1.00  0.00    -0.038 A 
ATOM     20  C   UNL A   1      30.004  27.873  23.428  1.00  0.00    -0.060 A 
ATOM     21  H   UNL A   1      30.139  29.953  23.147  1.00  0.00     0.062 H 
ATOM     22  H   UNL A   1      30.083  25.850  23.990  1.00  0.00     0.064 H 
ATOM     23  H   UNL A   1      29.426  27.706  22.589  1.00  0.00     0.062 H 
BRANCH  16  24
ATOM     24  N   UNL A   1      31.557  25.898  26.179  1.00  0.00    -0.352 N 
ATOM     25  H   UNL A   1      31.699  26.092  27.134  1.00  0.00     0.167 HD
BRANCH  24  26
ATOM     26  C   UNL A   1      31.770  24.551  25.795  1.00  0.00     0.087 A 
ATOM     27  C   UNL A   1      30.777  23.616  26.154  1.00  0.00     0.147 A 
ATOM     28  C   UNL A   1      32.894  24.084  25.085  1.00  0.00     0.082 A 
ATOM     29  F   UNL A   1      29.727  24.033  26.880  1.00  0.00    -0.205 F 
ATOM     30  C   UNL A   1      30.852  22.272  25.804  1.00  0.00    -0.024 A 
ATOM     31  C   UNL A   1      32.945  22.718  24.711  1.00  0.00    -0.048 A 
ATOM     32  C   UNL A   1      31.937  21.821  25.069  1.00  0.00    -0.059 A 
ATOM     33  H   UNL A   1      30.106  21.617  26.090  1.00  0.00     0.065 H 
ATOM     34  H   UNL A   1      33.749  22.377  24.161  1.00  0.00     0.063 H 
ATOM     35  H   UNL A   1      31.999  20.831  24.787  1.00  0.00     0.062 H 
BRANCH  28  36
ATOM     36  C   UNL A   1      34.108  24.923  24.753  1.00  0.00     0.418 C 
ATOM     37  F   UNL A   1      35.095  24.173  24.172  1.00  0.00    -0.166 F 
ATOM     38  F   UNL A   1      33.841  25.910  23.856  1.00  0.00    -0.166 F 
ATOM     39  F   UNL A   1      34.715  25.505  25.820  1.00  0.00    -0.166 F 
ENDBRANCH  28  36
ENDBRANCH  24  26
ENDBRANCH  16  24
ENDBRANCH  11  14
ENDBRANCH   9  11
ENDBRANCH   4   7
ENDBRANCH   1   4
BRANCH   1  40
ATOM     40  C   UNL A   1      34.548  32.152  28.047  1.00  0.00    -0.052 C 
ATOM     41  H   UNL A   1      33.786  31.434  28.265  1.00  0.00     0.027 H 
ATOM     42  H   UNL A   1      34.425  32.630  27.098  1.00  0.00     0.027 H 
BRANCH  40  43
ATOM     43  C   UNL A   1      34.465  33.263  29.095  1.00  0.00    -0.052 C 
ATOM     44  H   UNL A   1      35.428  33.725  29.158  1.00  0.00     0.027 H 
ATOM     45  H   UNL A   1      34.150  32.784  29.998  1.00  0.00     0.027 H 
BRANCH  43  46
ATOM     46  C   UNL A   1      33.439  34.358  28.831  1.00  0.00    -0.036 C 
ATOM     47  H   UNL A   1      32.479  33.995  29.135  1.00  0.00     0.028 H 
ATOM     48  H   UNL A   1      33.492  34.579  27.786  1.00  0.00     0.028 H 
BRANCH  46  49
ATOM     49  C   UNL A   1      33.706  35.665  29.565  1.00  0.00     0.018 C 
ATOM     50  H   UNL A   1      33.719  36.461  28.849  1.00  0.00     0.049 H 
ATOM     51  H   UNL A   1      34.646  35.565  30.066  1.00  0.00     0.049 H 
BRANCH  49  52
ATOM     52  N   UNL A   1      32.702  35.966  30.575  1.00  0.00    -0.352 N 
ATOM     53  C   UNL A   1      32.678  35.638  31.912  1.00  0.00     0.251 C 
ATOM     54  H   UNL A   1      31.926  36.480  30.256  1.00  0.00     0.163 HD
ATOM     55  O   UNL A   1      31.676  35.852  32.583  1.00  0.00    -0.269 OA
BRANCH  53  56
ATOM     56  C   UNL A   1      33.854  34.985  32.527  1.00  0.00     0.039 A 
ATOM     57  C   UNL A   1      33.722  33.688  33.029  1.00  0.00    -0.049 A 
ATOM     58  C   UNL A   1      35.091  35.632  32.574  1.00  0.00    -0.049 A 
ATOM     59  C   UNL A   1      34.851  33.006  33.487  1.00  0.00    -0.053 A 
ATOM     60  H   UNL A   1      32.795  33.237  33.060  1.00  0.00     0.063 H 
ATOM     61  C   UNL A   1      36.228  34.924  32.950  1.00  0.00    -0.053 A 
ATOM     62  H   UNL A   1      35.161  36.634  32.331  1.00  0.00     0.063 H 
ATOM     63  C   UNL A   1      36.121  33.600  33.399  1.00  0.00    -0.014 A 
ATOM     64  H   UNL A   1      34.753  32.061  33.891  1.00  0.00     0.063 H 
ATOM     65  H   UNL A   1      37.155  35.376  32.898  1.00  0.00     0.063 H 
BRANCH  63  66
ATOM     66  C   UNL A   1      37.354  32.841  33.733  1.00  0.00     0.031 A 
ATOM     67  C   UNL A   1      38.123  33.152  34.984  1.00  0.00     0.074 A 
ATOM     68  C   UNL A   1      37.828  31.933  32.858  1.00  0.00     0.049 A 
ATOM     69  N   UNL A   1      39.261  32.658  35.401  1.00  0.00    -0.248 NA
ATOM     70  C   UNL A   1      37.552  34.176  35.871  1.00  0.00    -0.034 C 
ATOM     71  C   UNL A   1      37.209  31.590  31.577  1.00  0.00    -0.036 A 
ATOM     72  N   UNL A   1      38.954  31.149  32.904  1.00  0.00    -0.354 N 
ATOM     73  C   UNL A   1      39.547  33.316  36.589  1.00  0.00     0.074 A 
ATOM     74  C   UNL A   1      38.495  34.289  36.795  1.00  0.00    -0.034 C 
ATOM     75  H   UNL A   1      36.653  34.678  35.793  1.00  0.00     0.065 H 
ATOM     76  C   UNL A   1      37.953  30.657  30.965  1.00  0.00    -0.036 A 
ATOM     77  H   UNL A   1      36.339  32.002  31.204  1.00  0.00     0.065 H 
ATOM     78  C   UNL A   1      39.121  30.363  31.789  1.00  0.00     0.049 A 
ATOM     79  H   UNL A   1      39.581  31.148  33.662  1.00  0.00     0.167 HD
ATOM     80  C   UNL A   1      40.577  33.111  37.444  1.00  0.00     0.037 A 
ATOM     81  H   UNL A   1      38.480  34.979  37.562  1.00  0.00     0.065 H 
ATOM     82  H   UNL A   1      37.735  30.217  30.057  1.00  0.00     0.065 H 
ATOM     83  C   UNL A   1      40.112  29.512  31.461  1.00  0.00     0.037 A 
ATOM     84  C   UNL A   1      41.617  32.136  37.239  1.00  0.00     0.049 A 
ATOM     85  C   UNL A   1      41.253  29.306  32.418  1.00  0.00     0.074 A 
ATOM     86  C   UNL A   1      42.667  31.804  38.076  1.00  0.00    -0.036 A 
ATOM     87  N   UNL A   1      41.743  31.343  36.107  1.00  0.00    -0.354 N 
ATOM     88  N   UNL A   1      41.468  29.874  33.580  1.00  0.00    -0.248 NA
ATOM     89  C   UNL A   1      42.284  28.337  32.023  1.00  0.00    -0.034 C 
ATOM     90  C   UNL A   1      43.457  30.847  37.429  1.00  0.00    -0.036 A 
ATOM     91  H   UNL A   1      42.838  32.195  39.016  1.00  0.00     0.065 H 
ATOM     92  C   UNL A   1      42.871  30.544  36.210  1.00  0.00     0.049 A 
ATOM     93  H   UNL A   1      41.123  31.346  35.343  1.00  0.00     0.167 HD
ATOM     94  C   UNL A   1      42.649  29.325  34.060  1.00  0.00     0.074 A 
ATOM     95  C   UNL A   1      43.092  28.362  33.074  1.00  0.00    -0.034 C 
ATOM     96  H   UNL A   1      42.358  27.783  31.156  1.00  0.00     0.065 H 
ATOM     97  H   UNL A   1      44.329  30.436  37.798  1.00  0.00     0.065 H 
ATOM     98  C   UNL A   1      43.308  29.599  35.214  1.00  0.00     0.037 A 
ATOM     99  H   UNL A   1      43.930  27.769  33.175  1.00  0.00     0.065 H 
BRANCH  80 100
ATOM    100  C   UNL A   1      40.624  33.962  38.680  1.00  0.00     0.064 A 
ATOM    101  C   UNL A   1      39.964  33.583  39.860  1.00  0.00     0.173 A 
ATOM    102  C   UNL A   1      41.345  35.166  38.693  1.00  0.00     0.173 A 
ATOM    103  F   UNL A   1      39.251  32.447  39.899  1.00  0.00    -0.203 F 
ATOM    104  C   UNL A   1      39.987  34.396  40.989  1.00  0.00     0.198 A 
ATOM    105  C   UNL A   1      41.395  35.961  39.836  1.00  0.00     0.198 A 
ATOM    106  F   UNL A   1      42.001  35.573  37.596  1.00  0.00    -0.203 F 
ATOM    107  F   UNL A   1      39.296  34.043  42.081  1.00  0.00    -0.200 F 
ATOM    108  C   UNL A   1      40.706  35.581  40.979  1.00  0.00     0.200 A 
ATOM    109  F   UNL A   1      42.101  37.100  39.828  1.00  0.00    -0.200 F 
ATOM    110  F   UNL A   1      40.728  36.365  42.066  1.00  0.00    -0.200 F 
ENDBRANCH  80 100
BRANCH  83 111
ATOM    111  C   UNL A   1      40.054  28.786  30.166  1.00  0.00     0.064 A 
ATOM    112  C   UNL A   1      40.632  29.326  29.009  1.00  0.00     0.173 A 
ATOM    113  C   UNL A   1      39.447  27.525  30.066  1.00  0.00     0.173 A 
ATOM    114  F   UNL A   1      41.206  30.538  29.052  1.00  0.00    -0.203 F 
ATOM    115  C   UNL A   1      40.597  28.637  27.799  1.00  0.00     0.198 A 
ATOM    116  C   UNL A   1      39.438  26.824  28.862  1.00  0.00     0.198 A 
ATOM    117  F   UNL A   1      38.885  26.962  31.146  1.00  0.00    -0.203 F 
ATOM    118  F   UNL A   1      41.129  29.190  26.701  1.00  0.00    -0.200 F 
ATOM    119  C   UNL A   1      40.008  27.384  27.728  1.00  0.00     0.200 A 
ATOM    120  F   UNL A   1      38.881  25.607  28.801  1.00  0.00    -0.200 F 
ATOM    121  F   UNL A   1      39.988  26.715  26.567  1.00  0.00    -0.200 F 
ENDBRANCH  83 111
BRANCH  98 122
ATOM    122  C   UNL A   1      44.578  28.842  35.474  1.00  0.00     0.064 A 
ATOM    123  C   UNL A   1      45.826  29.346  35.079  1.00  0.00     0.173 A 
ATOM    124  C   UNL A   1      44.550  27.618  36.160  1.00  0.00     0.173 A 
ATOM    125  F   UNL A   1      45.904  30.504  34.405  1.00  0.00    -0.203 F 
ATOM    126  C   UNL A   1      46.998  28.642  35.343  1.00  0.00     0.198 A 
ATOM    127  C   UNL A   1      45.727  26.932  36.448  1.00  0.00     0.198 A 
ATOM    128  F   UNL A   1      43.383  27.095  36.563  1.00  0.00    -0.203 F 
ATOM    129  F   UNL A   1      48.175  29.121  34.917  1.00  0.00    -0.200 F 
ATOM    130  C   UNL A   1      46.949  27.441  36.034  1.00  0.00     0.200 A 
ATOM    131  F   UNL A   1      45.678  25.777  37.127  1.00  0.00    -0.200 F 
ATOM    132  F   UNL A   1      48.078  26.769  36.295  1.00  0.00    -0.200 F 
ENDBRANCH  98 122
ENDBRANCH  63  66
ENDBRANCH  53  56
ENDBRANCH  49  52
ENDBRANCH  46  49
ENDBRANCH  43  46
ENDBRANCH  40  43
ENDBRANCH   1  40
TORSDOF 17
ENDMDL
MODEL 8
REMARK VINA RESULT:     -12.3      1.627      3.242
REMARK SMILES O=C(Cc1ccccc1Nc1c(F)cccc1C(F)(F)F)NCCCCCCNC(=O)c1ccc(-c2c3nc(c(-c4c(F)c(F)c(F)c(F)c4F)c4ccc([nH]4)c(-c4c(F)c(F)c(F)c(F)c4F)c4nc(c(-c5c(F)c(F)c(F)c(F)c5F)c5ccc2[nH]5)C=C4)C=C3)cc1
REMARK SMILES IDX 24 1 23 4 22 7 1 8 2 9 3 11 4 14 5 15 9 16 6 17 8 19 7 20
REMARK SMILES IDX 10 24 11 26 12 27 17 28 13 29 14 30 16 31 15 32 18 36 19 37
REMARK SMILES IDX 20 38 21 39 25 40 26 43 27 46 28 49 29 52 30 53 31 55 32 56
REMARK SMILES IDX 33 57 94 58 34 59 93 61 35 63 36 66 37 67 87 68 38 69 92 70
REMARK SMILES IDX 86 71 88 72 39 73 91 74 85 76 84 78 40 80 72 83 52 84 71 85
REMARK SMILES IDX 53 86 56 87 70 88 89 89 54 90 55 92 69 94 90 95 57 98 41 100
REMARK SMILES IDX 42 101 50 102 43 103 44 104 48 105 51 106 45 107 46 108
REMARK SMILES IDX 49 109 47 110 73 111 74 112 82 113 75 114 76 115 80 116
REMARK SMILES IDX 83 117 77 118 78 119 81 120 79 121 58 122 59 123 67 124
REMARK SMILES IDX 60 125 61 126 65 127 68 128 62 129 63 130 66 131 64 132
REMARK H PARENT 24 2 24 3 23 5 23 6 22 10 3 12 3 13 5 18 6 21 8 22 7 23 10 25
REMARK H PARENT 14 33 16 34 15 35 25 41 25 42 26 44 26 45 27 47 27 48 28 50
REMARK H PARENT 28 51 29 54 33 60 94 62 34 64 93 65 92 75 86 77 88 79 91 81
REMARK H PARENT 85 82 53 91 56 93 89 96 54 97 90 99
REMARK Flexibility Score: inf
ROOT
ATOM      1  C   UNL A   1      36.924  23.615  25.002  1.00  0.00    -0.036 C 
ATOM      2  H   UNL A   1      37.480  23.442  25.899  1.00  0.00     0.028 H 
ATOM      3  H   UNL A   1      37.430  24.251  24.305  1.00  0.00     0.028 H 
ENDROOT
BRANCH   1   4
ATOM      4  C   UNL A   1      35.627  24.337  25.378  1.00  0.00     0.017 C 
ATOM      5  H   UNL A   1      35.093  23.745  26.092  1.00  0.00     0.049 H 
ATOM      6  H   UNL A   1      35.878  25.291  25.792  1.00  0.00     0.049 H 
BRANCH   4   7
ATOM      7  N   UNL A   1      34.787  24.549  24.220  1.00  0.00    -0.356 N 
ATOM      8  O   UNL A   1      33.878  26.553  24.861  1.00  0.00    -0.275 OA
ATOM      9  C   UNL A   1      33.946  25.624  24.061  1.00  0.00     0.224 C 
ATOM     10  H   UNL A   1      34.819  23.879  23.500  1.00  0.00     0.163 HD
BRANCH   9  11
ATOM     11  C   UNL A   1      32.992  25.500  22.885  1.00  0.00     0.054 C 
ATOM     12  H   UNL A   1      32.862  24.458  22.682  1.00  0.00     0.042 H 
ATOM     13  H   UNL A   1      33.447  26.057  22.093  1.00  0.00     0.042 H 
BRANCH  11  14
ATOM     14  C   UNL A   1      31.615  26.109  23.061  1.00  0.00    -0.015 A 
ATOM     15  C   UNL A   1      31.448  27.468  22.731  1.00  0.00    -0.056 A 
ATOM     16  C   UNL A   1      30.510  25.390  23.569  1.00  0.00     0.042 A 
ATOM     17  C   UNL A   1      30.230  28.115  22.933  1.00  0.00    -0.062 A 
ATOM     18  H   UNL A   1      32.242  27.993  22.331  1.00  0.00     0.063 H 
ATOM     19  C   UNL A   1      29.298  26.068  23.784  1.00  0.00    -0.038 A 
ATOM     20  C   UNL A   1      29.157  27.418  23.470  1.00  0.00    -0.060 A 
ATOM     21  H   UNL A   1      30.127  29.111  22.684  1.00  0.00     0.062 H 
ATOM     22  H   UNL A   1      28.495  25.555  24.182  1.00  0.00     0.064 H 
ATOM     23  H   UNL A   1      28.258  27.897  23.636  1.00  0.00     0.062 H 
BRANCH  16  24
ATOM     24  N   UNL A   1      30.616  24.014  23.878  1.00  0.00    -0.352 N 
ATOM     25  H   UNL A   1      30.040  23.417  23.348  1.00  0.00     0.167 HD
BRANCH  24  26
ATOM     26  C   UNL A   1      31.435  23.373  24.840  1.00  0.00     0.087 A 
ATOM     27  C   UNL A   1      31.457  23.926  26.137  1.00  0.00     0.147 A 
ATOM     28  C   UNL A   1      32.222  22.229  24.595  1.00  0.00     0.082 A 
ATOM     29  F   UNL A   1      30.757  25.047  26.375  1.00  0.00    -0.205 F 
ATOM     30  C   UNL A   1      32.191  23.368  27.178  1.00  0.00    -0.024 A 
ATOM     31  C   UNL A   1      32.944  21.655  25.670  1.00  0.00    -0.048 A 
ATOM     32  C   UNL A   1      32.932  22.219  26.946  1.00  0.00    -0.059 A 
ATOM     33  H   UNL A   1      32.185  23.805  28.114  1.00  0.00     0.065 H 
ATOM     34  H   UNL A   1      33.495  20.798  25.504  1.00  0.00     0.063 H 
ATOM     35  H   UNL A   1      33.468  21.783  27.712  1.00  0.00     0.062 H 
BRANCH  28  36
ATOM     36  C   UNL A   1      32.423  21.603  23.232  1.00  0.00     0.418 C 
ATOM     37  F   UNL A   1      33.387  22.258  22.514  1.00  0.00    -0.166 F 
ATOM     38  F   UNL A   1      32.848  20.313  23.300  1.00  0.00    -0.166 F 
ATOM     39  F   UNL A   1      31.332  21.623  22.423  1.00  0.00    -0.166 F 
ENDBRANCH  28  36
ENDBRANCH  24  26
ENDBRANCH  16  24
ENDBRANCH  11  14
ENDBRANCH   9  11
ENDBRANCH   4   7
ENDBRANCH   1   4
BRANCH   1  40
ATOM     40  C   UNL A   1      36.733  22.269  24.292  1.00  0.00    -0.052 C 
ATOM     41  H   UNL A   1      37.496  22.175  23.548  1.00  0.00     0.027 H 
ATOM     42  H   UNL A   1      35.742  22.283  23.888  1.00  0.00     0.027 H 
BRANCH  40  43
ATOM     43  C   UNL A   1      36.803  21.040  25.200  1.00  0.00    -0.052 C 
ATOM     44  H   UNL A   1      35.893  20.490  25.077  1.00  0.00     0.027 H 
ATOM     45  H   UNL A   1      36.954  21.421  26.188  1.00  0.00     0.027 H 
BRANCH  43  46
ATOM     46  C   UNL A   1      37.963  20.085  24.946  1.00  0.00    -0.036 C 
ATOM     47  H   UNL A   1      38.194  20.111  23.902  1.00  0.00     0.028 H 
ATOM     48  H   UNL A   1      37.642  19.121  25.281  1.00  0.00     0.028 H 
BRANCH  46  49
ATOM     49  C   UNL A   1      39.233  20.412  25.721  1.00  0.00     0.018 C 
ATOM     50  H   UNL A   1      38.959  20.741  26.702  1.00  0.00     0.049 H 
ATOM     51  H   UNL A   1      39.753  21.173  25.176  1.00  0.00     0.049 H 
BRANCH  49  52
ATOM     52  N   UNL A   1      40.132  19.274  25.846  1.00  0.00    -0.352 N 
ATOM     53  C   UNL A   1      41.484  19.248  26.102  1.00  0.00     0.251 C 
ATOM     54  H   UNL A   1      39.710  18.393  25.729  1.00  0.00     0.163 HD
ATOM     55  O   UNL A   1      42.107  18.197  26.028  1.00  0.00    -0.269 OA
BRANCH  53  56
ATOM     56  C   UNL A   1      42.191  20.506  26.426  1.00  0.00     0.039 A 
ATOM     57  C   UNL A   1      42.733  21.264  25.385  1.00  0.00    -0.049 A 
ATOM     58  C   UNL A   1      42.288  20.956  27.745  1.00  0.00    -0.049 A 
ATOM     59  C   UNL A   1      43.283  22.519  25.657  1.00  0.00    -0.053 A 
ATOM     60  H   UNL A   1      42.726  20.899  24.420  1.00  0.00     0.063 H 
ATOM     61  C   UNL A   1      42.756  22.240  28.004  1.00  0.00    -0.053 A 
ATOM     62  H   UNL A   1      42.011  20.338  28.525  1.00  0.00     0.063 H 
ATOM     63  C   UNL A   1      43.248  23.039  26.961  1.00  0.00    -0.014 A 
ATOM     64  H   UNL A   1      43.716  23.067  24.897  1.00  0.00     0.063 H 
ATOM     65  H   UNL A   1      42.743  22.606  28.969  1.00  0.00     0.063 H 
BRANCH  63  66
ATOM     66  C   UNL A   1      43.683  24.429  27.251  1.00  0.00     0.031 A 
ATOM     67  C   UNL A   1      42.698  25.447  27.747  1.00  0.00     0.074 A 
ATOM     68  C   UNL A   1      44.951  24.795  26.978  1.00  0.00     0.049 A 
ATOM     69  N   UNL A   1      42.870  26.725  27.974  1.00  0.00    -0.248 NA
ATOM     70  C   UNL A   1      41.328  24.972  27.991  1.00  0.00    -0.034 C 
ATOM     71  C   UNL A   1      45.985  23.917  26.430  1.00  0.00    -0.036 A 
ATOM     72  N   UNL A   1      45.579  26.010  27.104  1.00  0.00    -0.354 N 
ATOM     73  C   UNL A   1      41.632  27.207  28.377  1.00  0.00     0.074 A 
ATOM     74  C   UNL A   1      40.704  26.098  28.304  1.00  0.00    -0.034 C 
ATOM     75  H   UNL A   1      40.950  24.013  27.933  1.00  0.00     0.065 H 
ATOM     76  C   UNL A   1      47.120  24.616  26.280  1.00  0.00    -0.036 A 
ATOM     77  H   UNL A   1      45.860  22.920  26.196  1.00  0.00     0.065 H 
ATOM     78  C   UNL A   1      46.886  25.998  26.682  1.00  0.00     0.049 A 
ATOM     79  H   UNL A   1      45.135  26.812  27.463  1.00  0.00     0.167 HD
ATOM     80  C   UNL A   1      41.304  28.453  28.796  1.00  0.00     0.037 A 
ATOM     81  H   UNL A   1      39.689  26.175  28.474  1.00  0.00     0.065 H 
ATOM     82  H   UNL A   1      48.016  24.236  25.934  1.00  0.00     0.065 H 
ATOM     83  C   UNL A   1      47.791  26.993  26.614  1.00  0.00     0.037 A 
ATOM     84  C   UNL A   1      42.233  29.550  28.875  1.00  0.00     0.049 A 
ATOM     85  C   UNL A   1      47.405  28.372  27.073  1.00  0.00     0.074 A 
ATOM     86  C   UNL A   1      42.018  30.832  29.349  1.00  0.00    -0.036 A 
ATOM     87  N   UNL A   1      43.556  29.496  28.458  1.00  0.00    -0.354 N 
ATOM     88  N   UNL A   1      46.253  28.796  27.532  1.00  0.00    -0.248 NA
ATOM     89  C   UNL A   1      48.445  29.407  27.011  1.00  0.00    -0.034 C 
ATOM     90  C   UNL A   1      43.195  31.568  29.171  1.00  0.00    -0.036 A 
ATOM     91  H   UNL A   1      41.140  31.185  29.762  1.00  0.00     0.065 H 
ATOM     92  C   UNL A   1      44.160  30.731  28.635  1.00  0.00     0.049 A 
ATOM     93  H   UNL A   1      44.001  28.698  28.091  1.00  0.00     0.167 HD
ATOM     94  C   UNL A   1      46.430  30.142  27.825  1.00  0.00     0.074 A 
ATOM     95  C   UNL A   1      47.809  30.457  27.512  1.00  0.00    -0.034 C 
ATOM     96  H   UNL A   1      49.415  29.336  26.667  1.00  0.00     0.065 H 
ATOM     97  H   UNL A   1      43.321  32.566  29.401  1.00  0.00     0.065 H 
ATOM     98  C   UNL A   1      45.530  31.034  28.306  1.00  0.00     0.037 A 
ATOM     99  H   UNL A   1      48.243  31.381  27.661  1.00  0.00     0.065 H 
BRANCH  80 100
ATOM    100  C   UNL A   1      39.878  28.689  29.200  1.00  0.00     0.064 A 
ATOM    101  C   UNL A   1      39.437  28.457  30.513  1.00  0.00     0.173 A 
ATOM    102  C   UNL A   1      38.939  29.162  28.270  1.00  0.00     0.173 A 
ATOM    103  F   UNL A   1      40.290  27.994  31.439  1.00  0.00    -0.203 F 
ATOM    104  C   UNL A   1      38.104  28.648  30.867  1.00  0.00     0.198 A 
ATOM    105  C   UNL A   1      37.615  29.385  28.637  1.00  0.00     0.198 A 
ATOM    106  F   UNL A   1      39.307  29.408  27.004  1.00  0.00    -0.203 F 
ATOM    107  F   UNL A   1      37.696  28.358  32.111  1.00  0.00    -0.200 F 
ATOM    108  C   UNL A   1      37.195  29.116  29.932  1.00  0.00     0.200 A 
ATOM    109  F   UNL A   1      36.740  29.850  27.735  1.00  0.00    -0.200 F 
ATOM    110  F   UNL A   1      35.913  29.299  30.273  1.00  0.00    -0.200 F 
ENDBRANCH  80 100
BRANCH  83 111
ATOM    111  C   UNL A   1      49.153  26.708  26.097  1.00  0.00     0.064 A 
ATOM    112  C   UNL A   1      50.129  26.124  26.916  1.00  0.00     0.173 A 
ATOM    113  C   UNL A   1      49.499  26.985  24.765  1.00  0.00     0.173 A 
ATOM    114  F   UNL A   1      49.851  25.859  28.201  1.00  0.00    -0.203 F 
ATOM    115  C   UNL A   1      51.401  25.836  26.427  1.00  0.00     0.198 A 
ATOM    116  C   UNL A   1      50.763  26.671  24.269  1.00  0.00     0.198 A 
ATOM    117  F   UNL A   1      48.599  27.538  23.938  1.00  0.00    -0.203 F 
ATOM    118  F   UNL A   1      52.325  25.308  27.241  1.00  0.00    -0.200 F 
ATOM    119  C   UNL A   1      51.715  26.102  25.103  1.00  0.00     0.200 A 
ATOM    120  F   UNL A   1      51.057  26.915  22.985  1.00  0.00    -0.200 F 
ATOM    121  F   UNL A   1      52.934  25.812  24.629  1.00  0.00    -0.200 F 
ENDBRANCH  83 111
BRANCH  98 122
ATOM    122  C   UNL A   1      46.010  32.439  28.528  1.00  0.00     0.064 A 
ATOM    123  C   UNL A   1      45.891  33.421  27.533  1.00  0.00     0.173 A 
ATOM    124  C   UNL A   1      46.559  32.819  29.763  1.00  0.00     0.173 A 
ATOM    125  F   UNL A   1      45.389  33.105  26.329  1.00  0.00    -0.203 F 
ATOM    126  C   UNL A   1      46.324  34.726  27.758  1.00  0.00     0.198 A 
ATOM    127  C   UNL A   1      46.963  34.131  29.995  1.00  0.00     0.198 A 
ATOM    128  F   UNL A   1      46.690  31.920  30.749  1.00  0.00    -0.203 F 
ATOM    129  F   UNL A   1      46.241  35.635  26.778  1.00  0.00    -0.200 F 
ATOM    130  C   UNL A   1      46.851  35.081  28.991  1.00  0.00     0.200 A 
ATOM    131  F   UNL A   1      47.460  34.476  31.191  1.00  0.00    -0.200 F 
ATOM    132  F   UNL A   1      47.259  36.339  29.209  1.00  0.00    -0.200 F 
ENDBRANCH  98 122
ENDBRANCH  63  66
ENDBRANCH  53  56
ENDBRANCH  49  52
ENDBRANCH  46  49
ENDBRANCH  43  46
ENDBRANCH  40  43
ENDBRANCH   1  40
TORSDOF 17
ENDMDL
MODEL 9
REMARK VINA RESULT:     -12.3      5.571      9.726
REMARK SMILES O=C(Cc1ccccc1Nc1c(F)cccc1C(F)(F)F)NCCCCCCNC(=O)c1ccc(-c2c3nc(c(-c4c(F)c(F)c(F)c(F)c4F)c4ccc([nH]4)c(-c4c(F)c(F)c(F)c(F)c4F)c4nc(c(-c5c(F)c(F)c(F)c(F)c5F)c5ccc2[nH]5)C=C4)C=C3)cc1
REMARK SMILES IDX 24 1 23 4 22 7 1 8 2 9 3 11 4 14 5 15 9 16 6 17 8 19 7 20
REMARK SMILES IDX 10 24 11 26 12 27 17 28 13 29 14 30 16 31 15 32 18 36 19 37
REMARK SMILES IDX 20 38 21 39 25 40 26 43 27 46 28 49 29 52 30 53 31 55 32 56
REMARK SMILES IDX 33 57 94 58 34 59 93 61 35 63 36 66 37 67 87 68 38 69 92 70
REMARK SMILES IDX 86 71 88 72 39 73 91 74 85 76 84 78 40 80 72 83 52 84 71 85
REMARK SMILES IDX 53 86 56 87 70 88 89 89 54 90 55 92 69 94 90 95 57 98 41 100
REMARK SMILES IDX 42 101 50 102 43 103 44 104 48 105 51 106 45 107 46 108
REMARK SMILES IDX 49 109 47 110 73 111 74 112 82 113 75 114 76 115 80 116
REMARK SMILES IDX 83 117 77 118 78 119 81 120 79 121 58 122 59 123 67 124
REMARK SMILES IDX 60 125 61 126 65 127 68 128 62 129 63 130 66 131 64 132
REMARK H PARENT 24 2 24 3 23 5 23 6 22 10 3 12 3 13 5 18 6 21 8 22 7 23 10 25
REMARK H PARENT 14 33 16 34 15 35 25 41 25 42 26 44 26 45 27 47 27 48 28 50
REMARK H PARENT 28 51 29 54 33 60 94 62 34 64 93 65 92 75 86 77 88 79 91 81
REMARK H PARENT 85 82 53 91 56 93 89 96 54 97 90 99
REMARK Flexibility Score: inf
ROOT
ATOM      1  C   UNL A   1      33.795  29.478  26.640  1.00  0.00    -0.036 C 
ATOM      2  H   UNL A   1      34.739  29.923  26.404  1.00  0.00     0.028 H 
ATOM      3  H   UNL A   1      33.480  29.658  27.647  1.00  0.00     0.028 H 
ENDROOT
BRANCH   1   4
ATOM      4  C   UNL A   1      33.939  27.959  26.500  1.00  0.00     0.017 C 
ATOM      5  H   UNL A   1      34.697  27.746  25.777  1.00  0.00     0.049 H 
ATOM      6  H   UNL A   1      34.204  27.555  27.455  1.00  0.00     0.049 H 
BRANCH   4   7
ATOM      7  N   UNL A   1      32.697  27.349  26.076  1.00  0.00    -0.356 N 
ATOM      8  O   UNL A   1      31.561  27.552  28.056  1.00  0.00    -0.275 OA
ATOM      9  C   UNL A   1      31.610  27.158  26.894  1.00  0.00     0.224 C 
ATOM     10  H   UNL A   1      32.628  27.051  25.140  1.00  0.00     0.163 HD
BRANCH   9  11
ATOM     11  C   UNL A   1      30.525  26.281  26.292  1.00  0.00     0.054 C 
ATOM     12  H   UNL A   1      30.146  26.783  25.427  1.00  0.00     0.042 H 
ATOM     13  H   UNL A   1      29.810  26.139  27.076  1.00  0.00     0.042 H 
BRANCH  11  14
ATOM     14  C   UNL A   1      30.936  24.884  25.871  1.00  0.00    -0.015 A 
ATOM     15  C   UNL A   1      31.556  24.061  26.832  1.00  0.00    -0.056 A 
ATOM     16  C   UNL A   1      30.757  24.387  24.560  1.00  0.00     0.042 A 
ATOM     17  C   UNL A   1      32.025  22.792  26.498  1.00  0.00    -0.062 A 
ATOM     18  H   UNL A   1      31.663  24.405  27.799  1.00  0.00     0.063 H 
ATOM     19  C   UNL A   1      31.256  23.113  24.242  1.00  0.00    -0.038 A 
ATOM     20  C   UNL A   1      31.886  22.321  25.201  1.00  0.00    -0.060 A 
ATOM     21  H   UNL A   1      32.476  22.203  27.216  1.00  0.00     0.062 H 
ATOM     22  H   UNL A   1      31.155  22.756  23.279  1.00  0.00     0.064 H 
ATOM     23  H   UNL A   1      32.245  21.387  24.946  1.00  0.00     0.062 H 
BRANCH  16  24
ATOM     24  N   UNL A   1      30.105  25.160  23.571  1.00  0.00    -0.352 N 
ATOM     25  H   UNL A   1      29.427  24.681  23.041  1.00  0.00     0.167 HD
BRANCH  24  26
ATOM     26  C   UNL A   1      30.286  26.524  23.237  1.00  0.00     0.087 A 
ATOM     27  C   UNL A   1      29.185  27.385  23.428  1.00  0.00     0.147 A 
ATOM     28  C   UNL A   1      31.479  27.078  22.731  1.00  0.00     0.082 A 
ATOM     29  F   UNL A   1      28.023  26.864  23.856  1.00  0.00    -0.205 F 
ATOM     30  C   UNL A   1      29.247  28.750  23.172  1.00  0.00    -0.024 A 
ATOM     31  C   UNL A   1      31.538  28.475  22.499  1.00  0.00    -0.048 A 
ATOM     32  C   UNL A   1      30.435  29.301  22.714  1.00  0.00    -0.059 A 
ATOM     33  H   UNL A   1      28.417  29.347  23.320  1.00  0.00     0.065 H 
ATOM     34  H   UNL A   1      32.420  28.892  22.161  1.00  0.00     0.063 H 
ATOM     35  H   UNL A   1      30.502  30.315  22.535  1.00  0.00     0.062 H 
BRANCH  28  36
ATOM     36  C   UNL A   1      32.697  26.274  22.334  1.00  0.00     0.418 C 
ATOM     37  F   UNL A   1      33.360  25.789  23.430  1.00  0.00    -0.166 F 
ATOM     38  F   UNL A   1      32.389  25.175  21.593  1.00  0.00    -0.166 F 
ATOM     39  F   UNL A   1      33.646  26.965  21.649  1.00  0.00    -0.166 F 
ENDBRANCH  28  36
ENDBRANCH  24  26
ENDBRANCH  16  24
ENDBRANCH  11  14
ENDBRANCH   9  11
ENDBRANCH   4   7
ENDBRANCH   1   4
BRANCH   1  40
ATOM     40  C   UNL A   1      32.729  30.112  25.737  1.00  0.00    -0.052 C 
ATOM     41  H   UNL A   1      32.380  29.362  25.059  1.00  0.00     0.027 H 
ATOM     42  H   UNL A   1      33.205  30.939  25.251  1.00  0.00     0.027 H 
BRANCH  40  43
ATOM     43  C   UNL A   1      31.518  30.690  26.469  1.00  0.00    -0.052 C 
ATOM     44  H   UNL A   1      31.519  30.298  27.465  1.00  0.00     0.027 H 
ATOM     45  H   UNL A   1      30.667  30.404  25.888  1.00  0.00     0.027 H 
BRANCH  43  46
ATOM     46  C   UNL A   1      31.456  32.210  26.566  1.00  0.00    -0.036 C 
ATOM     47  H   UNL A   1      30.537  32.476  27.045  1.00  0.00     0.028 H 
ATOM     48  H   UNL A   1      31.531  32.582  25.566  1.00  0.00     0.028 H 
BRANCH  46  49
ATOM     49  C   UNL A   1      32.600  32.840  27.349  1.00  0.00     0.018 C 
ATOM     50  H   UNL A   1      33.493  32.771  26.764  1.00  0.00     0.049 H 
ATOM     51  H   UNL A   1      32.687  32.308  28.274  1.00  0.00     0.049 H 
BRANCH  49  52
ATOM     52  N   UNL A   1      32.364  34.240  27.673  1.00  0.00    -0.352 N 
ATOM     53  C   UNL A   1      32.980  35.041  28.608  1.00  0.00     0.251 C 
ATOM     54  H   UNL A   1      31.658  34.679  27.145  1.00  0.00     0.163 HD
ATOM     55  O   UNL A   1      32.549  36.162  28.842  1.00  0.00    -0.269 OA
BRANCH  53  56
ATOM     56  C   UNL A   1      34.143  34.523  29.361  1.00  0.00     0.039 A 
ATOM     57  C   UNL A   1      33.932  33.936  30.611  1.00  0.00    -0.049 A 
ATOM     58  C   UNL A   1      35.431  34.581  28.823  1.00  0.00    -0.049 A 
ATOM     59  C   UNL A   1      34.995  33.320  31.274  1.00  0.00    -0.053 A 
ATOM     60  H   UNL A   1      32.995  33.956  31.041  1.00  0.00     0.063 H 
ATOM     61  C   UNL A   1      36.470  33.895  29.442  1.00  0.00    -0.053 A 
ATOM     62  H   UNL A   1      35.610  35.132  27.968  1.00  0.00     0.063 H 
ATOM     63  C   UNL A   1      36.260  33.248  30.668  1.00  0.00    -0.014 A 
ATOM     64  H   UNL A   1      34.852  32.916  32.214  1.00  0.00     0.063 H 
ATOM     65  H   UNL A   1      37.401  33.862  28.996  1.00  0.00     0.063 H 
BRANCH  63  66
ATOM     66  C   UNL A   1      37.367  32.466  31.279  1.00  0.00     0.031 A 
ATOM     67  C   UNL A   1      37.901  32.834  32.632  1.00  0.00     0.074 A 
ATOM     68  C   UNL A   1      37.949  31.480  30.569  1.00  0.00     0.049 A 
ATOM     69  N   UNL A   1      38.914  32.326  33.289  1.00  0.00    -0.248 NA
ATOM     70  C   UNL A   1      37.229  33.942  33.327  1.00  0.00    -0.034 C 
ATOM     71  C   UNL A   1      37.565  31.071  29.217  1.00  0.00    -0.036 A 
ATOM     72  N   UNL A   1      39.003  30.656  30.879  1.00  0.00    -0.354 N 
ATOM     73  C   UNL A   1      39.004  33.056  34.466  1.00  0.00     0.074 A 
ATOM     74  C   UNL A   1      37.985  34.082  34.405  1.00  0.00    -0.034 C 
ATOM     75  H   UNL A   1      36.388  34.472  33.047  1.00  0.00     0.065 H 
ATOM     76  C   UNL A   1      38.361  30.067  28.819  1.00  0.00    -0.036 A 
ATOM     77  H   UNL A   1      36.804  31.489  28.660  1.00  0.00     0.065 H 
ATOM     78  C   UNL A   1      39.335  29.786  29.868  1.00  0.00     0.049 A 
ATOM     79  H   UNL A   1      39.474  30.685  31.742  1.00  0.00     0.167 HD
ATOM     80  C   UNL A   1      39.843  32.871  35.514  1.00  0.00     0.037 A 
ATOM     81  H   UNL A   1      37.863  34.825  35.111  1.00  0.00     0.065 H 
ATOM     82  H   UNL A   1      38.294  29.573  27.915  1.00  0.00     0.065 H 
ATOM     83  C   UNL A   1      40.323  28.876  29.790  1.00  0.00     0.037 A 
ATOM     84  C   UNL A   1      40.850  31.844  35.573  1.00  0.00     0.049 A 
ATOM     85  C   UNL A   1      41.251  28.693  30.959  1.00  0.00     0.074 A 
ATOM     86  C   UNL A   1      41.704  31.530  36.615  1.00  0.00    -0.036 A 
ATOM     87  N   UNL A   1      41.145  30.967  34.538  1.00  0.00    -0.354 N 
ATOM     88  N   UNL A   1      41.273  29.333  32.102  1.00  0.00    -0.248 NA
ATOM     89  C   UNL A   1      42.285  27.658  30.830  1.00  0.00    -0.034 C 
ATOM     90  C   UNL A   1      42.550  30.499  36.193  1.00  0.00    -0.036 A 
ATOM     91  H   UNL A   1      41.716  31.980  37.545  1.00  0.00     0.065 H 
ATOM     92  C   UNL A   1      42.190  30.133  34.906  1.00  0.00     0.049 A 
ATOM     93  H   UNL A   1      40.681  30.941  33.671  1.00  0.00     0.167 HD
ATOM     94  C   UNL A   1      42.312  28.774  32.833  1.00  0.00     0.074 A 
ATOM     95  C   UNL A   1      42.882  27.725  32.012  1.00  0.00    -0.034 C 
ATOM     96  H   UNL A   1      42.492  27.041  30.029  1.00  0.00     0.065 H 
ATOM     97  H   UNL A   1      43.314  30.081  36.747  1.00  0.00     0.065 H 
ATOM     98  C   UNL A   1      42.755  29.103  34.072  1.00  0.00     0.037 A 
ATOM     99  H   UNL A   1      43.653  27.108  32.309  1.00  0.00     0.065 H 
BRANCH  80 100
ATOM    100  C   UNL A   1      39.701  33.806  36.681  1.00  0.00     0.064 A 
ATOM    101  C   UNL A   1      38.900  33.484  37.789  1.00  0.00     0.173 A 
ATOM    102  C   UNL A   1      40.379  35.034  36.700  1.00  0.00     0.173 A 
ATOM    103  F   UNL A   1      38.221  32.327  37.816  1.00  0.00    -0.203 F 
ATOM    104  C   UNL A   1      38.751  34.373  38.849  1.00  0.00     0.198 A 
ATOM    105  C   UNL A   1      40.255  35.906  37.779  1.00  0.00     0.198 A 
ATOM    106  F   UNL A   1      41.164  35.390  35.672  1.00  0.00    -0.203 F 
ATOM    107  F   UNL A   1      37.930  34.069  39.864  1.00  0.00    -0.200 F 
ATOM    108  C   UNL A   1      39.431  35.580  38.847  1.00  0.00     0.200 A 
ATOM    109  F   UNL A   1      40.923  37.067  37.781  1.00  0.00    -0.200 F 
ATOM    110  F   UNL A   1      39.286  36.436  39.867  1.00  0.00    -0.200 F 
ENDBRANCH  80 100
BRANCH  83 111
ATOM    111  C   UNL A   1      40.472  28.062  28.556  1.00  0.00     0.064 A 
ATOM    112  C   UNL A   1      41.248  28.516  27.481  1.00  0.00     0.173 A 
ATOM    113  C   UNL A   1      39.867  26.802  28.439  1.00  0.00     0.173 A 
ATOM    114  F   UNL A   1      41.830  29.723  27.540  1.00  0.00    -0.203 F 
ATOM    115  C   UNL A   1      41.407  27.745  26.331  1.00  0.00     0.198 A 
ATOM    116  C   UNL A   1      40.048  26.019  27.300  1.00  0.00     0.198 A 
ATOM    117  F   UNL A   1      39.119  26.319  29.442  1.00  0.00    -0.203 F 
ATOM    118  F   UNL A   1      42.128  28.216  25.306  1.00  0.00    -0.200 F 
ATOM    119  C   UNL A   1      40.814  26.494  26.245  1.00  0.00     0.200 A 
ATOM    120  F   UNL A   1      39.487  24.805  27.227  1.00  0.00    -0.200 F 
ATOM    121  F   UNL A   1      40.978  25.746  25.145  1.00  0.00    -0.200 F 
ENDBRANCH  83 111
BRANCH  98 122
ATOM    122  C   UNL A   1      43.911  28.316  34.617  1.00  0.00     0.064 A 
ATOM    123  C   UNL A   1      45.234  28.759  34.471  1.00  0.00     0.173 A 
ATOM    124  C   UNL A   1      43.692  27.125  35.328  1.00  0.00     0.173 A 
ATOM    125  F   UNL A   1      45.498  29.882  33.785  1.00  0.00    -0.203 F 
ATOM    126  C   UNL A   1      46.297  28.029  34.998  1.00  0.00     0.198 A 
ATOM    127  C   UNL A   1      44.754  26.414  35.879  1.00  0.00     0.198 A 
ATOM    128  F   UNL A   1      42.446  26.661  35.500  1.00  0.00    -0.203 F 
ATOM    129  F   UNL A   1      47.555  28.449  34.808  1.00  0.00    -0.200 F 
ATOM    130  C   UNL A   1      46.056  26.863  35.708  1.00  0.00     0.200 A 
ATOM    131  F   UNL A   1      44.519  25.293  36.576  1.00  0.00    -0.200 F 
ATOM    132  F   UNL A   1      47.078  26.165  36.222  1.00  0.00    -0.200 F 
ENDBRANCH  98 122
ENDBRANCH  63  66
ENDBRANCH  53  56
ENDBRANCH  49  52
ENDBRANCH  46  49
ENDBRANCH  43  46
ENDBRANCH  40  43
ENDBRANCH   1  40
TORSDOF 17
ENDMDL
MODEL 10
REMARK VINA RESULT:     -12.2      5.836     11.022
REMARK SMILES O=C(Cc1ccccc1Nc1c(F)cccc1C(F)(F)F)NCCCCCCNC(=O)c1ccc(-c2c3nc(c(-c4c(F)c(F)c(F)c(F)c4F)c4ccc([nH]4)c(-c4c(F)c(F)c(F)c(F)c4F)c4nc(c(-c5c(F)c(F)c(F)c(F)c5F)c5ccc2[nH]5)C=C4)C=C3)cc1
REMARK SMILES IDX 24 1 23 4 22 7 1 8 2 9 3 11 4 14 5 15 9 16 6 17 8 19 7 20
REMARK SMILES IDX 10 24 11 26 12 27 17 28 13 29 14 30 16 31 15 32 18 36 19 37
REMARK SMILES IDX 20 38 21 39 25 40 26 43 27 46 28 49 29 52 30 53 31 55 32 56
REMARK SMILES IDX 33 57 94 58 34 59 93 61 35 63 36 66 37 67 87 68 38 69 92 70
REMARK SMILES IDX 86 71 88 72 39 73 91 74 85 76 84 78 40 80 72 83 52 84 71 85
REMARK SMILES IDX 53 86 56 87 70 88 89 89 54 90 55 92 69 94 90 95 57 98 41 100
REMARK SMILES IDX 42 101 50 102 43 103 44 104 48 105 51 106 45 107 46 108
REMARK SMILES IDX 49 109 47 110 73 111 74 112 82 113 75 114 76 115 80 116
REMARK SMILES IDX 83 117 77 118 78 119 81 120 79 121 58 122 59 123 67 124
REMARK SMILES IDX 60 125 61 126 65 127 68 128 62 129 63 130 66 131 64 132
REMARK H PARENT 24 2 24 3 23 5 23 6 22 10 3 12 3 13 5 18 6 21 8 22 7 23 10 25
REMARK H PARENT 14 33 16 34 15 35 25 41 25 42 26 44 26 45 27 47 27 48 28 50
REMARK H PARENT 28 51 29 54 33 60 94 62 34 64 93 65 92 75 86 77 88 79 91 81
REMARK H PARENT 85 82 53 91 56 93 89 96 54 97 90 99
REMARK Flexibility Score: inf
ROOT
ATOM      1  C   UNL A   1      33.929  29.266  26.720  1.00  0.00    -0.036 C 
ATOM      2  H   UNL A   1      34.885  29.689  26.494  1.00  0.00     0.028 H 
ATOM      3  H   UNL A   1      33.618  29.432  27.730  1.00  0.00     0.028 H 
ENDROOT
BRANCH   1   4
ATOM      4  C   UNL A   1      34.028  27.748  26.545  1.00  0.00     0.017 C 
ATOM      5  H   UNL A   1      34.797  27.528  25.833  1.00  0.00     0.049 H 
ATOM      6  H   UNL A   1      34.258  27.312  27.495  1.00  0.00     0.049 H 
BRANCH   4   7
ATOM      7  N   UNL A   1      32.779  27.188  26.076  1.00  0.00    -0.356 N 
ATOM      8  O   UNL A   1      31.589  27.418  28.022  1.00  0.00    -0.275 OA
ATOM      9  C   UNL A   1      31.660  27.031  26.859  1.00  0.00     0.224 C 
ATOM     10  H   UNL A   1      32.727  26.901  25.136  1.00  0.00     0.163 HD
BRANCH   9  11
ATOM     11  C   UNL A   1      30.562  26.201  26.216  1.00  0.00     0.054 C 
ATOM     12  H   UNL A   1      30.195  26.747  25.373  1.00  0.00     0.042 H 
ATOM     13  H   UNL A   1      29.843  26.037  26.991  1.00  0.00     0.042 H 
BRANCH  11  14
ATOM     14  C   UNL A   1      30.951  24.817  25.734  1.00  0.00    -0.015 A 
ATOM     15  C   UNL A   1      31.507  23.925  26.671  1.00  0.00    -0.056 A 
ATOM     16  C   UNL A   1      30.813  24.398  24.392  1.00  0.00     0.042 A 
ATOM     17  C   UNL A   1      31.954  22.661  26.286  1.00  0.00    -0.062 A 
ATOM     18  H   UNL A   1      31.584  24.211  27.660  1.00  0.00     0.063 H 
ATOM     19  C   UNL A   1      31.289  23.129  24.023  1.00  0.00    -0.038 A 
ATOM     20  C   UNL A   1      31.855  22.267  24.960  1.00  0.00    -0.060 A 
ATOM     21  H   UNL A   1      32.358  22.021  26.988  1.00  0.00     0.062 H 
ATOM     22  H   UNL A   1      31.217  22.828  23.038  1.00  0.00     0.064 H 
ATOM     23  H   UNL A   1      32.199  21.338  24.668  1.00  0.00     0.062 H 
BRANCH  16  24
ATOM     24  N   UNL A   1      30.224  25.244  23.422  1.00  0.00    -0.352 N 
ATOM     25  H   UNL A   1      29.549  24.818  22.845  1.00  0.00     0.167 HD
BRANCH  24  26
ATOM     26  C   UNL A   1      30.467  26.615  23.163  1.00  0.00     0.087 A 
ATOM     27  C   UNL A   1      29.387  27.504  23.344  1.00  0.00     0.147 A 
ATOM     28  C   UNL A   1      31.701  27.150  22.742  1.00  0.00     0.082 A 
ATOM     29  F   UNL A   1      28.189  27.005  23.690  1.00  0.00    -0.205 F 
ATOM     30  C   UNL A   1      29.506  28.876  23.157  1.00  0.00    -0.024 A 
ATOM     31  C   UNL A   1      31.817  28.553  22.582  1.00  0.00    -0.048 A 
ATOM     32  C   UNL A   1      30.732  29.407  22.785  1.00  0.00    -0.059 A 
ATOM     33  H   UNL A   1      28.690  29.494  23.295  1.00  0.00     0.065 H 
ATOM     34  H   UNL A   1      32.728  28.954  22.308  1.00  0.00     0.063 H 
ATOM     35  H   UNL A   1      30.842  30.425  22.659  1.00  0.00     0.062 H 
BRANCH  28  36
ATOM     36  C   UNL A   1      32.910  26.322  22.366  1.00  0.00     0.418 C 
ATOM     37  F   UNL A   1      33.868  27.082  21.750  1.00  0.00    -0.166 F 
ATOM     38  F   UNL A   1      33.533  25.773  23.443  1.00  0.00    -0.166 F 
ATOM     39  F   UNL A   1      32.667  25.315  21.487  1.00  0.00    -0.166 F 
ENDBRANCH  28  36
ENDBRANCH  24  26
ENDBRANCH  16  24
ENDBRANCH  11  14
ENDBRANCH   9  11
ENDBRANCH   4   7
ENDBRANCH   1   4
BRANCH   1  40
ATOM     40  C   UNL A   1      32.883  29.952  25.831  1.00  0.00    -0.052 C 
ATOM     41  H   UNL A   1      32.483  29.219  25.163  1.00  0.00     0.027 H 
ATOM     42  H   UNL A   1      33.392  30.751  25.335  1.00  0.00     0.027 H 
BRANCH  40  43
ATOM     43  C   UNL A   1      31.715  30.595  26.581  1.00  0.00    -0.052 C 
ATOM     44  H   UNL A   1      31.773  30.287  27.604  1.00  0.00     0.027 H 
ATOM     45  H   UNL A   1      30.832  30.266  26.074  1.00  0.00     0.027 H 
BRANCH  43  46
ATOM     46  C   UNL A   1      31.660  32.117  26.556  1.00  0.00    -0.036 C 
ATOM     47  H   UNL A   1      30.684  32.421  26.872  1.00  0.00     0.028 H 
ATOM     48  H   UNL A   1      31.887  32.413  25.553  1.00  0.00     0.028 H 
BRANCH  46  49
ATOM     49  C   UNL A   1      32.683  32.803  27.451  1.00  0.00     0.018 C 
ATOM     50  H   UNL A   1      33.644  32.736  26.985  1.00  0.00     0.049 H 
ATOM     51  H   UNL A   1      32.664  32.304  28.399  1.00  0.00     0.049 H 
BRANCH  49  52
ATOM     52  N   UNL A   1      32.380  34.206  27.691  1.00  0.00    -0.352 N 
ATOM     53  C   UNL A   1      32.957  35.090  28.574  1.00  0.00     0.251 C 
ATOM     54  H   UNL A   1      31.654  34.578  27.140  1.00  0.00     0.163 HD
ATOM     55  O   UNL A   1      32.472  36.202  28.742  1.00  0.00    -0.269 OA
BRANCH  53  56
ATOM     56  C   UNL A   1      34.143  34.675  29.354  1.00  0.00     0.039 A 
ATOM     57  C   UNL A   1      33.970  34.250  30.674  1.00  0.00    -0.049 A 
ATOM     58  C   UNL A   1      35.415  34.670  28.777  1.00  0.00    -0.049 A 
ATOM     59  C   UNL A   1      35.055  33.726  31.379  1.00  0.00    -0.053 A 
ATOM     60  H   UNL A   1      33.044  34.321  31.123  1.00  0.00     0.063 H 
ATOM     61  C   UNL A   1      36.476  34.070  29.449  1.00  0.00    -0.053 A 
ATOM     62  H   UNL A   1      35.568  35.109  27.855  1.00  0.00     0.063 H 
ATOM     63  C   UNL A   1      36.303  33.582  30.752  1.00  0.00    -0.014 A 
ATOM     64  H   UNL A   1      34.940  33.443  32.366  1.00  0.00     0.063 H 
ATOM     65  H   UNL A   1      37.394  33.984  28.986  1.00  0.00     0.063 H 
BRANCH  63  66
ATOM     66  C   UNL A   1      37.431  32.887  31.426  1.00  0.00     0.031 A 
ATOM     67  C   UNL A   1      38.080  31.694  30.787  1.00  0.00     0.074 A 
ATOM     68  C   UNL A   1      37.807  33.280  32.658  1.00  0.00     0.049 A 
ATOM     69  N   UNL A   1      39.017  30.909  31.257  1.00  0.00    -0.248 NA
ATOM     70  C   UNL A   1      37.590  31.313  29.454  1.00  0.00    -0.034 C 
ATOM     71  C   UNL A   1      37.210  34.382  33.413  1.00  0.00    -0.036 A 
ATOM     72  N   UNL A   1      38.769  32.781  33.502  1.00  0.00    -0.354 N 
ATOM     73  C   UNL A   1      39.220  29.940  30.285  1.00  0.00     0.074 A 
ATOM     74  C   UNL A   1      38.267  30.197  29.227  1.00  0.00    -0.034 C 
ATOM     75  H   UNL A   1      36.899  31.789  28.853  1.00  0.00     0.065 H 
ATOM     76  C   UNL A   1      37.826  34.485  34.601  1.00  0.00    -0.036 A 
ATOM     77  H   UNL A   1      36.438  34.982  33.085  1.00  0.00     0.065 H 
ATOM     78  C   UNL A   1      38.833  33.436  34.709  1.00  0.00     0.049 A 
ATOM     79  H   UNL A   1      39.357  32.029  33.265  1.00  0.00     0.167 HD
ATOM     80  C   UNL A   1      40.136  28.941  30.264  1.00  0.00     0.037 A 
ATOM     81  H   UNL A   1      38.133  29.591  28.402  1.00  0.00     0.065 H 
ATOM     82  H   UNL A   1      37.620  35.195  35.322  1.00  0.00     0.065 H 
ATOM     83  C   UNL A   1      39.606  33.206  35.787  1.00  0.00     0.037 A 
ATOM     84  C   UNL A   1      41.088  28.694  31.316  1.00  0.00     0.049 A 
ATOM     85  C   UNL A   1      40.609  32.086  35.748  1.00  0.00     0.074 A 
ATOM     86  C   UNL A   1      42.100  27.752  31.361  1.00  0.00    -0.036 A 
ATOM     87  N   UNL A   1      41.136  29.390  32.516  1.00  0.00    -0.354 N 
ATOM     88  N   UNL A   1      40.850  31.227  34.788  1.00  0.00    -0.248 NA
ATOM     89  C   UNL A   1      41.451  31.908  36.939  1.00  0.00    -0.034 C 
ATOM     90  C   UNL A   1      42.728  27.844  32.609  1.00  0.00    -0.036 A 
ATOM     91  H   UNL A   1      42.349  27.094  30.605  1.00  0.00     0.065 H 
ATOM     92  C   UNL A   1      42.142  28.878  33.322  1.00  0.00     0.049 A 
ATOM     93  H   UNL A   1      40.545  30.138  32.759  1.00  0.00     0.167 HD
ATOM     94  C   UNL A   1      41.877  30.415  35.251  1.00  0.00     0.074 A 
ATOM     95  C   UNL A   1      42.228  30.900  36.570  1.00  0.00    -0.034 C 
ATOM     96  H   UNL A   1      41.439  32.432  37.828  1.00  0.00     0.065 H 
ATOM     97  H   UNL A   1      43.498  27.242  32.942  1.00  0.00     0.065 H 
ATOM     98  C   UNL A   1      42.471  29.361  34.638  1.00  0.00     0.037 A 
ATOM     99  H   UNL A   1      42.988  30.511  37.150  1.00  0.00     0.065 H 
BRANCH  80 100
ATOM    100  C   UNL A   1      40.146  28.044  29.061  1.00  0.00     0.064 A 
ATOM    101  C   UNL A   1      39.461  26.818  29.052  1.00  0.00     0.173 A 
ATOM    102  C   UNL A   1      40.838  28.413  27.898  1.00  0.00     0.173 A 
ATOM    103  F   UNL A   1      38.792  26.411  30.141  1.00  0.00    -0.203 F 
ATOM    104  C   UNL A   1      39.505  25.978  27.942  1.00  0.00     0.198 A 
ATOM    105  C   UNL A   1      40.852  27.587  26.777  1.00  0.00     0.198 A 
ATOM    106  F   UNL A   1      41.504  29.577  27.848  1.00  0.00    -0.203 F 
ATOM    107  F   UNL A   1      38.896  24.785  27.983  1.00  0.00    -0.200 F 
ATOM    108  C   UNL A   1      40.195  26.365  26.804  1.00  0.00     0.200 A 
ATOM    109  F   UNL A   1      41.509  27.967  25.673  1.00  0.00    -0.200 F 
ATOM    110  F   UNL A   1      40.238  25.556  25.737  1.00  0.00    -0.200 F 
ENDBRANCH  80 100
BRANCH  83 111
ATOM    111  C   UNL A   1      39.462  34.068  36.987  1.00  0.00     0.064 A 
ATOM    112  C   UNL A   1      38.701  33.651  38.088  1.00  0.00     0.173 A 
ATOM    113  C   UNL A   1      40.106  35.311  37.072  1.00  0.00     0.173 A 
ATOM    114  F   UNL A   1      38.052  32.478  38.046  1.00  0.00    -0.203 F 
ATOM    115  C   UNL A   1      38.582  34.448  39.225  1.00  0.00     0.198 A 
ATOM    116  C   UNL A   1      40.008  36.096  38.219  1.00  0.00     0.198 A 
ATOM    117  F   UNL A   1      40.851  35.754  36.048  1.00  0.00    -0.203 F 
ATOM    118  F   UNL A   1      37.823  34.040  40.249  1.00  0.00    -0.200 F 
ATOM    119  C   UNL A   1      39.242  35.666  39.293  1.00  0.00     0.200 A 
ATOM    120  F   UNL A   1      40.661  37.265  38.287  1.00  0.00    -0.200 F 
ATOM    121  F   UNL A   1      39.139  36.427  40.391  1.00  0.00    -0.200 F 
ENDBRANCH  83 111
BRANCH  98 122
ATOM    122  C   UNL A   1      43.568  28.663  35.388  1.00  0.00     0.064 A 
ATOM    123  C   UNL A   1      44.915  29.012  35.210  1.00  0.00     0.173 A 
ATOM    124  C   UNL A   1      43.267  27.660  36.323  1.00  0.00     0.173 A 
ATOM    125  F   UNL A   1      45.256  29.952  34.316  1.00  0.00    -0.203 F 
ATOM    126  C   UNL A   1      45.922  28.369  35.926  1.00  0.00     0.198 A 
ATOM    127  C   UNL A   1      44.274  27.041  37.058  1.00  0.00     0.198 A 
ATOM    128  F   UNL A   1      41.995  27.293  36.534  1.00  0.00    -0.203 F 
ATOM    129  F   UNL A   1      47.205  28.688  35.707  1.00  0.00    -0.200 F 
ATOM    130  C   UNL A   1      45.600  27.390  36.854  1.00  0.00     0.200 A 
ATOM    131  F   UNL A   1      43.960  26.104  37.964  1.00  0.00    -0.200 F 
ATOM    132  F   UNL A   1      46.570  26.778  37.548  1.00  0.00    -0.200 F 
ENDBRANCH  98 122
ENDBRANCH  63  66
ENDBRANCH  53  56
ENDBRANCH  49  52
ENDBRANCH  46  49
ENDBRANCH  43  46
ENDBRANCH  40  43
ENDBRANCH   1  40
TORSDOF 17
ENDMDL
