MODEL 1
REMARK VINA RESULT:     -12.3      0.000      0.000
REMARK SMILES C/C(=N/OCc1ccccc1Nc1c(Cl)cccc1Cl)C(=O)NCCCCCCNC(=O)c1ccc(-c2c3nc(c(-c4c(F)c(F)c(F)c(F)c4F)c4ccc([nH]4)c(-c4c(F)c(F)c(F)c(F)c4F)c4nc(c(-c5c(F)c(F)c(F)c(F)c5F)c5ccc2[nH]5)C=C4)C=C3)cc1
REMARK SMILES IDX 25 1 24 4 23 7 21 8 22 9 2 11 3 12 1 13 4 17 5 18 6 21 7 22
REMARK SMILES IDX 11 23 8 24 10 26 9 27 12 31 13 33 14 34 19 35 15 36 16 37
REMARK SMILES IDX 18 38 20 39 17 40 26 44 27 47 28 50 29 53 30 56 31 57 32 59
REMARK SMILES IDX 33 60 34 61 95 62 35 63 94 65 36 67 37 70 38 71 88 72 39 73
REMARK SMILES IDX 93 74 87 75 89 76 40 77 92 78 86 80 85 82 41 84 73 87 53 88
REMARK SMILES IDX 72 89 54 90 57 91 71 92 90 93 55 94 56 96 70 98 91 99 58 102
REMARK SMILES IDX 42 104 43 105 51 106 44 107 45 108 49 109 52 110 46 111
REMARK SMILES IDX 47 112 50 113 48 114 74 115 75 116 83 117 76 118 77 119
REMARK SMILES IDX 81 120 84 121 78 122 79 123 82 124 80 125 59 126 60 127
REMARK SMILES IDX 68 128 61 129 62 130 66 131 69 132 63 133 64 134 67 135
REMARK SMILES IDX 65 136
REMARK H PARENT 25 2 25 3 24 5 24 6 23 10 1 14 1 15 1 16 5 19 5 20 7 25 8 28
REMARK H PARENT 10 29 9 30 12 32 16 41 18 42 17 43 26 45 26 46 27 48 27 49
REMARK H PARENT 28 51 28 52 29 54 29 55 30 58 34 64 95 66 35 68 94 69 93 79
REMARK H PARENT 87 81 89 83 92 85 86 86 54 95 57 97 90 100 55 101 91 103
REMARK Flexibility Score: inf
ROOT
ATOM      1  C   UNL A   1      31.911  28.739  27.518  1.00  0.00    -0.036 C 
ATOM      2  H   UNL A   1      32.520  28.456  28.351  1.00  0.00     0.028 H 
ATOM      3  H   UNL A   1      30.887  28.876  27.794  1.00  0.00     0.028 H 
ENDROOT
BRANCH   1   4
ATOM      4  C   UNL A   1      31.953  27.608  26.479  1.00  0.00     0.018 C 
ATOM      5  H   UNL A   1      31.720  28.003  25.511  1.00  0.00     0.049 H 
ATOM      6  H   UNL A   1      32.933  27.178  26.459  1.00  0.00     0.049 H 
BRANCH   4   7
ATOM      7  N   UNL A   1      30.985  26.595  26.833  1.00  0.00    -0.351 N 
ATOM      8  C   UNL A   1      30.581  25.457  26.187  1.00  0.00     0.268 C 
ATOM      9  O   UNL A   1      29.547  24.916  26.589  1.00  0.00    -0.268 OA
ATOM     10  H   UNL A   1      30.537  26.750  27.695  1.00  0.00     0.163 HD
BRANCH   8  11
ATOM     11  C   UNL A   1      31.357  24.707  25.116  1.00  0.00     0.141 C 
ATOM     12  N   UNL A   1      32.538  24.163  25.126  1.00  0.00    -0.086 NA
BRANCH  11  13
ATOM     13  C   UNL A   1      30.622  24.633  23.792  1.00  0.00    -0.013 C 
ATOM     14  H   UNL A   1      31.072  23.881  23.177  1.00  0.00     0.030 H 
ATOM     15  H   UNL A   1      30.681  25.580  23.297  1.00  0.00     0.030 H 
ATOM     16  H   UNL A   1      29.597  24.384  23.966  1.00  0.00     0.030 H 
ENDBRANCH  11  13
BRANCH  12  17
ATOM     17  O   UNL A   1      33.185  24.133  26.351  1.00  0.00    -0.390 OA
BRANCH  17  18
ATOM     18  C   UNL A   1      33.733  22.816  26.587  1.00  0.00     0.144 C 
ATOM     19  H   UNL A   1      33.016  22.099  26.247  1.00  0.00     0.079 H 
ATOM     20  H   UNL A   1      33.937  22.777  27.637  1.00  0.00     0.079 H 
BRANCH  18  21
ATOM     21  C   UNL A   1      35.067  22.502  25.903  1.00  0.00     0.016 A 
ATOM     22  C   UNL A   1      36.054  23.503  25.776  1.00  0.00    -0.053 A 
ATOM     23  C   UNL A   1      35.412  21.182  25.526  1.00  0.00     0.045 A 
ATOM     24  C   UNL A   1      37.337  23.228  25.307  1.00  0.00    -0.062 A 
ATOM     25  H   UNL A   1      35.816  24.473  26.039  1.00  0.00     0.063 H 
ATOM     26  C   UNL A   1      36.722  20.922  25.071  1.00  0.00    -0.038 A 
ATOM     27  C   UNL A   1      37.677  21.931  24.964  1.00  0.00    -0.060 A 
ATOM     28  H   UNL A   1      38.031  23.986  25.215  1.00  0.00     0.062 H 
ATOM     29  H   UNL A   1      36.981  19.958  24.810  1.00  0.00     0.064 H 
ATOM     30  H   UNL A   1      38.629  21.713  24.632  1.00  0.00     0.062 H 
BRANCH  23  31
ATOM     31  N   UNL A   1      34.474  20.125  25.621  1.00  0.00    -0.353 N 
ATOM     32  H   UNL A   1      34.139  19.931  26.526  1.00  0.00     0.167 HD
BRANCH  31  33
ATOM     33  C   UNL A   1      33.952  19.305  24.584  1.00  0.00     0.076 A 
ATOM     34  C   UNL A   1      34.542  18.047  24.328  1.00  0.00     0.066 A 
ATOM     35  C   UNL A   1      32.804  19.644  23.839  1.00  0.00     0.066 A 
ATOM     36  Cl  UNL A   1      35.962  17.545  25.190  1.00  0.00    -0.082 Cl
ATOM     37  C   UNL A   1      34.003  17.162  23.390  1.00  0.00    -0.041 A 
ATOM     38  C   UNL A   1      32.265  18.757  22.898  1.00  0.00    -0.041 A 
ATOM     39  Cl  UNL A   1      32.043  21.196  23.975  1.00  0.00    -0.082 Cl
ATOM     40  C   UNL A   1      32.858  17.515  22.679  1.00  0.00    -0.059 A 
ATOM     41  H   UNL A   1      34.452  16.248  23.222  1.00  0.00     0.064 H 
ATOM     42  H   UNL A   1      31.424  19.025  22.363  1.00  0.00     0.064 H 
ATOM     43  H   UNL A   1      32.451  16.861  21.994  1.00  0.00     0.062 H 
ENDBRANCH  31  33
ENDBRANCH  23  31
ENDBRANCH  18  21
ENDBRANCH  17  18
ENDBRANCH  12  17
ENDBRANCH   8  11
ENDBRANCH   4   7
ENDBRANCH   1   4
BRANCH   1  44
ATOM     44  C   UNL A   1      32.417  30.082  26.977  1.00  0.00    -0.052 C 
ATOM     45  H   UNL A   1      33.248  29.891  26.330  1.00  0.00     0.027 H 
ATOM     46  H   UNL A   1      32.680  30.675  27.829  1.00  0.00     0.027 H 
BRANCH  44  47
ATOM     47  C   UNL A   1      31.373  30.884  26.193  1.00  0.00    -0.052 C 
ATOM     48  H   UNL A   1      30.408  30.475  26.411  1.00  0.00     0.027 H 
ATOM     49  H   UNL A   1      31.645  30.801  25.162  1.00  0.00     0.027 H 
BRANCH  47  50
ATOM     50  C   UNL A   1      31.335  32.382  26.507  1.00  0.00    -0.036 C 
ATOM     51  H   UNL A   1      30.488  32.572  27.133  1.00  0.00     0.028 H 
ATOM     52  H   UNL A   1      31.281  32.890  25.566  1.00  0.00     0.028 H 
BRANCH  50  53
ATOM     53  C   UNL A   1      32.579  32.911  27.215  1.00  0.00     0.018 C 
ATOM     54  H   UNL A   1      33.414  32.837  26.550  1.00  0.00     0.049 H 
ATOM     55  H   UNL A   1      32.737  32.324  28.096  1.00  0.00     0.049 H 
BRANCH  53  56
ATOM     56  N   UNL A   1      32.417  34.300  27.618  1.00  0.00    -0.352 N 
ATOM     57  C   UNL A   1      33.010  34.980  28.652  1.00  0.00     0.251 C 
ATOM     58  H   UNL A   1      31.793  34.828  27.069  1.00  0.00     0.163 HD
ATOM     59  O   UNL A   1      32.582  36.075  29.001  1.00  0.00    -0.269 OA
BRANCH  57  60
ATOM     60  C   UNL A   1      34.169  34.387  29.353  1.00  0.00     0.039 A 
ATOM     61  C   UNL A   1      33.952  33.648  30.519  1.00  0.00    -0.049 A 
ATOM     62  C   UNL A   1      35.468  34.588  28.877  1.00  0.00    -0.049 A 
ATOM     63  C   UNL A   1      35.035  33.069  31.182  1.00  0.00    -0.053 A 
ATOM     64  H   UNL A   1      32.995  33.532  30.888  1.00  0.00     0.063 H 
ATOM     65  C   UNL A   1      36.539  33.955  29.501  1.00  0.00    -0.053 A 
ATOM     66  H   UNL A   1      35.633  35.205  28.066  1.00  0.00     0.063 H 
ATOM     67  C   UNL A   1      36.334  33.197  30.664  1.00  0.00    -0.014 A 
ATOM     68  H   UNL A   1      34.881  32.543  32.056  1.00  0.00     0.063 H 
ATOM     69  H   UNL A   1      37.489  34.044  29.107  1.00  0.00     0.063 H 
BRANCH  67  70
ATOM     70  C   UNL A   1      37.495  32.561  31.331  1.00  0.00     0.031 A 
ATOM     71  C   UNL A   1      38.207  31.413  30.670  1.00  0.00     0.074 A 
ATOM     72  C   UNL A   1      37.866  32.973  32.557  1.00  0.00     0.049 A 
ATOM     73  N   UNL A   1      39.191  30.677  31.122  1.00  0.00    -0.248 NA
ATOM     74  C   UNL A   1      37.730  31.023  29.334  1.00  0.00    -0.034 C 
ATOM     75  C   UNL A   1      37.226  34.048  33.317  1.00  0.00    -0.036 A 
ATOM     76  N   UNL A   1      38.869  32.532  33.384  1.00  0.00    -0.354 N 
ATOM     77  C   UNL A   1      39.435  29.729  30.138  1.00  0.00     0.074 A 
ATOM     78  C   UNL A   1      38.468  29.952  29.084  1.00  0.00    -0.034 C 
ATOM     79  H   UNL A   1      37.010  31.469  28.744  1.00  0.00     0.065 H 
ATOM     80  C   UNL A   1      37.866  34.200  34.486  1.00  0.00    -0.036 A 
ATOM     81  H   UNL A   1      36.412  34.599  33.004  1.00  0.00     0.065 H 
ATOM     82  C   UNL A   1      38.937  33.211  34.576  1.00  0.00     0.049 A 
ATOM     83  H   UNL A   1      39.481  31.799  33.145  1.00  0.00     0.167 HD
ATOM     84  C   UNL A   1      40.393  28.772  30.106  1.00  0.00     0.037 A 
ATOM     85  H   UNL A   1      38.366  29.354  28.249  1.00  0.00     0.065 H 
ATOM     86  H   UNL A   1      37.639  34.904  35.207  1.00  0.00     0.065 H 
ATOM     87  C   UNL A   1      39.767  33.047  35.623  1.00  0.00     0.037 A 
ATOM     88  C   UNL A   1      41.371  28.573  31.143  1.00  0.00     0.049 A 
ATOM     89  C   UNL A   1      40.828  31.983  35.560  1.00  0.00     0.074 A 
ATOM     90  C   UNL A   1      42.419  27.670  31.180  1.00  0.00    -0.036 A 
ATOM     91  N   UNL A   1      41.421  29.294  32.328  1.00  0.00    -0.354 N 
ATOM     92  N   UNL A   1      41.086  31.127  34.601  1.00  0.00    -0.248 NA
ATOM     93  C   UNL A   1      41.715  31.862  36.725  1.00  0.00    -0.034 C 
ATOM     94  C   UNL A   1      43.077  27.815  32.407  1.00  0.00    -0.036 A 
ATOM     95  H   UNL A   1      42.672  27.006  30.433  1.00  0.00     0.065 H 
ATOM     96  C   UNL A   1      42.470  28.841  33.113  1.00  0.00     0.049 A 
ATOM     97  H   UNL A   1      40.803  30.019  32.574  1.00  0.00     0.167 HD
ATOM     98  C   UNL A   1      42.177  30.387  35.031  1.00  0.00     0.074 A 
ATOM     99  C   UNL A   1      42.543  30.903  36.335  1.00  0.00    -0.034 C 
ATOM    100  H   UNL A   1      41.699  32.387  37.613  1.00  0.00     0.065 H 
ATOM    101  H   UNL A   1      43.878  27.252  32.731  1.00  0.00     0.065 H 
ATOM    102  C   UNL A   1      42.820  29.371  34.405  1.00  0.00     0.037 A 
ATOM    103  H   UNL A   1      43.345  30.566  36.889  1.00  0.00     0.065 H 
BRANCH  84 104
ATOM    104  C   UNL A   1      40.430  27.864  28.910  1.00  0.00     0.064 A 
ATOM    105  C   UNL A   1      41.214  28.159  27.785  1.00  0.00     0.173 A 
ATOM    106  C   UNL A   1      39.699  26.666  28.903  1.00  0.00     0.173 A 
ATOM    107  F   UNL A   1      41.924  29.296  27.736  1.00  0.00    -0.203 F 
ATOM    108  C   UNL A   1      41.243  27.303  26.687  1.00  0.00     0.198 A 
ATOM    109  C   UNL A   1      39.755  25.798  27.816  1.00  0.00     0.198 A 
ATOM    110  F   UNL A   1      38.937  26.332  29.956  1.00  0.00    -0.203 F 
ATOM    111  F   UNL A   1      41.962  27.630  25.603  1.00  0.00    -0.200 F 
ATOM    112  C   UNL A   1      40.520  26.121  26.705  1.00  0.00     0.200 A 
ATOM    113  F   UNL A   1      39.065  24.649  27.842  1.00  0.00    -0.200 F 
ATOM    114  F   UNL A   1      40.554  25.295  25.651  1.00  0.00    -0.200 F 
ENDBRANCH  84 104
BRANCH  87 115
ATOM    115  C   UNL A   1      39.640  33.928  36.813  1.00  0.00     0.064 A 
ATOM    116  C   UNL A   1      38.858  33.544  37.912  1.00  0.00     0.173 A 
ATOM    117  C   UNL A   1      40.293  35.166  36.876  1.00  0.00     0.173 A 
ATOM    118  F   UNL A   1      38.196  32.377  37.886  1.00  0.00    -0.203 F 
ATOM    119  C   UNL A   1      38.718  34.375  39.020  1.00  0.00     0.198 A 
ATOM    120  C   UNL A   1      40.175  35.985  37.998  1.00  0.00     0.198 A 
ATOM    121  F   UNL A   1      41.052  35.578  35.851  1.00  0.00    -0.203 F 
ATOM    122  F   UNL A   1      37.928  34.005  40.037  1.00  0.00    -0.200 F 
ATOM    123  C   UNL A   1      39.383  35.592  39.066  1.00  0.00     0.200 A 
ATOM    124  F   UNL A   1      40.828  37.153  38.041  1.00  0.00    -0.200 F 
ATOM    125  F   UNL A   1      39.251  36.390  40.133  1.00  0.00    -0.200 F 
ENDBRANCH  87 115
BRANCH 102 126
ATOM    126  C   UNL A   1      44.002  28.770  35.107  1.00  0.00     0.064 A 
ATOM    127  C   UNL A   1      45.304  29.251  34.902  1.00  0.00     0.173 A 
ATOM    128  C   UNL A   1      43.825  27.727  36.030  1.00  0.00     0.173 A 
ATOM    129  F   UNL A   1      45.526  30.236  34.018  1.00  0.00    -0.203 F 
ATOM    130  C   UNL A   1      46.387  28.694  35.575  1.00  0.00     0.198 A 
ATOM    131  C   UNL A   1      44.906  27.193  36.723  1.00  0.00     0.198 A 
ATOM    132  F   UNL A   1      42.600  27.235  36.267  1.00  0.00    -0.203 F 
ATOM    133  F   UNL A   1      47.627  29.139  35.328  1.00  0.00    -0.200 F 
ATOM    134  C   UNL A   1      46.187  27.672  36.490  1.00  0.00     0.200 A 
ATOM    135  F   UNL A   1      44.710  26.212  37.616  1.00  0.00    -0.200 F 
ATOM    136  F   UNL A   1      47.230  27.141  37.143  1.00  0.00    -0.200 F 
ENDBRANCH 102 126
ENDBRANCH  67  70
ENDBRANCH  57  60
ENDBRANCH  53  56
ENDBRANCH  50  53
ENDBRANCH  47  50
ENDBRANCH  44  47
ENDBRANCH   1  44
TORSDOF 19
ENDMDL
MODEL 2
REMARK VINA RESULT:     -11.9      0.380      1.663
REMARK SMILES C/C(=N/OCc1ccccc1Nc1c(Cl)cccc1Cl)C(=O)NCCCCCCNC(=O)c1ccc(-c2c3nc(c(-c4c(F)c(F)c(F)c(F)c4F)c4ccc([nH]4)c(-c4c(F)c(F)c(F)c(F)c4F)c4nc(c(-c5c(F)c(F)c(F)c(F)c5F)c5ccc2[nH]5)C=C4)C=C3)cc1
REMARK SMILES IDX 25 1 24 4 23 7 21 8 22 9 2 11 3 12 1 13 4 17 5 18 6 21 7 22
REMARK SMILES IDX 11 23 8 24 10 26 9 27 12 31 13 33 14 34 19 35 15 36 16 37
REMARK SMILES IDX 18 38 20 39 17 40 26 44 27 47 28 50 29 53 30 56 31 57 32 59
REMARK SMILES IDX 33 60 34 61 95 62 35 63 94 65 36 67 37 70 38 71 88 72 39 73
REMARK SMILES IDX 93 74 87 75 89 76 40 77 92 78 86 80 85 82 41 84 73 87 53 88
REMARK SMILES IDX 72 89 54 90 57 91 71 92 90 93 55 94 56 96 70 98 91 99 58 102
REMARK SMILES IDX 42 104 43 105 51 106 44 107 45 108 49 109 52 110 46 111
REMARK SMILES IDX 47 112 50 113 48 114 74 115 75 116 83 117 76 118 77 119
REMARK SMILES IDX 81 120 84 121 78 122 79 123 82 124 80 125 59 126 60 127
REMARK SMILES IDX 68 128 61 129 62 130 66 131 69 132 63 133 64 134 67 135
REMARK SMILES IDX 65 136
REMARK H PARENT 25 2 25 3 24 5 24 6 23 10 1 14 1 15 1 16 5 19 5 20 7 25 8 28
REMARK H PARENT 10 29 9 30 12 32 16 41 18 42 17 43 26 45 26 46 27 48 27 49
REMARK H PARENT 28 51 28 52 29 54 29 55 30 58 34 64 95 66 35 68 94 69 93 79
REMARK H PARENT 87 81 89 83 92 85 86 86 54 95 57 97 90 100 55 101 91 103
REMARK Flexibility Score: inf
ROOT
ATOM      1  C   UNL A   1      31.746  28.646  27.404  1.00  0.00    -0.036 C 
ATOM      2  H   UNL A   1      32.289  28.314  28.265  1.00  0.00     0.028 H 
ATOM      3  H   UNL A   1      30.713  28.818  27.618  1.00  0.00     0.028 H 
ENDROOT
BRANCH   1   4
ATOM      4  C   UNL A   1      31.811  27.546  26.334  1.00  0.00     0.018 C 
ATOM      5  H   UNL A   1      31.410  27.918  25.414  1.00  0.00     0.049 H 
ATOM      6  H   UNL A   1      32.830  27.253  26.184  1.00  0.00     0.049 H 
BRANCH   4   7
ATOM      7  N   UNL A   1      31.039  26.405  26.771  1.00  0.00    -0.351 N 
ATOM      8  C   UNL A   1      30.956  25.125  26.294  1.00  0.00     0.268 C 
ATOM      9  O   UNL A   1      30.017  24.432  26.693  1.00  0.00    -0.268 OA
ATOM     10  H   UNL A   1      30.470  26.581  27.555  1.00  0.00     0.163 HD
BRANCH   8  11
ATOM     11  C   UNL A   1      31.990  24.418  25.432  1.00  0.00     0.141 C 
ATOM     12  N   UNL A   1      32.860  23.492  25.709  1.00  0.00    -0.086 NA
BRANCH  11  13
ATOM     13  C   UNL A   1      32.030  24.935  24.007  1.00  0.00    -0.013 C 
ATOM     14  H   UNL A   1      31.441  25.825  23.934  1.00  0.00     0.030 H 
ATOM     15  H   UNL A   1      31.635  24.191  23.346  1.00  0.00     0.030 H 
ATOM     16  H   UNL A   1      33.041  25.153  23.734  1.00  0.00     0.030 H 
ENDBRANCH  11  13
BRANCH  12  17
ATOM     17  O   UNL A   1      32.775  22.936  26.977  1.00  0.00    -0.390 OA
BRANCH  17  18
ATOM     18  C   UNL A   1      34.069  22.435  27.383  1.00  0.00     0.144 C 
ATOM     19  H   UNL A   1      33.930  21.444  27.763  1.00  0.00     0.079 H 
ATOM     20  H   UNL A   1      34.433  23.139  28.101  1.00  0.00     0.079 H 
BRANCH  18  21
ATOM     21  C   UNL A   1      35.145  22.370  26.295  1.00  0.00     0.016 A 
ATOM     22  C   UNL A   1      36.047  23.441  26.124  1.00  0.00    -0.053 A 
ATOM     23  C   UNL A   1      35.369  21.190  25.545  1.00  0.00     0.045 A 
ATOM     24  C   UNL A   1      37.139  23.364  25.259  1.00  0.00    -0.062 A 
ATOM     25  H   UNL A   1      35.894  24.312  26.657  1.00  0.00     0.063 H 
ATOM     26  C   UNL A   1      36.489  21.127  24.690  1.00  0.00    -0.038 A 
ATOM     27  C   UNL A   1      37.368  22.200  24.549  1.00  0.00    -0.060 A 
ATOM     28  H   UNL A   1      37.772  24.171  25.150  1.00  0.00     0.062 H 
ATOM     29  H   UNL A   1      36.663  20.263  24.154  1.00  0.00     0.064 H 
ATOM     30  H   UNL A   1      38.182  22.126  23.919  1.00  0.00     0.062 H 
BRANCH  23  31
ATOM     31  N   UNL A   1      34.503  20.075  25.659  1.00  0.00    -0.353 N 
ATOM     32  H   UNL A   1      34.217  19.848  26.574  1.00  0.00     0.167 HD
BRANCH  31  33
ATOM     33  C   UNL A   1      33.993  19.238  24.631  1.00  0.00     0.076 A 
ATOM     34  C   UNL A   1      34.631  18.007  24.355  1.00  0.00     0.066 A 
ATOM     35  C   UNL A   1      32.814  19.530  23.915  1.00  0.00     0.066 A 
ATOM     36  Cl  UNL A   1      36.091  17.564  25.181  1.00  0.00    -0.082 Cl
ATOM     37  C   UNL A   1      34.108  17.104  23.425  1.00  0.00    -0.041 A 
ATOM     38  C   UNL A   1      32.292  18.623  22.982  1.00  0.00    -0.041 A 
ATOM     39  Cl  UNL A   1      31.990  21.046  24.077  1.00  0.00    -0.082 Cl
ATOM     40  C   UNL A   1      32.933  17.410  22.743  1.00  0.00    -0.059 A 
ATOM     41  H   UNL A   1      34.593  16.211  23.242  1.00  0.00     0.064 H 
ATOM     42  H   UNL A   1      31.427  18.857  22.469  1.00  0.00     0.064 H 
ATOM     43  H   UNL A   1      32.539  16.741  22.064  1.00  0.00     0.062 H 
ENDBRANCH  31  33
ENDBRANCH  23  31
ENDBRANCH  18  21
ENDBRANCH  17  18
ENDBRANCH  12  17
ENDBRANCH   8  11
ENDBRANCH   4   7
ENDBRANCH   1   4
BRANCH   1  44
ATOM     44  C   UNL A   1      32.341  29.982  26.941  1.00  0.00    -0.052 C 
ATOM     45  H   UNL A   1      33.193  29.776  26.327  1.00  0.00     0.027 H 
ATOM     46  H   UNL A   1      32.588  30.530  27.826  1.00  0.00     0.027 H 
BRANCH  44  47
ATOM     47  C   UNL A   1      31.375  30.861  26.138  1.00  0.00    -0.052 C 
ATOM     48  H   UNL A   1      30.387  30.467  26.262  1.00  0.00     0.027 H 
ATOM     49  H   UNL A   1      31.718  30.835  25.126  1.00  0.00     0.027 H 
BRANCH  47  50
ATOM     50  C   UNL A   1      31.351  32.338  26.544  1.00  0.00    -0.036 C 
ATOM     51  H   UNL A   1      30.555  32.479  27.245  1.00  0.00     0.028 H 
ATOM     52  H   UNL A   1      31.219  32.899  25.643  1.00  0.00     0.028 H 
BRANCH  50  53
ATOM     53  C   UNL A   1      32.643  32.837  27.184  1.00  0.00     0.018 C 
ATOM     54  H   UNL A   1      33.429  32.793  26.459  1.00  0.00     0.049 H 
ATOM     55  H   UNL A   1      32.863  32.213  28.025  1.00  0.00     0.049 H 
BRANCH  53  56
ATOM     56  N   UNL A   1      32.512  34.208  27.656  1.00  0.00    -0.352 N 
ATOM     57  C   UNL A   1      33.123  34.823  28.720  1.00  0.00     0.251 C 
ATOM     58  H   UNL A   1      31.898  34.776  27.137  1.00  0.00     0.163 HD
ATOM     59  O   UNL A   1      32.720  35.908  29.125  1.00  0.00    -0.269 OA
BRANCH  57  60
ATOM     60  C   UNL A   1      34.271  34.172  29.385  1.00  0.00     0.039 A 
ATOM     61  C   UNL A   1      35.565  34.456  28.940  1.00  0.00    -0.049 A 
ATOM     62  C   UNL A   1      34.068  33.259  30.425  1.00  0.00    -0.049 A 
ATOM     63  C   UNL A   1      36.659  33.862  29.571  1.00  0.00    -0.053 A 
ATOM     64  H   UNL A   1      35.711  35.102  28.149  1.00  0.00     0.063 H 
ATOM     65  C   UNL A   1      35.161  32.719  31.095  1.00  0.00    -0.053 A 
ATOM     66  H   UNL A   1      33.110  32.986  30.694  1.00  0.00     0.063 H 
ATOM     67  C   UNL A   1      36.466  33.008  30.670  1.00  0.00    -0.014 A 
ATOM     68  H   UNL A   1      37.615  34.051  29.229  1.00  0.00     0.063 H 
ATOM     69  H   UNL A   1      35.011  32.103  31.910  1.00  0.00     0.063 H 
BRANCH  67  70
ATOM     70  C   UNL A   1      37.615  32.394  31.378  1.00  0.00     0.031 A 
ATOM     71  C   UNL A   1      38.352  31.240  30.756  1.00  0.00     0.074 A 
ATOM     72  C   UNL A   1      37.952  32.831  32.605  1.00  0.00     0.049 A 
ATOM     73  N   UNL A   1      39.330  30.520  31.246  1.00  0.00    -0.248 NA
ATOM     74  C   UNL A   1      37.914  30.823  29.415  1.00  0.00    -0.034 C 
ATOM     75  C   UNL A   1      37.284  33.914  33.329  1.00  0.00    -0.036 A 
ATOM     76  N   UNL A   1      38.936  32.414  33.465  1.00  0.00    -0.354 N 
ATOM     77  C   UNL A   1      39.607  29.557  30.285  1.00  0.00     0.074 A 
ATOM     78  C   UNL A   1      38.665  29.753  29.204  1.00  0.00    -0.034 C 
ATOM     79  H   UNL A   1      37.205  31.252  28.799  1.00  0.00     0.065 H 
ATOM     80  C   UNL A   1      37.893  34.093  34.511  1.00  0.00    -0.036 A 
ATOM     81  H   UNL A   1      36.474  34.453  32.985  1.00  0.00     0.065 H 
ATOM     82  C   UNL A   1      38.969  33.115  34.646  1.00  0.00     0.049 A 
ATOM     83  H   UNL A   1      39.560  31.682  33.255  1.00  0.00     0.167 HD
ATOM     84  C   UNL A   1      40.573  28.608  30.296  1.00  0.00     0.037 A 
ATOM     85  H   UNL A   1      38.589  29.139  28.377  1.00  0.00     0.065 H 
ATOM     86  H   UNL A   1      37.642  34.808  35.213  1.00  0.00     0.065 H 
ATOM     87  C   UNL A   1      39.773  32.976  35.716  1.00  0.00     0.037 A 
ATOM     88  C   UNL A   1      41.526  28.436  31.360  1.00  0.00     0.049 A 
ATOM     89  C   UNL A   1      40.844  31.919  35.700  1.00  0.00     0.074 A 
ATOM     90  C   UNL A   1      42.580  27.543  31.441  1.00  0.00    -0.036 A 
ATOM     91  N   UNL A   1      41.540  29.178  32.533  1.00  0.00    -0.354 N 
ATOM     92  N   UNL A   1      41.132  31.049  34.763  1.00  0.00    -0.248 NA
ATOM     93  C   UNL A   1      41.702  31.827  36.889  1.00  0.00    -0.034 C 
ATOM     94  C   UNL A   1      43.205  27.714  32.681  1.00  0.00    -0.036 A 
ATOM     95  H   UNL A   1      42.857  26.867  30.712  1.00  0.00     0.065 H 
ATOM     96  C   UNL A   1      42.572  28.748  33.352  1.00  0.00     0.049 A 
ATOM     97  H   UNL A   1      40.910  29.902  32.750  1.00  0.00     0.167 HD
ATOM     98  C   UNL A   1      42.218  30.326  35.235  1.00  0.00     0.074 A 
ATOM     99  C   UNL A   1      42.546  30.868  36.537  1.00  0.00    -0.034 C 
ATOM    100  H   UNL A   1      41.659  32.368  37.767  1.00  0.00     0.065 H 
ATOM    101  H   UNL A   1      44.002  27.164  33.036  1.00  0.00     0.065 H 
ATOM    102  C   UNL A   1      42.885  29.304  34.643  1.00  0.00     0.037 A 
ATOM    103  H   UNL A   1      43.337  30.548  37.117  1.00  0.00     0.065 H 
BRANCH  84 104
ATOM    104  C   UNL A   1      40.648  27.679  29.118  1.00  0.00     0.064 A 
ATOM    105  C   UNL A   1      41.578  27.871  28.085  1.00  0.00     0.173 A 
ATOM    106  C   UNL A   1      39.802  26.562  29.038  1.00  0.00     0.173 A 
ATOM    107  F   UNL A   1      42.403  28.929  28.108  1.00  0.00    -0.203 F 
ATOM    108  C   UNL A   1      41.639  26.997  27.003  1.00  0.00     0.198 A 
ATOM    109  C   UNL A   1      39.887  25.673  27.970  1.00  0.00     0.198 A 
ATOM    110  F   UNL A   1      38.897  26.328  30.001  1.00  0.00    -0.203 F 
ATOM    111  F   UNL A   1      42.503  27.228  26.005  1.00  0.00    -0.200 F 
ATOM    112  C   UNL A   1      40.800  25.895  26.949  1.00  0.00     0.200 A 
ATOM    113  F   UNL A   1      39.083  24.601  27.926  1.00  0.00    -0.200 F 
ATOM    114  F   UNL A   1      40.864  25.051  25.911  1.00  0.00    -0.200 F 
ENDBRANCH  84 104
BRANCH  87 115
ATOM    115  C   UNL A   1      39.609  33.877  36.887  1.00  0.00     0.064 A 
ATOM    116  C   UNL A   1      40.234  35.131  36.923  1.00  0.00     0.173 A 
ATOM    117  C   UNL A   1      38.828  33.504  37.989  1.00  0.00     0.173 A 
ATOM    118  F   UNL A   1      41.009  35.521  35.900  1.00  0.00    -0.203 F 
ATOM    119  C   UNL A   1      40.100  35.970  38.026  1.00  0.00     0.198 A 
ATOM    120  C   UNL A   1      38.671  34.355  39.081  1.00  0.00     0.198 A 
ATOM    121  F   UNL A   1      38.210  32.314  38.003  1.00  0.00    -0.203 F 
ATOM    122  F   UNL A   1      40.745  37.144  38.055  1.00  0.00    -0.200 F 
ATOM    123  C   UNL A   1      39.313  35.584  39.102  1.00  0.00     0.200 A 
ATOM    124  F   UNL A   1      37.901  33.983  40.112  1.00  0.00    -0.200 F 
ATOM    125  F   UNL A   1      39.182  36.392  40.162  1.00  0.00    -0.200 F 
ENDBRANCH  87 115
BRANCH 102 126
ATOM    126  C   UNL A   1      44.053  28.726  35.386  1.00  0.00     0.064 A 
ATOM    127  C   UNL A   1      43.892  27.695  36.324  1.00  0.00     0.173 A 
ATOM    128  C   UNL A   1      45.356  29.179  35.124  1.00  0.00     0.173 A 
ATOM    129  F   UNL A   1      42.666  27.239  36.620  1.00  0.00    -0.203 F 
ATOM    130  C   UNL A   1      44.990  27.157  36.990  1.00  0.00     0.198 A 
ATOM    131  C   UNL A   1      46.453  28.618  35.770  1.00  0.00     0.198 A 
ATOM    132  F   UNL A   1      45.564  30.158  34.231  1.00  0.00    -0.203 F 
ATOM    133  F   UNL A   1      44.807  26.205  37.916  1.00  0.00    -0.200 F 
ATOM    134  C   UNL A   1      46.268  27.613  36.708  1.00  0.00     0.200 A 
ATOM    135  F   UNL A   1      47.689  29.052  35.488  1.00  0.00    -0.200 F 
ATOM    136  F   UNL A   1      47.324  27.089  37.345  1.00  0.00    -0.200 F 
ENDBRANCH 102 126
ENDBRANCH  67  70
ENDBRANCH  57  60
ENDBRANCH  53  56
ENDBRANCH  50  53
ENDBRANCH  47  50
ENDBRANCH  44  47
ENDBRANCH   1  44
TORSDOF 19
ENDMDL
MODEL 3
REMARK VINA RESULT:     -11.9      1.926      3.162
REMARK SMILES C/C(=N/OCc1ccccc1Nc1c(Cl)cccc1Cl)C(=O)NCCCCCCNC(=O)c1ccc(-c2c3nc(c(-c4c(F)c(F)c(F)c(F)c4F)c4ccc([nH]4)c(-c4c(F)c(F)c(F)c(F)c4F)c4nc(c(-c5c(F)c(F)c(F)c(F)c5F)c5ccc2[nH]5)C=C4)C=C3)cc1
REMARK SMILES IDX 25 1 24 4 23 7 21 8 22 9 2 11 3 12 1 13 4 17 5 18 6 21 7 22
REMARK SMILES IDX 11 23 8 24 10 26 9 27 12 31 13 33 14 34 19 35 15 36 16 37
REMARK SMILES IDX 18 38 20 39 17 40 26 44 27 47 28 50 29 53 30 56 31 57 32 59
REMARK SMILES IDX 33 60 34 61 95 62 35 63 94 65 36 67 37 70 38 71 88 72 39 73
REMARK SMILES IDX 93 74 87 75 89 76 40 77 92 78 86 80 85 82 41 84 73 87 53 88
REMARK SMILES IDX 72 89 54 90 57 91 71 92 90 93 55 94 56 96 70 98 91 99 58 102
REMARK SMILES IDX 42 104 43 105 51 106 44 107 45 108 49 109 52 110 46 111
REMARK SMILES IDX 47 112 50 113 48 114 74 115 75 116 83 117 76 118 77 119
REMARK SMILES IDX 81 120 84 121 78 122 79 123 82 124 80 125 59 126 60 127
REMARK SMILES IDX 68 128 61 129 62 130 66 131 69 132 63 133 64 134 67 135
REMARK SMILES IDX 65 136
REMARK H PARENT 25 2 25 3 24 5 24 6 23 10 1 14 1 15 1 16 5 19 5 20 7 25 8 28
REMARK H PARENT 10 29 9 30 12 32 16 41 18 42 17 43 26 45 26 46 27 48 27 49
REMARK H PARENT 28 51 28 52 29 54 29 55 30 58 34 64 95 66 35 68 94 69 93 79
REMARK H PARENT 87 81 89 83 92 85 86 86 54 95 57 97 90 100 55 101 91 103
REMARK Flexibility Score: inf
ROOT
ATOM      1  C   UNL A   1      30.129  26.722  23.606  1.00  0.00    -0.036 C 
ATOM      2  H   UNL A   1      30.367  27.020  24.606  1.00  0.00     0.028 H 
ATOM      3  H   UNL A   1      29.084  26.806  23.397  1.00  0.00     0.028 H 
ENDROOT
BRANCH   1   4
ATOM      4  C   UNL A   1      30.509  25.243  23.436  1.00  0.00     0.018 C 
ATOM      5  H   UNL A   1      30.003  24.657  24.175  1.00  0.00     0.049 H 
ATOM      6  H   UNL A   1      30.220  24.910  22.460  1.00  0.00     0.049 H 
BRANCH   4   7
ATOM      7  N   UNL A   1      31.937  25.093  23.595  1.00  0.00    -0.351 N 
ATOM      8  C   UNL A   1      32.749  25.222  24.690  1.00  0.00     0.268 C 
ATOM      9  O   UNL A   1      33.964  25.301  24.488  1.00  0.00    -0.268 OA
ATOM     10  H   UNL A   1      32.412  24.853  22.767  1.00  0.00     0.163 HD
BRANCH   8  11
ATOM     11  C   UNL A   1      32.318  25.131  26.145  1.00  0.00     0.141 C 
ATOM     12  N   UNL A   1      32.188  24.114  26.946  1.00  0.00    -0.086 NA
BRANCH  11  13
ATOM     13  C   UNL A   1      31.928  26.472  26.736  1.00  0.00    -0.013 C 
ATOM     14  H   UNL A   1      31.111  26.338  27.414  1.00  0.00     0.030 H 
ATOM     15  H   UNL A   1      31.634  27.135  25.950  1.00  0.00     0.030 H 
ATOM     16  H   UNL A   1      32.762  26.887  27.260  1.00  0.00     0.030 H 
ENDBRANCH  11  13
BRANCH  12  17
ATOM     17  O   UNL A   1      32.632  22.894  26.459  1.00  0.00    -0.390 OA
BRANCH  17  18
ATOM     18  C   UNL A   1      33.865  22.521  27.115  1.00  0.00     0.144 C 
ATOM     19  H   UNL A   1      33.691  21.607  27.642  1.00  0.00     0.079 H 
ATOM     20  H   UNL A   1      34.117  23.352  27.739  1.00  0.00     0.079 H 
BRANCH  18  21
ATOM     21  C   UNL A   1      35.081  22.311  26.208  1.00  0.00     0.016 A 
ATOM     22  C   UNL A   1      36.086  23.299  26.126  1.00  0.00    -0.053 A 
ATOM     23  C   UNL A   1      35.314  21.076  25.556  1.00  0.00     0.045 A 
ATOM     24  C   UNL A   1      37.282  23.088  25.442  1.00  0.00    -0.062 A 
ATOM     25  H   UNL A   1      35.929  24.208  26.589  1.00  0.00     0.063 H 
ATOM     26  C   UNL A   1      36.539  20.878  24.885  1.00  0.00    -0.038 A 
ATOM     27  C   UNL A   1      37.516  21.870  24.829  1.00  0.00    -0.060 A 
ATOM     28  H   UNL A   1      37.991  23.837  25.393  1.00  0.00     0.062 H 
ATOM     29  H   UNL A   1      36.717  19.973  24.422  1.00  0.00     0.064 H 
ATOM     30  H   UNL A   1      38.404  21.698  24.335  1.00  0.00     0.062 H 
BRANCH  23  31
ATOM     31  N   UNL A   1      34.350  20.038  25.588  1.00  0.00    -0.353 N 
ATOM     32  H   UNL A   1      34.022  19.788  26.482  1.00  0.00     0.167 HD
BRANCH  31  33
ATOM     33  C   UNL A   1      33.793  19.309  24.503  1.00  0.00     0.076 A 
ATOM     34  C   UNL A   1      34.240  17.993  24.249  1.00  0.00     0.066 A 
ATOM     35  C   UNL A   1      32.740  19.801  23.705  1.00  0.00     0.066 A 
ATOM     36  Cl  UNL A   1      35.535  17.303  25.174  1.00  0.00    -0.082 Cl
ATOM     37  C   UNL A   1      33.651  17.199  23.259  1.00  0.00    -0.041 A 
ATOM     38  C   UNL A   1      32.153  19.004  22.713  1.00  0.00    -0.041 A 
ATOM     39  Cl  UNL A   1      32.167  21.431  23.839  1.00  0.00    -0.082 Cl
ATOM     40  C   UNL A   1      32.602  17.704  22.495  1.00  0.00    -0.059 A 
ATOM     41  H   UNL A   1      33.995  16.240  23.093  1.00  0.00     0.064 H 
ATOM     42  H   UNL A   1      31.383  19.384  22.140  1.00  0.00     0.064 H 
ATOM     43  H   UNL A   1      32.159  17.117  21.772  1.00  0.00     0.062 H 
ENDBRANCH  31  33
ENDBRANCH  23  31
ENDBRANCH  18  21
ENDBRANCH  17  18
ENDBRANCH  12  17
ENDBRANCH   8  11
ENDBRANCH   4   7
ENDBRANCH   1   4
BRANCH   1  44
ATOM     44  C   UNL A   1      30.862  27.655  22.633  1.00  0.00    -0.052 C 
ATOM     45  H   UNL A   1      30.142  28.062  21.954  1.00  0.00     0.027 H 
ATOM     46  H   UNL A   1      31.607  27.063  22.145  1.00  0.00     0.027 H 
BRANCH  44  47
ATOM     47  C   UNL A   1      31.598  28.819  23.306  1.00  0.00    -0.052 C 
ATOM     48  H   UNL A   1      31.169  28.967  24.275  1.00  0.00     0.027 H 
ATOM     49  H   UNL A   1      31.482  29.661  22.656  1.00  0.00     0.027 H 
BRANCH  47  50
ATOM     50  C   UNL A   1      33.107  28.618  23.480  1.00  0.00    -0.036 C 
ATOM     51  H   UNL A   1      33.609  29.188  22.727  1.00  0.00     0.028 H 
ATOM     52  H   UNL A   1      33.285  27.566  23.398  1.00  0.00     0.028 H 
BRANCH  50  53
ATOM     53  C   UNL A   1      33.647  29.045  24.841  1.00  0.00     0.018 C 
ATOM     54  H   UNL A   1      34.678  29.311  24.737  1.00  0.00     0.049 H 
ATOM     55  H   UNL A   1      33.530  28.226  25.520  1.00  0.00     0.049 H 
BRANCH  53  56
ATOM     56  N   UNL A   1      32.917  30.185  25.375  1.00  0.00    -0.352 N 
ATOM     57  C   UNL A   1      33.075  30.837  26.572  1.00  0.00     0.251 C 
ATOM     58  H   UNL A   1      32.207  30.541  24.792  1.00  0.00     0.163 HD
ATOM     59  O   UNL A   1      32.220  31.621  26.970  1.00  0.00    -0.269 OA
BRANCH  57  60
ATOM     60  C   UNL A   1      34.281  30.589  27.390  1.00  0.00     0.039 A 
ATOM     61  C   UNL A   1      34.471  29.324  27.955  1.00  0.00    -0.049 A 
ATOM     62  C   UNL A   1      35.205  31.611  27.625  1.00  0.00    -0.049 A 
ATOM     63  C   UNL A   1      35.613  29.071  28.715  1.00  0.00    -0.053 A 
ATOM     64  H   UNL A   1      33.769  28.581  27.810  1.00  0.00     0.063 H 
ATOM     65  C   UNL A   1      36.375  31.339  28.327  1.00  0.00    -0.053 A 
ATOM     66  H   UNL A   1      35.019  32.566  27.279  1.00  0.00     0.063 H 
ATOM     67  C   UNL A   1      36.586  30.070  28.886  1.00  0.00    -0.014 A 
ATOM     68  H   UNL A   1      35.745  28.146  29.153  1.00  0.00     0.063 H 
ATOM     69  H   UNL A   1      37.091  32.075  28.437  1.00  0.00     0.063 H 
BRANCH  67  70
ATOM     70  C   UNL A   1      37.825  29.813  29.660  1.00  0.00     0.031 A 
ATOM     71  C   UNL A   1      38.877  28.890  29.111  1.00  0.00     0.074 A 
ATOM     72  C   UNL A   1      37.972  30.359  30.881  1.00  0.00     0.049 A 
ATOM     73  N   UNL A   1      39.990  28.479  29.665  1.00  0.00    -0.248 NA
ATOM     74  C   UNL A   1      38.632  28.332  27.772  1.00  0.00    -0.034 C 
ATOM     75  C   UNL A   1      37.000  31.236  31.537  1.00  0.00    -0.036 A 
ATOM     76  N   UNL A   1      38.992  30.251  31.793  1.00  0.00    -0.354 N 
ATOM     77  C   UNL A   1      40.564  27.603  28.754  1.00  0.00     0.074 A 
ATOM     78  C   UNL A   1      39.656  27.504  27.631  1.00  0.00    -0.034 C 
ATOM     79  H   UNL A   1      37.863  28.533  27.114  1.00  0.00     0.065 H 
ATOM     80  C   UNL A   1      37.482  31.607  32.733  1.00  0.00    -0.036 A 
ATOM     81  H   UNL A   1      36.091  31.523  31.142  1.00  0.00     0.065 H 
ATOM     82  C   UNL A   1      38.776  30.966  32.946  1.00  0.00     0.049 A 
ATOM     83  H   UNL A   1      39.800  29.713  31.635  1.00  0.00     0.167 HD
ATOM     84  C   UNL A   1      41.751  26.956  28.837  1.00  0.00     0.037 A 
ATOM     85  H   UNL A   1      39.789  26.871  26.827  1.00  0.00     0.065 H 
ATOM     86  H   UNL A   1      37.013  32.244  33.397  1.00  0.00     0.065 H 
ATOM     87  C   UNL A   1      39.537  31.082  34.051  1.00  0.00     0.037 A 
ATOM     88  C   UNL A   1      42.664  27.081  29.943  1.00  0.00     0.049 A 
ATOM     89  C   UNL A   1      40.855  30.360  34.115  1.00  0.00     0.074 A 
ATOM     90  C   UNL A   1      43.916  26.513  30.097  1.00  0.00    -0.036 A 
ATOM     91  N   UNL A   1      42.420  27.829  31.085  1.00  0.00    -0.354 N 
ATOM     92  N   UNL A   1      41.413  29.577  33.224  1.00  0.00    -0.248 NA
ATOM     93  C   UNL A   1      41.649  30.539  35.338  1.00  0.00    -0.034 C 
ATOM     94  C   UNL A   1      44.413  26.884  31.353  1.00  0.00    -0.036 A 
ATOM     95  H   UNL A   1      44.401  25.920  29.406  1.00  0.00     0.065 H 
ATOM     96  C   UNL A   1      43.491  27.722  31.959  1.00  0.00     0.049 A 
ATOM     97  H   UNL A   1      41.607  28.359  31.250  1.00  0.00     0.167 HD
ATOM     98  C   UNL A   1      42.632  29.192  33.764  1.00  0.00     0.074 A 
ATOM     99  C   UNL A   1      42.739  29.839  35.056  1.00  0.00    -0.034 C 
ATOM    100  H   UNL A   1      41.419  31.070  36.192  1.00  0.00     0.065 H 
ATOM    101  H   UNL A   1      45.312  26.583  31.758  1.00  0.00     0.065 H 
ATOM    102  C   UNL A   1      43.579  28.377  33.238  1.00  0.00     0.037 A 
ATOM    103  H   UNL A   1      43.559  29.763  35.677  1.00  0.00     0.065 H 
BRANCH  84 104
ATOM    104  C   UNL A   1      42.131  26.052  27.700  1.00  0.00     0.064 A 
ATOM    105  C   UNL A   1      43.056  26.447  26.721  1.00  0.00     0.173 A 
ATOM    106  C   UNL A   1      41.591  24.760  27.607  1.00  0.00     0.173 A 
ATOM    107  F   UNL A   1      43.593  27.675  26.758  1.00  0.00    -0.203 F 
ATOM    108  C   UNL A   1      43.403  25.594  25.677  1.00  0.00     0.198 A 
ATOM    109  C   UNL A   1      41.964  23.899  26.578  1.00  0.00     0.198 A 
ATOM    110  F   UNL A   1      40.707  24.329  28.519  1.00  0.00    -0.203 F 
ATOM    111  F   UNL A   1      44.251  26.012  24.726  1.00  0.00    -0.200 F 
ATOM    112  C   UNL A   1      42.863  24.319  25.609  1.00  0.00     0.200 A 
ATOM    113  F   UNL A   1      41.451  22.662  26.522  1.00  0.00    -0.200 F 
ATOM    114  F   UNL A   1      43.204  23.497  24.607  1.00  0.00    -0.200 F 
ENDBRANCH  84 104
BRANCH  87 115
ATOM    115  C   UNL A   1      39.078  31.934  35.178  1.00  0.00     0.064 A 
ATOM    116  C   UNL A   1      39.337  33.312  35.190  1.00  0.00     0.173 A 
ATOM    117  C   UNL A   1      38.377  31.392  36.263  1.00  0.00     0.173 A 
ATOM    118  F   UNL A   1      40.024  33.872  34.183  1.00  0.00    -0.203 F 
ATOM    119  C   UNL A   1      38.927  34.112  36.254  1.00  0.00     0.198 A 
ATOM    120  C   UNL A   1      37.943  32.197  37.315  1.00  0.00     0.198 A 
ATOM    121  F   UNL A   1      38.105  30.079  36.299  1.00  0.00    -0.203 F 
ATOM    122  F   UNL A   1      39.227  35.417  36.262  1.00  0.00    -0.200 F 
ATOM    123  C   UNL A   1      38.225  33.555  37.313  1.00  0.00     0.200 A 
ATOM    124  F   UNL A   1      37.255  31.656  38.328  1.00  0.00    -0.200 F 
ATOM    125  F   UNL A   1      37.829  34.324  38.335  1.00  0.00    -0.200 F 
ENDBRANCH  87 115
BRANCH 102 126
ATOM    126  C   UNL A   1      44.825  28.161  34.046  1.00  0.00     0.064 A 
ATOM    127  C   UNL A   1      44.964  27.062  34.906  1.00  0.00     0.173 A 
ATOM    128  C   UNL A   1      45.910  29.044  33.926  1.00  0.00     0.173 A 
ATOM    129  F   UNL A   1      43.949  26.200  35.067  1.00  0.00    -0.203 F 
ATOM    130  C   UNL A   1      46.134  26.867  35.634  1.00  0.00     0.198 A 
ATOM    131  C   UNL A   1      47.090  28.829  34.632  1.00  0.00     0.198 A 
ATOM    132  F   UNL A   1      45.831  30.106  33.112  1.00  0.00    -0.203 F 
ATOM    133  F   UNL A   1      46.227  25.835  36.485  1.00  0.00    -0.200 F 
ATOM    134  C   UNL A   1      47.198  27.745  35.491  1.00  0.00     0.200 A 
ATOM    135  F   UNL A   1      48.121  29.672  34.484  1.00  0.00    -0.200 F 
ATOM    136  F   UNL A   1      48.327  27.552  36.187  1.00  0.00    -0.200 F 
ENDBRANCH 102 126
ENDBRANCH  67  70
ENDBRANCH  57  60
ENDBRANCH  53  56
ENDBRANCH  50  53
ENDBRANCH  47  50
ENDBRANCH  44  47
ENDBRANCH   1  44
TORSDOF 19
ENDMDL
MODEL 4
REMARK VINA RESULT:     -11.7      5.580     11.314
REMARK SMILES C/C(=N/OCc1ccccc1Nc1c(Cl)cccc1Cl)C(=O)NCCCCCCNC(=O)c1ccc(-c2c3nc(c(-c4c(F)c(F)c(F)c(F)c4F)c4ccc([nH]4)c(-c4c(F)c(F)c(F)c(F)c4F)c4nc(c(-c5c(F)c(F)c(F)c(F)c5F)c5ccc2[nH]5)C=C4)C=C3)cc1
REMARK SMILES IDX 25 1 24 4 23 7 21 8 22 9 2 11 3 12 1 13 4 17 5 18 6 21 7 22
REMARK SMILES IDX 11 23 8 24 10 26 9 27 12 31 13 33 14 34 19 35 15 36 16 37
REMARK SMILES IDX 18 38 20 39 17 40 26 44 27 47 28 50 29 53 30 56 31 57 32 59
REMARK SMILES IDX 33 60 34 61 95 62 35 63 94 65 36 67 37 70 38 71 88 72 39 73
REMARK SMILES IDX 93 74 87 75 89 76 40 77 92 78 86 80 85 82 41 84 73 87 53 88
REMARK SMILES IDX 72 89 54 90 57 91 71 92 90 93 55 94 56 96 70 98 91 99 58 102
REMARK SMILES IDX 42 104 43 105 51 106 44 107 45 108 49 109 52 110 46 111
REMARK SMILES IDX 47 112 50 113 48 114 74 115 75 116 83 117 76 118 77 119
REMARK SMILES IDX 81 120 84 121 78 122 79 123 82 124 80 125 59 126 60 127
REMARK SMILES IDX 68 128 61 129 62 130 66 131 69 132 63 133 64 134 67 135
REMARK SMILES IDX 65 136
REMARK H PARENT 25 2 25 3 24 5 24 6 23 10 1 14 1 15 1 16 5 19 5 20 7 25 8 28
REMARK H PARENT 10 29 9 30 12 32 16 41 18 42 17 43 26 45 26 46 27 48 27 49
REMARK H PARENT 28 51 28 52 29 54 29 55 30 58 34 64 95 66 35 68 94 69 93 79
REMARK H PARENT 87 81 89 83 92 85 86 86 54 95 57 97 90 100 55 101 91 103
REMARK Flexibility Score: inf
ROOT
ATOM      1  C   UNL A   1      36.476  22.656  24.044  1.00  0.00    -0.036 C 
ATOM      2  H   UNL A   1      36.942  23.616  23.963  1.00  0.00     0.028 H 
ATOM      3  H   UNL A   1      36.307  22.207  23.088  1.00  0.00     0.028 H 
ENDROOT
BRANCH   1   4
ATOM      4  C   UNL A   1      35.103  22.836  24.710  1.00  0.00     0.018 C 
ATOM      5  H   UNL A   1      35.153  22.502  25.726  1.00  0.00     0.049 H 
ATOM      6  H   UNL A   1      34.830  23.870  24.690  1.00  0.00     0.049 H 
BRANCH   4   7
ATOM      7  N   UNL A   1      34.117  22.060  23.994  1.00  0.00    -0.351 N 
ATOM      8  C   UNL A   1      32.754  21.997  24.103  1.00  0.00     0.268 C 
ATOM      9  O   UNL A   1      32.185  21.052  23.551  1.00  0.00    -0.268 OA
ATOM     10  H   UNL A   1      34.494  21.471  23.302  1.00  0.00     0.163 HD
BRANCH   8  11
ATOM     11  C   UNL A   1      31.851  23.056  24.715  1.00  0.00     0.141 C 
ATOM     12  N   UNL A   1      31.674  24.312  24.428  1.00  0.00    -0.086 NA
BRANCH  11  13
ATOM     13  C   UNL A   1      31.058  22.548  25.904  1.00  0.00    -0.013 C 
ATOM     14  H   UNL A   1      30.072  22.279  25.585  1.00  0.00     0.030 H 
ATOM     15  H   UNL A   1      30.996  23.316  26.646  1.00  0.00     0.030 H 
ATOM     16  H   UNL A   1      31.545  21.691  26.318  1.00  0.00     0.030 H 
ENDBRANCH  11  13
BRANCH  12  17
ATOM     17  O   UNL A   1      32.313  24.772  23.286  1.00  0.00    -0.390 OA
BRANCH  17  18
ATOM     18  C   UNL A   1      33.219  25.845  23.628  1.00  0.00     0.144 C 
ATOM     19  H   UNL A   1      33.283  26.500  22.784  1.00  0.00     0.079 H 
ATOM     20  H   UNL A   1      34.140  25.366  23.888  1.00  0.00     0.079 H 
BRANCH  18  21
ATOM     21  C   UNL A   1      32.843  26.691  24.847  1.00  0.00     0.016 A 
ATOM     22  C   UNL A   1      33.803  26.970  25.843  1.00  0.00    -0.053 A 
ATOM     23  C   UNL A   1      31.589  27.345  24.936  1.00  0.00     0.045 A 
ATOM     24  C   UNL A   1      33.556  27.863  26.885  1.00  0.00    -0.062 A 
ATOM     25  H   UNL A   1      34.719  26.497  25.798  1.00  0.00     0.063 H 
ATOM     26  C   UNL A   1      31.368  28.257  25.989  1.00  0.00    -0.038 A 
ATOM     27  C   UNL A   1      32.340  28.518  26.953  1.00  0.00    -0.060 A 
ATOM     28  H   UNL A   1      34.277  28.034  27.604  1.00  0.00     0.062 H 
ATOM     29  H   UNL A   1      30.461  28.745  26.047  1.00  0.00     0.064 H 
ATOM     30  H   UNL A   1      32.153  29.192  27.711  1.00  0.00     0.062 H 
BRANCH  23  31
ATOM     31  N   UNL A   1      30.573  27.112  23.976  1.00  0.00    -0.353 N 
ATOM     32  H   UNL A   1      30.360  26.167  23.802  1.00  0.00     0.167 HD
BRANCH  31  33
ATOM     33  C   UNL A   1      29.823  28.060  23.230  1.00  0.00     0.076 A 
ATOM     34  C   UNL A   1      28.411  28.000  23.249  1.00  0.00     0.066 A 
ATOM     35  C   UNL A   1      30.415  29.131  22.529  1.00  0.00     0.066 A 
ATOM     36  Cl  UNL A   1      27.592  26.715  24.080  1.00  0.00    -0.082 Cl
ATOM     37  C   UNL A   1      27.629  28.970  22.616  1.00  0.00    -0.041 A 
ATOM     38  C   UNL A   1      29.629  30.102  21.895  1.00  0.00    -0.041 A 
ATOM     39  Cl  UNL A   1      32.132  29.268  22.337  1.00  0.00    -0.082 Cl
ATOM     40  C   UNL A   1      28.239  30.026  21.944  1.00  0.00    -0.059 A 
ATOM     41  H   UNL A   1      26.599  28.903  22.645  1.00  0.00     0.064 H 
ATOM     42  H   UNL A   1      30.083  30.877  21.386  1.00  0.00     0.064 H 
ATOM     43  H   UNL A   1      27.664  30.749  21.485  1.00  0.00     0.062 H 
ENDBRANCH  31  33
ENDBRANCH  23  31
ENDBRANCH  18  21
ENDBRANCH  17  18
ENDBRANCH  12  17
ENDBRANCH   8  11
ENDBRANCH   4   7
ENDBRANCH   1   4
BRANCH   1  44
ATOM     44  C   UNL A   1      37.414  21.724  24.822  1.00  0.00    -0.052 C 
ATOM     45  H   UNL A   1      37.413  22.029  25.848  1.00  0.00     0.027 H 
ATOM     46  H   UNL A   1      38.377  21.807  24.363  1.00  0.00     0.027 H 
BRANCH  44  47
ATOM     47  C   UNL A   1      37.027  20.242  24.762  1.00  0.00    -0.052 C 
ATOM     48  H   UNL A   1      36.628  20.042  23.789  1.00  0.00     0.027 H 
ATOM     49  H   UNL A   1      36.321  20.086  25.550  1.00  0.00     0.027 H 
BRANCH  47  50
ATOM     50  C   UNL A   1      38.175  19.261  25.015  1.00  0.00    -0.036 C 
ATOM     51  H   UNL A   1      38.519  18.898  24.068  1.00  0.00     0.028 H 
ATOM     52  H   UNL A   1      37.783  18.487  25.641  1.00  0.00     0.028 H 
BRANCH  50  53
ATOM     53  C   UNL A   1      39.366  19.860  25.757  1.00  0.00     0.018 C 
ATOM     54  H   UNL A   1      39.042  20.193  26.721  1.00  0.00     0.049 H 
ATOM     55  H   UNL A   1      39.745  20.677  25.178  1.00  0.00     0.049 H 
BRANCH  53  56
ATOM     56  N   UNL A   1      40.436  18.889  25.927  1.00  0.00    -0.352 N 
ATOM     57  C   UNL A   1      41.783  19.098  26.081  1.00  0.00     0.251 C 
ATOM     58  H   UNL A   1      40.152  17.946  25.934  1.00  0.00     0.163 HD
ATOM     59  O   UNL A   1      42.573  18.166  25.968  1.00  0.00    -0.269 OA
BRANCH  57  60
ATOM     60  C   UNL A   1      42.288  20.455  26.379  1.00  0.00     0.039 A 
ATOM     61  C   UNL A   1      42.737  21.259  25.327  1.00  0.00    -0.049 A 
ATOM     62  C   UNL A   1      42.347  20.919  27.696  1.00  0.00    -0.049 A 
ATOM     63  C   UNL A   1      43.200  22.548  25.592  1.00  0.00    -0.053 A 
ATOM     64  H   UNL A   1      42.726  20.900  24.360  1.00  0.00     0.063 H 
ATOM     65  C   UNL A   1      42.746  22.227  27.951  1.00  0.00    -0.053 A 
ATOM     66  H   UNL A   1      42.096  20.293  28.477  1.00  0.00     0.063 H 
ATOM     67  C   UNL A   1      43.184  23.051  26.903  1.00  0.00    -0.014 A 
ATOM     68  H   UNL A   1      43.554  23.136  24.821  1.00  0.00     0.063 H 
ATOM     69  H   UNL A   1      42.720  22.594  28.916  1.00  0.00     0.063 H 
BRANCH  67  70
ATOM     70  C   UNL A   1      43.638  24.431  27.204  1.00  0.00     0.031 A 
ATOM     71  C   UNL A   1      42.666  25.440  27.749  1.00  0.00     0.074 A 
ATOM     72  C   UNL A   1      44.905  24.790  26.926  1.00  0.00     0.049 A 
ATOM     73  N   UNL A   1      42.848  26.712  28.005  1.00  0.00    -0.248 NA
ATOM     74  C   UNL A   1      41.301  24.964  28.017  1.00  0.00    -0.034 C 
ATOM     75  C   UNL A   1      45.927  23.911  26.356  1.00  0.00    -0.036 A 
ATOM     76  N   UNL A   1      45.548  25.993  27.079  1.00  0.00    -0.354 N 
ATOM     77  C   UNL A   1      41.619  27.188  28.442  1.00  0.00     0.074 A 
ATOM     78  C   UNL A   1      40.687  26.082  28.373  1.00  0.00    -0.034 C 
ATOM     79  H   UNL A   1      40.919  24.007  27.946  1.00  0.00     0.065 H 
ATOM     80  C   UNL A   1      47.074  24.595  26.232  1.00  0.00    -0.036 A 
ATOM     81  H   UNL A   1      45.787  22.923  26.092  1.00  0.00     0.065 H 
ATOM     82  C   UNL A   1      46.861  25.969  26.676  1.00  0.00     0.049 A 
ATOM     83  H   UNL A   1      45.110  26.795  27.443  1.00  0.00     0.167 HD
ATOM     84  C   UNL A   1      41.302  28.430  28.879  1.00  0.00     0.037 A 
ATOM     85  H   UNL A   1      39.678  26.156  28.575  1.00  0.00     0.065 H 
ATOM     86  H   UNL A   1      47.966  24.212  25.878  1.00  0.00     0.065 H 
ATOM     87  C   UNL A   1      47.783  26.950  26.662  1.00  0.00     0.037 A 
ATOM     88  C   UNL A   1      42.239  29.517  28.973  1.00  0.00     0.049 A 
ATOM     89  C   UNL A   1      47.408  28.319  27.162  1.00  0.00     0.074 A 
ATOM     90  C   UNL A   1      42.032  30.797  29.457  1.00  0.00    -0.036 A 
ATOM     91  N   UNL A   1      43.566  29.451  28.573  1.00  0.00    -0.354 N 
ATOM     92  N   UNL A   1      46.257  28.744  27.624  1.00  0.00    -0.248 NA
ATOM     93  C   UNL A   1      48.460  29.343  27.139  1.00  0.00    -0.034 C 
ATOM     94  C   UNL A   1      43.223  31.518  29.311  1.00  0.00    -0.036 A 
ATOM     95  H   UNL A   1      41.152  31.157  29.859  1.00  0.00     0.065 H 
ATOM     96  C   UNL A   1      44.185  30.673  28.781  1.00  0.00     0.049 A 
ATOM     97  H   UNL A   1      44.003  28.653  28.198  1.00  0.00     0.167 HD
ATOM     98  C   UNL A   1      46.452  30.073  27.972  1.00  0.00     0.074 A 
ATOM     99  C   UNL A   1      47.837  30.381  27.679  1.00  0.00    -0.034 C 
ATOM    100  H   UNL A   1      49.430  29.274  26.794  1.00  0.00     0.065 H 
ATOM    101  H   UNL A   1      43.360  32.511  29.555  1.00  0.00     0.065 H 
ATOM    102  C   UNL A   1      45.565  30.959  28.487  1.00  0.00     0.037 A 
ATOM    103  H   UNL A   1      48.281  31.293  27.868  1.00  0.00     0.065 H 
BRANCH  84 104
ATOM    104  C   UNL A   1      39.879  28.679  29.291  1.00  0.00     0.064 A 
ATOM    105  C   UNL A   1      39.446  28.475  30.610  1.00  0.00     0.173 A 
ATOM    106  C   UNL A   1      38.944  29.163  28.363  1.00  0.00     0.173 A 
ATOM    107  F   UNL A   1      40.297  28.003  31.533  1.00  0.00    -0.203 F 
ATOM    108  C   UNL A   1      38.126  28.717  30.977  1.00  0.00     0.198 A 
ATOM    109  C   UNL A   1      37.632  29.434  28.741  1.00  0.00     0.198 A 
ATOM    110  F   UNL A   1      39.306  29.382  27.089  1.00  0.00    -0.203 F 
ATOM    111  F   UNL A   1      37.724  28.468  32.232  1.00  0.00    -0.200 F 
ATOM    112  C   UNL A   1      37.222  29.203  30.046  1.00  0.00     0.200 A 
ATOM    113  F   UNL A   1      36.763  29.916  27.842  1.00  0.00    -0.200 F 
ATOM    114  F   UNL A   1      35.952  29.443  30.403  1.00  0.00    -0.200 F 
ENDBRANCH  84 104
BRANCH  87 115
ATOM    115  C   UNL A   1      49.158  26.666  26.177  1.00  0.00     0.064 A 
ATOM    116  C   UNL A   1      49.522  26.935  24.850  1.00  0.00     0.173 A 
ATOM    117  C   UNL A   1      50.132  26.121  27.024  1.00  0.00     0.173 A 
ATOM    118  F   UNL A   1      48.617  27.436  23.997  1.00  0.00    -0.203 F 
ATOM    119  C   UNL A   1      50.804  26.651  24.384  1.00  0.00     0.198 A 
ATOM    120  C   UNL A   1      51.422  25.863  26.565  1.00  0.00     0.198 A 
ATOM    121  F   UNL A   1      49.833  25.846  28.302  1.00  0.00    -0.203 F 
ATOM    122  F   UNL A   1      51.112  26.875  23.100  1.00  0.00    -0.200 F 
ATOM    123  C   UNL A   1      51.755  26.121  25.244  1.00  0.00     0.200 A 
ATOM    124  F   UNL A   1      52.340  25.362  27.403  1.00  0.00    -0.200 F 
ATOM    125  F   UNL A   1      52.988  25.850  24.797  1.00  0.00    -0.200 F 
ENDBRANCH  87 115
BRANCH 102 126
ATOM    126  C   UNL A   1      46.072  32.337  28.796  1.00  0.00     0.064 A 
ATOM    127  C   UNL A   1      46.652  32.649  30.035  1.00  0.00     0.173 A 
ATOM    128  C   UNL A   1      46.016  33.348  27.823  1.00  0.00     0.173 A 
ATOM    129  F   UNL A   1      46.714  31.721  31.002  1.00  0.00    -0.203 F 
ATOM    130  C   UNL A   1      47.133  33.928  30.297  1.00  0.00     0.198 A 
ATOM    131  C   UNL A   1      46.526  34.617  28.079  1.00  0.00     0.198 A 
ATOM    132  F   UNL A   1      45.478  33.100  26.620  1.00  0.00    -0.203 F 
ATOM    133  F   UNL A   1      47.641  34.215  31.504  1.00  0.00    -0.200 F 
ATOM    134  C   UNL A   1      47.077  34.908  29.318  1.00  0.00     0.200 A 
ATOM    135  F   UNL A   1      46.482  35.560  27.127  1.00  0.00    -0.200 F 
ATOM    136  F   UNL A   1      47.549  36.137  29.570  1.00  0.00    -0.200 F 
ENDBRANCH 102 126
ENDBRANCH  67  70
ENDBRANCH  57  60
ENDBRANCH  53  56
ENDBRANCH  50  53
ENDBRANCH  47  50
ENDBRANCH  44  47
ENDBRANCH   1  44
TORSDOF 19
ENDMDL
MODEL 5
REMARK VINA RESULT:     -11.7      2.700      8.226
REMARK SMILES C/C(=N/OCc1ccccc1Nc1c(Cl)cccc1Cl)C(=O)NCCCCCCNC(=O)c1ccc(-c2c3nc(c(-c4c(F)c(F)c(F)c(F)c4F)c4ccc([nH]4)c(-c4c(F)c(F)c(F)c(F)c4F)c4nc(c(-c5c(F)c(F)c(F)c(F)c5F)c5ccc2[nH]5)C=C4)C=C3)cc1
REMARK SMILES IDX 25 1 24 4 23 7 21 8 22 9 2 11 3 12 1 13 4 17 5 18 6 21 7 22
REMARK SMILES IDX 11 23 8 24 10 26 9 27 12 31 13 33 14 34 19 35 15 36 16 37
REMARK SMILES IDX 18 38 20 39 17 40 26 44 27 47 28 50 29 53 30 56 31 57 32 59
REMARK SMILES IDX 33 60 34 61 95 62 35 63 94 65 36 67 37 70 38 71 88 72 39 73
REMARK SMILES IDX 93 74 87 75 89 76 40 77 92 78 86 80 85 82 41 84 73 87 53 88
REMARK SMILES IDX 72 89 54 90 57 91 71 92 90 93 55 94 56 96 70 98 91 99 58 102
REMARK SMILES IDX 42 104 43 105 51 106 44 107 45 108 49 109 52 110 46 111
REMARK SMILES IDX 47 112 50 113 48 114 74 115 75 116 83 117 76 118 77 119
REMARK SMILES IDX 81 120 84 121 78 122 79 123 82 124 80 125 59 126 60 127
REMARK SMILES IDX 68 128 61 129 62 130 66 131 69 132 63 133 64 134 67 135
REMARK SMILES IDX 65 136
REMARK H PARENT 25 2 25 3 24 5 24 6 23 10 1 14 1 15 1 16 5 19 5 20 7 25 8 28
REMARK H PARENT 10 29 9 30 12 32 16 41 18 42 17 43 26 45 26 46 27 48 27 49
REMARK H PARENT 28 51 28 52 29 54 29 55 30 58 34 64 95 66 35 68 94 69 93 79
REMARK H PARENT 87 81 89 83 92 85 86 86 54 95 57 97 90 100 55 101 91 103
REMARK Flexibility Score: inf
ROOT
ATOM      1  C   UNL A   1      34.065  31.982  28.040  1.00  0.00    -0.036 C 
ATOM      2  H   UNL A   1      33.162  31.830  28.595  1.00  0.00     0.028 H 
ATOM      3  H   UNL A   1      33.886  32.459  27.100  1.00  0.00     0.028 H 
ENDROOT
BRANCH   1   4
ATOM      4  C   UNL A   1      34.690  30.611  27.743  1.00  0.00     0.018 C 
ATOM      5  H   UNL A   1      35.041  30.590  26.732  1.00  0.00     0.049 H 
ATOM      6  H   UNL A   1      35.511  30.440  28.408  1.00  0.00     0.049 H 
BRANCH   4   7
ATOM      7  N   UNL A   1      33.694  29.580  27.928  1.00  0.00    -0.351 N 
ATOM      8  C   UNL A   1      32.612  29.213  27.174  1.00  0.00     0.268 C 
ATOM      9  O   UNL A   1      31.777  28.475  27.703  1.00  0.00    -0.268 OA
ATOM     10  H   UNL A   1      33.817  29.044  28.744  1.00  0.00     0.163 HD
BRANCH   8  11
ATOM     11  C   UNL A   1      32.406  29.505  25.696  1.00  0.00     0.141 C 
ATOM     12  N   UNL A   1      33.076  29.145  24.642  1.00  0.00    -0.086 NA
BRANCH  11  13
ATOM     13  C   UNL A   1      31.228  30.423  25.429  1.00  0.00    -0.013 C 
ATOM     14  H   UNL A   1      31.279  31.267  26.085  1.00  0.00     0.030 H 
ATOM     15  H   UNL A   1      30.316  29.892  25.601  1.00  0.00     0.030 H 
ATOM     16  H   UNL A   1      31.260  30.758  24.414  1.00  0.00     0.030 H 
ENDBRANCH  11  13
BRANCH  12  17
ATOM     17  O   UNL A   1      34.096  28.229  24.852  1.00  0.00    -0.390 OA
BRANCH  17  18
ATOM     18  C   UNL A   1      33.537  26.925  25.130  1.00  0.00     0.144 C 
ATOM     19  H   UNL A   1      32.530  27.066  25.465  1.00  0.00     0.079 H 
ATOM     20  H   UNL A   1      34.188  26.486  25.856  1.00  0.00     0.079 H 
BRANCH  18  21
ATOM     21  C   UNL A   1      33.505  25.935  23.962  1.00  0.00     0.016 A 
ATOM     22  C   UNL A   1      34.287  24.761  24.004  1.00  0.00    -0.053 A 
ATOM     23  C   UNL A   1      32.587  26.080  22.893  1.00  0.00     0.045 A 
ATOM     24  C   UNL A   1      34.173  23.756  23.044  1.00  0.00    -0.062 A 
ATOM     25  H   UNL A   1      34.966  24.642  24.773  1.00  0.00     0.063 H 
ATOM     26  C   UNL A   1      32.476  25.043  21.943  1.00  0.00    -0.038 A 
ATOM     27  C   UNL A   1      33.257  23.891  22.017  1.00  0.00    -0.060 A 
ATOM     28  H   UNL A   1      34.769  22.915  23.099  1.00  0.00     0.062 H 
ATOM     29  H   UNL A   1      31.797  25.140  21.172  1.00  0.00     0.064 H 
ATOM     30  H   UNL A   1      33.152  23.146  21.311  1.00  0.00     0.062 H 
BRANCH  23  31
ATOM     31  N   UNL A   1      31.772  27.233  22.781  1.00  0.00    -0.353 N 
ATOM     32  H   UNL A   1      32.216  28.036  22.424  1.00  0.00     0.167 HD
BRANCH  31  33
ATOM     33  C   UNL A   1      30.400  27.386  23.115  1.00  0.00     0.076 A 
ATOM     34  C   UNL A   1      29.701  28.534  22.679  1.00  0.00     0.066 A 
ATOM     35  C   UNL A   1      29.659  26.398  23.796  1.00  0.00     0.066 A 
ATOM     36  Cl  UNL A   1      30.529  29.807  21.839  1.00  0.00    -0.082 Cl
ATOM     37  C   UNL A   1      28.328  28.682  22.895  1.00  0.00    -0.041 A 
ATOM     38  C   UNL A   1      28.282  26.548  24.012  1.00  0.00    -0.041 A 
ATOM     39  Cl  UNL A   1      30.408  24.991  24.477  1.00  0.00    -0.082 Cl
ATOM     40  C   UNL A   1      27.616  27.683  23.556  1.00  0.00    -0.059 A 
ATOM     41  H   UNL A   1      27.841  29.530  22.565  1.00  0.00     0.064 H 
ATOM     42  H   UNL A   1      27.759  25.812  24.513  1.00  0.00     0.064 H 
ATOM     43  H   UNL A   1      26.601  27.784  23.707  1.00  0.00     0.062 H 
ENDBRANCH  31  33
ENDBRANCH  23  31
ENDBRANCH  18  21
ENDBRANCH  17  18
ENDBRANCH  12  17
ENDBRANCH   8  11
ENDBRANCH   4   7
ENDBRANCH   1   4
BRANCH   1  44
ATOM     44  C   UNL A   1      34.983  32.907  28.850  1.00  0.00    -0.052 C 
ATOM     45  H   UNL A   1      35.998  32.661  28.616  1.00  0.00     0.027 H 
ATOM     46  H   UNL A   1      34.743  32.750  29.881  1.00  0.00     0.027 H 
BRANCH  44  47
ATOM     47  C   UNL A   1      34.777  34.401  28.575  1.00  0.00    -0.052 C 
ATOM     48  H   UNL A   1      34.926  34.570  27.529  1.00  0.00     0.027 H 
ATOM     49  H   UNL A   1      35.482  34.918  29.193  1.00  0.00     0.027 H 
BRANCH  47  50
ATOM     50  C   UNL A   1      33.397  34.946  28.953  1.00  0.00    -0.036 C 
ATOM     51  H   UNL A   1      32.921  34.235  29.596  1.00  0.00     0.028 H 
ATOM     52  H   UNL A   1      32.868  35.099  28.035  1.00  0.00     0.028 H 
BRANCH  50  53
ATOM     53  C   UNL A   1      33.424  36.293  29.669  1.00  0.00     0.018 C 
ATOM     54  H   UNL A   1      33.168  37.063  28.971  1.00  0.00     0.049 H 
ATOM     55  H   UNL A   1      34.409  36.444  30.060  1.00  0.00     0.049 H 
BRANCH  53  56
ATOM     56  N   UNL A   1      32.484  36.330  30.779  1.00  0.00    -0.352 N 
ATOM     57  C   UNL A   1      32.508  35.637  31.963  1.00  0.00     0.251 C 
ATOM     58  H   UNL A   1      31.720  36.940  30.663  1.00  0.00     0.163 HD
ATOM     59  O   UNL A   1      31.516  35.602  32.682  1.00  0.00    -0.269 OA
BRANCH  57  60
ATOM     60  C   UNL A   1      33.737  34.925  32.373  1.00  0.00     0.039 A 
ATOM     61  C   UNL A   1      33.640  33.605  32.821  1.00  0.00    -0.049 A 
ATOM     62  C   UNL A   1      34.977  35.570  32.344  1.00  0.00    -0.049 A 
ATOM     63  C   UNL A   1      34.794  32.915  33.194  1.00  0.00    -0.053 A 
ATOM     64  H   UNL A   1      32.719  33.143  32.875  1.00  0.00     0.063 H 
ATOM     65  C   UNL A   1      36.133  34.861  32.654  1.00  0.00    -0.053 A 
ATOM     66  H   UNL A   1      35.035  36.571  32.096  1.00  0.00     0.063 H 
ATOM     67  C   UNL A   1      36.052  33.530  33.090  1.00  0.00    -0.014 A 
ATOM     68  H   UNL A   1      34.723  31.948  33.549  1.00  0.00     0.063 H 
ATOM     69  H   UNL A   1      37.055  35.316  32.562  1.00  0.00     0.063 H 
BRANCH  67  70
ATOM     70  C   UNL A   1      37.296  32.805  33.447  1.00  0.00     0.031 A 
ATOM     71  C   UNL A   1      37.996  33.106  34.743  1.00  0.00     0.074 A 
ATOM     72  C   UNL A   1      37.826  31.925  32.578  1.00  0.00     0.049 A 
ATOM     73  N   UNL A   1      39.129  32.637  35.202  1.00  0.00    -0.248 NA
ATOM     74  C   UNL A   1      37.349  34.085  35.630  1.00  0.00    -0.034 C 
ATOM     75  C   UNL A   1      37.261  31.582  31.272  1.00  0.00    -0.036 A 
ATOM     76  N   UNL A   1      38.965  31.163  32.659  1.00  0.00    -0.354 N 
ATOM     77  C   UNL A   1      39.339  33.278  36.415  1.00  0.00     0.074 A 
ATOM     78  C   UNL A   1      38.242  34.203  36.602  1.00  0.00    -0.034 C 
ATOM     79  H   UNL A   1      36.437  34.558  35.524  1.00  0.00     0.065 H 
ATOM     80  C   UNL A   1      38.040  30.660  30.686  1.00  0.00    -0.036 A 
ATOM     81  H   UNL A   1      36.402  31.985  30.868  1.00  0.00     0.065 H 
ATOM     82  C   UNL A   1      39.178  30.375  31.555  1.00  0.00     0.049 A 
ATOM     83  H   UNL A   1      39.571  31.181  33.435  1.00  0.00     0.167 HD
ATOM     84  C   UNL A   1      40.346  33.096  37.303  1.00  0.00     0.037 A 
ATOM     85  H   UNL A   1      38.165  34.867  37.389  1.00  0.00     0.065 H 
ATOM     86  H   UNL A   1      37.863  30.222  29.767  1.00  0.00     0.065 H 
ATOM     87  C   UNL A   1      40.184  29.523  31.277  1.00  0.00     0.037 A 
ATOM     88  C   UNL A   1      41.419  32.154  37.126  1.00  0.00     0.049 A 
ATOM     89  C   UNL A   1      41.286  29.333  32.283  1.00  0.00     0.074 A 
ATOM     90  C   UNL A   1      42.456  31.853  37.992  1.00  0.00    -0.036 A 
ATOM     91  N   UNL A   1      41.592  31.358  36.003  1.00  0.00    -0.354 N 
ATOM     92  N   UNL A   1      41.446  29.904  33.452  1.00  0.00    -0.248 NA
ATOM     93  C   UNL A   1      42.346  28.379  31.931  1.00  0.00    -0.034 C 
ATOM     94  C   UNL A   1      43.280  30.905  37.374  1.00  0.00    -0.036 A 
ATOM     95  H   UNL A   1      42.596  32.256  38.931  1.00  0.00     0.065 H 
ATOM     96  C   UNL A   1      42.730  30.580  36.145  1.00  0.00     0.049 A 
ATOM     97  H   UNL A   1      40.994  31.347  35.221  1.00  0.00     0.167 HD
ATOM     98  C   UNL A   1      42.605  29.361  33.987  1.00  0.00     0.074 A 
ATOM     99  C   UNL A   1      43.102  28.404  33.019  1.00  0.00    -0.034 C 
ATOM    100  H   UNL A   1      42.469  27.832  31.065  1.00  0.00     0.065 H 
ATOM    101  H   UNL A   1      44.150  30.515  37.767  1.00  0.00     0.065 H 
ATOM    102  C   UNL A   1      43.205  29.630  35.172  1.00  0.00     0.037 A 
ATOM    103  H   UNL A   1      43.939  27.817  33.160  1.00  0.00     0.065 H 
BRANCH  84 104
ATOM    104  C   UNL A   1      40.335  33.936  38.548  1.00  0.00     0.064 A 
ATOM    105  C   UNL A   1      39.642  33.536  39.701  1.00  0.00     0.173 A 
ATOM    106  C   UNL A   1      41.055  35.139  38.602  1.00  0.00     0.173 A 
ATOM    107  F   UNL A   1      38.929  32.399  39.699  1.00  0.00    -0.203 F 
ATOM    108  C   UNL A   1      39.647  34.322  40.849  1.00  0.00     0.198 A 
ATOM    109  C   UNL A   1      41.083  35.907  39.762  1.00  0.00     0.198 A 
ATOM    110  F   UNL A   1      41.740  35.566  37.530  1.00  0.00    -0.203 F 
ATOM    111  F   UNL A   1      38.938  33.943  41.922  1.00  0.00    -0.200 F 
ATOM    112  C   UNL A   1      40.372  35.503  40.883  1.00  0.00     0.200 A 
ATOM    113  F   UNL A   1      41.796  37.042  39.796  1.00  0.00    -0.200 F 
ATOM    114  F   UNL A   1      40.382  36.255  41.992  1.00  0.00    -0.200 F 
ENDBRANCH  84 104
BRANCH  87 115
ATOM    115  C   UNL A   1      40.182  28.770  29.996  1.00  0.00     0.064 A 
ATOM    116  C   UNL A   1      40.812  29.289  28.856  1.00  0.00     0.173 A 
ATOM    117  C   UNL A   1      39.552  27.523  29.884  1.00  0.00     0.173 A 
ATOM    118  F   UNL A   1      41.408  30.489  28.909  1.00  0.00    -0.203 F 
ATOM    119  C   UNL A   1      40.795  28.597  27.647  1.00  0.00     0.198 A 
ATOM    120  C   UNL A   1      39.560  26.818  28.682  1.00  0.00     0.198 A 
ATOM    121  F   UNL A   1      38.936  26.985  30.946  1.00  0.00    -0.203 F 
ATOM    122  F   UNL A   1      41.365  29.136  26.561  1.00  0.00    -0.200 F 
ATOM    123  C   UNL A   1      40.175  27.359  27.563  1.00  0.00     0.200 A 
ATOM    124  F   UNL A   1      38.970  25.618  28.610  1.00  0.00    -0.200 F 
ATOM    125  F   UNL A   1      40.161  26.692  26.401  1.00  0.00    -0.200 F 
ENDBRANCH  87 115
BRANCH 102 126
ATOM    126  C   UNL A   1      44.449  28.859  35.502  1.00  0.00     0.064 A 
ATOM    127  C   UNL A   1      45.723  29.331  35.154  1.00  0.00     0.173 A 
ATOM    128  C   UNL A   1      44.368  27.652  36.214  1.00  0.00     0.173 A 
ATOM    129  F   UNL A   1      45.852  30.472  34.459  1.00  0.00    -0.203 F 
ATOM    130  C   UNL A   1      46.868  28.612  35.484  1.00  0.00     0.198 A 
ATOM    131  C   UNL A   1      45.516  26.951  36.570  1.00  0.00     0.198 A 
ATOM    132  F   UNL A   1      43.174  27.160  36.577  1.00  0.00    -0.203 F 
ATOM    133  F   UNL A   1      48.072  29.059  35.101  1.00  0.00    -0.200 F 
ATOM    134  C   UNL A   1      46.764  27.427  36.198  1.00  0.00     0.200 A 
ATOM    135  F   UNL A   1      45.415  25.812  37.269  1.00  0.00    -0.200 F 
ATOM    136  F   UNL A   1      47.868  26.740  36.522  1.00  0.00    -0.200 F 
ENDBRANCH 102 126
ENDBRANCH  67  70
ENDBRANCH  57  60
ENDBRANCH  53  56
ENDBRANCH  50  53
ENDBRANCH  47  50
ENDBRANCH  44  47
ENDBRANCH   1  44
TORSDOF 19
ENDMDL
MODEL 6
REMARK VINA RESULT:     -11.7      1.595      7.324
REMARK SMILES C/C(=N/OCc1ccccc1Nc1c(Cl)cccc1Cl)C(=O)NCCCCCCNC(=O)c1ccc(-c2c3nc(c(-c4c(F)c(F)c(F)c(F)c4F)c4ccc([nH]4)c(-c4c(F)c(F)c(F)c(F)c4F)c4nc(c(-c5c(F)c(F)c(F)c(F)c5F)c5ccc2[nH]5)C=C4)C=C3)cc1
REMARK SMILES IDX 25 1 24 4 23 7 21 8 22 9 2 11 3 12 1 13 4 17 5 18 6 21 7 22
REMARK SMILES IDX 11 23 8 24 10 26 9 27 12 31 13 33 14 34 19 35 15 36 16 37
REMARK SMILES IDX 18 38 20 39 17 40 26 44 27 47 28 50 29 53 30 56 31 57 32 59
REMARK SMILES IDX 33 60 34 61 95 62 35 63 94 65 36 67 37 70 38 71 88 72 39 73
REMARK SMILES IDX 93 74 87 75 89 76 40 77 92 78 86 80 85 82 41 84 73 87 53 88
REMARK SMILES IDX 72 89 54 90 57 91 71 92 90 93 55 94 56 96 70 98 91 99 58 102
REMARK SMILES IDX 42 104 43 105 51 106 44 107 45 108 49 109 52 110 46 111
REMARK SMILES IDX 47 112 50 113 48 114 74 115 75 116 83 117 76 118 77 119
REMARK SMILES IDX 81 120 84 121 78 122 79 123 82 124 80 125 59 126 60 127
REMARK SMILES IDX 68 128 61 129 62 130 66 131 69 132 63 133 64 134 67 135
REMARK SMILES IDX 65 136
REMARK H PARENT 25 2 25 3 24 5 24 6 23 10 1 14 1 15 1 16 5 19 5 20 7 25 8 28
REMARK H PARENT 10 29 9 30 12 32 16 41 18 42 17 43 26 45 26 46 27 48 27 49
REMARK H PARENT 28 51 28 52 29 54 29 55 30 58 34 64 95 66 35 68 94 69 93 79
REMARK H PARENT 87 81 89 83 92 85 86 86 54 95 57 97 90 100 55 101 91 103
REMARK Flexibility Score: inf
ROOT
ATOM      1  C   UNL A   1      33.648  31.588  27.619  1.00  0.00    -0.036 C 
ATOM      2  H   UNL A   1      32.607  31.561  27.867  1.00  0.00     0.028 H 
ATOM      3  H   UNL A   1      33.846  32.205  26.768  1.00  0.00     0.028 H 
ENDROOT
BRANCH   1   4
ATOM      4  C   UNL A   1      34.101  30.164  27.263  1.00  0.00     0.018 C 
ATOM      5  H   UNL A   1      34.119  30.051  26.199  1.00  0.00     0.049 H 
ATOM      6  H   UNL A   1      35.082  29.993  27.655  1.00  0.00     0.049 H 
BRANCH   4   7
ATOM      7  N   UNL A   1      33.178  29.211  27.835  1.00  0.00    -0.351 N 
ATOM      8  C   UNL A   1      32.267  28.368  27.258  1.00  0.00     0.268 C 
ATOM      9  O   UNL A   1      31.422  27.856  27.998  1.00  0.00    -0.268 OA
ATOM     10  H   UNL A   1      33.212  29.157  28.817  1.00  0.00     0.163 HD
BRANCH   8  11
ATOM     11  C   UNL A   1      32.278  27.881  25.818  1.00  0.00     0.141 C 
ATOM     12  N   UNL A   1      32.915  26.906  25.240  1.00  0.00    -0.086 NA
BRANCH  11  13
ATOM     13  C   UNL A   1      31.422  28.728  24.896  1.00  0.00    -0.013 C 
ATOM     14  H   UNL A   1      31.796  28.655  23.896  1.00  0.00     0.030 H 
ATOM     15  H   UNL A   1      31.457  29.749  25.216  1.00  0.00     0.030 H 
ATOM     16  H   UNL A   1      30.412  28.379  24.926  1.00  0.00     0.030 H 
ENDBRANCH  11  13
BRANCH  12  17
ATOM     17  O   UNL A   1      33.625  26.059  26.079  1.00  0.00    -0.390 OA
BRANCH  17  18
ATOM     18  C   UNL A   1      33.373  24.683  25.717  1.00  0.00     0.144 C 
ATOM     19  H   UNL A   1      32.873  24.680  24.771  1.00  0.00     0.079 H 
ATOM     20  H   UNL A   1      32.799  24.277  26.523  1.00  0.00     0.079 H 
BRANCH  18  21
ATOM     21  C   UNL A   1      34.602  23.776  25.596  1.00  0.00     0.016 A 
ATOM     22  C   UNL A   1      35.898  24.311  25.751  1.00  0.00    -0.053 A 
ATOM     23  C   UNL A   1      34.476  22.370  25.488  1.00  0.00     0.045 A 
ATOM     24  C   UNL A   1      37.034  23.506  25.808  1.00  0.00    -0.062 A 
ATOM     25  H   UNL A   1      36.009  25.335  25.824  1.00  0.00     0.063 H 
ATOM     26  C   UNL A   1      35.637  21.572  25.566  1.00  0.00    -0.038 A 
ATOM     27  C   UNL A   1      36.903  22.131  25.728  1.00  0.00    -0.060 A 
ATOM     28  H   UNL A   1      37.969  23.932  25.910  1.00  0.00     0.062 H 
ATOM     29  H   UNL A   1      35.546  20.546  25.502  1.00  0.00     0.064 H 
ATOM     30  H   UNL A   1      37.736  21.524  25.786  1.00  0.00     0.062 H 
BRANCH  23  31
ATOM     31  N   UNL A   1      33.208  21.759  25.325  1.00  0.00    -0.353 N 
ATOM     32  H   UNL A   1      32.524  22.015  25.985  1.00  0.00     0.167 HD
BRANCH  31  33
ATOM     33  C   UNL A   1      32.793  20.824  24.339  1.00  0.00     0.076 A 
ATOM     34  C   UNL A   1      32.467  21.281  23.042  1.00  0.00     0.066 A 
ATOM     35  C   UNL A   1      32.770  19.432  24.559  1.00  0.00     0.066 A 
ATOM     36  Cl  UNL A   1      32.462  22.977  22.677  1.00  0.00    -0.082 Cl
ATOM     37  C   UNL A   1      32.153  20.391  22.010  1.00  0.00    -0.041 A 
ATOM     38  C   UNL A   1      32.453  18.542  23.524  1.00  0.00    -0.041 A 
ATOM     39  Cl  UNL A   1      33.044  18.743  26.126  1.00  0.00    -0.082 Cl
ATOM     40  C   UNL A   1      32.153  19.019  22.250  1.00  0.00    -0.059 A 
ATOM     41  H   UNL A   1      31.920  20.750  21.071  1.00  0.00     0.064 H 
ATOM     42  H   UNL A   1      32.442  17.526  23.707  1.00  0.00     0.064 H 
ATOM     43  H   UNL A   1      31.932  18.360  21.489  1.00  0.00     0.062 H 
ENDBRANCH  31  33
ENDBRANCH  23  31
ENDBRANCH  18  21
ENDBRANCH  17  18
ENDBRANCH  12  17
ENDBRANCH   8  11
ENDBRANCH   4   7
ENDBRANCH   1   4
BRANCH   1  44
ATOM     44  C   UNL A   1      34.413  32.193  28.804  1.00  0.00    -0.052 C 
ATOM     45  H   UNL A   1      35.401  31.781  28.810  1.00  0.00     0.027 H 
ATOM     46  H   UNL A   1      33.855  31.952  29.684  1.00  0.00     0.027 H 
BRANCH  44  47
ATOM     47  C   UNL A   1      34.532  33.721  28.767  1.00  0.00    -0.052 C 
ATOM     48  H   UNL A   1      34.988  33.996  27.839  1.00  0.00     0.027 H 
ATOM     49  H   UNL A   1      35.112  33.996  29.623  1.00  0.00     0.027 H 
BRANCH  47  50
ATOM     50  C   UNL A   1      33.206  34.478  28.888  1.00  0.00    -0.036 C 
ATOM     51  H   UNL A   1      32.613  33.995  29.635  1.00  0.00     0.028 H 
ATOM     52  H   UNL A   1      32.755  34.458  27.918  1.00  0.00     0.028 H 
BRANCH  50  53
ATOM     53  C   UNL A   1      33.351  35.948  29.270  1.00  0.00     0.018 C 
ATOM     54  H   UNL A   1      33.053  36.553  28.440  1.00  0.00     0.049 H 
ATOM     55  H   UNL A   1      34.375  36.127  29.527  1.00  0.00     0.049 H 
BRANCH  53  56
ATOM     56  N   UNL A   1      32.528  36.286  30.422  1.00  0.00    -0.352 N 
ATOM     57  C   UNL A   1      32.606  35.825  31.712  1.00  0.00     0.251 C 
ATOM     58  H   UNL A   1      31.812  36.941  30.250  1.00  0.00     0.163 HD
ATOM     59  O   UNL A   1      31.687  36.026  32.499  1.00  0.00    -0.269 OA
BRANCH  57  60
ATOM     60  C   UNL A   1      33.801  35.077  32.155  1.00  0.00     0.039 A 
ATOM     61  C   UNL A   1      33.652  33.762  32.604  1.00  0.00    -0.049 A 
ATOM     62  C   UNL A   1      35.061  35.684  32.156  1.00  0.00    -0.049 A 
ATOM     63  C   UNL A   1      34.775  33.039  33.008  1.00  0.00    -0.053 A 
ATOM     64  H   UNL A   1      32.716  33.328  32.636  1.00  0.00     0.063 H 
ATOM     65  C   UNL A   1      36.186  34.941  32.497  1.00  0.00    -0.053 A 
ATOM     66  H   UNL A   1      35.155  36.681  31.906  1.00  0.00     0.063 H 
ATOM     67  C   UNL A   1      36.054  33.615  32.934  1.00  0.00    -0.014 A 
ATOM     68  H   UNL A   1      34.666  32.076  33.363  1.00  0.00     0.063 H 
ATOM     69  H   UNL A   1      37.124  35.368  32.428  1.00  0.00     0.063 H 
BRANCH  67  70
ATOM     70  C   UNL A   1      37.265  32.853  33.326  1.00  0.00     0.031 A 
ATOM     71  C   UNL A   1      37.958  33.158  34.624  1.00  0.00     0.074 A 
ATOM     72  C   UNL A   1      37.774  31.935  32.484  1.00  0.00     0.049 A 
ATOM     73  N   UNL A   1      39.068  32.659  35.109  1.00  0.00    -0.248 NA
ATOM     74  C   UNL A   1      37.337  34.181  35.480  1.00  0.00    -0.034 C 
ATOM     75  C   UNL A   1      37.214  31.583  31.178  1.00  0.00    -0.036 A 
ATOM     76  N   UNL A   1      38.883  31.135  32.598  1.00  0.00    -0.354 N 
ATOM     77  C   UNL A   1      39.285  33.319  36.310  1.00  0.00     0.074 A 
ATOM     78  C   UNL A   1      38.220  34.288  36.461  1.00  0.00    -0.034 C 
ATOM     79  H   UNL A   1      36.444  34.684  35.350  1.00  0.00     0.065 H 
ATOM     80  C   UNL A   1      37.967  30.620  30.624  1.00  0.00    -0.036 A 
ATOM     81  H   UNL A   1      36.376  32.007  30.753  1.00  0.00     0.065 H 
ATOM     82  C   UNL A   1      39.082  30.314  31.515  1.00  0.00     0.049 A 
ATOM     83  H   UNL A   1      39.479  31.148  33.381  1.00  0.00     0.167 HD
ATOM     84  C   UNL A   1      40.273  33.122  37.216  1.00  0.00     0.037 A 
ATOM     85  H   UNL A   1      38.157  34.972  37.231  1.00  0.00     0.065 H 
ATOM     86  H   UNL A   1      37.786  30.168  29.713  1.00  0.00     0.065 H 
ATOM     87  C   UNL A   1      40.059  29.420  31.270  1.00  0.00     0.037 A 
ATOM     88  C   UNL A   1      41.313  32.138  37.075  1.00  0.00     0.049 A 
ATOM     89  C   UNL A   1      41.140  29.213  32.295  1.00  0.00     0.074 A 
ATOM     90  C   UNL A   1      42.326  31.819  37.962  1.00  0.00    -0.036 A 
ATOM     91  N   UNL A   1      41.471  31.310  35.973  1.00  0.00    -0.354 N 
ATOM     92  N   UNL A   1      41.306  29.805  33.453  1.00  0.00    -0.248 NA
ATOM     93  C   UNL A   1      42.169  28.213  31.980  1.00  0.00    -0.034 C 
ATOM     94  C   UNL A   1      43.123  30.828  37.378  1.00  0.00    -0.036 A 
ATOM     95  H   UNL A   1      42.469  32.238  38.894  1.00  0.00     0.065 H 
ATOM     96  C   UNL A   1      42.578  30.495  36.148  1.00  0.00     0.049 A 
ATOM     97  H   UNL A   1      40.883  31.303  35.183  1.00  0.00     0.167 HD
ATOM     98  C   UNL A   1      42.437  29.233  34.016  1.00  0.00     0.074 A 
ATOM     99  C   UNL A   1      42.912  28.236  33.078  1.00  0.00    -0.034 C 
ATOM    100  H   UNL A   1      42.284  27.642  31.128  1.00  0.00     0.065 H 
ATOM    101  H   UNL A   1      43.973  30.416  37.792  1.00  0.00     0.065 H 
ATOM    102  C   UNL A   1      43.031  29.506  35.204  1.00  0.00     0.037 A 
ATOM    103  H   UNL A   1      43.724  27.622  33.244  1.00  0.00     0.065 H 
BRANCH  84 104
ATOM    104  C   UNL A   1      40.276  33.990  38.441  1.00  0.00     0.064 A 
ATOM    105  C   UNL A   1      40.989  35.197  38.489  1.00  0.00     0.173 A 
ATOM    106  C   UNL A   1      39.526  33.628  39.571  1.00  0.00     0.173 A 
ATOM    107  F   UNL A   1      41.730  35.584  37.440  1.00  0.00    -0.203 F 
ATOM    108  C   UNL A   1      40.976  35.994  39.630  1.00  0.00     0.198 A 
ATOM    109  C   UNL A   1      39.491  34.443  40.700  1.00  0.00     0.198 A 
ATOM    110  F   UNL A   1      38.820  32.487  39.578  1.00  0.00    -0.203 F 
ATOM    111  F   UNL A   1      41.705  37.118  39.669  1.00  0.00    -0.200 F 
ATOM    112  C   UNL A   1      40.222  35.621  40.732  1.00  0.00     0.200 A 
ATOM    113  F   UNL A   1      38.750  34.087  41.759  1.00  0.00    -0.200 F 
ATOM    114  F   UNL A   1      40.204  36.393  41.827  1.00  0.00    -0.200 F 
ENDBRANCH  84 104
BRANCH  87 115
ATOM    115  C   UNL A   1      40.047  28.639  30.006  1.00  0.00     0.064 A 
ATOM    116  C   UNL A   1      39.443  27.375  29.947  1.00  0.00     0.173 A 
ATOM    117  C   UNL A   1      40.638  29.136  28.836  1.00  0.00     0.173 A 
ATOM    118  F   UNL A   1      38.884  26.849  31.048  1.00  0.00    -0.203 F 
ATOM    119  C   UNL A   1      39.447  26.630  28.771  1.00  0.00     0.198 A 
ATOM    120  C   UNL A   1      40.617  28.401  27.652  1.00  0.00     0.198 A 
ATOM    121  F   UNL A   1      41.228  30.339  28.841  1.00  0.00    -0.203 F 
ATOM    122  F   UNL A   1      38.903  25.405  28.754  1.00  0.00    -0.200 F 
ATOM    123  C   UNL A   1      40.028  27.146  27.622  1.00  0.00     0.200 A 
ATOM    124  F   UNL A   1      41.170  28.910  26.543  1.00  0.00    -0.200 F 
ATOM    125  F   UNL A   1      40.031  26.430  26.490  1.00  0.00    -0.200 F 
ENDBRANCH  87 115
BRANCH 102 126
ATOM    126  C   UNL A   1      44.241  28.698  35.569  1.00  0.00     0.064 A 
ATOM    127  C   UNL A   1      45.536  29.111  35.219  1.00  0.00     0.173 A 
ATOM    128  C   UNL A   1      44.107  27.517  36.315  1.00  0.00     0.173 A 
ATOM    129  F   UNL A   1      45.714  30.225  34.492  1.00  0.00    -0.203 F 
ATOM    130  C   UNL A   1      46.649  28.358  35.582  1.00  0.00     0.198 A 
ATOM    131  C   UNL A   1      45.224  26.783  36.702  1.00  0.00     0.198 A 
ATOM    132  F   UNL A   1      42.892  27.082  36.680  1.00  0.00    -0.203 F 
ATOM    133  F   UNL A   1      47.872  28.748  35.197  1.00  0.00    -0.200 F 
ATOM    134  C   UNL A   1      46.493  27.200  36.329  1.00  0.00     0.200 A 
ATOM    135  F   UNL A   1      45.073  25.670  37.434  1.00  0.00    -0.200 F 
ATOM    136  F   UNL A   1      47.567  26.481  36.683  1.00  0.00    -0.200 F 
ENDBRANCH 102 126
ENDBRANCH  67  70
ENDBRANCH  57  60
ENDBRANCH  53  56
ENDBRANCH  50  53
ENDBRANCH  47  50
ENDBRANCH  44  47
ENDBRANCH   1  44
TORSDOF 19
ENDMDL
MODEL 7
REMARK VINA RESULT:     -11.6      5.478     12.613
REMARK SMILES C/C(=N/OCc1ccccc1Nc1c(Cl)cccc1Cl)C(=O)NCCCCCCNC(=O)c1ccc(-c2c3nc(c(-c4c(F)c(F)c(F)c(F)c4F)c4ccc([nH]4)c(-c4c(F)c(F)c(F)c(F)c4F)c4nc(c(-c5c(F)c(F)c(F)c(F)c5F)c5ccc2[nH]5)C=C4)C=C3)cc1
REMARK SMILES IDX 25 1 24 4 23 7 21 8 22 9 2 11 3 12 1 13 4 17 5 18 6 21 7 22
REMARK SMILES IDX 11 23 8 24 10 26 9 27 12 31 13 33 14 34 19 35 15 36 16 37
REMARK SMILES IDX 18 38 20 39 17 40 26 44 27 47 28 50 29 53 30 56 31 57 32 59
REMARK SMILES IDX 33 60 34 61 95 62 35 63 94 65 36 67 37 70 38 71 88 72 39 73
REMARK SMILES IDX 93 74 87 75 89 76 40 77 92 78 86 80 85 82 41 84 73 87 53 88
REMARK SMILES IDX 72 89 54 90 57 91 71 92 90 93 55 94 56 96 70 98 91 99 58 102
REMARK SMILES IDX 42 104 43 105 51 106 44 107 45 108 49 109 52 110 46 111
REMARK SMILES IDX 47 112 50 113 48 114 74 115 75 116 83 117 76 118 77 119
REMARK SMILES IDX 81 120 84 121 78 122 79 123 82 124 80 125 59 126 60 127
REMARK SMILES IDX 68 128 61 129 62 130 66 131 69 132 63 133 64 134 67 135
REMARK SMILES IDX 65 136
REMARK H PARENT 25 2 25 3 24 5 24 6 23 10 1 14 1 15 1 16 5 19 5 20 7 25 8 28
REMARK H PARENT 10 29 9 30 12 32 16 41 18 42 17 43 26 45 26 46 27 48 27 49
REMARK H PARENT 28 51 28 52 29 54 29 55 30 58 34 64 95 66 35 68 94 69 93 79
REMARK H PARENT 87 81 89 83 92 85 86 86 54 95 57 97 90 100 55 101 91 103
REMARK Flexibility Score: inf
ROOT
ATOM      1  C   UNL A   1      47.382  27.187  30.581  1.00  0.00    -0.036 C 
ATOM      2  H   UNL A   1      46.325  27.315  30.693  1.00  0.00     0.028 H 
ATOM      3  H   UNL A   1      47.933  28.011  30.984  1.00  0.00     0.028 H 
ENDROOT
BRANCH   1   4
ATOM      4  C   UNL A   1      47.707  27.112  29.082  1.00  0.00     0.018 C 
ATOM      5  H   UNL A   1      46.824  26.847  28.538  1.00  0.00     0.049 H 
ATOM      6  H   UNL A   1      48.059  28.065  28.745  1.00  0.00     0.049 H 
BRANCH   4   7
ATOM      7  N   UNL A   1      48.728  26.113  28.862  1.00  0.00    -0.351 N 
ATOM      8  C   UNL A   1      49.000  25.311  27.786  1.00  0.00     0.268 C 
ATOM      9  O   UNL A   1      49.765  24.361  27.968  1.00  0.00    -0.268 OA
ATOM     10  H   UNL A   1      49.339  25.988  29.623  1.00  0.00     0.163 HD
BRANCH   8  11
ATOM     11  C   UNL A   1      48.569  25.558  26.349  1.00  0.00     0.141 C 
ATOM     12  N   UNL A   1      47.693  24.963  25.595  1.00  0.00    -0.086 NA
BRANCH  11  13
ATOM     13  C   UNL A   1      49.348  26.672  25.677  1.00  0.00    -0.013 C 
ATOM     14  H   UNL A   1      48.945  26.851  24.702  1.00  0.00     0.030 H 
ATOM     15  H   UNL A   1      50.376  26.388  25.592  1.00  0.00     0.030 H 
ATOM     16  H   UNL A   1      49.273  27.564  26.263  1.00  0.00     0.030 H 
ENDBRANCH  11  13
BRANCH  12  17
ATOM     17  O   UNL A   1      46.902  24.009  26.217  1.00  0.00    -0.390 OA
BRANCH  17  18
ATOM     18  C   UNL A   1      45.626  24.585  26.578  1.00  0.00     0.144 C 
ATOM     19  H   UNL A   1      44.963  24.458  25.747  1.00  0.00     0.079 H 
ATOM     20  H   UNL A   1      45.835  25.604  26.826  1.00  0.00     0.079 H 
BRANCH  18  21
ATOM     21  C   UNL A   1      44.940  23.998  27.814  1.00  0.00     0.016 A 
ATOM     22  C   UNL A   1      45.263  24.478  29.102  1.00  0.00    -0.053 A 
ATOM     23  C   UNL A   1      43.864  23.085  27.701  1.00  0.00     0.045 A 
ATOM     24  C   UNL A   1      44.556  24.091  30.239  1.00  0.00    -0.062 A 
ATOM     25  H   UNL A   1      46.049  25.139  29.204  1.00  0.00     0.063 H 
ATOM     26  C   UNL A   1      43.151  22.720  28.862  1.00  0.00    -0.038 A 
ATOM     27  C   UNL A   1      43.489  23.219  30.119  1.00  0.00    -0.060 A 
ATOM     28  H   UNL A   1      44.827  24.453  31.167  1.00  0.00     0.062 H 
ATOM     29  H   UNL A   1      42.357  22.066  28.780  1.00  0.00     0.064 H 
ATOM     30  H   UNL A   1      42.949  22.939  30.952  1.00  0.00     0.062 H 
BRANCH  23  31
ATOM     31  N   UNL A   1      43.484  22.555  26.443  1.00  0.00    -0.353 N 
ATOM     32  H   UNL A   1      43.323  23.216  25.732  1.00  0.00     0.167 HD
BRANCH  31  33
ATOM     33  C   UNL A   1      43.302  21.195  26.070  1.00  0.00     0.076 A 
ATOM     34  C   UNL A   1      44.351  20.505  25.423  1.00  0.00     0.066 A 
ATOM     35  C   UNL A   1      42.144  20.457  26.394  1.00  0.00     0.066 A 
ATOM     36  Cl  UNL A   1      45.811  21.330  24.980  1.00  0.00    -0.082 Cl
ATOM     37  C   UNL A   1      44.258  19.141  25.130  1.00  0.00    -0.041 A 
ATOM     38  C   UNL A   1      42.053  19.091  26.098  1.00  0.00    -0.041 A 
ATOM     39  Cl  UNL A   1      40.743  21.201  27.092  1.00  0.00    -0.082 Cl
ATOM     40  C   UNL A   1      43.110  18.432  25.474  1.00  0.00    -0.059 A 
ATOM     41  H   UNL A   1      45.040  18.660  24.657  1.00  0.00     0.064 H 
ATOM     42  H   UNL A   1      41.196  18.569  26.343  1.00  0.00     0.064 H 
ATOM     43  H   UNL A   1      43.043  17.424  25.269  1.00  0.00     0.062 H 
ENDBRANCH  31  33
ENDBRANCH  23  31
ENDBRANCH  18  21
ENDBRANCH  17  18
ENDBRANCH  12  17
ENDBRANCH   8  11
ENDBRANCH   4   7
ENDBRANCH   1   4
BRANCH   1  44
ATOM     44  C   UNL A   1      47.805  25.935  31.360  1.00  0.00    -0.052 C 
ATOM     45  H   UNL A   1      48.822  26.060  31.668  1.00  0.00     0.027 H 
ATOM     46  H   UNL A   1      47.668  25.104  30.701  1.00  0.00     0.027 H 
BRANCH  44  47
ATOM     47  C   UNL A   1      46.960  25.648  32.606  1.00  0.00    -0.052 C 
ATOM     48  H   UNL A   1      46.143  25.020  32.316  1.00  0.00     0.027 H 
ATOM     49  H   UNL A   1      46.649  26.601  32.982  1.00  0.00     0.027 H 
BRANCH  47  50
ATOM     50  C   UNL A   1      47.706  24.959  33.752  1.00  0.00    -0.036 C 
ATOM     51  H   UNL A   1      48.274  24.150  33.342  1.00  0.00     0.028 H 
ATOM     52  H   UNL A   1      46.961  24.635  34.449  1.00  0.00     0.028 H 
BRANCH  50  53
ATOM     53  C   UNL A   1      48.657  25.868  34.523  1.00  0.00     0.018 C 
ATOM     54  H   UNL A   1      48.549  26.870  34.163  1.00  0.00     0.049 H 
ATOM     55  H   UNL A   1      49.656  25.513  34.372  1.00  0.00     0.049 H 
BRANCH  53  56
ATOM     56  N   UNL A   1      48.380  25.848  35.952  1.00  0.00    -0.352 N 
ATOM     57  C   UNL A   1      47.384  26.479  36.653  1.00  0.00     0.251 C 
ATOM     58  H   UNL A   1      48.995  25.302  36.493  1.00  0.00     0.163 HD
ATOM     59  O   UNL A   1      47.437  26.554  37.876  1.00  0.00    -0.269 OA
BRANCH  57  60
ATOM     60  C   UNL A   1      46.242  27.079  35.930  1.00  0.00     0.039 A 
ATOM     61  C   UNL A   1      46.406  28.321  35.312  1.00  0.00    -0.049 A 
ATOM     62  C   UNL A   1      45.004  26.429  35.891  1.00  0.00    -0.049 A 
ATOM     63  C   UNL A   1      45.341  28.890  34.612  1.00  0.00    -0.053 A 
ATOM     64  H   UNL A   1      47.310  28.815  35.373  1.00  0.00     0.063 H 
ATOM     65  C   UNL A   1      43.965  26.966  35.138  1.00  0.00    -0.053 A 
ATOM     66  H   UNL A   1      44.861  25.555  36.420  1.00  0.00     0.063 H 
ATOM     67  C   UNL A   1      44.120  28.205  34.498  1.00  0.00    -0.014 A 
ATOM     68  H   UNL A   1      45.451  29.819  34.174  1.00  0.00     0.063 H 
ATOM     69  H   UNL A   1      43.075  26.450  35.049  1.00  0.00     0.063 H 
BRANCH  67  70
ATOM     70  C   UNL A   1      42.987  28.774  33.730  1.00  0.00     0.031 A 
ATOM     71  C   UNL A   1      42.011  29.699  34.402  1.00  0.00     0.074 A 
ATOM     72  C   UNL A   1      42.802  28.408  32.448  1.00  0.00     0.049 A 
ATOM     73  N   UNL A   1      40.917  30.238  33.926  1.00  0.00    -0.248 NA
ATOM     74  C   UNL A   1      42.285  30.040  35.806  1.00  0.00    -0.034 C 
ATOM     75  C   UNL A   1      43.657  27.485  31.701  1.00  0.00    -0.036 A 
ATOM     76  N   UNL A   1      41.828  28.763  31.548  1.00  0.00    -0.354 N 
ATOM     77  C   UNL A   1      40.366  30.963  34.974  1.00  0.00     0.074 A 
ATOM     78  C   UNL A   1      41.219  30.758  36.126  1.00  0.00    -0.034 C 
ATOM     79  H   UNL A   1      43.098  29.787  36.391  1.00  0.00     0.065 H 
ATOM     80  C   UNL A   1      43.187  27.366  30.449  1.00  0.00    -0.036 A 
ATOM     81  H   UNL A   1      44.489  27.003  32.076  1.00  0.00     0.065 H 
ATOM     82  C   UNL A   1      41.977  28.173  30.316  1.00  0.00     0.049 A 
ATOM     83  H   UNL A   1      41.094  29.381  31.765  1.00  0.00     0.167 HD
ATOM     84  C   UNL A   1      39.260  31.745  34.971  1.00  0.00     0.037 A 
ATOM     85  H   UNL A   1      41.021  31.122  37.071  1.00  0.00     0.065 H 
ATOM     86  H   UNL A   1      43.612  26.796  29.701  1.00  0.00     0.065 H 
ATOM     87  C   UNL A   1      41.217  28.269  29.209  1.00  0.00     0.037 A 
ATOM     88  C   UNL A   1      38.432  31.969  33.816  1.00  0.00     0.049 A 
ATOM     89  C   UNL A   1      39.998  29.151  29.229  1.00  0.00     0.074 A 
ATOM     90  C   UNL A   1      37.324  32.788  33.694  1.00  0.00    -0.036 A 
ATOM     91  N   UNL A   1      38.625  31.369  32.580  1.00  0.00    -0.354 N 
ATOM     92  N   UNL A   1      39.517  29.875  30.210  1.00  0.00    -0.248 NA
ATOM     93  C   UNL A   1      39.218  29.230  27.987  1.00  0.00    -0.034 C 
ATOM     94  C   UNL A   1      36.820  32.651  32.395  1.00  0.00    -0.036 A 
ATOM     95  H   UNL A   1      36.936  33.396  34.431  1.00  0.00     0.065 H 
ATOM     96  C   UNL A   1      37.644  31.785  31.694  1.00  0.00     0.049 A 
ATOM     97  H   UNL A   1      39.352  30.742  32.364  1.00  0.00     0.167 HD
ATOM     98  C   UNL A   1      38.397  30.515  29.699  1.00  0.00     0.074 A 
ATOM     99  C   UNL A   1      38.277  30.104  28.315  1.00  0.00    -0.034 C 
ATOM    100  H   UNL A   1      39.364  28.736  27.093  1.00  0.00     0.065 H 
ATOM    101  H   UNL A   1      35.978  33.116  32.023  1.00  0.00     0.065 H 
ATOM    102  C   UNL A   1      37.544  31.367  30.319  1.00  0.00     0.037 A 
ATOM    103  H   UNL A   1      37.551  30.449  27.668  1.00  0.00     0.065 H 
BRANCH  84 104
ATOM    104  C   UNL A   1      38.881  32.417  36.260  1.00  0.00     0.064 A 
ATOM    105  C   UNL A   1      38.123  31.758  37.240  1.00  0.00     0.173 A 
ATOM    106  C   UNL A   1      39.310  33.724  36.534  1.00  0.00     0.173 A 
ATOM    107  F   UNL A   1      37.678  30.511  37.023  1.00  0.00    -0.203 F 
ATOM    108  C   UNL A   1      37.785  32.392  38.432  1.00  0.00     0.198 A 
ATOM    109  C   UNL A   1      38.997  34.344  37.740  1.00  0.00     0.198 A 
ATOM    110  F   UNL A   1      40.042  34.399  35.634  1.00  0.00    -0.203 F 
ATOM    111  F   UNL A   1      37.019  31.760  39.333  1.00  0.00    -0.200 F 
ATOM    112  C   UNL A   1      38.228  33.681  38.685  1.00  0.00     0.200 A 
ATOM    113  F   UNL A   1      39.437  35.586  37.988  1.00  0.00    -0.200 F 
ATOM    114  F   UNL A   1      37.908  34.288  39.837  1.00  0.00    -0.200 F 
ENDBRANCH  84 104
BRANCH  87 115
ATOM    115  C   UNL A   1      41.600  27.525  27.982  1.00  0.00     0.064 A 
ATOM    116  C   UNL A   1      41.066  26.256  27.714  1.00  0.00     0.173 A 
ATOM    117  C   UNL A   1      42.504  28.062  27.056  1.00  0.00     0.173 A 
ATOM    118  F   UNL A   1      40.214  25.692  28.583  1.00  0.00    -0.203 F 
ATOM    119  C   UNL A   1      41.438  25.545  26.576  1.00  0.00     0.198 A 
ATOM    120  C   UNL A   1      42.854  27.363  25.902  1.00  0.00     0.198 A 
ATOM    121  F   UNL A   1      43.042  29.272  27.267  1.00  0.00    -0.203 F 
ATOM    122  F   UNL A   1      40.949  24.316  26.367  1.00  0.00    -0.200 F 
ATOM    123  C   UNL A   1      42.326  26.102  25.667  1.00  0.00     0.200 A 
ATOM    124  F   UNL A   1      43.703  27.910  25.023  1.00  0.00    -0.200 F 
ATOM    125  F   UNL A   1      42.682  25.419  24.571  1.00  0.00    -0.200 F 
ENDBRANCH  87 115
BRANCH 102 126
ATOM    126  C   UNL A   1      36.424  31.935  29.498  1.00  0.00     0.064 A 
ATOM    127  C   UNL A   1      35.355  31.139  29.060  1.00  0.00     0.173 A 
ATOM    128  C   UNL A   1      36.398  33.303  29.183  1.00  0.00     0.173 A 
ATOM    129  F   UNL A   1      35.343  29.823  29.323  1.00  0.00    -0.203 F 
ATOM    130  C   UNL A   1      34.314  31.686  28.315  1.00  0.00     0.198 A 
ATOM    131  C   UNL A   1      35.340  33.852  28.464  1.00  0.00     0.198 A 
ATOM    132  F   UNL A   1      37.392  34.108  29.584  1.00  0.00    -0.203 F 
ATOM    133  F   UNL A   1      33.327  30.897  27.868  1.00  0.00    -0.200 F 
ATOM    134  C   UNL A   1      34.304  33.042  28.024  1.00  0.00     0.200 A 
ATOM    135  F   UNL A   1      35.326  35.165  28.193  1.00  0.00    -0.200 F 
ATOM    136  F   UNL A   1      33.297  33.568  27.313  1.00  0.00    -0.200 F 
ENDBRANCH 102 126
ENDBRANCH  67  70
ENDBRANCH  57  60
ENDBRANCH  53  56
ENDBRANCH  50  53
ENDBRANCH  47  50
ENDBRANCH  44  47
ENDBRANCH   1  44
TORSDOF 19
ENDMDL
MODEL 8
REMARK VINA RESULT:     -11.6      5.511     10.584
REMARK SMILES C/C(=N/OCc1ccccc1Nc1c(Cl)cccc1Cl)C(=O)NCCCCCCNC(=O)c1ccc(-c2c3nc(c(-c4c(F)c(F)c(F)c(F)c4F)c4ccc([nH]4)c(-c4c(F)c(F)c(F)c(F)c4F)c4nc(c(-c5c(F)c(F)c(F)c(F)c5F)c5ccc2[nH]5)C=C4)C=C3)cc1
REMARK SMILES IDX 25 1 24 4 23 7 21 8 22 9 2 11 3 12 1 13 4 17 5 18 6 21 7 22
REMARK SMILES IDX 11 23 8 24 10 26 9 27 12 31 13 33 14 34 19 35 15 36 16 37
REMARK SMILES IDX 18 38 20 39 17 40 26 44 27 47 28 50 29 53 30 56 31 57 32 59
REMARK SMILES IDX 33 60 34 61 95 62 35 63 94 65 36 67 37 70 38 71 88 72 39 73
REMARK SMILES IDX 93 74 87 75 89 76 40 77 92 78 86 80 85 82 41 84 73 87 53 88
REMARK SMILES IDX 72 89 54 90 57 91 71 92 90 93 55 94 56 96 70 98 91 99 58 102
REMARK SMILES IDX 42 104 43 105 51 106 44 107 45 108 49 109 52 110 46 111
REMARK SMILES IDX 47 112 50 113 48 114 74 115 75 116 83 117 76 118 77 119
REMARK SMILES IDX 81 120 84 121 78 122 79 123 82 124 80 125 59 126 60 127
REMARK SMILES IDX 68 128 61 129 62 130 66 131 69 132 63 133 64 134 67 135
REMARK SMILES IDX 65 136
REMARK H PARENT 25 2 25 3 24 5 24 6 23 10 1 14 1 15 1 16 5 19 5 20 7 25 8 28
REMARK H PARENT 10 29 9 30 12 32 16 41 18 42 17 43 26 45 26 46 27 48 27 49
REMARK H PARENT 28 51 28 52 29 54 29 55 30 58 34 64 95 66 35 68 94 69 93 79
REMARK H PARENT 87 81 89 83 92 85 86 86 54 95 57 97 90 100 55 101 91 103
REMARK Flexibility Score: inf
ROOT
ATOM      1  C   UNL A   1      47.475  27.239  30.391  1.00  0.00    -0.036 C 
ATOM      2  H   UNL A   1      46.409  27.231  30.495  1.00  0.00     0.028 H 
ATOM      3  H   UNL A   1      47.911  28.141  30.766  1.00  0.00     0.028 H 
ENDROOT
BRANCH   1   4
ATOM      4  C   UNL A   1      47.818  27.157  28.896  1.00  0.00     0.018 C 
ATOM      5  H   UNL A   1      46.944  26.877  28.344  1.00  0.00     0.049 H 
ATOM      6  H   UNL A   1      48.162  28.111  28.555  1.00  0.00     0.049 H 
BRANCH   4   7
ATOM      7  N   UNL A   1      48.853  26.168  28.695  1.00  0.00    -0.351 N 
ATOM      8  C   UNL A   1      49.122  25.333  27.644  1.00  0.00     0.268 C 
ATOM      9  O   UNL A   1      49.906  24.403  27.848  1.00  0.00    -0.268 OA
ATOM     10  H   UNL A   1      49.477  26.080  29.451  1.00  0.00     0.163 HD
BRANCH   8  11
ATOM     11  C   UNL A   1      48.666  25.521  26.206  1.00  0.00     0.141 C 
ATOM     12  N   UNL A   1      47.823  24.856  25.473  1.00  0.00    -0.086 NA
BRANCH  11  13
ATOM     13  C   UNL A   1      49.367  26.668  25.504  1.00  0.00    -0.013 C 
ATOM     14  H   UNL A   1      48.756  27.018  24.698  1.00  0.00     0.030 H 
ATOM     15  H   UNL A   1      50.306  26.330  25.119  1.00  0.00     0.030 H 
ATOM     16  H   UNL A   1      49.532  27.464  26.199  1.00  0.00     0.030 H 
ENDBRANCH  11  13
BRANCH  12  17
ATOM     17  O   UNL A   1      47.099  23.867  26.121  1.00  0.00    -0.390 OA
BRANCH  17  18
ATOM     18  C   UNL A   1      45.739  24.309  26.332  1.00  0.00     0.144 C 
ATOM     19  H   UNL A   1      45.151  23.961  25.507  1.00  0.00     0.079 H 
ATOM     20  H   UNL A   1      45.796  25.373  26.417  1.00  0.00     0.079 H 
BRANCH  18  21
ATOM     21  C   UNL A   1      45.061  23.834  27.620  1.00  0.00     0.016 A 
ATOM     22  C   UNL A   1      45.442  24.377  28.865  1.00  0.00    -0.053 A 
ATOM     23  C   UNL A   1      43.939  22.970  27.591  1.00  0.00     0.045 A 
ATOM     24  C   UNL A   1      44.750  24.097  30.043  1.00  0.00    -0.062 A 
ATOM     25  H   UNL A   1      46.262  25.004  28.906  1.00  0.00     0.063 H 
ATOM     26  C   UNL A   1      43.243  22.714  28.791  1.00  0.00    -0.038 A 
ATOM     27  C   UNL A   1      43.640  23.272  30.005  1.00  0.00    -0.060 A 
ATOM     28  H   UNL A   1      45.064  24.502  30.938  1.00  0.00     0.062 H 
ATOM     29  H   UNL A   1      42.417  22.096  28.770  1.00  0.00     0.064 H 
ATOM     30  H   UNL A   1      43.111  23.071  30.867  1.00  0.00     0.062 H 
BRANCH  23  31
ATOM     31  N   UNL A   1      43.500  22.382  26.380  1.00  0.00    -0.353 N 
ATOM     32  H   UNL A   1      43.328  23.007  25.639  1.00  0.00     0.167 HD
BRANCH  31  33
ATOM     33  C   UNL A   1      43.271  21.010  26.090  1.00  0.00     0.076 A 
ATOM     34  C   UNL A   1      44.290  20.250  25.474  1.00  0.00     0.066 A 
ATOM     35  C   UNL A   1      42.095  20.329  26.469  1.00  0.00     0.066 A 
ATOM     36  Cl  UNL A   1      45.769  21.001  24.967  1.00  0.00    -0.082 Cl
ATOM     37  C   UNL A   1      44.151  18.875  25.262  1.00  0.00    -0.041 A 
ATOM     38  C   UNL A   1      41.958  18.951  26.255  1.00  0.00    -0.041 A 
ATOM     39  Cl  UNL A   1      40.727  21.157  27.137  1.00  0.00    -0.082 Cl
ATOM     40  C   UNL A   1      42.986  18.223  25.660  1.00  0.00    -0.059 A 
ATOM     41  H   UNL A   1      44.911  18.342  24.810  1.00  0.00     0.064 H 
ATOM     42  H   UNL A   1      41.088  18.472  26.540  1.00  0.00     0.064 H 
ATOM     43  H   UNL A   1      42.885  17.207  25.516  1.00  0.00     0.062 H 
ENDBRANCH  31  33
ENDBRANCH  23  31
ENDBRANCH  18  21
ENDBRANCH  17  18
ENDBRANCH  12  17
ENDBRANCH   8  11
ENDBRANCH   4   7
ENDBRANCH   1   4
BRANCH   1  44
ATOM     44  C   UNL A   1      48.052  26.081  31.214  1.00  0.00    -0.052 C 
ATOM     45  H   UNL A   1      48.984  26.400  31.634  1.00  0.00     0.027 H 
ATOM     46  H   UNL A   1      48.158  25.253  30.544  1.00  0.00     0.027 H 
BRANCH  44  47
ATOM     47  C   UNL A   1      47.149  25.604  32.357  1.00  0.00    -0.052 C 
ATOM     48  H   UNL A   1      46.416  24.942  31.947  1.00  0.00     0.027 H 
ATOM     49  H   UNL A   1      46.728  26.486  32.792  1.00  0.00     0.027 H 
BRANCH  47  50
ATOM     50  C   UNL A   1      47.871  24.870  33.491  1.00  0.00    -0.036 C 
ATOM     51  H   UNL A   1      48.491  24.114  33.058  1.00  0.00     0.028 H 
ATOM     52  H   UNL A   1      47.110  24.472  34.130  1.00  0.00     0.028 H 
BRANCH  50  53
ATOM     53  C   UNL A   1      48.747  25.763  34.364  1.00  0.00     0.018 C 
ATOM     54  H   UNL A   1      48.626  26.780  34.053  1.00  0.00     0.049 H 
ATOM     55  H   UNL A   1      49.764  25.448  34.252  1.00  0.00     0.049 H 
BRANCH  53  56
ATOM     56  N   UNL A   1      48.391  25.655  35.771  1.00  0.00    -0.352 N 
ATOM     57  C   UNL A   1      47.326  26.199  36.443  1.00  0.00     0.251 C 
ATOM     58  H   UNL A   1      49.003  25.111  36.320  1.00  0.00     0.163 HD
ATOM     59  O   UNL A   1      47.306  26.212  37.669  1.00  0.00    -0.269 OA
BRANCH  57  60
ATOM     60  C   UNL A   1      46.197  26.779  35.685  1.00  0.00     0.039 A 
ATOM     61  C   UNL A   1      45.010  26.051  35.570  1.00  0.00    -0.049 A 
ATOM     62  C   UNL A   1      46.323  28.025  35.063  1.00  0.00    -0.049 A 
ATOM     63  C   UNL A   1      43.931  26.594  34.872  1.00  0.00    -0.053 A 
ATOM     64  H   UNL A   1      44.933  25.115  36.000  1.00  0.00     0.063 H 
ATOM     65  C   UNL A   1      45.225  28.593  34.425  1.00  0.00    -0.053 A 
ATOM     66  H   UNL A   1      47.228  28.522  35.077  1.00  0.00     0.063 H 
ATOM     67  C   UNL A   1      44.022  27.880  34.316  1.00  0.00    -0.014 A 
ATOM     68  H   UNL A   1      43.061  26.049  34.765  1.00  0.00     0.063 H 
ATOM     69  H   UNL A   1      45.296  29.544  34.029  1.00  0.00     0.063 H 
BRANCH  67  70
ATOM     70  C   UNL A   1      42.876  28.492  33.600  1.00  0.00     0.031 A 
ATOM     71  C   UNL A   1      42.629  28.162  32.154  1.00  0.00     0.074 A 
ATOM     72  C   UNL A   1      42.099  29.390  34.234  1.00  0.00     0.049 A 
ATOM     73  N   UNL A   1      41.730  28.648  31.335  1.00  0.00    -0.248 NA
ATOM     74  C   UNL A   1      43.530  27.176  31.539  1.00  0.00    -0.034 C 
ATOM     75  C   UNL A   1      42.266  29.822  35.622  1.00  0.00    -0.036 A 
ATOM     76  N   UNL A   1      41.017  30.108  33.789  1.00  0.00    -0.354 N 
ATOM     77  C   UNL A   1      41.971  28.043  30.109  1.00  0.00     0.074 A 
ATOM     78  C   UNL A   1      43.129  27.190  30.277  1.00  0.00    -0.034 C 
ATOM     79  H   UNL A   1      44.280  26.617  31.978  1.00  0.00     0.065 H 
ATOM     80  C   UNL A   1      41.306  30.709  35.924  1.00  0.00    -0.036 A 
ATOM     81  H   UNL A   1      43.004  29.496  36.265  1.00  0.00     0.065 H 
ATOM     82  C   UNL A   1      40.479  30.938  34.742  1.00  0.00     0.049 A 
ATOM     83  H   UNL A   1      40.660  30.034  32.875  1.00  0.00     0.167 HD
ATOM     84  C   UNL A   1      41.278  28.172  28.953  1.00  0.00     0.037 A 
ATOM     85  H   UNL A   1      43.581  26.663  29.514  1.00  0.00     0.065 H 
ATOM     86  H   UNL A   1      41.172  31.158  36.844  1.00  0.00     0.065 H 
ATOM     87  C   UNL A   1      39.440  31.792  34.665  1.00  0.00     0.037 A 
ATOM     88  C   UNL A   1      40.111  28.999  28.799  1.00  0.00     0.049 A 
ATOM     89  C   UNL A   1      38.681  31.910  33.372  1.00  0.00     0.074 A 
ATOM     90  C   UNL A   1      39.302  29.154  27.686  1.00  0.00    -0.036 A 
ATOM     91  N   UNL A   1      39.584  29.812  29.792  1.00  0.00    -0.354 N 
ATOM     92  N   UNL A   1      38.884  31.292  32.234  1.00  0.00    -0.248 NA
ATOM     93  C   UNL A   1      37.547  32.844  33.353  1.00  0.00    -0.034 C 
ATOM     94  C   UNL A   1      38.311  30.093  27.993  1.00  0.00    -0.036 A 
ATOM     95  H   UNL A   1      39.410  28.661  26.786  1.00  0.00     0.065 H 
ATOM     96  C   UNL A   1      38.472  30.486  29.312  1.00  0.00     0.049 A 
ATOM     97  H   UNL A   1      39.945  29.896  30.704  1.00  0.00     0.167 HD
ATOM     98  C   UNL A   1      37.892  31.739  31.374  1.00  0.00     0.074 A 
ATOM     99  C   UNL A   1      37.077  32.672  32.126  1.00  0.00    -0.034 C 
ATOM    100  H   UNL A   1      37.205  33.469  34.100  1.00  0.00     0.065 H 
ATOM    101  H   UNL A   1      37.584  30.436  27.346  1.00  0.00     0.065 H 
ATOM    102  C   UNL A   1      37.673  31.407  30.078  1.00  0.00     0.037 A 
ATOM    103  H   UNL A   1      36.238  33.142  31.753  1.00  0.00     0.065 H 
BRANCH  84 104
ATOM    104  C   UNL A   1      41.765  27.400  27.761  1.00  0.00     0.064 A 
ATOM    105  C   UNL A   1      42.795  27.883  26.940  1.00  0.00     0.173 A 
ATOM    106  C   UNL A   1      41.219  26.144  27.455  1.00  0.00     0.173 A 
ATOM    107  F   UNL A   1      43.344  29.083  27.182  1.00  0.00    -0.203 F 
ATOM    108  C   UNL A   1      43.241  27.152  25.842  1.00  0.00     0.198 A 
ATOM    109  C   UNL A   1      41.688  25.401  26.374  1.00  0.00     0.198 A 
ATOM    110  F   UNL A   1      40.235  25.631  28.210  1.00  0.00    -0.203 F 
ATOM    111  F   UNL A   1      44.193  27.656  25.044  1.00  0.00    -0.200 F 
ATOM    112  C   UNL A   1      42.693  25.909  25.564  1.00  0.00     0.200 A 
ATOM    113  F   UNL A   1      41.167  24.194  26.115  1.00  0.00    -0.200 F 
ATOM    114  F   UNL A   1      43.128  25.203  24.511  1.00  0.00    -0.200 F 
ENDBRANCH  84 104
BRANCH  87 115
ATOM    115  C   UNL A   1      39.045  32.586  35.857  1.00  0.00     0.064 A 
ATOM    116  C   UNL A   1      39.490  33.905  36.022  1.00  0.00     0.173 A 
ATOM    117  C   UNL A   1      38.221  32.045  36.853  1.00  0.00     0.173 A 
ATOM    118  F   UNL A   1      40.298  34.458  35.105  1.00  0.00    -0.203 F 
ATOM    119  C   UNL A   1      39.139  34.647  37.148  1.00  0.00     0.198 A 
ATOM    120  C   UNL A   1      37.848  32.796  37.966  1.00  0.00     0.198 A 
ATOM    121  F   UNL A   1      37.770  30.787  36.742  1.00  0.00    -0.203 F 
ATOM    122  F   UNL A   1      39.615  35.890  37.303  1.00  0.00    -0.200 F 
ATOM    123  C   UNL A   1      38.313  34.094  38.116  1.00  0.00     0.200 A 
ATOM    124  F   UNL A   1      37.041  32.262  38.891  1.00  0.00    -0.200 F 
ATOM    125  F   UNL A   1      37.974  34.808  39.197  1.00  0.00    -0.200 F 
ENDBRANCH  87 115
BRANCH 102 126
ATOM    126  C   UNL A   1      36.490  32.034  29.399  1.00  0.00     0.064 A 
ATOM    127  C   UNL A   1      35.371  31.277  29.022  1.00  0.00     0.173 A 
ATOM    128  C   UNL A   1      36.459  33.417  29.161  1.00  0.00     0.173 A 
ATOM    129  F   UNL A   1      35.360  29.949  29.214  1.00  0.00    -0.203 F 
ATOM    130  C   UNL A   1      34.275  31.878  28.410  1.00  0.00     0.198 A 
ATOM    131  C   UNL A   1      35.349  34.018  28.576  1.00  0.00     0.198 A 
ATOM    132  F   UNL A   1      37.502  34.187  29.508  1.00  0.00    -0.203 F 
ATOM    133  F   UNL A   1      33.236  31.128  28.017  1.00  0.00    -0.200 F 
ATOM    134  C   UNL A   1      34.261  33.247  28.194  1.00  0.00     0.200 A 
ATOM    135  F   UNL A   1      35.333  35.344  28.379  1.00  0.00    -0.200 F 
ATOM    136  F   UNL A   1      33.202  33.825  27.611  1.00  0.00    -0.200 F 
ENDBRANCH 102 126
ENDBRANCH  67  70
ENDBRANCH  57  60
ENDBRANCH  53  56
ENDBRANCH  50  53
ENDBRANCH  47  50
ENDBRANCH  44  47
ENDBRANCH   1  44
TORSDOF 19
ENDMDL
MODEL 9
REMARK VINA RESULT:     -11.6      2.034      7.587
REMARK SMILES C/C(=N/OCc1ccccc1Nc1c(Cl)cccc1Cl)C(=O)NCCCCCCNC(=O)c1ccc(-c2c3nc(c(-c4c(F)c(F)c(F)c(F)c4F)c4ccc([nH]4)c(-c4c(F)c(F)c(F)c(F)c4F)c4nc(c(-c5c(F)c(F)c(F)c(F)c5F)c5ccc2[nH]5)C=C4)C=C3)cc1
REMARK SMILES IDX 25 1 24 4 23 7 21 8 22 9 2 11 3 12 1 13 4 17 5 18 6 21 7 22
REMARK SMILES IDX 11 23 8 24 10 26 9 27 12 31 13 33 14 34 19 35 15 36 16 37
REMARK SMILES IDX 18 38 20 39 17 40 26 44 27 47 28 50 29 53 30 56 31 57 32 59
REMARK SMILES IDX 33 60 34 61 95 62 35 63 94 65 36 67 37 70 38 71 88 72 39 73
REMARK SMILES IDX 93 74 87 75 89 76 40 77 92 78 86 80 85 82 41 84 73 87 53 88
REMARK SMILES IDX 72 89 54 90 57 91 71 92 90 93 55 94 56 96 70 98 91 99 58 102
REMARK SMILES IDX 42 104 43 105 51 106 44 107 45 108 49 109 52 110 46 111
REMARK SMILES IDX 47 112 50 113 48 114 74 115 75 116 83 117 76 118 77 119
REMARK SMILES IDX 81 120 84 121 78 122 79 123 82 124 80 125 59 126 60 127
REMARK SMILES IDX 68 128 61 129 62 130 66 131 69 132 63 133 64 134 67 135
REMARK SMILES IDX 65 136
REMARK H PARENT 25 2 25 3 24 5 24 6 23 10 1 14 1 15 1 16 5 19 5 20 7 25 8 28
REMARK H PARENT 10 29 9 30 12 32 16 41 18 42 17 43 26 45 26 46 27 48 27 49
REMARK H PARENT 28 51 28 52 29 54 29 55 30 58 34 64 95 66 35 68 94 69 93 79
REMARK H PARENT 87 81 89 83 92 85 86 86 54 95 57 97 90 100 55 101 91 103
REMARK Flexibility Score: inf
ROOT
ATOM      1  C   UNL A   1      29.682  27.237  23.715  1.00  0.00    -0.036 C 
ATOM      2  H   UNL A   1      29.809  27.660  24.689  1.00  0.00     0.028 H 
ATOM      3  H   UNL A   1      28.730  27.476  23.291  1.00  0.00     0.028 H 
ENDROOT
BRANCH   1   4
ATOM      4  C   UNL A   1      29.755  25.707  23.836  1.00  0.00     0.018 C 
ATOM      5  H   UNL A   1      29.298  25.399  24.753  1.00  0.00     0.049 H 
ATOM      6  H   UNL A   1      29.237  25.259  23.014  1.00  0.00     0.049 H 
BRANCH   4   7
ATOM      7  N   UNL A   1      31.139  25.290  23.822  1.00  0.00    -0.351 N 
ATOM      8  C   UNL A   1      32.096  25.281  24.801  1.00  0.00     0.268 C 
ATOM      9  O   UNL A   1      33.267  25.123  24.445  1.00  0.00    -0.268 OA
ATOM     10  H   UNL A   1      31.448  24.950  22.951  1.00  0.00     0.163 HD
BRANCH   8  11
ATOM     11  C   UNL A   1      31.849  25.298  26.301  1.00  0.00     0.141 C 
ATOM     12  N   UNL A   1      31.661  24.337  27.157  1.00  0.00    -0.086 NA
BRANCH  11  13
ATOM     13  C   UNL A   1      31.762  26.699  26.873  1.00  0.00    -0.013 C 
ATOM     14  H   UNL A   1      31.137  26.691  27.743  1.00  0.00     0.030 H 
ATOM     15  H   UNL A   1      31.344  27.359  26.141  1.00  0.00     0.030 H 
ATOM     16  H   UNL A   1      32.740  27.037  27.140  1.00  0.00     0.030 H 
ENDBRANCH  11  13
BRANCH  12  17
ATOM     17  O   UNL A   1      31.834  23.049  26.675  1.00  0.00    -0.390 OA
BRANCH  17  18
ATOM     18  C   UNL A   1      32.971  22.431  27.318  1.00  0.00     0.144 C 
ATOM     19  H   UNL A   1      32.681  21.446  27.619  1.00  0.00     0.079 H 
ATOM     20  H   UNL A   1      33.230  23.083  28.125  1.00  0.00     0.079 H 
BRANCH  18  21
ATOM     21  C   UNL A   1      34.243  22.304  26.474  1.00  0.00     0.016 A 
ATOM     22  C   UNL A   1      35.219  23.322  26.502  1.00  0.00    -0.053 A 
ATOM     23  C   UNL A   1      34.552  21.111  25.776  1.00  0.00     0.045 A 
ATOM     24  C   UNL A   1      36.459  23.183  25.880  1.00  0.00    -0.062 A 
ATOM     25  H   UNL A   1      35.008  24.202  27.001  1.00  0.00     0.063 H 
ATOM     26  C   UNL A   1      35.819  20.984  25.169  1.00  0.00    -0.038 A 
ATOM     27  C   UNL A   1      36.766  22.006  25.221  1.00  0.00    -0.060 A 
ATOM     28  H   UNL A   1      37.145  23.953  25.911  1.00  0.00     0.062 H 
ATOM     29  H   UNL A   1      36.052  20.110  24.672  1.00  0.00     0.064 H 
ATOM     30  H   UNL A   1      37.686  21.885  24.772  1.00  0.00     0.062 H 
BRANCH  23  31
ATOM     31  N   UNL A   1      33.621  20.046  25.699  1.00  0.00    -0.353 N 
ATOM     32  H   UNL A   1      33.241  19.749  26.557  1.00  0.00     0.167 HD
BRANCH  31  33
ATOM     33  C   UNL A   1      33.165  19.347  24.549  1.00  0.00     0.076 A 
ATOM     34  C   UNL A   1      32.527  20.060  23.510  1.00  0.00     0.066 A 
ATOM     35  C   UNL A   1      33.395  17.971  24.344  1.00  0.00     0.066 A 
ATOM     36  Cl  UNL A   1      32.196  21.755  23.673  1.00  0.00    -0.082 Cl
ATOM     37  C   UNL A   1      32.153  19.435  22.316  1.00  0.00    -0.041 A 
ATOM     38  C   UNL A   1      33.019  17.346  23.148  1.00  0.00    -0.041 A 
ATOM     39  Cl  UNL A   1      34.072  16.956  25.576  1.00  0.00    -0.082 Cl
ATOM     40  C   UNL A   1      32.406  18.077  22.132  1.00  0.00    -0.059 A 
ATOM     41  H   UNL A   1      31.689  19.978  21.571  1.00  0.00     0.064 H 
ATOM     42  H   UNL A   1      33.196  16.337  23.018  1.00  0.00     0.064 H 
ATOM     43  H   UNL A   1      32.141  17.616  21.249  1.00  0.00     0.062 H 
ENDBRANCH  31  33
ENDBRANCH  23  31
ENDBRANCH  18  21
ENDBRANCH  17  18
ENDBRANCH  12  17
ENDBRANCH   8  11
ENDBRANCH   4   7
ENDBRANCH   1   4
BRANCH   1  44
ATOM     44  C   UNL A   1      30.751  27.826  22.785  1.00  0.00    -0.052 C 
ATOM     45  H   UNL A   1      30.263  28.212  21.915  1.00  0.00     0.027 H 
ATOM     46  H   UNL A   1      31.434  27.033  22.563  1.00  0.00     0.027 H 
BRANCH  44  47
ATOM     47  C   UNL A   1      31.581  28.954  23.409  1.00  0.00    -0.052 C 
ATOM     48  H   UNL A   1      31.175  29.168  24.377  1.00  0.00     0.027 H 
ATOM     49  H   UNL A   1      31.520  29.780  22.732  1.00  0.00     0.027 H 
BRANCH  47  50
ATOM     50  C   UNL A   1      33.072  28.647  23.577  1.00  0.00    -0.036 C 
ATOM     51  H   UNL A   1      33.610  29.186  22.826  1.00  0.00     0.028 H 
ATOM     52  H   UNL A   1      33.176  27.586  23.487  1.00  0.00     0.028 H 
BRANCH  50  53
ATOM     53  C   UNL A   1      33.645  29.027  24.939  1.00  0.00     0.018 C 
ATOM     54  H   UNL A   1      34.697  29.196  24.837  1.00  0.00     0.049 H 
ATOM     55  H   UNL A   1      33.451  28.224  25.620  1.00  0.00     0.049 H 
BRANCH  53  56
ATOM     56  N   UNL A   1      33.021  30.231  25.467  1.00  0.00    -0.352 N 
ATOM     57  C   UNL A   1      33.258  30.886  26.649  1.00  0.00     0.251 C 
ATOM     58  H   UNL A   1      32.331  30.634  24.892  1.00  0.00     0.163 HD
ATOM     59  O   UNL A   1      32.478  31.743  27.050  1.00  0.00    -0.269 OA
BRANCH  57  60
ATOM     60  C   UNL A   1      34.456  30.553  27.447  1.00  0.00     0.039 A 
ATOM     61  C   UNL A   1      34.543  29.295  28.051  1.00  0.00    -0.049 A 
ATOM     62  C   UNL A   1      35.476  31.492  27.626  1.00  0.00    -0.049 A 
ATOM     63  C   UNL A   1      35.676  28.961  28.793  1.00  0.00    -0.053 A 
ATOM     64  H   UNL A   1      33.772  28.617  27.947  1.00  0.00     0.063 H 
ATOM     65  C   UNL A   1      36.634  31.134  28.310  1.00  0.00    -0.053 A 
ATOM     66  H   UNL A   1      35.371  32.448  27.252  1.00  0.00     0.063 H 
ATOM     67  C   UNL A   1      36.742  29.869  28.907  1.00  0.00    -0.014 A 
ATOM     68  H   UNL A   1      35.733  28.042  29.260  1.00  0.00     0.063 H 
ATOM     69  H   UNL A   1      37.417  31.803  28.379  1.00  0.00     0.063 H 
BRANCH  67  70
ATOM     70  C   UNL A   1      37.971  29.523  29.661  1.00  0.00     0.031 A 
ATOM     71  C   UNL A   1      38.209  30.113  31.023  1.00  0.00     0.074 A 
ATOM     72  C   UNL A   1      38.899  28.731  29.093  1.00  0.00     0.049 A 
ATOM     73  N   UNL A   1      39.251  29.995  31.807  1.00  0.00    -0.248 NA
ATOM     74  C   UNL A   1      37.146  30.973  31.565  1.00  0.00    -0.034 C 
ATOM     75  C   UNL A   1      38.799  28.134  27.760  1.00  0.00    -0.036 A 
ATOM     76  N   UNL A   1      40.113  28.297  29.562  1.00  0.00    -0.354 N 
ATOM     77  C   UNL A   1      38.977  30.778  32.920  1.00  0.00     0.074 A 
ATOM     78  C   UNL A   1      37.693  31.405  32.691  1.00  0.00    -0.034 C 
ATOM     79  H   UNL A   1      36.215  31.184  31.170  1.00  0.00     0.065 H 
ATOM     80  C   UNL A   1      39.893  27.392  27.529  1.00  0.00    -0.036 A 
ATOM     81  H   UNL A   1      38.014  28.264  27.103  1.00  0.00     0.065 H 
ATOM     82  C   UNL A   1      40.788  27.490  28.679  1.00  0.00     0.049 A 
ATOM     83  H   UNL A   1      40.467  28.542  30.448  1.00  0.00     0.167 HD
ATOM     84  C   UNL A   1      39.721  30.944  34.040  1.00  0.00     0.037 A 
ATOM     85  H   UNL A   1      37.260  32.098  33.323  1.00  0.00     0.065 H 
ATOM     86  H   UNL A   1      40.073  26.840  26.675  1.00  0.00     0.065 H 
ATOM     87  C   UNL A   1      41.994  26.902  28.786  1.00  0.00     0.037 A 
ATOM     88  C   UNL A   1      40.983  30.296  34.275  1.00  0.00     0.049 A 
ATOM     89  C   UNL A   1      42.796  27.095  30.044  1.00  0.00     0.074 A 
ATOM     90  C   UNL A   1      41.787  30.352  35.400  1.00  0.00    -0.036 A 
ATOM     91  N   UNL A   1      41.626  29.469  33.365  1.00  0.00    -0.354 N 
ATOM     92  N   UNL A   1      42.503  27.795  31.113  1.00  0.00    -0.248 NA
ATOM     93  C   UNL A   1      44.097  26.415  30.110  1.00  0.00    -0.034 C 
ATOM     94  C   UNL A   1      42.937  29.593  35.154  1.00  0.00    -0.036 A 
ATOM     95  H   UNL A   1      41.575  30.863  36.270  1.00  0.00     0.065 H 
ATOM     96  C   UNL A   1      42.827  29.024  33.895  1.00  0.00     0.049 A 
ATOM     97  H   UNL A   1      41.280  29.232  32.474  1.00  0.00     0.167 HD
ATOM     98  C   UNL A   1      43.565  27.619  31.988  1.00  0.00     0.074 A 
ATOM     99  C   UNL A   1      44.506  26.735  31.330  1.00  0.00    -0.034 C 
ATOM    100  H   UNL A   1      44.569  25.839  29.396  1.00  0.00     0.065 H 
ATOM    101  H   UNL A   1      43.733  29.478  35.800  1.00  0.00     0.065 H 
ATOM    102  C   UNL A   1      43.747  28.142  33.225  1.00  0.00     0.037 A 
ATOM    103  H   UNL A   1      45.382  26.397  31.758  1.00  0.00     0.065 H 
BRANCH  84 104
ATOM    104  C   UNL A   1      39.186  31.865  35.099  1.00  0.00     0.064 A 
ATOM    105  C   UNL A   1      38.442  31.385  36.187  1.00  0.00     0.173 A 
ATOM    106  C   UNL A   1      39.451  33.242  35.044  1.00  0.00     0.173 A 
ATOM    107  F   UNL A   1      38.152  30.078  36.282  1.00  0.00    -0.203 F 
ATOM    108  C   UNL A   1      37.960  32.251  37.164  1.00  0.00     0.198 A 
ATOM    109  C   UNL A   1      38.993  34.101  36.039  1.00  0.00     0.198 A 
ATOM    110  F   UNL A   1      40.162  33.754  34.028  1.00  0.00    -0.203 F 
ATOM    111  F   UNL A   1      37.210  31.775  38.169  1.00  0.00    -0.200 F 
ATOM    112  C   UNL A   1      38.241  33.606  37.094  1.00  0.00     0.200 A 
ATOM    113  F   UNL A   1      39.277  35.409  35.977  1.00  0.00    -0.200 F 
ATOM    114  F   UNL A   1      37.781  34.438  38.040  1.00  0.00    -0.200 F 
ENDBRANCH  84 104
BRANCH  87 115
ATOM    115  C   UNL A   1      42.507  26.058  27.676  1.00  0.00     0.064 A 
ATOM    116  C   UNL A   1      42.115  24.717  27.552  1.00  0.00     0.173 A 
ATOM    117  C   UNL A   1      43.396  26.570  26.722  1.00  0.00     0.173 A 
ATOM    118  F   UNL A   1      41.283  24.178  28.455  1.00  0.00    -0.203 F 
ATOM    119  C   UNL A   1      42.610  23.916  26.525  1.00  0.00     0.198 A 
ATOM    120  C   UNL A   1      43.869  25.776  25.679  1.00  0.00     0.198 A 
ATOM    121  F   UNL A   1      43.801  27.846  26.798  1.00  0.00    -0.203 F 
ATOM    122  F   UNL A   1      42.255  22.626  26.456  1.00  0.00    -0.200 F 
ATOM    123  C   UNL A   1      43.481  24.447  25.586  1.00  0.00     0.200 A 
ATOM    124  F   UNL A   1      44.700  26.297  24.768  1.00  0.00    -0.200 F 
ATOM    125  F   UNL A   1      43.954  23.677  24.597  1.00  0.00    -0.200 F 
ENDBRANCH  87 115
BRANCH 102 126
ATOM    126  C   UNL A   1      44.994  27.748  33.961  1.00  0.00     0.064 A 
ATOM    127  C   UNL A   1      46.170  28.510  33.877  1.00  0.00     0.173 A 
ATOM    128  C   UNL A   1      45.001  26.618  34.793  1.00  0.00     0.173 A 
ATOM    129  F   UNL A   1      46.217  29.590  33.082  1.00  0.00    -0.203 F 
ATOM    130  C   UNL A   1      47.313  28.141  34.580  1.00  0.00     0.198 A 
ATOM    131  C   UNL A   1      46.137  26.270  35.519  1.00  0.00     0.198 A 
ATOM    132  F   UNL A   1      43.901  25.860  34.914  1.00  0.00    -0.203 F 
ATOM    133  F   UNL A   1      48.438  28.858  34.449  1.00  0.00    -0.200 F 
ATOM    134  C   UNL A   1      47.293  27.027  35.406  1.00  0.00     0.200 A 
ATOM    135  F   UNL A   1      46.113  25.199  36.325  1.00  0.00    -0.200 F 
ATOM    136  F   UNL A   1      48.392  26.678  36.088  1.00  0.00    -0.200 F 
ENDBRANCH 102 126
ENDBRANCH  67  70
ENDBRANCH  57  60
ENDBRANCH  53  56
ENDBRANCH  50  53
ENDBRANCH  47  50
ENDBRANCH  44  47
ENDBRANCH   1  44
TORSDOF 19
ENDMDL
MODEL 10
REMARK VINA RESULT:     -11.6      1.164      7.294
REMARK SMILES C/C(=N/OCc1ccccc1Nc1c(Cl)cccc1Cl)C(=O)NCCCCCCNC(=O)c1ccc(-c2c3nc(c(-c4c(F)c(F)c(F)c(F)c4F)c4ccc([nH]4)c(-c4c(F)c(F)c(F)c(F)c4F)c4nc(c(-c5c(F)c(F)c(F)c(F)c5F)c5ccc2[nH]5)C=C4)C=C3)cc1
REMARK SMILES IDX 25 1 24 4 23 7 21 8 22 9 2 11 3 12 1 13 4 17 5 18 6 21 7 22
REMARK SMILES IDX 11 23 8 24 10 26 9 27 12 31 13 33 14 34 19 35 15 36 16 37
REMARK SMILES IDX 18 38 20 39 17 40 26 44 27 47 28 50 29 53 30 56 31 57 32 59
REMARK SMILES IDX 33 60 34 61 95 62 35 63 94 65 36 67 37 70 38 71 88 72 39 73
REMARK SMILES IDX 93 74 87 75 89 76 40 77 92 78 86 80 85 82 41 84 73 87 53 88
REMARK SMILES IDX 72 89 54 90 57 91 71 92 90 93 55 94 56 96 70 98 91 99 58 102
REMARK SMILES IDX 42 104 43 105 51 106 44 107 45 108 49 109 52 110 46 111
REMARK SMILES IDX 47 112 50 113 48 114 74 115 75 116 83 117 76 118 77 119
REMARK SMILES IDX 81 120 84 121 78 122 79 123 82 124 80 125 59 126 60 127
REMARK SMILES IDX 68 128 61 129 62 130 66 131 69 132 63 133 64 134 67 135
REMARK SMILES IDX 65 136
REMARK H PARENT 25 2 25 3 24 5 24 6 23 10 1 14 1 15 1 16 5 19 5 20 7 25 8 28
REMARK H PARENT 10 29 9 30 12 32 16 41 18 42 17 43 26 45 26 46 27 48 27 49
REMARK H PARENT 28 51 28 52 29 54 29 55 30 58 34 64 95 66 35 68 94 69 93 79
REMARK H PARENT 87 81 89 83 92 85 86 86 54 95 57 97 90 100 55 101 91 103
REMARK Flexibility Score: inf
ROOT
ATOM      1  C   UNL A   1      31.745  28.762  27.306  1.00  0.00    -0.036 C 
ATOM      2  H   UNL A   1      32.302  28.910  28.209  1.00  0.00     0.028 H 
ATOM      3  H   UNL A   1      30.700  28.948  27.442  1.00  0.00     0.028 H 
ENDROOT
BRANCH   1   4
ATOM      4  C   UNL A   1      31.894  27.295  26.877  1.00  0.00     0.018 C 
ATOM      5  H   UNL A   1      32.687  27.211  26.163  1.00  0.00     0.049 H 
ATOM      6  H   UNL A   1      32.122  26.694  27.733  1.00  0.00     0.049 H 
BRANCH   4   7
ATOM      7  N   UNL A   1      30.658  26.842  26.281  1.00  0.00    -0.351 N 
ATOM      8  C   UNL A   1      30.365  26.396  25.020  1.00  0.00     0.268 C 
ATOM      9  O   UNL A   1      29.174  26.327  24.707  1.00  0.00    -0.268 OA
ATOM     10  H   UNL A   1      29.888  26.855  26.893  1.00  0.00     0.163 HD
BRANCH   8  11
ATOM     11  C   UNL A   1      31.356  25.837  24.011  1.00  0.00     0.141 C 
ATOM     12  N   UNL A   1      32.192  24.843  24.081  1.00  0.00    -0.086 NA
BRANCH  11  13
ATOM     13  C   UNL A   1      31.394  26.623  22.715  1.00  0.00    -0.013 C 
ATOM     14  H   UNL A   1      32.352  27.089  22.609  1.00  0.00     0.030 H 
ATOM     15  H   UNL A   1      30.632  27.374  22.731  1.00  0.00     0.030 H 
ATOM     16  H   UNL A   1      31.226  25.962  21.892  1.00  0.00     0.030 H 
ENDBRANCH  11  13
BRANCH  12  17
ATOM     17  O   UNL A   1      32.106  24.052  25.216  1.00  0.00    -0.390 OA
BRANCH  17  18
ATOM     18  C   UNL A   1      33.339  24.129  25.966  1.00  0.00     0.144 C 
ATOM     19  H   UNL A   1      33.220  23.542  26.853  1.00  0.00     0.079 H 
ATOM     20  H   UNL A   1      33.498  25.172  26.143  1.00  0.00     0.079 H 
BRANCH  18  21
ATOM     21  C   UNL A   1      34.602  23.642  25.251  1.00  0.00     0.016 A 
ATOM     22  C   UNL A   1      35.855  24.217  25.550  1.00  0.00    -0.053 A 
ATOM     23  C   UNL A   1      34.580  22.510  24.399  1.00  0.00     0.045 A 
ATOM     24  C   UNL A   1      37.049  23.703  25.046  1.00  0.00    -0.062 A 
ATOM     25  H   UNL A   1      35.889  25.047  26.163  1.00  0.00     0.063 H 
ATOM     26  C   UNL A   1      35.801  21.996  23.915  1.00  0.00    -0.038 A 
ATOM     27  C   UNL A   1      37.024  22.582  24.236  1.00  0.00    -0.060 A 
ATOM     28  H   UNL A   1      37.948  24.156  25.276  1.00  0.00     0.062 H 
ATOM     29  H   UNL A   1      35.789  21.163  23.307  1.00  0.00     0.064 H 
ATOM     30  H   UNL A   1      37.903  22.183  23.871  1.00  0.00     0.062 H 
BRANCH  23  31
ATOM     31  N   UNL A   1      33.360  21.881  24.049  1.00  0.00    -0.353 N 
ATOM     32  H   UNL A   1      32.686  22.462  23.629  1.00  0.00     0.167 HD
BRANCH  31  33
ATOM     33  C   UNL A   1      32.978  20.524  24.226  1.00  0.00     0.076 A 
ATOM     34  C   UNL A   1      32.447  19.803  23.134  1.00  0.00     0.066 A 
ATOM     35  C   UNL A   1      33.183  19.818  25.430  1.00  0.00     0.066 A 
ATOM     36  Cl  UNL A   1      32.153  20.588  21.615  1.00  0.00    -0.082 Cl
ATOM     37  C   UNL A   1      32.152  18.440  23.230  1.00  0.00    -0.041 A 
ATOM     38  C   UNL A   1      32.886  18.452  25.525  1.00  0.00    -0.041 A 
ATOM     39  Cl  UNL A   1      33.728  20.602  26.876  1.00  0.00    -0.082 Cl
ATOM     40  C   UNL A   1      32.379  17.762  24.426  1.00  0.00    -0.059 A 
ATOM     41  H   UNL A   1      31.766  17.935  22.417  1.00  0.00     0.064 H 
ATOM     42  H   UNL A   1      33.044  17.953  26.415  1.00  0.00     0.064 H 
ATOM     43  H   UNL A   1      32.173  16.754  24.497  1.00  0.00     0.062 H 
ENDBRANCH  31  33
ENDBRANCH  23  31
ENDBRANCH  18  21
ENDBRANCH  17  18
ENDBRANCH  12  17
ENDBRANCH   8  11
ENDBRANCH   4   7
ENDBRANCH   1   4
BRANCH   1  44
ATOM     44  C   UNL A   1      32.249  29.760  26.255  1.00  0.00    -0.052 C 
ATOM     45  H   UNL A   1      32.619  29.206  25.418  1.00  0.00     0.027 H 
ATOM     46  H   UNL A   1      33.004  30.350  26.732  1.00  0.00     0.027 H 
BRANCH  44  47
ATOM     47  C   UNL A   1      31.184  30.739  25.749  1.00  0.00    -0.052 C 
ATOM     48  H   UNL A   1      30.224  30.290  25.897  1.00  0.00     0.027 H 
ATOM     49  H   UNL A   1      31.413  30.923  24.721  1.00  0.00     0.027 H 
BRANCH  47  50
ATOM     50  C   UNL A   1      31.179  32.106  26.439  1.00  0.00    -0.036 C 
ATOM     51  H   UNL A   1      30.557  32.041  27.307  1.00  0.00     0.028 H 
ATOM     52  H   UNL A   1      30.819  32.810  25.718  1.00  0.00     0.028 H 
BRANCH  50  53
ATOM     53  C   UNL A   1      32.556  32.597  26.876  1.00  0.00     0.018 C 
ATOM     54  H   UNL A   1      33.217  32.572  26.034  1.00  0.00     0.049 H 
ATOM     55  H   UNL A   1      32.908  31.957  27.658  1.00  0.00     0.049 H 
BRANCH  53  56
ATOM     56  N   UNL A   1      32.502  33.957  27.392  1.00  0.00    -0.352 N 
ATOM     57  C   UNL A   1      33.179  34.514  28.448  1.00  0.00     0.251 C 
ATOM     58  H   UNL A   1      31.891  34.565  26.916  1.00  0.00     0.163 HD
ATOM     59  O   UNL A   1      32.838  35.601  28.900  1.00  0.00    -0.269 OA
BRANCH  57  60
ATOM     60  C   UNL A   1      34.325  33.797  29.047  1.00  0.00     0.039 A 
ATOM     61  C   UNL A   1      35.623  34.223  28.751  1.00  0.00    -0.049 A 
ATOM     62  C   UNL A   1      34.118  32.688  29.873  1.00  0.00    -0.049 A 
ATOM     63  C   UNL A   1      36.713  33.566  29.324  1.00  0.00    -0.053 A 
ATOM     64  H   UNL A   1      35.774  35.020  28.113  1.00  0.00     0.063 H 
ATOM     65  C   UNL A   1      35.202  32.076  30.494  1.00  0.00    -0.053 A 
ATOM     66  H   UNL A   1      33.163  32.323  30.020  1.00  0.00     0.063 H 
ATOM     67  C   UNL A   1      36.509  32.504  30.220  1.00  0.00    -0.014 A 
ATOM     68  H   UNL A   1      37.673  33.863  29.089  1.00  0.00     0.063 H 
ATOM     69  H   UNL A   1      35.043  31.304  31.161  1.00  0.00     0.063 H 
BRANCH  67  70
ATOM     70  C   UNL A   1      37.651  31.814  30.867  1.00  0.00     0.031 A 
ATOM     71  C   UNL A   1      38.077  32.205  32.255  1.00  0.00     0.074 A 
ATOM     72  C   UNL A   1      38.342  30.884  30.183  1.00  0.00     0.049 A 
ATOM     73  N   UNL A   1      39.093  31.777  32.962  1.00  0.00    -0.248 NA
ATOM     74  C   UNL A   1      37.270  33.235  32.927  1.00  0.00    -0.034 C 
ATOM     75  C   UNL A   1      38.050  30.451  28.815  1.00  0.00    -0.036 A 
ATOM     76  N   UNL A   1      39.437  30.138  30.541  1.00  0.00    -0.354 N 
ATOM     77  C   UNL A   1      39.057  32.497  34.148  1.00  0.00     0.074 A 
ATOM     78  C   UNL A   1      37.949  33.424  34.049  1.00  0.00    -0.034 C 
ATOM     79  H   UNL A   1      36.401  33.692  32.608  1.00  0.00     0.065 H 
ATOM     80  C   UNL A   1      38.926  29.499  28.460  1.00  0.00    -0.036 A 
ATOM     81  H   UNL A   1      37.292  30.819  28.220  1.00  0.00     0.065 H 
ATOM     82  C   UNL A   1      39.865  29.281  29.557  1.00  0.00     0.049 A 
ATOM     83  H   UNL A   1      39.874  30.212  31.420  1.00  0.00     0.167 HD
ATOM     84  C   UNL A   1      39.863  32.383  35.231  1.00  0.00     0.037 A 
ATOM     85  H   UNL A   1      37.719  34.137  34.758  1.00  0.00     0.065 H 
ATOM     86  H   UNL A   1      38.936  29.000  27.556  1.00  0.00     0.065 H 
ATOM     87  C   UNL A   1      40.901  28.421  29.544  1.00  0.00     0.037 A 
ATOM     88  C   UNL A   1      40.945  31.440  35.336  1.00  0.00     0.049 A 
ATOM     89  C   UNL A   1      41.776  28.307  30.762  1.00  0.00     0.074 A 
ATOM     90  C   UNL A   1      41.784  31.205  36.411  1.00  0.00    -0.036 A 
ATOM     91  N   UNL A   1      41.337  30.574  34.326  1.00  0.00    -0.354 N 
ATOM     92  N   UNL A   1      41.701  28.955  31.899  1.00  0.00    -0.248 NA
ATOM     93  C   UNL A   1      42.881  27.340  30.695  1.00  0.00    -0.034 C 
ATOM     94  C   UNL A   1      42.711  30.225  36.036  1.00  0.00    -0.036 A 
ATOM     95  H   UNL A   1      41.735  31.670  37.331  1.00  0.00     0.065 H 
ATOM     96  C   UNL A   1      42.419  29.816  34.745  1.00  0.00     0.049 A 
ATOM     97  H   UNL A   1      40.908  30.506  33.442  1.00  0.00     0.167 HD
ATOM     98  C   UNL A   1      42.725  28.458  32.691  1.00  0.00     0.074 A 
ATOM     99  C   UNL A   1      43.402  27.443  31.909  1.00  0.00    -0.034 C 
ATOM    100  H   UNL A   1      43.174  26.738  29.910  1.00  0.00     0.065 H 
ATOM    101  H   UNL A   1      43.482  29.870  36.621  1.00  0.00     0.065 H 
ATOM    102  C   UNL A   1      43.075  28.808  33.953  1.00  0.00     0.037 A 
ATOM    103  H   UNL A   1      44.191  26.874  32.254  1.00  0.00     0.065 H 
BRANCH  84 104
ATOM    104  C   UNL A   1      39.605  33.302  36.390  1.00  0.00     0.064 A 
ATOM    105  C   UNL A   1      38.756  32.937  37.446  1.00  0.00     0.173 A 
ATOM    106  C   UNL A   1      40.243  34.550  36.464  1.00  0.00     0.173 A 
ATOM    107  F   UNL A   1      38.114  31.760  37.418  1.00  0.00    -0.203 F 
ATOM    108  C   UNL A   1      38.533  33.798  38.517  1.00  0.00     0.198 A 
ATOM    109  C   UNL A   1      40.041  35.395  37.552  1.00  0.00     0.198 A 
ATOM    110  F   UNL A   1      41.070  34.947  35.485  1.00  0.00    -0.203 F 
ATOM    111  F   UNL A   1      37.679  33.448  39.489  1.00  0.00    -0.200 F 
ATOM    112  C   UNL A   1      39.180  35.022  38.573  1.00  0.00     0.200 A 
ATOM    113  F   UNL A   1      40.679  36.573  37.611  1.00  0.00    -0.200 F 
ATOM    114  F   UNL A   1      38.970  35.847  39.609  1.00  0.00    -0.200 F 
ENDBRANCH  84 104
BRANCH  87 115
ATOM    115  C   UNL A   1      41.154  27.586  28.341  1.00  0.00     0.064 A 
ATOM    116  C   UNL A   1      40.519  26.347  28.180  1.00  0.00     0.173 A 
ATOM    117  C   UNL A   1      42.033  28.006  27.334  1.00  0.00     0.173 A 
ATOM    118  F   UNL A   1      39.686  25.894  29.129  1.00  0.00    -0.203 F 
ATOM    119  C   UNL A   1      40.769  25.551  27.064  1.00  0.00     0.198 A 
ATOM    120  C   UNL A   1      42.261  27.222  26.205  1.00  0.00     0.198 A 
ATOM    121  F   UNL A   1      42.665  29.184  27.443  1.00  0.00    -0.203 F 
ATOM    122  F   UNL A   1      40.184  24.351  26.957  1.00  0.00    -0.200 F 
ATOM    123  C   UNL A   1      41.635  25.992  26.074  1.00  0.00     0.200 A 
ATOM    124  F   UNL A   1      43.089  27.659  25.247  1.00  0.00    -0.200 F 
ATOM    125  F   UNL A   1      41.873  25.228  25.001  1.00  0.00    -0.200 F 
ENDBRANCH  87 115
BRANCH 102 126
ATOM    126  C   UNL A   1      44.223  28.071  34.577  1.00  0.00     0.064 A 
ATOM    127  C   UNL A   1      44.035  26.864  35.269  1.00  0.00     0.173 A 
ATOM    128  C   UNL A   1      45.534  28.555  34.446  1.00  0.00     0.173 A 
ATOM    129  F   UNL A   1      42.799  26.369  35.435  1.00  0.00    -0.203 F 
ATOM    130  C   UNL A   1      45.113  26.184  35.826  1.00  0.00     0.198 A 
ATOM    131  C   UNL A   1      46.613  27.856  34.978  1.00  0.00     0.198 A 
ATOM    132  F   UNL A   1      45.769  29.700  33.788  1.00  0.00    -0.203 F 
ATOM    133  F   UNL A   1      44.904  25.057  36.522  1.00  0.00    -0.200 F 
ATOM    134  C   UNL A   1      46.401  26.675  35.674  1.00  0.00     0.200 A 
ATOM    135  F   UNL A   1      47.858  28.326  34.820  1.00  0.00    -0.200 F 
ATOM    136  F   UNL A   1      47.439  26.014  36.205  1.00  0.00    -0.200 F 
ENDBRANCH 102 126
ENDBRANCH  67  70
ENDBRANCH  57  60
ENDBRANCH  53  56
ENDBRANCH  50  53
ENDBRANCH  47  50
ENDBRANCH  44  47
ENDBRANCH   1  44
TORSDOF 19
ENDMDL
