MODEL 1
REMARK VINA RESULT:     -10.9      0.000      0.000
REMARK SMILES CC(=O)Oc1ccccc1C(=O)NCCCCCCNC(=O)c1ccc(-c2c3nc(c(-c4c(F)c(F)c(F)c(F)c4F)c4ccc([nH]4)c(-c4c(F)c(F)c(F)c(F)c4F)c4nc(c(-c5c(F)c(F)c(F)c(F)c5F)c5ccc2[nH]5)C=C4)C=C3)cc1
REMARK SMILES IDX 16 1 15 4 14 7 13 10 11 11 12 12 10 14 5 15 6 16 7 17 9 19
REMARK SMILES IDX 8 20 4 24 2 25 3 26 1 27 17 31 18 34 19 37 20 40 21 41 22 43
REMARK SMILES IDX 23 44 24 45 85 46 25 47 84 49 26 51 27 54 28 55 78 56 29 57
REMARK SMILES IDX 83 58 77 59 79 60 30 61 82 62 76 64 75 66 31 68 63 71 43 72
REMARK SMILES IDX 62 73 44 74 47 75 61 76 80 77 45 78 46 80 60 82 81 83 48 86
REMARK SMILES IDX 32 88 33 89 41 90 34 91 35 92 39 93 42 94 36 95 37 96 40 97
REMARK SMILES IDX 38 98 64 99 65 100 73 101 66 102 67 103 71 104 74 105 68 106
REMARK SMILES IDX 69 107 72 108 70 109 49 110 50 111 58 112 51 113 52 114
REMARK SMILES IDX 56 115 59 116 53 117 54 118 57 119 55 120
REMARK H PARENT 16 2 16 3 15 5 15 6 14 8 14 9 13 13 6 18 7 21 9 22 8 23 1 28
REMARK H PARENT 1 29 1 30 17 32 17 33 18 35 18 36 19 38 19 39 20 42 24 48
REMARK H PARENT 85 50 25 52 84 53 83 63 77 65 79 67 82 69 76 70 44 79 47 81
REMARK H PARENT 80 84 45 85 81 87
REMARK Flexibility Score: inf
ROOT
ATOM      1  C   UNL A   1      32.271  29.936  26.333  1.00  0.00    -0.052 C 
ATOM      2  H   UNL A   1      32.778  29.517  25.488  1.00  0.00     0.027 H 
ATOM      3  H   UNL A   1      32.874  30.519  26.997  1.00  0.00     0.027 H 
ENDROOT
BRANCH   1   4
ATOM      4  C   UNL A   1      31.780  28.766  27.194  1.00  0.00    -0.036 C 
ATOM      5  H   UNL A   1      32.034  28.986  28.210  1.00  0.00     0.028 H 
ATOM      6  H   UNL A   1      30.731  28.698  26.989  1.00  0.00     0.028 H 
BRANCH   4   7
ATOM      7  C   UNL A   1      32.329  27.379  26.876  1.00  0.00     0.018 C 
ATOM      8  H   UNL A   1      33.089  27.490  26.131  1.00  0.00     0.049 H 
ATOM      9  H   UNL A   1      32.687  26.987  27.805  1.00  0.00     0.049 H 
BRANCH   7  10
ATOM     10  N   UNL A   1      31.367  26.424  26.390  1.00  0.00    -0.352 N 
ATOM     11  C   UNL A   1      30.675  26.353  25.203  1.00  0.00     0.255 C 
ATOM     12  O   UNL A   1      29.931  25.376  25.070  1.00  0.00    -0.269 OA
ATOM     13  H   UNL A   1      31.170  25.693  27.018  1.00  0.00     0.163 HD
BRANCH  11  14
ATOM     14  C   UNL A   1      30.696  27.380  24.110  1.00  0.00     0.082 A 
ATOM     15  C   UNL A   1      31.787  27.844  23.365  1.00  0.00     0.143 A 
ATOM     16  C   UNL A   1      31.633  28.833  22.376  1.00  0.00    -0.018 A 
ATOM     17  C   UNL A   1      30.373  29.337  22.072  1.00  0.00    -0.059 A 
ATOM     18  H   UNL A   1      32.463  29.186  21.873  1.00  0.00     0.066 H 
ATOM     19  C   UNL A   1      29.427  27.896  23.763  1.00  0.00    -0.046 A 
ATOM     20  C   UNL A   1      29.265  28.860  22.760  1.00  0.00    -0.061 A 
ATOM     21  H   UNL A   1      30.264  30.059  21.343  1.00  0.00     0.062 H 
ATOM     22  H   UNL A   1      28.594  27.553  24.265  1.00  0.00     0.063 H 
ATOM     23  H   UNL A   1      28.324  29.215  22.532  1.00  0.00     0.062 H 
BRANCH  15  24
ATOM     24  O   UNL A   1      33.106  27.442  23.583  1.00  0.00    -0.426 OA
BRANCH  24  25
ATOM     25  C   UNL A   1      33.530  26.348  22.839  1.00  0.00     0.308 C 
ATOM     26  O   UNL A   1      33.651  26.290  21.626  1.00  0.00    -0.252 OA
BRANCH  25  27
ATOM     27  C   UNL A   1      33.831  25.218  23.783  1.00  0.00     0.034 C 
ATOM     28  H   UNL A   1      34.348  25.597  24.640  1.00  0.00     0.035 H 
ATOM     29  H   UNL A   1      34.443  24.494  23.289  1.00  0.00     0.035 H 
ATOM     30  H   UNL A   1      32.915  24.759  24.093  1.00  0.00     0.035 H 
ENDBRANCH  25  27
ENDBRANCH  24  25
ENDBRANCH  15  24
ENDBRANCH  11  14
ENDBRANCH   7  10
ENDBRANCH   4   7
ENDBRANCH   1   4
BRANCH   1  31
ATOM     31  C   UNL A   1      31.232  30.925  25.793  1.00  0.00    -0.052 C 
ATOM     32  H   UNL A   1      30.276  30.448  25.851  1.00  0.00     0.027 H 
ATOM     33  H   UNL A   1      31.572  31.161  24.806  1.00  0.00     0.027 H 
BRANCH  31  34
ATOM     34  C   UNL A   1      31.108  32.280  26.492  1.00  0.00    -0.036 C 
ATOM     35  H   UNL A   1      30.359  32.184  27.250  1.00  0.00     0.028 H 
ATOM     36  H   UNL A   1      30.877  32.973  25.711  1.00  0.00     0.028 H 
BRANCH  34  37
ATOM     37  C   UNL A   1      32.363  32.839  27.156  1.00  0.00     0.018 C 
ATOM     38  H   UNL A   1      33.162  32.815  26.445  1.00  0.00     0.049 H 
ATOM     39  H   UNL A   1      32.562  32.231  28.014  1.00  0.00     0.049 H 
BRANCH  37  40
ATOM     40  N   UNL A   1      32.209  34.203  27.627  1.00  0.00    -0.352 N 
ATOM     41  C   UNL A   1      32.906  34.905  28.580  1.00  0.00     0.251 C 
ATOM     42  H   UNL A   1      31.487  34.709  27.190  1.00  0.00     0.163 HD
ATOM     43  O   UNL A   1      32.530  36.033  28.890  1.00  0.00    -0.269 OA
BRANCH  41  44
ATOM     44  C   UNL A   1      34.086  34.324  29.267  1.00  0.00     0.039 A 
ATOM     45  C   UNL A   1      33.874  33.576  30.432  1.00  0.00    -0.049 A 
ATOM     46  C   UNL A   1      35.393  34.545  28.825  1.00  0.00    -0.049 A 
ATOM     47  C   UNL A   1      34.955  33.009  31.115  1.00  0.00    -0.053 A 
ATOM     48  H   UNL A   1      32.915  33.441  30.788  1.00  0.00     0.063 H 
ATOM     49  C   UNL A   1      36.466  33.920  29.465  1.00  0.00    -0.053 A 
ATOM     50  H   UNL A   1      35.566  35.173  28.024  1.00  0.00     0.063 H 
ATOM     51  C   UNL A   1      36.261  33.151  30.621  1.00  0.00    -0.014 A 
ATOM     52  H   UNL A   1      34.792  32.482  31.987  1.00  0.00     0.063 H 
ATOM     53  H   UNL A   1      37.419  34.024  29.081  1.00  0.00     0.063 H 
BRANCH  51  54
ATOM     54  C   UNL A   1      37.418  32.516  31.309  1.00  0.00     0.031 A 
ATOM     55  C   UNL A   1      38.141  31.359  30.675  1.00  0.00     0.074 A 
ATOM     56  C   UNL A   1      37.783  32.939  32.535  1.00  0.00     0.049 A 
ATOM     57  N   UNL A   1      39.127  30.637  31.147  1.00  0.00    -0.248 NA
ATOM     58  C   UNL A   1      37.674  30.940  29.345  1.00  0.00    -0.034 C 
ATOM     59  C   UNL A   1      37.132  34.013  33.286  1.00  0.00    -0.036 A 
ATOM     60  N   UNL A   1      38.779  32.504  33.374  1.00  0.00    -0.354 N 
ATOM     61  C   UNL A   1      39.383  29.669  30.184  1.00  0.00     0.074 A 
ATOM     62  C   UNL A   1      38.416  29.864  29.125  1.00  0.00    -0.034 C 
ATOM     63  H   UNL A   1      36.956  31.370  28.742  1.00  0.00     0.065 H 
ATOM     64  C   UNL A   1      37.750  34.161  34.467  1.00  0.00    -0.036 A 
ATOM     65  H   UNL A   1      36.327  34.570  32.957  1.00  0.00     0.065 H 
ATOM     66  C   UNL A   1      38.820  33.171  34.574  1.00  0.00     0.049 A 
ATOM     67  H   UNL A   1      39.406  31.781  33.138  1.00  0.00     0.167 HD
ATOM     68  C   UNL A   1      40.349  28.719  30.173  1.00  0.00     0.037 A 
ATOM     69  H   UNL A   1      38.316  29.246  28.305  1.00  0.00     0.065 H 
ATOM     70  H   UNL A   1      37.509  34.860  35.186  1.00  0.00     0.065 H 
ATOM     71  C   UNL A   1      39.619  33.001  35.644  1.00  0.00     0.037 A 
ATOM     72  C   UNL A   1      41.330  28.545  31.212  1.00  0.00     0.049 A 
ATOM     73  C   UNL A   1      40.698  31.952  35.602  1.00  0.00     0.074 A 
ATOM     74  C   UNL A   1      42.396  27.664  31.254  1.00  0.00    -0.036 A 
ATOM     75  N   UNL A   1      41.360  29.264  32.398  1.00  0.00    -0.354 N 
ATOM     76  N   UNL A   1      40.981  31.095  34.651  1.00  0.00    -0.248 NA
ATOM     77  C   UNL A   1      41.575  31.855  36.777  1.00  0.00    -0.034 C 
ATOM     78  C   UNL A   1      43.043  27.815  32.487  1.00  0.00    -0.036 A 
ATOM     79  H   UNL A   1      42.668  27.006  30.507  1.00  0.00     0.065 H 
ATOM     80  C   UNL A   1      42.411  28.828  33.191  1.00  0.00     0.049 A 
ATOM     81  H   UNL A   1      40.729  29.979  32.641  1.00  0.00     0.167 HD
ATOM     82  C   UNL A   1      42.077  30.373  35.102  1.00  0.00     0.074 A 
ATOM     83  C   UNL A   1      42.420  30.903  36.405  1.00  0.00    -0.034 C 
ATOM     84  H   UNL A   1      41.543  32.389  37.660  1.00  0.00     0.065 H 
ATOM     85  H   UNL A   1      43.852  27.267  32.815  1.00  0.00     0.065 H 
ATOM     86  C   UNL A   1      42.739  29.360  34.489  1.00  0.00     0.037 A 
ATOM     87  H   UNL A   1      43.219  30.581  36.972  1.00  0.00     0.065 H 
BRANCH  68  88
ATOM     88  C   UNL A   1      40.388  27.787  28.993  1.00  0.00     0.064 A 
ATOM     89  C   UNL A   1      41.162  28.066  27.856  1.00  0.00     0.173 A 
ATOM     90  C   UNL A   1      39.656  26.590  29.009  1.00  0.00     0.173 A 
ATOM     91  F   UNL A   1      41.874  29.201  27.786  1.00  0.00    -0.203 F 
ATOM     92  C   UNL A   1      41.169  27.204  26.764  1.00  0.00     0.198 A 
ATOM     93  C   UNL A   1      39.692  25.713  27.927  1.00  0.00     0.198 A 
ATOM     94  F   UNL A   1      38.906  26.268  30.074  1.00  0.00    -0.203 F 
ATOM     95  F   UNL A   1      41.867  27.521  25.665  1.00  0.00    -0.200 F 
ATOM     96  C   UNL A   1      40.438  26.025  26.801  1.00  0.00     0.200 A 
ATOM     97  F   UNL A   1      38.996  24.569  27.971  1.00  0.00    -0.200 F 
ATOM     98  F   UNL A   1      40.446  25.196  25.749  1.00  0.00    -0.200 F 
ENDBRANCH  68  88
BRANCH  71  99
ATOM     99  C   UNL A   1      39.436  33.862  36.841  1.00  0.00     0.064 A 
ATOM    100  C   UNL A   1      38.690  33.422  37.941  1.00  0.00     0.173 A 
ATOM    101  C   UNL A   1      40.023  35.134  36.916  1.00  0.00     0.173 A 
ATOM    102  F   UNL A   1      38.093  32.221  37.907  1.00  0.00    -0.203 F 
ATOM    103  C   UNL A   1      38.526  34.225  39.068  1.00  0.00     0.198 A 
ATOM    104  C   UNL A   1      39.882  35.925  38.054  1.00  0.00     0.198 A 
ATOM    105  F   UNL A   1      40.752  35.599  35.891  1.00  0.00    -0.203 F 
ATOM    106  F   UNL A   1      37.778  33.794  40.093  1.00  0.00    -0.200 F 
ATOM    107  C   UNL A   1      39.129  35.472  39.126  1.00  0.00     0.200 A 
ATOM    108  F   UNL A   1      40.479  37.124  38.112  1.00  0.00    -0.200 F 
ATOM    109  F   UNL A   1      38.981  36.240  40.215  1.00  0.00    -0.200 F 
ENDBRANCH  71  99
BRANCH  86 110
ATOM    110  C   UNL A   1      43.916  28.770  35.211  1.00  0.00     0.064 A 
ATOM    111  C   UNL A   1      43.771  27.681  36.083  1.00  0.00     0.173 A 
ATOM    112  C   UNL A   1      45.207  29.273  34.998  1.00  0.00     0.173 A 
ATOM    113  F   UNL A   1      42.555  27.172  36.333  1.00  0.00    -0.203 F 
ATOM    114  C   UNL A   1      44.875  27.132  36.733  1.00  0.00     0.198 A 
ATOM    115  C   UNL A   1      46.312  28.703  35.626  1.00  0.00     0.198 A 
ATOM    116  F   UNL A   1      45.401  30.310  34.169  1.00  0.00    -0.203 F 
ATOM    117  F   UNL A   1      44.707  26.121  37.596  1.00  0.00    -0.200 F 
ATOM    118  C   UNL A   1      46.144  27.638  36.498  1.00  0.00     0.200 A 
ATOM    119  F   UNL A   1      47.539  29.187  35.388  1.00  0.00    -0.200 F 
ATOM    120  F   UNL A   1      47.205  27.104  37.117  1.00  0.00    -0.200 F 
ENDBRANCH  86 110
ENDBRANCH  51  54
ENDBRANCH  41  44
ENDBRANCH  37  40
ENDBRANCH  34  37
ENDBRANCH  31  34
ENDBRANCH   1  31
TORSDOF 16
ENDMDL
MODEL 2
REMARK VINA RESULT:     -10.8      0.792      1.990
REMARK SMILES CC(=O)Oc1ccccc1C(=O)NCCCCCCNC(=O)c1ccc(-c2c3nc(c(-c4c(F)c(F)c(F)c(F)c4F)c4ccc([nH]4)c(-c4c(F)c(F)c(F)c(F)c4F)c4nc(c(-c5c(F)c(F)c(F)c(F)c5F)c5ccc2[nH]5)C=C4)C=C3)cc1
REMARK SMILES IDX 16 1 15 4 14 7 13 10 11 11 12 12 10 14 5 15 6 16 7 17 9 19
REMARK SMILES IDX 8 20 4 24 2 25 3 26 1 27 17 31 18 34 19 37 20 40 21 41 22 43
REMARK SMILES IDX 23 44 24 45 85 46 25 47 84 49 26 51 27 54 28 55 78 56 29 57
REMARK SMILES IDX 83 58 77 59 79 60 30 61 82 62 76 64 75 66 31 68 63 71 43 72
REMARK SMILES IDX 62 73 44 74 47 75 61 76 80 77 45 78 46 80 60 82 81 83 48 86
REMARK SMILES IDX 32 88 33 89 41 90 34 91 35 92 39 93 42 94 36 95 37 96 40 97
REMARK SMILES IDX 38 98 64 99 65 100 73 101 66 102 67 103 71 104 74 105 68 106
REMARK SMILES IDX 69 107 72 108 70 109 49 110 50 111 58 112 51 113 52 114
REMARK SMILES IDX 56 115 59 116 53 117 54 118 57 119 55 120
REMARK H PARENT 16 2 16 3 15 5 15 6 14 8 14 9 13 13 6 18 7 21 9 22 8 23 1 28
REMARK H PARENT 1 29 1 30 17 32 17 33 18 35 18 36 19 38 19 39 20 42 24 48
REMARK H PARENT 85 50 25 52 84 53 83 63 77 65 79 67 82 69 76 70 44 79 47 81
REMARK H PARENT 80 84 45 85 81 87
REMARK Flexibility Score: inf
ROOT
ATOM      1  C   UNL A   1      32.876  30.230  27.089  1.00  0.00    -0.052 C 
ATOM      2  H   UNL A   1      33.621  30.557  26.394  1.00  0.00     0.027 H 
ATOM      3  H   UNL A   1      33.007  30.555  28.100  1.00  0.00     0.027 H 
ENDROOT
BRANCH   1   4
ATOM      4  C   UNL A   1      32.965  28.702  27.166  1.00  0.00    -0.036 C 
ATOM      5  H   UNL A   1      33.199  28.444  28.178  1.00  0.00     0.028 H 
ATOM      6  H   UNL A   1      32.015  28.356  26.813  1.00  0.00     0.028 H 
BRANCH   4   7
ATOM      7  C   UNL A   1      33.988  28.011  26.270  1.00  0.00     0.018 C 
ATOM      8  H   UNL A   1      34.933  28.034  26.771  1.00  0.00     0.049 H 
ATOM      9  H   UNL A   1      33.610  27.024  26.102  1.00  0.00     0.049 H 
BRANCH   7  10
ATOM     10  N   UNL A   1      34.165  28.592  24.963  1.00  0.00    -0.352 N 
ATOM     11  C   UNL A   1      33.348  28.608  23.856  1.00  0.00     0.255 C 
ATOM     12  O   UNL A   1      33.778  29.226  22.878  1.00  0.00    -0.269 OA
ATOM     13  H   UNL A   1      35.023  29.058  24.841  1.00  0.00     0.163 HD
BRANCH  11  14
ATOM     14  C   UNL A   1      32.037  27.893  23.720  1.00  0.00     0.082 A 
ATOM     15  C   UNL A   1      31.792  26.515  23.661  1.00  0.00     0.143 A 
ATOM     16  C   UNL A   1      30.489  26.007  23.515  1.00  0.00    -0.018 A 
ATOM     17  C   UNL A   1      29.396  26.865  23.482  1.00  0.00    -0.059 A 
ATOM     18  H   UNL A   1      30.344  24.988  23.432  1.00  0.00     0.066 H 
ATOM     19  C   UNL A   1      30.904  28.738  23.705  1.00  0.00    -0.046 A 
ATOM     20  C   UNL A   1      29.602  28.234  23.588  1.00  0.00    -0.061 A 
ATOM     21  H   UNL A   1      28.440  26.489  23.380  1.00  0.00     0.062 H 
ATOM     22  H   UNL A   1      31.040  29.757  23.782  1.00  0.00     0.063 H 
ATOM     23  H   UNL A   1      28.798  28.880  23.581  1.00  0.00     0.062 H 
BRANCH  15  24
ATOM     24  O   UNL A   1      32.797  25.546  23.659  1.00  0.00    -0.426 OA
BRANCH  24  25
ATOM     25  C   UNL A   1      33.250  25.155  22.405  1.00  0.00     0.308 C 
ATOM     26  O   UNL A   1      33.645  25.885  21.509  1.00  0.00    -0.252 OA
BRANCH  25  27
ATOM     27  C   UNL A   1      33.183  23.656  22.320  1.00  0.00     0.034 C 
ATOM     28  H   UNL A   1      32.880  23.258  23.266  1.00  0.00     0.035 H 
ATOM     29  H   UNL A   1      34.148  23.271  22.064  1.00  0.00     0.035 H 
ATOM     30  H   UNL A   1      32.476  23.373  21.569  1.00  0.00     0.035 H 
ENDBRANCH  25  27
ENDBRANCH  24  25
ENDBRANCH  15  24
ENDBRANCH  11  14
ENDBRANCH   7  10
ENDBRANCH   4   7
ENDBRANCH   1   4
BRANCH   1  31
ATOM     31  C   UNL A   1      31.547  30.858  26.657  1.00  0.00    -0.052 C 
ATOM     32  H   UNL A   1      30.774  30.409  27.245  1.00  0.00     0.027 H 
ATOM     33  H   UNL A   1      31.492  30.675  25.603  1.00  0.00     0.027 H 
BRANCH  31  34
ATOM     34  C   UNL A   1      31.398  32.375  26.792  1.00  0.00    -0.036 C 
ATOM     35  H   UNL A   1      30.707  32.561  27.587  1.00  0.00     0.028 H 
ATOM     36  H   UNL A   1      31.080  32.708  25.826  1.00  0.00     0.028 H 
BRANCH  34  37
ATOM     37  C   UNL A   1      32.663  33.176  27.087  1.00  0.00     0.018 C 
ATOM     38  H   UNL A   1      33.176  33.351  26.165  1.00  0.00     0.049 H 
ATOM     39  H   UNL A   1      33.246  32.600  27.775  1.00  0.00     0.049 H 
BRANCH  37  40
ATOM     40  N   UNL A   1      32.402  34.457  27.718  1.00  0.00    -0.352 N 
ATOM     41  C   UNL A   1      33.011  35.068  28.787  1.00  0.00     0.251 C 
ATOM     42  H   UNL A   1      31.670  34.973  27.311  1.00  0.00     0.163 HD
ATOM     43  O   UNL A   1      32.551  36.124  29.216  1.00  0.00    -0.269 OA
BRANCH  41  44
ATOM     44  C   UNL A   1      34.194  34.472  29.455  1.00  0.00     0.039 A 
ATOM     45  C   UNL A   1      33.992  33.742  30.633  1.00  0.00    -0.049 A 
ATOM     46  C   UNL A   1      35.494  34.662  28.982  1.00  0.00    -0.049 A 
ATOM     47  C   UNL A   1      35.077  33.162  31.300  1.00  0.00    -0.053 A 
ATOM     48  H   UNL A   1      33.039  33.631  31.012  1.00  0.00     0.063 H 
ATOM     49  C   UNL A   1      36.569  34.023  29.606  1.00  0.00    -0.053 A 
ATOM     50  H   UNL A   1      35.663  35.276  28.169  1.00  0.00     0.063 H 
ATOM     51  C   UNL A   1      36.374  33.272  30.776  1.00  0.00    -0.014 A 
ATOM     52  H   UNL A   1      34.923  32.650  32.182  1.00  0.00     0.063 H 
ATOM     53  H   UNL A   1      37.515  34.103  29.201  1.00  0.00     0.063 H 
BRANCH  51  54
ATOM     54  C   UNL A   1      37.533  32.623  31.447  1.00  0.00     0.031 A 
ATOM     55  C   UNL A   1      38.235  31.460  30.799  1.00  0.00     0.074 A 
ATOM     56  C   UNL A   1      37.919  33.038  32.669  1.00  0.00     0.049 A 
ATOM     57  N   UNL A   1      39.219  30.725  31.256  1.00  0.00    -0.248 NA
ATOM     58  C   UNL A   1      37.746  31.050  29.475  1.00  0.00    -0.034 C 
ATOM     59  C   UNL A   1      37.290  34.117  33.432  1.00  0.00    -0.036 A 
ATOM     60  N   UNL A   1      38.921  32.589  33.494  1.00  0.00    -0.354 N 
ATOM     61  C   UNL A   1      39.452  29.758  30.287  1.00  0.00     0.074 A 
ATOM     62  C   UNL A   1      38.473  29.967  29.242  1.00  0.00    -0.034 C 
ATOM     63  H   UNL A   1      37.025  31.490  28.883  1.00  0.00     0.065 H 
ATOM     64  C   UNL A   1      37.925  34.253  34.605  1.00  0.00    -0.036 A 
ATOM     65  H   UNL A   1      36.487  34.683  33.116  1.00  0.00     0.065 H 
ATOM     66  C   UNL A   1      38.985  33.252  34.695  1.00  0.00     0.049 A 
ATOM     67  H   UNL A   1      39.537  31.860  33.247  1.00  0.00     0.167 HD
ATOM     68  C   UNL A   1      40.407  28.797  30.260  1.00  0.00     0.037 A 
ATOM     69  H   UNL A   1      38.356  29.352  28.421  1.00  0.00     0.065 H 
ATOM     70  H   UNL A   1      37.701  34.953  35.329  1.00  0.00     0.065 H 
ATOM     71  C   UNL A   1      39.797  33.070  35.754  1.00  0.00     0.037 A 
ATOM     72  C   UNL A   1      41.400  28.609  31.285  1.00  0.00     0.049 A 
ATOM     73  C   UNL A   1      40.863  32.009  35.694  1.00  0.00     0.074 A 
ATOM     74  C   UNL A   1      42.457  27.717  31.311  1.00  0.00    -0.036 A 
ATOM     75  N   UNL A   1      41.454  29.325  32.474  1.00  0.00    -0.354 N 
ATOM     76  N   UNL A   1      41.124  31.152  34.737  1.00  0.00    -0.248 NA
ATOM     77  C   UNL A   1      41.755  31.899  36.857  1.00  0.00    -0.034 C 
ATOM     78  C   UNL A   1      43.121  27.857  32.536  1.00  0.00    -0.036 A 
ATOM     79  H   UNL A   1      42.712  27.059  30.558  1.00  0.00     0.065 H 
ATOM     80  C   UNL A   1      42.510  28.874  33.251  1.00  0.00     0.049 A 
ATOM     81  H   UNL A   1      40.834  30.046  32.727  1.00  0.00     0.167 HD
ATOM     82  C   UNL A   1      42.218  30.417  35.171  1.00  0.00     0.074 A 
ATOM     83  C   UNL A   1      42.584  30.939  36.471  1.00  0.00    -0.034 C 
ATOM     84  H   UNL A   1      41.740  32.430  37.742  1.00  0.00     0.065 H 
ATOM     85  H   UNL A   1      43.929  27.299  32.851  1.00  0.00     0.065 H 
ATOM     86  C   UNL A   1      42.861  29.399  34.546  1.00  0.00     0.037 A 
ATOM     87  H   UNL A   1      43.387  30.606  37.027  1.00  0.00     0.065 H 
BRANCH  68  88
ATOM     88  C   UNL A   1      40.421  27.869  29.077  1.00  0.00     0.064 A 
ATOM     89  C   UNL A   1      41.212  28.124  27.946  1.00  0.00     0.173 A 
ATOM     90  C   UNL A   1      39.645  26.699  29.084  1.00  0.00     0.173 A 
ATOM     91  F   UNL A   1      41.966  29.232  27.886  1.00  0.00    -0.203 F 
ATOM     92  C   UNL A   1      41.196  27.266  26.851  1.00  0.00     0.198 A 
ATOM     93  C   UNL A   1      39.657  25.826  27.998  1.00  0.00     0.198 A 
ATOM     94  F   UNL A   1      38.877  26.401  30.142  1.00  0.00    -0.203 F 
ATOM     95  F   UNL A   1      41.913  27.562  25.758  1.00  0.00    -0.200 F 
ATOM     96  C   UNL A   1      40.422  26.114  26.879  1.00  0.00     0.200 A 
ATOM     97  F   UNL A   1      38.920  24.707  28.033  1.00  0.00    -0.200 F 
ATOM     98  F   UNL A   1      40.407  25.289  25.824  1.00  0.00    -0.200 F 
ENDBRANCH  68  88
BRANCH  71  99
ATOM     99  C   UNL A   1      39.639  33.929  36.956  1.00  0.00     0.064 A 
ATOM    100  C   UNL A   1      40.264  35.180  37.037  1.00  0.00     0.173 A 
ATOM    101  C   UNL A   1      38.840  33.525  38.036  1.00  0.00     0.173 A 
ATOM    102  F   UNL A   1      41.053  35.600  36.037  1.00  0.00    -0.203 F 
ATOM    103  C   UNL A   1      40.107  35.990  38.160  1.00  0.00     0.198 A 
ATOM    104  C   UNL A   1      38.663  34.347  39.146  1.00  0.00     0.198 A 
ATOM    105  F   UNL A   1      38.216  32.339  38.004  1.00  0.00    -0.203 F 
ATOM    106  F   UNL A   1      40.745  37.167  38.228  1.00  0.00    -0.200 F 
ATOM    107  C   UNL A   1      39.301  35.577  39.209  1.00  0.00     0.200 A 
ATOM    108  F   UNL A   1      37.870  33.951  40.151  1.00  0.00    -0.200 F 
ATOM    109  F   UNL A   1      39.142  36.361  40.284  1.00  0.00    -0.200 F 
ENDBRANCH  71  99
BRANCH  86 110
ATOM    110  C   UNL A   1      44.041  28.794  35.251  1.00  0.00     0.064 A 
ATOM    111  C   UNL A   1      45.338  29.296  35.075  1.00  0.00     0.173 A 
ATOM    112  C   UNL A   1      43.865  27.726  36.144  1.00  0.00     0.173 A 
ATOM    113  F   UNL A   1      45.561  30.306  34.221  1.00  0.00    -0.203 F 
ATOM    114  C   UNL A   1      46.421  28.736  35.749  1.00  0.00     0.198 A 
ATOM    115  C   UNL A   1      44.945  27.187  36.839  1.00  0.00     0.198 A 
ATOM    116  F   UNL A   1      42.644  27.212  36.353  1.00  0.00    -0.203 F 
ATOM    117  F   UNL A   1      47.658  29.202  35.531  1.00  0.00    -0.200 F 
ATOM    118  C   UNL A   1      46.222  27.688  36.636  1.00  0.00     0.200 A 
ATOM    119  F   UNL A   1      44.749  26.183  37.704  1.00  0.00    -0.200 F 
ATOM    120  F   UNL A   1      47.264  27.155  37.289  1.00  0.00    -0.200 F 
ENDBRANCH  86 110
ENDBRANCH  51  54
ENDBRANCH  41  44
ENDBRANCH  37  40
ENDBRANCH  34  37
ENDBRANCH  31  34
ENDBRANCH   1  31
TORSDOF 16
ENDMDL
MODEL 3
REMARK VINA RESULT:     -10.8      4.735     10.533
REMARK SMILES CC(=O)Oc1ccccc1C(=O)NCCCCCCNC(=O)c1ccc(-c2c3nc(c(-c4c(F)c(F)c(F)c(F)c4F)c4ccc([nH]4)c(-c4c(F)c(F)c(F)c(F)c4F)c4nc(c(-c5c(F)c(F)c(F)c(F)c5F)c5ccc2[nH]5)C=C4)C=C3)cc1
REMARK SMILES IDX 16 1 15 4 14 7 13 10 11 11 12 12 10 14 5 15 6 16 7 17 9 19
REMARK SMILES IDX 8 20 4 24 2 25 3 26 1 27 17 31 18 34 19 37 20 40 21 41 22 43
REMARK SMILES IDX 23 44 24 45 85 46 25 47 84 49 26 51 27 54 28 55 78 56 29 57
REMARK SMILES IDX 83 58 77 59 79 60 30 61 82 62 76 64 75 66 31 68 63 71 43 72
REMARK SMILES IDX 62 73 44 74 47 75 61 76 80 77 45 78 46 80 60 82 81 83 48 86
REMARK SMILES IDX 32 88 33 89 41 90 34 91 35 92 39 93 42 94 36 95 37 96 40 97
REMARK SMILES IDX 38 98 64 99 65 100 73 101 66 102 67 103 71 104 74 105 68 106
REMARK SMILES IDX 69 107 72 108 70 109 49 110 50 111 58 112 51 113 52 114
REMARK SMILES IDX 56 115 59 116 53 117 54 118 57 119 55 120
REMARK H PARENT 16 2 16 3 15 5 15 6 14 8 14 9 13 13 6 18 7 21 9 22 8 23 1 28
REMARK H PARENT 1 29 1 30 17 32 17 33 18 35 18 36 19 38 19 39 20 42 24 48
REMARK H PARENT 85 50 25 52 84 53 83 63 77 65 79 67 82 69 76 70 44 79 47 81
REMARK H PARENT 80 84 45 85 81 87
REMARK Flexibility Score: inf
ROOT
ATOM      1  C   UNL A   1      44.178  22.804  33.717  1.00  0.00    -0.052 C 
ATOM      2  H   UNL A   1      43.514  22.124  33.224  1.00  0.00     0.027 H 
ATOM      3  H   UNL A   1      43.781  23.304  34.575  1.00  0.00     0.027 H 
ENDROOT
BRANCH   1   4
ATOM      4  C   UNL A   1      44.488  23.933  32.728  1.00  0.00    -0.036 C 
ATOM      5  H   UNL A   1      43.653  24.602  32.732  1.00  0.00     0.028 H 
ATOM      6  H   UNL A   1      45.411  24.352  33.072  1.00  0.00     0.028 H 
BRANCH   4   7
ATOM      7  C   UNL A   1      44.755  23.544  31.277  1.00  0.00     0.018 C 
ATOM      8  H   UNL A   1      45.295  24.344  30.816  1.00  0.00     0.049 H 
ATOM      9  H   UNL A   1      45.296  22.622  31.317  1.00  0.00     0.049 H 
BRANCH   7  10
ATOM     10  N   UNL A   1      43.586  23.279  30.478  1.00  0.00    -0.352 N 
ATOM     11  C   UNL A   1      43.396  23.283  29.115  1.00  0.00     0.255 C 
ATOM     12  O   UNL A   1      42.263  22.979  28.728  1.00  0.00    -0.269 OA
ATOM     13  H   UNL A   1      42.781  23.057  30.999  1.00  0.00     0.163 HD
BRANCH  11  14
ATOM     14  C   UNL A   1      44.410  23.686  28.086  1.00  0.00     0.082 A 
ATOM     15  C   UNL A   1      44.819  22.992  26.940  1.00  0.00     0.143 A 
ATOM     16  C   UNL A   1      45.804  23.511  26.081  1.00  0.00    -0.018 A 
ATOM     17  C   UNL A   1      46.360  24.763  26.319  1.00  0.00    -0.059 A 
ATOM     18  H   UNL A   1      46.116  22.958  25.267  1.00  0.00     0.066 H 
ATOM     19  C   UNL A   1      44.979  24.963  28.290  1.00  0.00    -0.046 A 
ATOM     20  C   UNL A   1      45.939  25.497  27.421  1.00  0.00    -0.061 A 
ATOM     21  H   UNL A   1      47.079  25.143  25.684  1.00  0.00     0.062 H 
ATOM     22  H   UNL A   1      44.677  25.521  29.104  1.00  0.00     0.063 H 
ATOM     23  H   UNL A   1      46.333  26.433  27.599  1.00  0.00     0.062 H 
BRANCH  15  24
ATOM     24  O   UNL A   1      44.362  21.719  26.596  1.00  0.00    -0.426 OA
BRANCH  24  25
ATOM     25  C   UNL A   1      43.359  21.682  25.636  1.00  0.00     0.308 C 
ATOM     26  O   UNL A   1      43.312  22.327  24.601  1.00  0.00    -0.252 OA
BRANCH  25  27
ATOM     27  C   UNL A   1      42.315  20.693  26.075  1.00  0.00     0.034 C 
ATOM     28  H   UNL A   1      41.686  21.144  26.815  1.00  0.00     0.035 H 
ATOM     29  H   UNL A   1      42.793  19.831  26.491  1.00  0.00     0.035 H 
ATOM     30  H   UNL A   1      41.724  20.401  25.233  1.00  0.00     0.035 H 
ENDBRANCH  25  27
ENDBRANCH  24  25
ENDBRANCH  15  24
ENDBRANCH  11  14
ENDBRANCH   7  10
ENDBRANCH   4   7
ENDBRANCH   1   4
BRANCH   1  31
ATOM     31  C   UNL A   1      45.347  21.979  34.264  1.00  0.00    -0.052 C 
ATOM     32  H   UNL A   1      45.997  21.761  33.443  1.00  0.00     0.027 H 
ATOM     33  H   UNL A   1      44.886  21.130  34.726  1.00  0.00     0.027 H 
BRANCH  31  34
ATOM     34  C   UNL A   1      46.202  22.600  35.371  1.00  0.00    -0.036 C 
ATOM     35  H   UNL A   1      46.724  21.804  35.859  1.00  0.00     0.028 H 
ATOM     36  H   UNL A   1      45.509  23.134  35.987  1.00  0.00     0.028 H 
BRANCH  34  37
ATOM     37  C   UNL A   1      47.238  23.638  34.952  1.00  0.00     0.018 C 
ATOM     38  H   UNL A   1      46.819  24.238  34.171  1.00  0.00     0.049 H 
ATOM     39  H   UNL A   1      48.107  23.102  34.632  1.00  0.00     0.049 H 
BRANCH  37  40
ATOM     40  N   UNL A   1      47.650  24.513  36.033  1.00  0.00    -0.352 N 
ATOM     41  C   UNL A   1      47.194  25.755  36.403  1.00  0.00     0.251 C 
ATOM     42  H   UNL A   1      48.376  24.158  36.595  1.00  0.00     0.163 HD
ATOM     43  O   UNL A   1      47.769  26.362  37.304  1.00  0.00    -0.269 OA
BRANCH  41  44
ATOM     44  C   UNL A   1      46.041  26.395  35.724  1.00  0.00     0.039 A 
ATOM     45  C   UNL A   1      46.285  27.509  34.911  1.00  0.00    -0.049 A 
ATOM     46  C   UNL A   1      44.727  25.961  35.912  1.00  0.00    -0.049 A 
ATOM     47  C   UNL A   1      45.230  28.147  34.250  1.00  0.00    -0.053 A 
ATOM     48  H   UNL A   1      47.249  27.861  34.798  1.00  0.00     0.063 H 
ATOM     49  C   UNL A   1      43.682  26.551  35.196  1.00  0.00    -0.053 A 
ATOM     50  H   UNL A   1      44.526  25.202  36.582  1.00  0.00     0.063 H 
ATOM     51  C   UNL A   1      43.920  27.656  34.363  1.00  0.00    -0.014 A 
ATOM     52  H   UNL A   1      45.415  28.983  33.675  1.00  0.00     0.063 H 
ATOM     53  H   UNL A   1      42.726  26.170  35.280  1.00  0.00     0.063 H 
BRANCH  51  54
ATOM     54  C   UNL A   1      42.793  28.294  33.630  1.00  0.00     0.031 A 
ATOM     55  C   UNL A   1      42.566  27.998  32.172  1.00  0.00     0.074 A 
ATOM     56  C   UNL A   1      42.007  29.190  34.259  1.00  0.00     0.049 A 
ATOM     57  N   UNL A   1      41.679  28.503  31.351  1.00  0.00    -0.248 NA
ATOM     58  C   UNL A   1      43.476  27.026  31.549  1.00  0.00    -0.034 C 
ATOM     59  C   UNL A   1      42.152  29.609  35.653  1.00  0.00    -0.036 A 
ATOM     60  N   UNL A   1      40.940  29.924  33.801  1.00  0.00    -0.354 N 
ATOM     61  C   UNL A   1      41.938  27.927  30.113  1.00  0.00     0.074 A 
ATOM     62  C   UNL A   1      43.094  27.074  30.281  1.00  0.00    -0.034 C 
ATOM     63  H   UNL A   1      44.217  26.456  31.985  1.00  0.00     0.065 H 
ATOM     64  C   UNL A   1      41.206  30.515  35.940  1.00  0.00    -0.036 A 
ATOM     65  H   UNL A   1      42.867  29.260  36.311  1.00  0.00     0.065 H 
ATOM     66  C   UNL A   1      40.407  30.768  34.744  1.00  0.00     0.049 A 
ATOM     67  H   UNL A   1      40.590  29.851  32.883  1.00  0.00     0.167 HD
ATOM     68  C   UNL A   1      41.259  28.077  28.950  1.00  0.00     0.037 A 
ATOM     69  H   UNL A   1      43.563  26.569  29.512  1.00  0.00     0.065 H 
ATOM     70  H   UNL A   1      41.066  30.964  36.859  1.00  0.00     0.065 H 
ATOM     71  C   UNL A   1      39.397  31.654  34.655  1.00  0.00     0.037 A 
ATOM     72  C   UNL A   1      40.090  28.902  28.792  1.00  0.00     0.049 A 
ATOM     73  C   UNL A   1      38.645  31.791  33.358  1.00  0.00     0.074 A 
ATOM     74  C   UNL A   1      39.287  29.057  27.675  1.00  0.00    -0.036 A 
ATOM     75  N   UNL A   1      39.559  29.718  29.781  1.00  0.00    -0.354 N 
ATOM     76  N   UNL A   1      38.850  31.181  32.216  1.00  0.00    -0.248 NA
ATOM     77  C   UNL A   1      37.516  32.732  33.342  1.00  0.00    -0.034 C 
ATOM     78  C   UNL A   1      38.299  30.004  27.972  1.00  0.00    -0.036 A 
ATOM     79  H   UNL A   1      39.398  28.562  26.777  1.00  0.00     0.065 H 
ATOM     80  C   UNL A   1      38.455  30.399  29.291  1.00  0.00     0.049 A 
ATOM     81  H   UNL A   1      39.913  29.800  30.695  1.00  0.00     0.167 HD
ATOM     82  C   UNL A   1      37.866  31.645  31.353  1.00  0.00     0.074 A 
ATOM     83  C   UNL A   1      37.054  32.577  32.108  1.00  0.00    -0.034 C 
ATOM     84  H   UNL A   1      37.172  33.350  34.093  1.00  0.00     0.065 H 
ATOM     85  H   UNL A   1      37.578  30.348  27.320  1.00  0.00     0.065 H 
ATOM     86  C   UNL A   1      37.657  31.328  30.051  1.00  0.00     0.037 A 
ATOM     87  H   UNL A   1      36.223  33.060  31.734  1.00  0.00     0.065 H 
BRANCH  68  88
ATOM     88  C   UNL A   1      41.772  27.332  27.749  1.00  0.00     0.064 A 
ATOM     89  C   UNL A   1      41.262  26.076  27.385  1.00  0.00     0.173 A 
ATOM     90  C   UNL A   1      42.776  27.890  26.942  1.00  0.00     0.173 A 
ATOM     91  F   UNL A   1      40.308  25.494  28.127  1.00  0.00    -0.203 F 
ATOM     92  C   UNL A   1      41.764  25.390  26.283  1.00  0.00     0.198 A 
ATOM     93  C   UNL A   1      43.253  27.214  25.821  1.00  0.00     0.198 A 
ATOM     94  F   UNL A   1      43.294  29.091  27.238  1.00  0.00    -0.203 F 
ATOM     95  F   UNL A   1      41.304  24.166  25.991  1.00  0.00    -0.200 F 
ATOM     96  C   UNL A   1      42.756  25.961  25.499  1.00  0.00     0.200 A 
ATOM     97  F   UNL A   1      44.201  27.774  25.057  1.00  0.00    -0.200 F 
ATOM     98  F   UNL A   1      43.239  25.299  24.439  1.00  0.00    -0.200 F 
ENDBRANCH  68  88
BRANCH  71  99
ATOM     99  C   UNL A   1      39.029  32.469  35.842  1.00  0.00     0.064 A 
ATOM    100  C   UNL A   1      38.215  31.945  36.854  1.00  0.00     0.173 A 
ATOM    101  C   UNL A   1      39.503  33.780  35.997  1.00  0.00     0.173 A 
ATOM    102  F   UNL A   1      37.721  30.702  36.739  1.00  0.00    -0.203 F 
ATOM    103  C   UNL A   1      37.878  32.704  37.972  1.00  0.00     0.198 A 
ATOM    104  C   UNL A   1      39.188  34.529  37.128  1.00  0.00     0.198 A 
ATOM    105  F   UNL A   1      40.291  34.325  35.059  1.00  0.00    -0.203 F 
ATOM    106  F   UNL A   1      37.068  32.192  38.909  1.00  0.00    -0.200 F 
ATOM    107  C   UNL A   1      38.372  33.993  38.112  1.00  0.00     0.200 A 
ATOM    108  F   UNL A   1      39.680  35.768  37.267  1.00  0.00    -0.200 F 
ATOM    109  F   UNL A   1      38.056  34.719  39.193  1.00  0.00    -0.200 F 
ENDBRANCH  71  99
BRANCH  86 110
ATOM    110  C   UNL A   1      36.491  31.977  29.363  1.00  0.00     0.064 A 
ATOM    111  C   UNL A   1      35.364  31.239  28.975  1.00  0.00     0.173 A 
ATOM    112  C   UNL A   1      36.485  33.360  29.126  1.00  0.00     0.173 A 
ATOM    113  F   UNL A   1      35.327  29.912  29.165  1.00  0.00    -0.203 F 
ATOM    114  C   UNL A   1      34.282  31.858  28.353  1.00  0.00     0.198 A 
ATOM    115  C   UNL A   1      35.389  33.980  28.531  1.00  0.00     0.198 A 
ATOM    116  F   UNL A   1      37.535  34.113  29.483  1.00  0.00    -0.203 F 
ATOM    117  F   UNL A   1      33.235  31.125  27.949  1.00  0.00    -0.200 F 
ATOM    118  C   UNL A   1      34.292  33.228  28.139  1.00  0.00     0.200 A 
ATOM    119  F   UNL A   1      35.396  35.306  28.336  1.00  0.00    -0.200 F 
ATOM    120  F   UNL A   1      33.247  33.823  27.547  1.00  0.00    -0.200 F 
ENDBRANCH  86 110
ENDBRANCH  51  54
ENDBRANCH  41  44
ENDBRANCH  37  40
ENDBRANCH  34  37
ENDBRANCH  31  34
ENDBRANCH   1  31
TORSDOF 16
ENDMDL
MODEL 4
REMARK VINA RESULT:     -10.7      6.065     11.459
REMARK SMILES CC(=O)Oc1ccccc1C(=O)NCCCCCCNC(=O)c1ccc(-c2c3nc(c(-c4c(F)c(F)c(F)c(F)c4F)c4ccc([nH]4)c(-c4c(F)c(F)c(F)c(F)c4F)c4nc(c(-c5c(F)c(F)c(F)c(F)c5F)c5ccc2[nH]5)C=C4)C=C3)cc1
REMARK SMILES IDX 16 1 15 4 14 7 13 10 11 11 12 12 10 14 5 15 6 16 7 17 9 19
REMARK SMILES IDX 8 20 4 24 2 25 3 26 1 27 17 31 18 34 19 37 20 40 21 41 22 43
REMARK SMILES IDX 23 44 24 45 85 46 25 47 84 49 26 51 27 54 28 55 78 56 29 57
REMARK SMILES IDX 83 58 77 59 79 60 30 61 82 62 76 64 75 66 31 68 63 71 43 72
REMARK SMILES IDX 62 73 44 74 47 75 61 76 80 77 45 78 46 80 60 82 81 83 48 86
REMARK SMILES IDX 32 88 33 89 41 90 34 91 35 92 39 93 42 94 36 95 37 96 40 97
REMARK SMILES IDX 38 98 64 99 65 100 73 101 66 102 67 103 71 104 74 105 68 106
REMARK SMILES IDX 69 107 72 108 70 109 49 110 50 111 58 112 51 113 52 114
REMARK SMILES IDX 56 115 59 116 53 117 54 118 57 119 55 120
REMARK H PARENT 16 2 16 3 15 5 15 6 14 8 14 9 13 13 6 18 7 21 9 22 8 23 1 28
REMARK H PARENT 1 29 1 30 17 32 17 33 18 35 18 36 19 38 19 39 20 42 24 48
REMARK H PARENT 85 50 25 52 84 53 83 63 77 65 79 67 82 69 76 70 44 79 47 81
REMARK H PARENT 80 84 45 85 81 87
REMARK Flexibility Score: inf
ROOT
ATOM      1  C   UNL A   1      37.126  21.752  24.518  1.00  0.00    -0.052 C 
ATOM      2  H   UNL A   1      38.013  21.803  23.920  1.00  0.00     0.027 H 
ATOM      3  H   UNL A   1      36.210  21.978  24.014  1.00  0.00     0.027 H 
ENDROOT
BRANCH   1   4
ATOM      4  C   UNL A   1      37.243  22.833  25.598  1.00  0.00    -0.036 C 
ATOM      5  H   UNL A   1      37.514  22.346  26.512  1.00  0.00     0.028 H 
ATOM      6  H   UNL A   1      37.966  23.524  25.215  1.00  0.00     0.028 H 
BRANCH   4   7
ATOM      7  C   UNL A   1      36.007  23.681  25.881  1.00  0.00     0.018 C 
ATOM      8  H   UNL A   1      36.336  24.662  26.153  1.00  0.00     0.049 H 
ATOM      9  H   UNL A   1      35.422  23.653  24.986  1.00  0.00     0.049 H 
BRANCH   7  10
ATOM     10  N   UNL A   1      35.145  23.196  26.929  1.00  0.00    -0.352 N 
ATOM     11  C   UNL A   1      34.108  22.293  26.909  1.00  0.00     0.255 C 
ATOM     12  O   UNL A   1      33.575  22.060  27.998  1.00  0.00    -0.269 OA
ATOM     13  H   UNL A   1      35.332  23.579  27.816  1.00  0.00     0.163 HD
BRANCH  11  14
ATOM     14  C   UNL A   1      33.538  21.635  25.688  1.00  0.00     0.082 A 
ATOM     15  C   UNL A   1      33.085  22.229  24.503  1.00  0.00     0.143 A 
ATOM     16  C   UNL A   1      32.559  21.459  23.450  1.00  0.00    -0.018 A 
ATOM     17  C   UNL A   1      32.528  20.072  23.538  1.00  0.00    -0.059 A 
ATOM     18  H   UNL A   1      32.194  21.928  22.606  1.00  0.00     0.066 H 
ATOM     19  C   UNL A   1      33.511  20.223  25.738  1.00  0.00    -0.046 A 
ATOM     20  C   UNL A   1      33.015  19.451  24.680  1.00  0.00    -0.061 A 
ATOM     21  H   UNL A   1      32.146  19.509  22.761  1.00  0.00     0.062 H 
ATOM     22  H   UNL A   1      33.868  19.746  26.580  1.00  0.00     0.063 H 
ATOM     23  H   UNL A   1      33.011  18.421  24.750  1.00  0.00     0.062 H 
BRANCH  15  24
ATOM     24  O   UNL A   1      33.038  23.609  24.293  1.00  0.00    -0.426 OA
BRANCH  24  25
ATOM     25  C   UNL A   1      33.645  24.058  23.127  1.00  0.00     0.308 C 
ATOM     26  O   UNL A   1      34.780  23.813  22.751  1.00  0.00    -0.252 OA
BRANCH  25  27
ATOM     27  C   UNL A   1      32.661  24.912  22.376  1.00  0.00     0.034 C 
ATOM     28  H   UNL A   1      33.058  25.149  21.411  1.00  0.00     0.035 H 
ATOM     29  H   UNL A   1      32.485  25.816  22.920  1.00  0.00     0.035 H 
ATOM     30  H   UNL A   1      31.740  24.379  22.263  1.00  0.00     0.035 H 
ENDBRANCH  25  27
ENDBRANCH  24  25
ENDBRANCH  15  24
ENDBRANCH  11  14
ENDBRANCH   7  10
ENDBRANCH   4   7
ENDBRANCH   1   4
BRANCH   1  31
ATOM     31  C   UNL A   1      36.965  20.295  24.965  1.00  0.00    -0.052 C 
ATOM     32  H   UNL A   1      36.270  19.830  24.298  1.00  0.00     0.027 H 
ATOM     33  H   UNL A   1      36.653  20.359  25.987  1.00  0.00     0.027 H 
BRANCH  31  34
ATOM     34  C   UNL A   1      38.218  19.418  25.001  1.00  0.00    -0.036 C 
ATOM     35  H   UNL A   1      38.666  19.456  24.030  1.00  0.00     0.028 H 
ATOM     36  H   UNL A   1      37.871  18.452  25.303  1.00  0.00     0.028 H 
BRANCH  34  37
ATOM     37  C   UNL A   1      39.296  19.783  26.016  1.00  0.00     0.018 C 
ATOM     38  H   UNL A   1      38.867  19.740  26.996  1.00  0.00     0.049 H 
ATOM     39  H   UNL A   1      39.643  20.764  25.767  1.00  0.00     0.049 H 
BRANCH  37  40
ATOM     40  N   UNL A   1      40.448  18.902  25.981  1.00  0.00    -0.352 N 
ATOM     41  C   UNL A   1      41.789  19.174  26.107  1.00  0.00     0.251 C 
ATOM     42  H   UNL A   1      40.233  17.951  25.845  1.00  0.00     0.163 HD
ATOM     43  O   UNL A   1      42.603  18.270  25.940  1.00  0.00    -0.269 OA
BRANCH  41  44
ATOM     44  C   UNL A   1      42.280  20.541  26.412  1.00  0.00     0.039 A 
ATOM     45  C   UNL A   1      42.511  21.416  25.343  1.00  0.00    -0.049 A 
ATOM     46  C   UNL A   1      42.570  20.959  27.712  1.00  0.00    -0.049 A 
ATOM     47  C   UNL A   1      42.976  22.715  25.580  1.00  0.00    -0.053 A 
ATOM     48  H   UNL A   1      42.338  21.102  24.375  1.00  0.00     0.063 H 
ATOM     49  C   UNL A   1      42.963  22.277  27.956  1.00  0.00    -0.053 A 
ATOM     50  H   UNL A   1      42.492  20.292  28.497  1.00  0.00     0.063 H 
ATOM     51  C   UNL A   1      43.178  23.168  26.892  1.00  0.00    -0.014 A 
ATOM     52  H   UNL A   1      43.170  23.343  24.785  1.00  0.00     0.063 H 
ATOM     53  H   UNL A   1      43.095  22.599  28.928  1.00  0.00     0.063 H 
BRANCH  51  54
ATOM     54  C   UNL A   1      43.628  24.560  27.165  1.00  0.00     0.031 A 
ATOM     55  C   UNL A   1      42.655  25.589  27.675  1.00  0.00     0.074 A 
ATOM     56  C   UNL A   1      44.898  24.919  26.897  1.00  0.00     0.049 A 
ATOM     57  N   UNL A   1      42.843  26.864  27.911  1.00  0.00    -0.248 NA
ATOM     58  C   UNL A   1      41.281  25.129  27.926  1.00  0.00    -0.034 C 
ATOM     59  C   UNL A   1      45.927  24.036  26.349  1.00  0.00    -0.036 A 
ATOM     60  N   UNL A   1      45.536  26.128  27.032  1.00  0.00    -0.354 N 
ATOM     61  C   UNL A   1      41.610  27.360  28.316  1.00  0.00     0.074 A 
ATOM     62  C   UNL A   1      40.671  26.261  28.246  1.00  0.00    -0.034 C 
ATOM     63  H   UNL A   1      40.894  24.174  27.868  1.00  0.00     0.065 H 
ATOM     64  C   UNL A   1      47.067  24.727  26.203  1.00  0.00    -0.036 A 
ATOM     65  H   UNL A   1      45.796  23.039  26.113  1.00  0.00     0.065 H 
ATOM     66  C   UNL A   1      46.844  26.110  26.615  1.00  0.00     0.049 A 
ATOM     67  H   UNL A   1      45.096  26.933  27.393  1.00  0.00     0.167 HD
ATOM     68  C   UNL A   1      41.294  28.611  28.731  1.00  0.00     0.037 A 
ATOM     69  H   UNL A   1      39.658  26.347  28.421  1.00  0.00     0.065 H 
ATOM     70  H   UNL A   1      47.960  24.343  25.854  1.00  0.00     0.065 H 
ATOM     71  C   UNL A   1      47.760  27.096  26.562  1.00  0.00     0.037 A 
ATOM     72  C   UNL A   1      42.235  29.696  28.830  1.00  0.00     0.049 A 
ATOM     73  C   UNL A   1      47.392  28.473  27.045  1.00  0.00     0.074 A 
ATOM     74  C   UNL A   1      42.029  30.977  29.313  1.00  0.00    -0.036 A 
ATOM     75  N   UNL A   1      43.563  29.630  28.431  1.00  0.00    -0.354 N 
ATOM     76  N   UNL A   1      46.244  28.910  27.501  1.00  0.00    -0.248 NA
ATOM     77  C   UNL A   1      48.453  29.491  27.016  1.00  0.00    -0.034 C 
ATOM     78  C   UNL A   1      43.218  31.700  29.162  1.00  0.00    -0.036 A 
ATOM     79  H   UNL A   1      41.150  31.337  29.715  1.00  0.00     0.065 H 
ATOM     80  C   UNL A   1      44.180  30.854  28.633  1.00  0.00     0.049 A 
ATOM     81  H   UNL A   1      44.001  28.830  28.060  1.00  0.00     0.167 HD
ATOM     82  C   UNL A   1      46.447  30.243  27.832  1.00  0.00     0.074 A 
ATOM     83  C   UNL A   1      47.833  30.541  27.540  1.00  0.00    -0.034 C 
ATOM     84  H   UNL A   1      49.424  29.411  26.677  1.00  0.00     0.065 H 
ATOM     85  H   UNL A   1      43.355  32.693  29.403  1.00  0.00     0.065 H 
ATOM     86  C   UNL A   1      45.561  31.140  28.332  1.00  0.00     0.037 A 
ATOM     87  H   UNL A   1      48.283  31.452  27.716  1.00  0.00     0.065 H 
BRANCH  68  88
ATOM     88  C   UNL A   1      39.862  28.874  29.106  1.00  0.00     0.064 A 
ATOM     89  C   UNL A   1      39.399  28.705  30.420  1.00  0.00     0.173 A 
ATOM     90  C   UNL A   1      38.945  29.319  28.141  1.00  0.00     0.173 A 
ATOM     91  F   UNL A   1      40.233  28.274  31.379  1.00  0.00    -0.203 F 
ATOM     92  C   UNL A   1      38.065  28.931  30.746  1.00  0.00     0.198 A 
ATOM     93  C   UNL A   1      37.618  29.576  28.478  1.00  0.00     0.198 A 
ATOM     94  F   UNL A   1      39.334  29.505  26.871  1.00  0.00    -0.203 F 
ATOM     95  F   UNL A   1      37.634  28.704  31.994  1.00  0.00    -0.200 F 
ATOM     96  C   UNL A   1      37.176  29.371  29.776  1.00  0.00     0.200 A 
ATOM     97  F   UNL A   1      36.764  30.013  27.543  1.00  0.00    -0.200 F 
ATOM     98  F   UNL A   1      35.892  29.588  30.091  1.00  0.00    -0.200 F 
ENDBRANCH  68  88
BRANCH  71  99
ATOM     99  C   UNL A   1      49.122  26.805  26.044  1.00  0.00     0.064 A 
ATOM    100  C   UNL A   1      50.120  26.293  26.882  1.00  0.00     0.173 A 
ATOM    101  C   UNL A   1      49.445  27.013  24.694  1.00  0.00     0.173 A 
ATOM    102  F   UNL A   1      49.864  26.097  28.185  1.00  0.00    -0.203 F 
ATOM    103  C   UNL A   1      51.394  26.010  26.395  1.00  0.00     0.198 A 
ATOM    104  C   UNL A   1      50.710  26.704  24.202  1.00  0.00     0.198 A 
ATOM    105  F   UNL A   1      48.522  27.496  23.850  1.00  0.00    -0.203 F 
ATOM    106  F   UNL A   1      52.342  25.554  27.226  1.00  0.00    -0.200 F 
ATOM    107  C   UNL A   1      51.686  26.208  25.053  1.00  0.00     0.200 A 
ATOM    108  F   UNL A   1      50.983  26.883  22.902  1.00  0.00    -0.200 F 
ATOM    109  F   UNL A   1      52.908  25.926  24.582  1.00  0.00    -0.200 F 
ENDBRANCH  71  99
BRANCH  86 110
ATOM    110  C   UNL A   1      46.068  32.524  28.616  1.00  0.00     0.064 A 
ATOM    111  C   UNL A   1      46.655  32.853  29.847  1.00  0.00     0.173 A 
ATOM    112  C   UNL A   1      46.003  33.522  27.632  1.00  0.00     0.173 A 
ATOM    113  F   UNL A   1      46.727  31.939  30.827  1.00  0.00    -0.203 F 
ATOM    114  C   UNL A   1      47.137  34.137  30.090  1.00  0.00     0.198 A 
ATOM    115  C   UNL A   1      46.513  34.796  27.868  1.00  0.00     0.198 A 
ATOM    116  F   UNL A   1      45.457  33.257  26.436  1.00  0.00    -0.203 F 
ATOM    117  F   UNL A   1      47.653  34.441  31.289  1.00  0.00    -0.200 F 
ATOM    118  C   UNL A   1      47.073  35.104  29.098  1.00  0.00     0.200 A 
ATOM    119  F   UNL A   1      46.460  35.725  26.904  1.00  0.00    -0.200 F 
ATOM    120  F   UNL A   1      47.544  36.337  29.331  1.00  0.00    -0.200 F 
ENDBRANCH  86 110
ENDBRANCH  51  54
ENDBRANCH  41  44
ENDBRANCH  37  40
ENDBRANCH  34  37
ENDBRANCH  31  34
ENDBRANCH   1  31
TORSDOF 16
ENDMDL
MODEL 5
REMARK VINA RESULT:     -10.7      4.695     12.662
REMARK SMILES CC(=O)Oc1ccccc1C(=O)NCCCCCCNC(=O)c1ccc(-c2c3nc(c(-c4c(F)c(F)c(F)c(F)c4F)c4ccc([nH]4)c(-c4c(F)c(F)c(F)c(F)c4F)c4nc(c(-c5c(F)c(F)c(F)c(F)c5F)c5ccc2[nH]5)C=C4)C=C3)cc1
REMARK SMILES IDX 16 1 15 4 14 7 13 10 11 11 12 12 10 14 5 15 6 16 7 17 9 19
REMARK SMILES IDX 8 20 4 24 2 25 3 26 1 27 17 31 18 34 19 37 20 40 21 41 22 43
REMARK SMILES IDX 23 44 24 45 85 46 25 47 84 49 26 51 27 54 28 55 78 56 29 57
REMARK SMILES IDX 83 58 77 59 79 60 30 61 82 62 76 64 75 66 31 68 63 71 43 72
REMARK SMILES IDX 62 73 44 74 47 75 61 76 80 77 45 78 46 80 60 82 81 83 48 86
REMARK SMILES IDX 32 88 33 89 41 90 34 91 35 92 39 93 42 94 36 95 37 96 40 97
REMARK SMILES IDX 38 98 64 99 65 100 73 101 66 102 67 103 71 104 74 105 68 106
REMARK SMILES IDX 69 107 72 108 70 109 49 110 50 111 58 112 51 113 52 114
REMARK SMILES IDX 56 115 59 116 53 117 54 118 57 119 55 120
REMARK H PARENT 16 2 16 3 15 5 15 6 14 8 14 9 13 13 6 18 7 21 9 22 8 23 1 28
REMARK H PARENT 1 29 1 30 17 32 17 33 18 35 18 36 19 38 19 39 20 42 24 48
REMARK H PARENT 85 50 25 52 84 53 83 63 77 65 79 67 82 69 76 70 44 79 47 81
REMARK H PARENT 80 84 45 85 81 87
REMARK Flexibility Score: inf
ROOT
ATOM      1  C   UNL A   1      44.271  23.329  33.498  1.00  0.00    -0.052 C 
ATOM      2  H   UNL A   1      43.607  22.722  32.917  1.00  0.00     0.027 H 
ATOM      3  H   UNL A   1      43.820  23.884  34.293  1.00  0.00     0.027 H 
ENDROOT
BRANCH   1   4
ATOM      4  C   UNL A   1      44.842  24.400  32.562  1.00  0.00    -0.036 C 
ATOM      5  H   UNL A   1      44.211  25.261  32.636  1.00  0.00     0.028 H 
ATOM      6  H   UNL A   1      45.850  24.542  32.894  1.00  0.00     0.028 H 
BRANCH   4   7
ATOM      7  C   UNL A   1      44.965  24.049  31.083  1.00  0.00     0.018 C 
ATOM      8  H   UNL A   1      45.325  24.916  30.568  1.00  0.00     0.049 H 
ATOM      9  H   UNL A   1      45.628  23.211  31.036  1.00  0.00     0.049 H 
BRANCH   7  10
ATOM     10  N   UNL A   1      43.748  23.624  30.439  1.00  0.00    -0.352 N 
ATOM     11  C   UNL A   1      43.381  23.597  29.114  1.00  0.00     0.255 C 
ATOM     12  O   UNL A   1      42.260  23.140  28.874  1.00  0.00    -0.269 OA
ATOM     13  H   UNL A   1      43.057  23.296  31.058  1.00  0.00     0.163 HD
BRANCH  11  14
ATOM     14  C   UNL A   1      44.187  24.131  27.967  1.00  0.00     0.082 A 
ATOM     15  C   UNL A   1      44.561  23.485  26.782  1.00  0.00     0.143 A 
ATOM     16  C   UNL A   1      45.340  24.133  25.806  1.00  0.00    -0.018 A 
ATOM     17  C   UNL A   1      45.714  25.462  25.971  1.00  0.00    -0.059 A 
ATOM     18  H   UNL A   1      45.635  23.617  24.962  1.00  0.00     0.066 H 
ATOM     19  C   UNL A   1      44.566  25.487  28.095  1.00  0.00    -0.046 A 
ATOM     20  C   UNL A   1      45.317  26.145  27.113  1.00  0.00    -0.061 A 
ATOM     21  H   UNL A   1      46.282  25.936  25.250  1.00  0.00     0.062 H 
ATOM     22  H   UNL A   1      44.280  26.008  28.937  1.00  0.00     0.063 H 
ATOM     23  H   UNL A   1      45.576  27.136  27.238  1.00  0.00     0.062 H 
BRANCH  15  24
ATOM     24  O   UNL A   1      44.274  22.148  26.501  1.00  0.00    -0.426 OA
BRANCH  24  25
ATOM     25  C   UNL A   1      43.152  21.929  25.711  1.00  0.00     0.308 C 
ATOM     26  O   UNL A   1      42.890  22.465  24.646  1.00  0.00    -0.252 OA
BRANCH  25  27
ATOM     27  C   UNL A   1      42.290  20.898  26.385  1.00  0.00     0.034 C 
ATOM     28  H   UNL A   1      41.264  21.073  26.135  1.00  0.00     0.035 H 
ATOM     29  H   UNL A   1      42.414  20.966  27.445  1.00  0.00     0.035 H 
ATOM     30  H   UNL A   1      42.576  19.922  26.054  1.00  0.00     0.035 H 
ENDBRANCH  25  27
ENDBRANCH  24  25
ENDBRANCH  15  24
ENDBRANCH  11  14
ENDBRANCH   7  10
ENDBRANCH   4   7
ENDBRANCH   1   4
BRANCH   1  31
ATOM     31  C   UNL A   1      45.251  22.383  34.201  1.00  0.00    -0.052 C 
ATOM     32  H   UNL A   1      45.950  22.044  33.467  1.00  0.00     0.027 H 
ATOM     33  H   UNL A   1      44.630  21.625  34.634  1.00  0.00     0.027 H 
BRANCH  31  34
ATOM     34  C   UNL A   1      46.056  22.938  35.377  1.00  0.00    -0.036 C 
ATOM     35  H   UNL A   1      46.504  22.108  35.881  1.00  0.00     0.028 H 
ATOM     36  H   UNL A   1      45.350  23.494  35.958  1.00  0.00     0.028 H 
BRANCH  34  37
ATOM     37  C   UNL A   1      47.168  23.932  35.054  1.00  0.00     0.018 C 
ATOM     38  H   UNL A   1      46.843  24.551  34.244  1.00  0.00     0.049 H 
ATOM     39  H   UNL A   1      48.037  23.360  34.807  1.00  0.00     0.049 H 
BRANCH  37  40
ATOM     40  N   UNL A   1      47.522  24.787  36.171  1.00  0.00    -0.352 N 
ATOM     41  C   UNL A   1      47.028  26.010  36.555  1.00  0.00     0.251 C 
ATOM     42  H   UNL A   1      48.234  24.432  36.750  1.00  0.00     0.163 HD
ATOM     43  O   UNL A   1      47.557  26.604  37.491  1.00  0.00    -0.269 OA
BRANCH  41  44
ATOM     44  C   UNL A   1      45.887  26.644  35.850  1.00  0.00     0.039 A 
ATOM     45  C   UNL A   1      46.136  27.788  35.080  1.00  0.00    -0.049 A 
ATOM     46  C   UNL A   1      44.577  26.176  35.973  1.00  0.00    -0.049 A 
ATOM     47  C   UNL A   1      45.093  28.422  34.398  1.00  0.00    -0.053 A 
ATOM     48  H   UNL A   1      47.095  28.165  35.016  1.00  0.00     0.063 H 
ATOM     49  C   UNL A   1      43.548  26.764  35.234  1.00  0.00    -0.053 A 
ATOM     50  H   UNL A   1      44.368  25.392  36.612  1.00  0.00     0.063 H 
ATOM     51  C   UNL A   1      43.792  27.899  34.444  1.00  0.00    -0.014 A 
ATOM     52  H   UNL A   1      45.281  29.280  33.856  1.00  0.00     0.063 H 
ATOM     53  H   UNL A   1      42.598  26.359  35.269  1.00  0.00     0.063 H 
BRANCH  51  54
ATOM     54  C   UNL A   1      42.679  28.534  33.687  1.00  0.00     0.031 A 
ATOM     55  C   UNL A   1      41.711  29.454  34.382  1.00  0.00     0.074 A 
ATOM     56  C   UNL A   1      42.499  28.237  32.385  1.00  0.00     0.049 A 
ATOM     57  N   UNL A   1      40.645  30.049  33.906  1.00  0.00    -0.248 NA
ATOM     58  C   UNL A   1      41.959  29.716  35.807  1.00  0.00    -0.034 C 
ATOM     59  C   UNL A   1      43.330  27.319  31.606  1.00  0.00    -0.036 A 
ATOM     60  N   UNL A   1      41.546  28.662  31.492  1.00  0.00    -0.354 N 
ATOM     61  C   UNL A   1      40.087  30.737  34.977  1.00  0.00     0.074 A 
ATOM     62  C   UNL A   1      40.902  30.444  36.136  1.00  0.00    -0.034 C 
ATOM     63  H   UNL A   1      42.750  29.412  36.397  1.00  0.00     0.065 H 
ATOM     64  C   UNL A   1      42.859  27.257  30.352  1.00  0.00    -0.036 A 
ATOM     65  H   UNL A   1      44.150  26.803  31.965  1.00  0.00     0.065 H 
ATOM     66  C   UNL A   1      41.674  28.103  30.244  1.00  0.00     0.049 A 
ATOM     67  H   UNL A   1      40.838  29.306  31.725  1.00  0.00     0.167 HD
ATOM     68  C   UNL A   1      39.007  31.556  34.988  1.00  0.00     0.037 A 
ATOM     69  H   UNL A   1      40.688  30.760  37.094  1.00  0.00     0.065 H 
ATOM     70  H   UNL A   1      43.268  26.699  29.586  1.00  0.00     0.065 H 
ATOM     71  C   UNL A   1      40.918  28.247  29.139  1.00  0.00     0.037 A 
ATOM     72  C   UNL A   1      38.215  31.871  33.828  1.00  0.00     0.049 A 
ATOM     73  C   UNL A   1      39.734  29.176  29.168  1.00  0.00     0.074 A 
ATOM     74  C   UNL A   1      37.151  32.750  33.722  1.00  0.00    -0.036 A 
ATOM     75  N   UNL A   1      38.396  31.312  32.571  1.00  0.00    -0.354 N 
ATOM     76  N   UNL A   1      39.263  29.883  30.167  1.00  0.00    -0.248 NA
ATOM     77  C   UNL A   1      38.984  29.335  27.914  1.00  0.00    -0.034 C 
ATOM     78  C   UNL A   1      36.657  32.686  32.413  1.00  0.00    -0.036 A 
ATOM     79  H   UNL A   1      36.783  33.349  34.477  1.00  0.00     0.065 H 
ATOM     80  C   UNL A   1      37.447  31.807  31.690  1.00  0.00     0.049 A 
ATOM     81  H   UNL A   1      39.096  30.660  32.339  1.00  0.00     0.167 HD
ATOM     82  C   UNL A   1      38.178  30.585  29.659  1.00  0.00     0.074 A 
ATOM     83  C   UNL A   1      38.069  30.231  28.259  1.00  0.00    -0.034 C 
ATOM     84  H   UNL A   1      39.130  28.871  27.004  1.00  0.00     0.065 H 
ATOM     85  H   UNL A   1      35.844  33.206  32.049  1.00  0.00     0.065 H 
ATOM     86  C   UNL A   1      37.346  31.444  30.299  1.00  0.00     0.037 A 
ATOM     87  H   UNL A   1      37.369  30.626  27.612  1.00  0.00     0.065 H 
BRANCH  68  88
ATOM     88  C   UNL A   1      38.616  32.167  36.304  1.00  0.00     0.064 A 
ATOM     89  C   UNL A   1      38.942  33.493  36.630  1.00  0.00     0.173 A 
ATOM     90  C   UNL A   1      37.891  31.421  37.247  1.00  0.00     0.173 A 
ATOM     91  F   UNL A   1      39.641  34.247  35.768  1.00  0.00    -0.203 F 
ATOM     92  C   UNL A   1      38.592  34.036  37.862  1.00  0.00     0.198 A 
ATOM     93  C   UNL A   1      37.514  31.979  38.466  1.00  0.00     0.198 A 
ATOM     94  F   UNL A   1      37.546  30.151  36.985  1.00  0.00    -0.203 F 
ATOM     95  F   UNL A   1      38.967  35.284  38.174  1.00  0.00    -0.200 F 
ATOM     96  C   UNL A   1      37.874  33.281  38.779  1.00  0.00     0.200 A 
ATOM     97  F   UNL A   1      36.809  31.252  39.344  1.00  0.00    -0.200 F 
ATOM     98  F   UNL A   1      37.538  33.804  39.965  1.00  0.00    -0.200 F 
ENDBRANCH  68  88
BRANCH  71  99
ATOM     99  C   UNL A   1      41.274  27.501  27.904  1.00  0.00     0.064 A 
ATOM    100  C   UNL A   1      40.840  26.185  27.704  1.00  0.00     0.173 A 
ATOM    101  C   UNL A   1      42.037  28.099  26.890  1.00  0.00     0.173 A 
ATOM    102  F   UNL A   1      40.124  25.564  28.654  1.00  0.00    -0.203 F 
ATOM    103  C   UNL A   1      41.165  25.489  26.541  1.00  0.00     0.198 A 
ATOM    104  C   UNL A   1      42.339  27.413  25.717  1.00  0.00     0.198 A 
ATOM    105  F   UNL A   1      42.472  29.360  27.031  1.00  0.00    -0.203 F 
ATOM    106  F   UNL A   1      40.767  24.218  26.390  1.00  0.00    -0.200 F 
ATOM    107  C   UNL A   1      41.907  26.106  25.545  1.00  0.00     0.200 A 
ATOM    108  F   UNL A   1      43.043  28.018  24.750  1.00  0.00    -0.200 F 
ATOM    109  F   UNL A   1      42.211  25.440  24.423  1.00  0.00    -0.200 F 
ENDBRANCH  71  99
BRANCH  86 110
ATOM    110  C   UNL A   1      36.255  32.080  29.486  1.00  0.00     0.064 A 
ATOM    111  C   UNL A   1      35.172  31.333  28.999  1.00  0.00     0.173 A 
ATOM    112  C   UNL A   1      36.273  33.458  29.226  1.00  0.00     0.173 A 
ATOM    113  F   UNL A   1      35.116  30.009  29.207  1.00  0.00    -0.203 F 
ATOM    114  C   UNL A   1      34.158  31.940  28.262  1.00  0.00     0.198 A 
ATOM    115  C   UNL A   1      35.242  34.067  28.514  1.00  0.00     0.198 A 
ATOM    116  F   UNL A   1      37.283  34.218  29.675  1.00  0.00    -0.203 F 
ATOM    117  F   UNL A   1      33.156  31.200  27.768  1.00  0.00    -0.200 F 
ATOM    118  C   UNL A   1      34.190  33.307  28.027  1.00  0.00     0.200 A 
ATOM    119  F   UNL A   1      35.269  35.389  28.299  1.00  0.00    -0.200 F 
ATOM    120  F   UNL A   1      33.210  33.890  27.324  1.00  0.00    -0.200 F 
ENDBRANCH  86 110
ENDBRANCH  51  54
ENDBRANCH  41  44
ENDBRANCH  37  40
ENDBRANCH  34  37
ENDBRANCH  31  34
ENDBRANCH   1  31
TORSDOF 16
ENDMDL
MODEL 6
REMARK VINA RESULT:     -10.6      1.649      7.915
REMARK SMILES CC(=O)Oc1ccccc1C(=O)NCCCCCCNC(=O)c1ccc(-c2c3nc(c(-c4c(F)c(F)c(F)c(F)c4F)c4ccc([nH]4)c(-c4c(F)c(F)c(F)c(F)c4F)c4nc(c(-c5c(F)c(F)c(F)c(F)c5F)c5ccc2[nH]5)C=C4)C=C3)cc1
REMARK SMILES IDX 16 1 15 4 14 7 13 10 11 11 12 12 10 14 5 15 6 16 7 17 9 19
REMARK SMILES IDX 8 20 4 24 2 25 3 26 1 27 17 31 18 34 19 37 20 40 21 41 22 43
REMARK SMILES IDX 23 44 24 45 85 46 25 47 84 49 26 51 27 54 28 55 78 56 29 57
REMARK SMILES IDX 83 58 77 59 79 60 30 61 82 62 76 64 75 66 31 68 63 71 43 72
REMARK SMILES IDX 62 73 44 74 47 75 61 76 80 77 45 78 46 80 60 82 81 83 48 86
REMARK SMILES IDX 32 88 33 89 41 90 34 91 35 92 39 93 42 94 36 95 37 96 40 97
REMARK SMILES IDX 38 98 64 99 65 100 73 101 66 102 67 103 71 104 74 105 68 106
REMARK SMILES IDX 69 107 72 108 70 109 49 110 50 111 58 112 51 113 52 114
REMARK SMILES IDX 56 115 59 116 53 117 54 118 57 119 55 120
REMARK H PARENT 16 2 16 3 15 5 15 6 14 8 14 9 13 13 6 18 7 21 9 22 8 23 1 28
REMARK H PARENT 1 29 1 30 17 32 17 33 18 35 18 36 19 38 19 39 20 42 24 48
REMARK H PARENT 85 50 25 52 84 53 83 63 77 65 79 67 82 69 76 70 44 79 47 81
REMARK H PARENT 80 84 45 85 81 87
REMARK Flexibility Score: inf
ROOT
ATOM      1  C   UNL A   1      34.631  32.308  28.506  1.00  0.00    -0.052 C 
ATOM      2  H   UNL A   1      35.532  32.152  27.949  1.00  0.00     0.027 H 
ATOM      3  H   UNL A   1      34.544  31.757  29.419  1.00  0.00     0.027 H 
ENDROOT
BRANCH   1   4
ATOM      4  C   UNL A   1      33.470  31.800  27.643  1.00  0.00    -0.036 C 
ATOM      5  H   UNL A   1      32.572  31.915  28.213  1.00  0.00     0.028 H 
ATOM      6  H   UNL A   1      33.521  32.383  26.747  1.00  0.00     0.028 H 
BRANCH   4   7
ATOM      7  C   UNL A   1      33.528  30.352  27.169  1.00  0.00     0.018 C 
ATOM      8  H   UNL A   1      33.509  30.355  26.099  1.00  0.00     0.049 H 
ATOM      9  H   UNL A   1      34.425  29.943  27.585  1.00  0.00     0.049 H 
BRANCH   7  10
ATOM     10  N   UNL A   1      32.459  29.502  27.628  1.00  0.00    -0.352 N 
ATOM     11  C   UNL A   1      31.996  28.292  27.166  1.00  0.00     0.255 C 
ATOM     12  O   UNL A   1      31.066  27.791  27.805  1.00  0.00    -0.269 OA
ATOM     13  H   UNL A   1      31.974  29.849  28.411  1.00  0.00     0.163 HD
BRANCH  11  14
ATOM     14  C   UNL A   1      32.471  27.580  25.934  1.00  0.00     0.082 A 
ATOM     15  C   UNL A   1      32.007  27.701  24.618  1.00  0.00     0.143 A 
ATOM     16  C   UNL A   1      32.560  26.940  23.572  1.00  0.00    -0.018 A 
ATOM     17  C   UNL A   1      33.628  26.083  23.811  1.00  0.00    -0.059 A 
ATOM     18  H   UNL A   1      32.168  27.019  22.620  1.00  0.00     0.066 H 
ATOM     19  C   UNL A   1      33.571  26.717  26.141  1.00  0.00    -0.046 A 
ATOM     20  C   UNL A   1      34.143  25.979  25.097  1.00  0.00    -0.061 A 
ATOM     21  H   UNL A   1      34.035  25.530  23.040  1.00  0.00     0.062 H 
ATOM     22  H   UNL A   1      33.965  26.628  27.090  1.00  0.00     0.063 H 
ATOM     23  H   UNL A   1      34.946  25.359  25.282  1.00  0.00     0.062 H 
BRANCH  15  24
ATOM     24  O   UNL A   1      30.927  28.503  24.244  1.00  0.00    -0.426 OA
BRANCH  24  25
ATOM     25  C   UNL A   1      30.126  27.995  23.231  1.00  0.00     0.308 C 
ATOM     26  O   UNL A   1      30.144  28.314  22.053  1.00  0.00    -0.252 OA
BRANCH  25  27
ATOM     27  C   UNL A   1      29.211  26.959  23.821  1.00  0.00     0.034 C 
ATOM     28  H   UNL A   1      28.569  26.572  23.056  1.00  0.00     0.035 H 
ATOM     29  H   UNL A   1      28.617  27.405  24.591  1.00  0.00     0.035 H 
ATOM     30  H   UNL A   1      29.793  26.163  24.235  1.00  0.00     0.035 H 
ENDBRANCH  25  27
ENDBRANCH  24  25
ENDBRANCH  15  24
ENDBRANCH  11  14
ENDBRANCH   7  10
ENDBRANCH   4   7
ENDBRANCH   1   4
BRANCH   1  31
ATOM     31  C   UNL A   1      34.619  33.776  28.946  1.00  0.00    -0.052 C 
ATOM     32  H   UNL A   1      35.291  34.308  28.305  1.00  0.00     0.027 H 
ATOM     33  H   UNL A   1      34.891  33.751  29.981  1.00  0.00     0.027 H 
BRANCH  31  34
ATOM     34  C   UNL A   1      33.281  34.517  28.919  1.00  0.00    -0.036 C 
ATOM     35  H   UNL A   1      32.592  33.960  29.519  1.00  0.00     0.028 H 
ATOM     36  H   UNL A   1      33.025  34.588  27.882  1.00  0.00     0.028 H 
BRANCH  34  37
ATOM     37  C   UNL A   1      33.270  35.956  29.426  1.00  0.00     0.018 C 
ATOM     38  H   UNL A   1      32.875  36.584  28.654  1.00  0.00     0.049 H 
ATOM     39  H   UNL A   1      34.278  36.207  29.679  1.00  0.00     0.049 H 
BRANCH  37  40
ATOM     40  N   UNL A   1      32.470  36.142  30.622  1.00  0.00    -0.352 N 
ATOM     41  C   UNL A   1      32.674  35.712  31.911  1.00  0.00     0.251 C 
ATOM     42  H   UNL A   1      31.646  36.663  30.489  1.00  0.00     0.163 HD
ATOM     43  O   UNL A   1      31.801  35.904  32.753  1.00  0.00    -0.269 OA
BRANCH  41  44
ATOM     44  C   UNL A   1      33.912  34.996  32.306  1.00  0.00     0.039 A 
ATOM     45  C   UNL A   1      33.797  33.683  32.780  1.00  0.00    -0.049 A 
ATOM     46  C   UNL A   1      35.170  35.602  32.274  1.00  0.00    -0.049 A 
ATOM     47  C   UNL A   1      34.935  32.967  33.166  1.00  0.00    -0.053 A 
ATOM     48  H   UNL A   1      32.866  33.240  32.845  1.00  0.00     0.063 H 
ATOM     49  C   UNL A   1      36.314  34.865  32.589  1.00  0.00    -0.053 A 
ATOM     50  H   UNL A   1      35.255  36.599  32.017  1.00  0.00     0.063 H 
ATOM     51  C   UNL A   1      36.210  33.542  33.046  1.00  0.00    -0.014 A 
ATOM     52  H   UNL A   1      34.838  32.011  33.539  1.00  0.00     0.063 H 
ATOM     53  H   UNL A   1      37.246  35.299  32.484  1.00  0.00     0.063 H 
BRANCH  51  54
ATOM     54  C   UNL A   1      37.435  32.779  33.408  1.00  0.00     0.031 A 
ATOM     55  C   UNL A   1      38.175  33.084  34.683  1.00  0.00     0.074 A 
ATOM     56  C   UNL A   1      37.921  31.851  32.561  1.00  0.00     0.049 A 
ATOM     57  N   UNL A   1      39.292  32.572  35.137  1.00  0.00    -0.248 NA
ATOM     58  C   UNL A   1      37.596  34.122  35.548  1.00  0.00    -0.034 C 
ATOM     59  C   UNL A   1      37.334  31.497  31.269  1.00  0.00    -0.036 A 
ATOM     60  N   UNL A   1      39.032  31.048  32.652  1.00  0.00    -0.354 N 
ATOM     61  C   UNL A   1      39.559  33.240  36.326  1.00  0.00     0.074 A 
ATOM     62  C   UNL A   1      38.515  34.227  36.497  1.00  0.00    -0.034 C 
ATOM     63  H   UNL A   1      36.707  34.636  35.443  1.00  0.00     0.065 H 
ATOM     64  C   UNL A   1      38.081  30.545  30.692  1.00  0.00    -0.036 A 
ATOM     65  H   UNL A   1      36.479  31.914  30.866  1.00  0.00     0.065 H 
ATOM     66  C   UNL A   1      39.219  30.241  31.556  1.00  0.00     0.049 A 
ATOM     67  H   UNL A   1      39.638  31.052  33.429  1.00  0.00     0.167 HD
ATOM     68  C   UNL A   1      40.569  33.033  37.206  1.00  0.00     0.037 A 
ATOM     69  H   UNL A   1      38.489  34.923  37.258  1.00  0.00     0.065 H 
ATOM     70  H   UNL A   1      37.884  30.097  29.783  1.00  0.00     0.065 H 
ATOM     71  C   UNL A   1      40.200  29.364  31.273  1.00  0.00     0.037 A 
ATOM     72  C   UNL A   1      41.589  32.030  37.051  1.00  0.00     0.049 A 
ATOM     73  C   UNL A   1      41.302  29.137  32.274  1.00  0.00     0.074 A 
ATOM     74  C   UNL A   1      42.607  31.691  37.925  1.00  0.00    -0.036 A 
ATOM     75  N   UNL A   1      41.726  31.207  35.942  1.00  0.00    -0.354 N 
ATOM     76  N   UNL A   1      41.499  29.718  33.431  1.00  0.00    -0.248 NA
ATOM     77  C   UNL A   1      42.310  28.123  31.931  1.00  0.00    -0.034 C 
ATOM     78  C   UNL A   1      43.389  30.697  37.325  1.00  0.00    -0.036 A 
ATOM     79  H   UNL A   1      42.764  32.102  38.859  1.00  0.00     0.065 H 
ATOM     80  C   UNL A   1      42.827  30.379  36.099  1.00  0.00     0.049 A 
ATOM     81  H   UNL A   1      41.128  31.209  35.160  1.00  0.00     0.167 HD
ATOM     82  C   UNL A   1      42.637  29.130  33.965  1.00  0.00     0.074 A 
ATOM     83  C   UNL A   1      43.079  28.134  33.012  1.00  0.00    -0.034 C 
ATOM     84  H   UNL A   1      42.397  27.553  31.075  1.00  0.00     0.065 H 
ATOM     85  H   UNL A   1      44.239  30.273  37.728  1.00  0.00     0.065 H 
ATOM     86  C   UNL A   1      43.260  29.394  35.140  1.00  0.00     0.037 A 
ATOM     87  H   UNL A   1      43.889  27.511  33.154  1.00  0.00     0.065 H 
BRANCH  68  88
ATOM     88  C   UNL A   1      40.619  33.919  38.420  1.00  0.00     0.064 A 
ATOM     89  C   UNL A   1      39.923  33.601  39.596  1.00  0.00     0.173 A 
ATOM     90  C   UNL A   1      41.389  35.093  38.411  1.00  0.00     0.173 A 
ATOM     91  F   UNL A   1      39.166  32.495  39.655  1.00  0.00    -0.203 F 
ATOM     92  C   UNL A   1      39.963  34.444  40.703  1.00  0.00     0.198 A 
ATOM     93  C   UNL A   1      41.453  35.916  39.533  1.00  0.00     0.198 A 
ATOM     94  F   UNL A   1      42.082  35.441  37.317  1.00  0.00    -0.203 F 
ATOM     95  F   UNL A   1      39.242  34.150  41.794  1.00  0.00    -0.200 F 
ATOM     96  C   UNL A   1      40.731  35.599  40.674  1.00  0.00     0.200 A 
ATOM     97  F   UNL A   1      42.206  37.024  39.507  1.00  0.00    -0.200 F 
ATOM     98  F   UNL A   1      40.768  36.409  41.740  1.00  0.00    -0.200 F 
ENDBRANCH  68  88
BRANCH  71  99
ATOM     99  C   UNL A   1      40.170  28.620  29.986  1.00  0.00     0.064 A 
ATOM    100  C   UNL A   1      40.816  29.120  28.848  1.00  0.00     0.173 A 
ATOM    101  C   UNL A   1      39.514  27.385  29.877  1.00  0.00     0.173 A 
ATOM    102  F   UNL A   1      41.439  30.307  28.898  1.00  0.00    -0.203 F 
ATOM    103  C   UNL A   1      40.797  28.418  27.644  1.00  0.00     0.198 A 
ATOM    104  C   UNL A   1      39.519  26.672  28.681  1.00  0.00     0.198 A 
ATOM    105  F   UNL A   1      38.887  26.862  30.940  1.00  0.00    -0.203 F 
ATOM    106  F   UNL A   1      41.392  28.935  26.560  1.00  0.00    -0.200 F 
ATOM    107  C   UNL A   1      40.155  27.191  27.564  1.00  0.00     0.200 A 
ATOM    108  F   UNL A   1      38.911  25.479  28.612  1.00  0.00    -0.200 F 
ATOM    109  F   UNL A   1      40.147  26.512  26.409  1.00  0.00    -0.200 F 
ENDBRANCH  71  99
BRANCH  86 110
ATOM    110  C   UNL A   1      44.477  28.580  35.473  1.00  0.00     0.064 A 
ATOM    111  C   UNL A   1      44.380  27.364  36.166  1.00  0.00     0.173 A 
ATOM    112  C   UNL A   1      45.750  29.000  35.059  1.00  0.00     0.173 A 
ATOM    113  F   UNL A   1      43.187  26.926  36.597  1.00  0.00    -0.203 F 
ATOM    114  C   UNL A   1      45.515  26.610  36.452  1.00  0.00     0.198 A 
ATOM    115  C   UNL A   1      46.880  28.229  35.321  1.00  0.00     0.198 A 
ATOM    116  F   UNL A   1      45.897  30.152  34.388  1.00  0.00    -0.203 F 
ATOM    117  F   UNL A   1      45.403  25.474  37.155  1.00  0.00    -0.200 F 
ATOM    118  C   UNL A   1      46.763  27.039  36.023  1.00  0.00     0.200 A 
ATOM    119  F   UNL A   1      48.082  28.639  34.895  1.00  0.00    -0.200 F 
ATOM    120  F   UNL A   1      47.853  26.309  36.293  1.00  0.00    -0.200 F 
ENDBRANCH  86 110
ENDBRANCH  51  54
ENDBRANCH  41  44
ENDBRANCH  37  40
ENDBRANCH  34  37
ENDBRANCH  31  34
ENDBRANCH   1  31
TORSDOF 16
ENDMDL
MODEL 7
REMARK VINA RESULT:     -10.6      1.724      7.874
REMARK SMILES CC(=O)Oc1ccccc1C(=O)NCCCCCCNC(=O)c1ccc(-c2c3nc(c(-c4c(F)c(F)c(F)c(F)c4F)c4ccc([nH]4)c(-c4c(F)c(F)c(F)c(F)c4F)c4nc(c(-c5c(F)c(F)c(F)c(F)c5F)c5ccc2[nH]5)C=C4)C=C3)cc1
REMARK SMILES IDX 16 1 15 4 14 7 13 10 11 11 12 12 10 14 5 15 6 16 7 17 9 19
REMARK SMILES IDX 8 20 4 24 2 25 3 26 1 27 17 31 18 34 19 37 20 40 21 41 22 43
REMARK SMILES IDX 23 44 24 45 85 46 25 47 84 49 26 51 27 54 28 55 78 56 29 57
REMARK SMILES IDX 83 58 77 59 79 60 30 61 82 62 76 64 75 66 31 68 63 71 43 72
REMARK SMILES IDX 62 73 44 74 47 75 61 76 80 77 45 78 46 80 60 82 81 83 48 86
REMARK SMILES IDX 32 88 33 89 41 90 34 91 35 92 39 93 42 94 36 95 37 96 40 97
REMARK SMILES IDX 38 98 64 99 65 100 73 101 66 102 67 103 71 104 74 105 68 106
REMARK SMILES IDX 69 107 72 108 70 109 49 110 50 111 58 112 51 113 52 114
REMARK SMILES IDX 56 115 59 116 53 117 54 118 57 119 55 120
REMARK H PARENT 16 2 16 3 15 5 15 6 14 8 14 9 13 13 6 18 7 21 9 22 8 23 1 28
REMARK H PARENT 1 29 1 30 17 32 17 33 18 35 18 36 19 38 19 39 20 42 24 48
REMARK H PARENT 85 50 25 52 84 53 83 63 77 65 79 67 82 69 76 70 44 79 47 81
REMARK H PARENT 80 84 45 85 81 87
REMARK Flexibility Score: inf
ROOT
ATOM      1  C   UNL A   1      34.393  32.290  29.037  1.00  0.00    -0.052 C 
ATOM      2  H   UNL A   1      34.977  32.104  29.915  1.00  0.00     0.027 H 
ATOM      3  H   UNL A   1      33.346  32.086  29.120  1.00  0.00     0.027 H 
ENDROOT
BRANCH   1   4
ATOM      4  C   UNL A   1      34.883  31.325  27.952  1.00  0.00    -0.036 C 
ATOM      5  H   UNL A   1      35.561  31.864  27.324  1.00  0.00     0.028 H 
ATOM      6  H   UNL A   1      35.312  30.505  28.490  1.00  0.00     0.028 H 
BRANCH   4   7
ATOM      7  C   UNL A   1      33.831  30.689  27.048  1.00  0.00     0.018 C 
ATOM      8  H   UNL A   1      33.245  31.477  26.622  1.00  0.00     0.049 H 
ATOM      9  H   UNL A   1      34.374  30.114  26.327  1.00  0.00     0.049 H 
BRANCH   7  10
ATOM     10  N   UNL A   1      32.932  29.765  27.691  1.00  0.00    -0.352 N 
ATOM     11  C   UNL A   1      32.220  28.697  27.199  1.00  0.00     0.255 C 
ATOM     12  O   UNL A   1      31.548  28.070  28.024  1.00  0.00    -0.269 OA
ATOM     13  H   UNL A   1      32.806  29.928  28.654  1.00  0.00     0.163 HD
BRANCH  11  14
ATOM     14  C   UNL A   1      32.137  28.283  25.759  1.00  0.00     0.082 A 
ATOM     15  C   UNL A   1      32.740  27.190  25.125  1.00  0.00     0.143 A 
ATOM     16  C   UNL A   1      32.570  26.953  23.750  1.00  0.00    -0.018 A 
ATOM     17  C   UNL A   1      31.746  27.774  22.989  1.00  0.00    -0.059 A 
ATOM     18  H   UNL A   1      33.062  26.163  23.302  1.00  0.00     0.066 H 
ATOM     19  C   UNL A   1      31.290  29.087  24.964  1.00  0.00    -0.046 A 
ATOM     20  C   UNL A   1      31.095  28.838  23.599  1.00  0.00    -0.061 A 
ATOM     21  H   UNL A   1      31.619  27.595  21.980  1.00  0.00     0.062 H 
ATOM     22  H   UNL A   1      30.799  29.882  25.402  1.00  0.00     0.063 H 
ATOM     23  H   UNL A   1      30.468  29.444  23.048  1.00  0.00     0.062 H 
BRANCH  15  24
ATOM     24  O   UNL A   1      33.610  26.303  25.764  1.00  0.00    -0.426 OA
BRANCH  24  25
ATOM     25  C   UNL A   1      33.059  25.081  26.128  1.00  0.00     0.308 C 
ATOM     26  O   UNL A   1      31.932  24.884  26.555  1.00  0.00    -0.252 OA
BRANCH  25  27
ATOM     27  C   UNL A   1      34.088  24.008  25.905  1.00  0.00     0.034 C 
ATOM     28  H   UNL A   1      33.613  23.137  25.504  1.00  0.00     0.035 H 
ATOM     29  H   UNL A   1      34.555  23.764  26.835  1.00  0.00     0.035 H 
ATOM     30  H   UNL A   1      34.827  24.361  25.217  1.00  0.00     0.035 H 
ENDBRANCH  25  27
ENDBRANCH  24  25
ENDBRANCH  15  24
ENDBRANCH  11  14
ENDBRANCH   7  10
ENDBRANCH   4   7
ENDBRANCH   1   4
BRANCH   1  31
ATOM     31  C   UNL A   1      34.467  33.795  28.755  1.00  0.00    -0.052 C 
ATOM     32  H   UNL A   1      34.859  33.917  27.767  1.00  0.00     0.027 H 
ATOM     33  H   UNL A   1      35.074  34.188  29.545  1.00  0.00     0.027 H 
BRANCH  31  34
ATOM     34  C   UNL A   1      33.167  34.598  28.833  1.00  0.00    -0.036 C 
ATOM     35  H   UNL A   1      32.471  34.030  29.413  1.00  0.00     0.028 H 
ATOM     36  H   UNL A   1      32.882  34.762  27.814  1.00  0.00     0.028 H 
BRANCH  34  37
ATOM     37  C   UNL A   1      33.245  35.992  29.447  1.00  0.00     0.018 C 
ATOM     38  H   UNL A   1      32.916  36.703  28.718  1.00  0.00     0.049 H 
ATOM     39  H   UNL A   1      34.261  36.150  29.740  1.00  0.00     0.049 H 
BRANCH  37  40
ATOM     40  N   UNL A   1      32.430  36.146  30.638  1.00  0.00    -0.352 N 
ATOM     41  C   UNL A   1      32.627  35.698  31.922  1.00  0.00     0.251 C 
ATOM     42  H   UNL A   1      31.599  36.657  30.504  1.00  0.00     0.163 HD
ATOM     43  O   UNL A   1      31.741  35.862  32.757  1.00  0.00    -0.269 OA
BRANCH  41  44
ATOM     44  C   UNL A   1      33.872  34.995  32.319  1.00  0.00     0.039 A 
ATOM     45  C   UNL A   1      33.767  33.688  32.811  1.00  0.00    -0.049 A 
ATOM     46  C   UNL A   1      35.125  35.609  32.271  1.00  0.00    -0.049 A 
ATOM     47  C   UNL A   1      34.913  32.985  33.199  1.00  0.00    -0.053 A 
ATOM     48  H   UNL A   1      32.840  33.241  32.888  1.00  0.00     0.063 H 
ATOM     49  C   UNL A   1      36.276  34.883  32.589  1.00  0.00    -0.053 A 
ATOM     50  H   UNL A   1      35.202  36.602  31.999  1.00  0.00     0.063 H 
ATOM     51  C   UNL A   1      36.183  33.566  33.064  1.00  0.00    -0.014 A 
ATOM     52  H   UNL A   1      34.823  32.033  33.586  1.00  0.00     0.063 H 
ATOM     53  H   UNL A   1      37.204  35.321  32.472  1.00  0.00     0.063 H 
BRANCH  51  54
ATOM     54  C   UNL A   1      37.415  32.816  33.429  1.00  0.00     0.031 A 
ATOM     55  C   UNL A   1      38.140  33.117  34.713  1.00  0.00     0.074 A 
ATOM     56  C   UNL A   1      37.920  31.903  32.577  1.00  0.00     0.049 A 
ATOM     57  N   UNL A   1      39.260  32.616  35.171  1.00  0.00    -0.248 NA
ATOM     58  C   UNL A   1      37.540  34.139  35.583  1.00  0.00    -0.034 C 
ATOM     59  C   UNL A   1      37.348  31.554  31.276  1.00  0.00    -0.036 A 
ATOM     60  N   UNL A   1      39.041  31.114  32.668  1.00  0.00    -0.354 N 
ATOM     61  C   UNL A   1      39.508  33.274  36.369  1.00  0.00     0.074 A 
ATOM     62  C   UNL A   1      38.450  34.246  36.540  1.00  0.00    -0.034 C 
ATOM     63  H   UNL A   1      36.645  34.642  35.476  1.00  0.00     0.065 H 
ATOM     64  C   UNL A   1      38.113  30.617  30.696  1.00  0.00    -0.036 A 
ATOM     65  H   UNL A   1      36.491  31.963  30.870  1.00  0.00     0.065 H 
ATOM     66  C   UNL A   1      39.248  30.320  31.566  1.00  0.00     0.049 A 
ATOM     67  H   UNL A   1      39.640  31.117  33.451  1.00  0.00     0.167 HD
ATOM     68  C   UNL A   1      40.513  33.073  37.255  1.00  0.00     0.037 A 
ATOM     69  H   UNL A   1      38.408  34.934  37.309  1.00  0.00     0.065 H 
ATOM     70  H   UNL A   1      37.930  30.177  29.781  1.00  0.00     0.065 H 
ATOM     71  C   UNL A   1      40.243  29.458  31.283  1.00  0.00     0.037 A 
ATOM     72  C   UNL A   1      41.548  32.085  37.099  1.00  0.00     0.049 A 
ATOM     73  C   UNL A   1      41.339  29.236  32.290  1.00  0.00     0.074 A 
ATOM     74  C   UNL A   1      42.563  31.750  37.978  1.00  0.00    -0.036 A 
ATOM     75  N   UNL A   1      41.705  31.274  35.983  1.00  0.00    -0.354 N 
ATOM     76  N   UNL A   1      41.518  29.808  33.456  1.00  0.00    -0.248 NA
ATOM     77  C   UNL A   1      42.363  28.240  31.946  1.00  0.00    -0.034 C 
ATOM     78  C   UNL A   1      43.363  30.772  37.375  1.00  0.00    -0.036 A 
ATOM     79  H   UNL A   1      42.707  32.153  38.917  1.00  0.00     0.065 H 
ATOM     80  C   UNL A   1      42.816  30.459  36.141  1.00  0.00     0.049 A 
ATOM     81  H   UNL A   1      41.114  31.277  35.196  1.00  0.00     0.167 HD
ATOM     82  C   UNL A   1      42.660  29.229  33.993  1.00  0.00     0.074 A 
ATOM     83  C   UNL A   1      43.123  28.249  33.034  1.00  0.00    -0.034 C 
ATOM     84  H   UNL A   1      42.465  27.679  31.086  1.00  0.00     0.065 H 
ATOM     85  H   UNL A   1      44.215  30.355  37.780  1.00  0.00     0.065 H 
ATOM     86  C   UNL A   1      43.270  29.490  35.176  1.00  0.00     0.037 A 
ATOM     87  H   UNL A   1      43.940  27.635  33.177  1.00  0.00     0.065 H 
BRANCH  68  88
ATOM     88  C   UNL A   1      40.542  33.946  38.478  1.00  0.00     0.064 A 
ATOM     89  C   UNL A   1      39.848  33.603  39.649  1.00  0.00     0.173 A 
ATOM     90  C   UNL A   1      41.289  35.135  38.485  1.00  0.00     0.173 A 
ATOM     91  F   UNL A   1      39.113  32.482  39.693  1.00  0.00    -0.203 F 
ATOM     92  C   UNL A   1      39.867  34.434  40.765  1.00  0.00     0.198 A 
ATOM     93  C   UNL A   1      41.332  35.948  39.615  1.00  0.00     0.198 A 
ATOM     94  F   UNL A   1      41.978  35.508  37.396  1.00  0.00    -0.203 F 
ATOM     95  F   UNL A   1      39.148  34.115  41.849  1.00  0.00    -0.200 F 
ATOM     96  C   UNL A   1      40.613  35.604  40.750  1.00  0.00     0.200 A 
ATOM     97  F   UNL A   1      42.064  37.071  39.603  1.00  0.00    -0.200 F 
ATOM     98  F   UNL A   1      40.630  36.405  41.824  1.00  0.00    -0.200 F 
ENDBRANCH  68  88
BRANCH  71  99
ATOM     99  C   UNL A   1      40.233  28.728  29.988  1.00  0.00     0.064 A 
ATOM    100  C   UNL A   1      39.594  27.488  29.863  1.00  0.00     0.173 A 
ATOM    101  C   UNL A   1      40.845  29.267  28.847  1.00  0.00     0.173 A 
ATOM    102  F   UNL A   1      39.013  26.923  30.932  1.00  0.00    -0.203 F 
ATOM    103  C   UNL A   1      39.576  26.808  28.647  1.00  0.00     0.198 A 
ATOM    104  C   UNL A   1      40.803  28.600  27.625  1.00  0.00     0.198 A 
ATOM    105  F   UNL A   1      41.464  30.455  28.914  1.00  0.00    -0.203 F 
ATOM    106  F   UNL A   1      38.989  25.606  28.562  1.00  0.00    -0.200 F 
ATOM    107  C   UNL A   1      40.173  27.368  27.528  1.00  0.00     0.200 A 
ATOM    108  F   UNL A   1      41.368  29.152  26.542  1.00  0.00    -0.200 F 
ATOM    109  F   UNL A   1      40.147  26.718  26.356  1.00  0.00    -0.200 F 
ENDBRANCH  71  99
BRANCH  86 110
ATOM    110  C   UNL A   1      44.494  28.688  35.511  1.00  0.00     0.064 A 
ATOM    111  C   UNL A   1      45.776  29.110  35.128  1.00  0.00     0.173 A 
ATOM    112  C   UNL A   1      44.389  27.506  36.259  1.00  0.00     0.173 A 
ATOM    113  F   UNL A   1      45.930  30.226  34.398  1.00  0.00    -0.203 F 
ATOM    114  C   UNL A   1      46.905  28.365  35.461  1.00  0.00     0.198 A 
ATOM    115  C   UNL A   1      45.522  26.780  36.616  1.00  0.00     0.198 A 
ATOM    116  F   UNL A   1      43.187  27.062  36.656  1.00  0.00    -0.203 F 
ATOM    117  F   UNL A   1      48.114  28.764  35.045  1.00  0.00    -0.200 F 
ATOM    118  C   UNL A   1      46.777  27.206  36.211  1.00  0.00     0.200 A 
ATOM    119  F   UNL A   1      45.397  25.666  37.351  1.00  0.00    -0.200 F 
ATOM    120  F   UNL A   1      47.865  26.495  36.537  1.00  0.00    -0.200 F 
ENDBRANCH  86 110
ENDBRANCH  51  54
ENDBRANCH  41  44
ENDBRANCH  37  40
ENDBRANCH  34  37
ENDBRANCH  31  34
ENDBRANCH   1  31
TORSDOF 16
ENDMDL
MODEL 8
REMARK VINA RESULT:     -10.6      1.277      2.343
REMARK SMILES CC(=O)Oc1ccccc1C(=O)NCCCCCCNC(=O)c1ccc(-c2c3nc(c(-c4c(F)c(F)c(F)c(F)c4F)c4ccc([nH]4)c(-c4c(F)c(F)c(F)c(F)c4F)c4nc(c(-c5c(F)c(F)c(F)c(F)c5F)c5ccc2[nH]5)C=C4)C=C3)cc1
REMARK SMILES IDX 16 1 15 4 14 7 13 10 11 11 12 12 10 14 5 15 6 16 7 17 9 19
REMARK SMILES IDX 8 20 4 24 2 25 3 26 1 27 17 31 18 34 19 37 20 40 21 41 22 43
REMARK SMILES IDX 23 44 24 45 85 46 25 47 84 49 26 51 27 54 28 55 78 56 29 57
REMARK SMILES IDX 83 58 77 59 79 60 30 61 82 62 76 64 75 66 31 68 63 71 43 72
REMARK SMILES IDX 62 73 44 74 47 75 61 76 80 77 45 78 46 80 60 82 81 83 48 86
REMARK SMILES IDX 32 88 33 89 41 90 34 91 35 92 39 93 42 94 36 95 37 96 40 97
REMARK SMILES IDX 38 98 64 99 65 100 73 101 66 102 67 103 71 104 74 105 68 106
REMARK SMILES IDX 69 107 72 108 70 109 49 110 50 111 58 112 51 113 52 114
REMARK SMILES IDX 56 115 59 116 53 117 54 118 57 119 55 120
REMARK H PARENT 16 2 16 3 15 5 15 6 14 8 14 9 13 13 6 18 7 21 9 22 8 23 1 28
REMARK H PARENT 1 29 1 30 17 32 17 33 18 35 18 36 19 38 19 39 20 42 24 48
REMARK H PARENT 85 50 25 52 84 53 83 63 77 65 79 67 82 69 76 70 44 79 47 81
REMARK H PARENT 80 84 45 85 81 87
REMARK Flexibility Score: inf
ROOT
ATOM      1  C   UNL A   1      32.276  29.967  26.848  1.00  0.00    -0.052 C 
ATOM      2  H   UNL A   1      33.083  29.699  26.197  1.00  0.00     0.027 H 
ATOM      3  H   UNL A   1      32.548  30.514  27.726  1.00  0.00     0.027 H 
ENDROOT
BRANCH   1   4
ATOM      4  C   UNL A   1      31.671  28.664  27.381  1.00  0.00    -0.036 C 
ATOM      5  H   UNL A   1      32.312  28.308  28.161  1.00  0.00     0.028 H 
ATOM      6  H   UNL A   1      30.680  28.930  27.688  1.00  0.00     0.028 H 
BRANCH   4   7
ATOM      7  C   UNL A   1      31.478  27.521  26.390  1.00  0.00     0.018 C 
ATOM      8  H   UNL A   1      30.598  27.728  25.817  1.00  0.00     0.049 H 
ATOM      9  H   UNL A   1      32.375  27.483  25.809  1.00  0.00     0.049 H 
BRANCH   7  10
ATOM     10  N   UNL A   1      31.330  26.211  26.971  1.00  0.00    -0.352 N 
ATOM     11  C   UNL A   1      31.683  24.965  26.508  1.00  0.00     0.255 C 
ATOM     12  O   UNL A   1      31.447  24.020  27.266  1.00  0.00    -0.269 OA
ATOM     13  H   UNL A   1      30.899  26.207  27.856  1.00  0.00     0.163 HD
BRANCH  11  14
ATOM     14  C   UNL A   1      32.256  24.659  25.155  1.00  0.00     0.082 A 
ATOM     15  C   UNL A   1      33.600  24.556  24.776  1.00  0.00     0.143 A 
ATOM     16  C   UNL A   1      33.969  24.275  23.448  1.00  0.00    -0.018 A 
ATOM     17  C   UNL A   1      32.998  24.036  22.482  1.00  0.00    -0.059 A 
ATOM     18  H   UNL A   1      34.968  24.247  23.189  1.00  0.00     0.066 H 
ATOM     19  C   UNL A   1      31.294  24.391  24.156  1.00  0.00    -0.046 A 
ATOM     20  C   UNL A   1      31.657  24.083  22.838  1.00  0.00    -0.061 A 
ATOM     21  H   UNL A   1      33.272  23.825  21.509  1.00  0.00     0.062 H 
ATOM     22  H   UNL A   1      30.293  24.422  24.404  1.00  0.00     0.063 H 
ATOM     23  H   UNL A   1      30.928  23.891  22.133  1.00  0.00     0.062 H 
BRANCH  15  24
ATOM     24  O   UNL A   1      34.673  24.796  25.637  1.00  0.00    -0.426 OA
BRANCH  24  25
ATOM     25  C   UNL A   1      35.321  23.665  26.116  1.00  0.00     0.308 C 
ATOM     26  O   UNL A   1      34.840  22.784  26.811  1.00  0.00    -0.252 OA
BRANCH  25  27
ATOM     27  C   UNL A   1      36.743  23.689  25.630  1.00  0.00     0.034 C 
ATOM     28  H   UNL A   1      37.110  24.694  25.650  1.00  0.00     0.035 H 
ATOM     29  H   UNL A   1      36.784  23.315  24.628  1.00  0.00     0.035 H 
ATOM     30  H   UNL A   1      37.348  23.075  26.264  1.00  0.00     0.035 H 
ENDBRANCH  25  27
ENDBRANCH  24  25
ENDBRANCH  15  24
ENDBRANCH  11  14
ENDBRANCH   7  10
ENDBRANCH   4   7
ENDBRANCH   1   4
BRANCH   1  31
ATOM     31  C   UNL A   1      31.366  30.924  26.070  1.00  0.00    -0.052 C 
ATOM     32  H   UNL A   1      30.378  30.516  26.093  1.00  0.00     0.027 H 
ATOM     33  H   UNL A   1      31.814  30.995  25.100  1.00  0.00     0.027 H 
BRANCH  31  34
ATOM     34  C   UNL A   1      31.273  32.372  26.557  1.00  0.00    -0.036 C 
ATOM     35  H   UNL A   1      30.521  32.408  27.316  1.00  0.00     0.028 H 
ATOM     36  H   UNL A   1      31.060  32.945  25.679  1.00  0.00     0.028 H 
BRANCH  34  37
ATOM     37  C   UNL A   1      32.539  32.996  27.136  1.00  0.00     0.018 C 
ATOM     38  H   UNL A   1      33.267  33.072  26.355  1.00  0.00     0.049 H 
ATOM     39  H   UNL A   1      32.864  32.363  27.935  1.00  0.00     0.049 H 
BRANCH  37  40
ATOM     40  N   UNL A   1      32.329  34.317  27.697  1.00  0.00    -0.352 N 
ATOM     41  C   UNL A   1      32.986  34.976  28.708  1.00  0.00     0.251 C 
ATOM     42  H   UNL A   1      31.595  34.826  27.284  1.00  0.00     0.163 HD
ATOM     43  O   UNL A   1      32.564  36.065  29.088  1.00  0.00    -0.269 OA
BRANCH  41  44
ATOM     44  C   UNL A   1      34.177  34.391  29.372  1.00  0.00     0.039 A 
ATOM     45  C   UNL A   1      33.983  33.634  30.534  1.00  0.00    -0.049 A 
ATOM     46  C   UNL A   1      35.476  34.618  28.912  1.00  0.00    -0.049 A 
ATOM     47  C   UNL A   1      35.075  33.063  31.197  1.00  0.00    -0.053 A 
ATOM     48  H   UNL A   1      33.029  33.495  30.904  1.00  0.00     0.063 H 
ATOM     49  C   UNL A   1      36.560  33.989  29.530  1.00  0.00    -0.053 A 
ATOM     50  H   UNL A   1      35.637  35.252  28.113  1.00  0.00     0.063 H 
ATOM     51  C   UNL A   1      36.373  33.211  30.684  1.00  0.00    -0.014 A 
ATOM     52  H   UNL A   1      34.926  32.530  32.067  1.00  0.00     0.063 H 
ATOM     53  H   UNL A   1      37.507  34.097  29.134  1.00  0.00     0.063 H 
BRANCH  51  54
ATOM     54  C   UNL A   1      37.541  32.573  31.350  1.00  0.00     0.031 A 
ATOM     55  C   UNL A   1      38.251  31.416  30.700  1.00  0.00     0.074 A 
ATOM     56  C   UNL A   1      37.929  32.992  32.570  1.00  0.00     0.049 A 
ATOM     57  N   UNL A   1      39.245  30.691  31.152  1.00  0.00    -0.248 NA
ATOM     58  C   UNL A   1      37.761  31.001  29.377  1.00  0.00    -0.034 C 
ATOM     59  C   UNL A   1      37.293  34.065  33.335  1.00  0.00    -0.036 A 
ATOM     60  N   UNL A   1      38.939  32.553  33.390  1.00  0.00    -0.354 N 
ATOM     61  C   UNL A   1      39.482  29.726  30.182  1.00  0.00     0.074 A 
ATOM     62  C   UNL A   1      38.497  29.926  29.141  1.00  0.00    -0.034 C 
ATOM     63  H   UNL A   1      37.033  31.435  28.788  1.00  0.00     0.065 H 
ATOM     64  C   UNL A   1      37.932  34.208  34.506  1.00  0.00    -0.036 A 
ATOM     65  H   UNL A   1      36.483  34.623  33.023  1.00  0.00     0.065 H 
ATOM     66  C   UNL A   1      39.001  33.216  34.591  1.00  0.00     0.049 A 
ATOM     67  H   UNL A   1      39.560  31.830  33.141  1.00  0.00     0.167 HD
ATOM     68  C   UNL A   1      40.447  28.774  30.151  1.00  0.00     0.037 A 
ATOM     69  H   UNL A   1      38.382  29.310  28.321  1.00  0.00     0.065 H 
ATOM     70  H   UNL A   1      37.704  34.905  35.231  1.00  0.00     0.065 H 
ATOM     71  C   UNL A   1      39.820  33.042  35.646  1.00  0.00     0.037 A 
ATOM     72  C   UNL A   1      41.445  28.596  31.172  1.00  0.00     0.049 A 
ATOM     73  C   UNL A   1      40.896  31.992  35.582  1.00  0.00     0.074 A 
ATOM     74  C   UNL A   1      42.511  27.713  31.193  1.00  0.00    -0.036 A 
ATOM     75  N   UNL A   1      41.498  29.312  32.360  1.00  0.00    -0.354 N 
ATOM     76  N   UNL A   1      41.161  31.137  34.624  1.00  0.00    -0.248 NA
ATOM     77  C   UNL A   1      41.794  31.890  36.742  1.00  0.00    -0.034 C 
ATOM     78  C   UNL A   1      43.179  27.861  32.415  1.00  0.00    -0.036 A 
ATOM     79  H   UNL A   1      42.769  27.058  30.439  1.00  0.00     0.065 H 
ATOM     80  C   UNL A   1      42.562  28.872  33.132  1.00  0.00     0.049 A 
ATOM     81  H   UNL A   1      40.872  30.027  32.616  1.00  0.00     0.167 HD
ATOM     82  C   UNL A   1      42.264  30.412  35.053  1.00  0.00     0.074 A 
ATOM     83  C   UNL A   1      42.630  30.937  36.352  1.00  0.00    -0.034 C 
ATOM     84  H   UNL A   1      41.778  32.421  37.627  1.00  0.00     0.065 H 
ATOM     85  H   UNL A   1      43.994  27.310  32.727  1.00  0.00     0.065 H 
ATOM     86  C   UNL A   1      42.913  29.400  34.426  1.00  0.00     0.037 A 
ATOM     87  H   UNL A   1      43.439  30.613  36.904  1.00  0.00     0.065 H 
BRANCH  68  88
ATOM     88  C   UNL A   1      40.464  27.846  28.968  1.00  0.00     0.064 A 
ATOM     89  C   UNL A   1      41.238  28.114  27.829  1.00  0.00     0.173 A 
ATOM     90  C   UNL A   1      39.709  26.663  28.983  1.00  0.00     0.173 A 
ATOM     91  F   UNL A   1      41.972  29.235  27.760  1.00  0.00    -0.203 F 
ATOM     92  C   UNL A   1      41.225  27.255  26.734  1.00  0.00     0.198 A 
ATOM     93  C   UNL A   1      39.724  25.789  27.898  1.00  0.00     0.198 A 
ATOM     94  F   UNL A   1      38.957  26.352  30.050  1.00  0.00    -0.203 F 
ATOM     95  F   UNL A   1      41.925  27.563  25.634  1.00  0.00    -0.200 F 
ATOM     96  C   UNL A   1      40.472  26.091  26.770  1.00  0.00     0.200 A 
ATOM     97  F   UNL A   1      39.007  24.658  27.941  1.00  0.00    -0.200 F 
ATOM     98  F   UNL A   1      40.459  25.265  25.716  1.00  0.00    -0.200 F 
ENDBRANCH  68  88
BRANCH  71  99
ATOM     99  C   UNL A   1      39.659  33.900  36.849  1.00  0.00     0.064 A 
ATOM    100  C   UNL A   1      40.270  35.158  36.926  1.00  0.00     0.173 A 
ATOM    101  C   UNL A   1      38.872  33.487  37.935  1.00  0.00     0.173 A 
ATOM    102  F   UNL A   1      41.048  35.587  35.921  1.00  0.00    -0.203 F 
ATOM    103  C   UNL A   1      40.111  35.967  38.049  1.00  0.00     0.198 A 
ATOM    104  C   UNL A   1      38.691  34.308  39.045  1.00  0.00     0.198 A 
ATOM    105  F   UNL A   1      38.261  32.294  37.906  1.00  0.00    -0.203 F 
ATOM    106  F   UNL A   1      40.735  37.151  38.114  1.00  0.00    -0.200 F 
ATOM    107  C   UNL A   1      39.315  35.545  39.104  1.00  0.00     0.200 A 
ATOM    108  F   UNL A   1      37.909  33.903  40.055  1.00  0.00    -0.200 F 
ATOM    109  F   UNL A   1      39.154  36.328  40.179  1.00  0.00    -0.200 F 
ENDBRANCH  71  99
BRANCH  86 110
ATOM    110  C   UNL A   1      44.102  28.806  35.126  1.00  0.00     0.064 A 
ATOM    111  C   UNL A   1      45.393  29.322  34.946  1.00  0.00     0.173 A 
ATOM    112  C   UNL A   1      43.941  27.735  36.017  1.00  0.00     0.173 A 
ATOM    113  F   UNL A   1      45.603  30.336  34.093  1.00  0.00    -0.203 F 
ATOM    114  C   UNL A   1      46.484  28.773  35.616  1.00  0.00     0.198 A 
ATOM    115  C   UNL A   1      45.029  27.207  36.708  1.00  0.00     0.198 A 
ATOM    116  F   UNL A   1      42.726  27.208  36.230  1.00  0.00    -0.203 F 
ATOM    117  F   UNL A   1      47.715  29.253  35.394  1.00  0.00    -0.200 F 
ATOM    118  C   UNL A   1      46.300  27.721  36.501  1.00  0.00     0.200 A 
ATOM    119  F   UNL A   1      44.846  26.199  37.572  1.00  0.00    -0.200 F 
ATOM    120  F   UNL A   1      47.349  27.198  37.150  1.00  0.00    -0.200 F 
ENDBRANCH  86 110
ENDBRANCH  51  54
ENDBRANCH  41  44
ENDBRANCH  37  40
ENDBRANCH  34  37
ENDBRANCH  31  34
ENDBRANCH   1  31
TORSDOF 16
ENDMDL
MODEL 9
REMARK VINA RESULT:     -10.6      6.106     11.474
REMARK SMILES CC(=O)Oc1ccccc1C(=O)NCCCCCCNC(=O)c1ccc(-c2c3nc(c(-c4c(F)c(F)c(F)c(F)c4F)c4ccc([nH]4)c(-c4c(F)c(F)c(F)c(F)c4F)c4nc(c(-c5c(F)c(F)c(F)c(F)c5F)c5ccc2[nH]5)C=C4)C=C3)cc1
REMARK SMILES IDX 16 1 15 4 14 7 13 10 11 11 12 12 10 14 5 15 6 16 7 17 9 19
REMARK SMILES IDX 8 20 4 24 2 25 3 26 1 27 17 31 18 34 19 37 20 40 21 41 22 43
REMARK SMILES IDX 23 44 24 45 85 46 25 47 84 49 26 51 27 54 28 55 78 56 29 57
REMARK SMILES IDX 83 58 77 59 79 60 30 61 82 62 76 64 75 66 31 68 63 71 43 72
REMARK SMILES IDX 62 73 44 74 47 75 61 76 80 77 45 78 46 80 60 82 81 83 48 86
REMARK SMILES IDX 32 88 33 89 41 90 34 91 35 92 39 93 42 94 36 95 37 96 40 97
REMARK SMILES IDX 38 98 64 99 65 100 73 101 66 102 67 103 71 104 74 105 68 106
REMARK SMILES IDX 69 107 72 108 70 109 49 110 50 111 58 112 51 113 52 114
REMARK SMILES IDX 56 115 59 116 53 117 54 118 57 119 55 120
REMARK H PARENT 16 2 16 3 15 5 15 6 14 8 14 9 13 13 6 18 7 21 9 22 8 23 1 28
REMARK H PARENT 1 29 1 30 17 32 17 33 18 35 18 36 19 38 19 39 20 42 24 48
REMARK H PARENT 85 50 25 52 84 53 83 63 77 65 79 67 82 69 76 70 44 79 47 81
REMARK H PARENT 80 84 45 85 81 87
REMARK Flexibility Score: inf
ROOT
ATOM      1  C   UNL A   1      36.910  21.648  24.511  1.00  0.00    -0.052 C 
ATOM      2  H   UNL A   1      37.771  21.736  23.881  1.00  0.00     0.027 H 
ATOM      3  H   UNL A   1      35.965  21.803  24.033  1.00  0.00     0.027 H 
ENDROOT
BRANCH   1   4
ATOM      4  C   UNL A   1      36.995  22.766  25.556  1.00  0.00    -0.036 C 
ATOM      5  H   UNL A   1      37.293  22.319  26.481  1.00  0.00     0.028 H 
ATOM      6  H   UNL A   1      37.687  23.472  25.144  1.00  0.00     0.028 H 
BRANCH   4   7
ATOM      7  C   UNL A   1      35.730  23.575  25.825  1.00  0.00     0.018 C 
ATOM      8  H   UNL A   1      36.025  24.569  26.090  1.00  0.00     0.049 H 
ATOM      9  H   UNL A   1      35.151  23.520  24.928  1.00  0.00     0.049 H 
BRANCH   7  10
ATOM     10  N   UNL A   1      34.879  23.071  26.874  1.00  0.00    -0.352 N 
ATOM     11  C   UNL A   1      33.891  22.115  26.863  1.00  0.00     0.255 C 
ATOM     12  O   UNL A   1      33.355  21.881  27.950  1.00  0.00    -0.269 OA
ATOM     13  H   UNL A   1      35.033  23.485  27.753  1.00  0.00     0.163 HD
BRANCH  11  14
ATOM     14  C   UNL A   1      33.373  21.400  25.651  1.00  0.00     0.082 A 
ATOM     15  C   UNL A   1      32.824  21.940  24.481  1.00  0.00     0.143 A 
ATOM     16  C   UNL A   1      32.368  21.118  23.436  1.00  0.00    -0.018 A 
ATOM     17  C   UNL A   1      32.503  19.736  23.514  1.00  0.00    -0.059 A 
ATOM     18  H   UNL A   1      31.929  21.544  22.604  1.00  0.00     0.066 H 
ATOM     19  C   UNL A   1      33.515  19.994  25.691  1.00  0.00    -0.046 A 
ATOM     20  C   UNL A   1      33.088  19.173  24.640  1.00  0.00    -0.061 A 
ATOM     21  H   UNL A   1      32.171  19.136  22.743  1.00  0.00     0.062 H 
ATOM     22  H   UNL A   1      33.947  19.560  26.521  1.00  0.00     0.063 H 
ATOM     23  H   UNL A   1      33.208  18.150  24.703  1.00  0.00     0.062 H 
BRANCH  15  24
ATOM     24  O   UNL A   1      32.608  23.305  24.282  1.00  0.00    -0.426 OA
BRANCH  24  25
ATOM     25  C   UNL A   1      31.279  23.707  24.274  1.00  0.00     0.308 C 
ATOM     26  O   UNL A   1      30.601  23.979  23.296  1.00  0.00    -0.252 OA
BRANCH  25  27
ATOM     27  C   UNL A   1      30.786  23.751  25.693  1.00  0.00     0.034 C 
ATOM     28  H   UNL A   1      30.957  24.725  26.101  1.00  0.00     0.035 H 
ATOM     29  H   UNL A   1      31.312  23.024  26.276  1.00  0.00     0.035 H 
ATOM     30  H   UNL A   1      29.738  23.534  25.714  1.00  0.00     0.035 H 
ENDBRANCH  25  27
ENDBRANCH  24  25
ENDBRANCH  15  24
ENDBRANCH  11  14
ENDBRANCH   7  10
ENDBRANCH   4   7
ENDBRANCH   1   4
BRANCH   1  31
ATOM     31  C   UNL A   1      36.854  20.198  25.003  1.00  0.00    -0.052 C 
ATOM     32  H   UNL A   1      36.147  19.679  24.391  1.00  0.00     0.027 H 
ATOM     33  H   UNL A   1      36.598  20.275  26.040  1.00  0.00     0.027 H 
BRANCH  31  34
ATOM     34  C   UNL A   1      38.152  19.390  24.987  1.00  0.00    -0.036 C 
ATOM     35  H   UNL A   1      38.565  19.464  24.003  1.00  0.00     0.028 H 
ATOM     36  H   UNL A   1      37.867  18.403  25.287  1.00  0.00     0.028 H 
BRANCH  34  37
ATOM     37  C   UNL A   1      39.242  19.801  25.973  1.00  0.00     0.018 C 
ATOM     38  H   UNL A   1      38.820  19.816  26.956  1.00  0.00     0.049 H 
ATOM     39  H   UNL A   1      39.596  20.762  25.666  1.00  0.00     0.049 H 
BRANCH  37  40
ATOM     40  N   UNL A   1      40.385  18.907  25.977  1.00  0.00    -0.352 N 
ATOM     41  C   UNL A   1      41.725  19.168  26.134  1.00  0.00     0.251 C 
ATOM     42  H   UNL A   1      40.164  17.957  25.848  1.00  0.00     0.163 HD
ATOM     43  O   UNL A   1      42.534  18.253  26.000  1.00  0.00    -0.269 OA
BRANCH  41  44
ATOM     44  C   UNL A   1      42.222  20.533  26.434  1.00  0.00     0.039 A 
ATOM     45  C   UNL A   1      42.461  21.402  25.362  1.00  0.00    -0.049 A 
ATOM     46  C   UNL A   1      42.511  20.955  27.734  1.00  0.00    -0.049 A 
ATOM     47  C   UNL A   1      42.931  22.699  25.595  1.00  0.00    -0.053 A 
ATOM     48  H   UNL A   1      42.289  21.085  24.395  1.00  0.00     0.063 H 
ATOM     49  C   UNL A   1      42.910  22.273  27.972  1.00  0.00    -0.053 A 
ATOM     50  H   UNL A   1      42.428  20.292  28.521  1.00  0.00     0.063 H 
ATOM     51  C   UNL A   1      43.133  23.157  26.906  1.00  0.00    -0.014 A 
ATOM     52  H   UNL A   1      43.130  23.323  24.798  1.00  0.00     0.063 H 
ATOM     53  H   UNL A   1      43.042  22.598  28.943  1.00  0.00     0.063 H 
BRANCH  51  54
ATOM     54  C   UNL A   1      43.589  24.549  27.173  1.00  0.00     0.031 A 
ATOM     55  C   UNL A   1      42.620  25.585  27.677  1.00  0.00     0.074 A 
ATOM     56  C   UNL A   1      44.861  24.900  26.906  1.00  0.00     0.049 A 
ATOM     57  N   UNL A   1      42.814  26.860  27.907  1.00  0.00    -0.248 NA
ATOM     58  C   UNL A   1      41.244  25.133  27.926  1.00  0.00    -0.034 C 
ATOM     59  C   UNL A   1      45.887  24.009  26.364  1.00  0.00    -0.036 A 
ATOM     60  N   UNL A   1      45.505  26.107  27.037  1.00  0.00    -0.354 N 
ATOM     61  C   UNL A   1      41.583  27.364  28.307  1.00  0.00     0.074 A 
ATOM     62  C   UNL A   1      40.639  26.269  28.240  1.00  0.00    -0.034 C 
ATOM     63  H   UNL A   1      40.851  24.180  27.872  1.00  0.00     0.065 H 
ATOM     64  C   UNL A   1      47.031  24.693  26.218  1.00  0.00    -0.036 A 
ATOM     65  H   UNL A   1      45.752  23.012  26.133  1.00  0.00     0.065 H 
ATOM     66  C   UNL A   1      46.815  26.080  26.624  1.00  0.00     0.049 A 
ATOM     67  H   UNL A   1      45.068  26.915  27.393  1.00  0.00     0.167 HD
ATOM     68  C   UNL A   1      41.272  28.618  28.716  1.00  0.00     0.037 A 
ATOM     69  H   UNL A   1      39.625  26.362  28.412  1.00  0.00     0.065 H 
ATOM     70  H   UNL A   1      47.922  24.304  25.873  1.00  0.00     0.065 H 
ATOM     71  C   UNL A   1      47.735  27.061  26.568  1.00  0.00     0.037 A 
ATOM     72  C   UNL A   1      42.219  29.699  28.812  1.00  0.00     0.049 A 
ATOM     73  C   UNL A   1      47.374  28.442  27.044  1.00  0.00     0.074 A 
ATOM     74  C   UNL A   1      42.018  30.983  29.289  1.00  0.00    -0.036 A 
ATOM     75  N   UNL A   1      43.547  29.624  28.416  1.00  0.00    -0.354 N 
ATOM     76  N   UNL A   1      46.227  28.887  27.496  1.00  0.00    -0.248 NA
ATOM     77  C   UNL A   1      48.439  29.454  27.013  1.00  0.00    -0.034 C 
ATOM     78  C   UNL A   1      43.211  31.699  29.137  1.00  0.00    -0.036 A 
ATOM     79  H   UNL A   1      41.140  31.350  29.688  1.00  0.00     0.065 H 
ATOM     80  C   UNL A   1      44.170  30.847  28.614  1.00  0.00     0.049 A 
ATOM     81  H   UNL A   1      43.982  28.821  28.050  1.00  0.00     0.167 HD
ATOM     82  C   UNL A   1      46.435  30.220  27.822  1.00  0.00     0.074 A 
ATOM     83  C   UNL A   1      47.824  30.509  27.531  1.00  0.00    -0.034 C 
ATOM     84  H   UNL A   1      49.411  29.367  26.676  1.00  0.00     0.065 H 
ATOM     85  H   UNL A   1      43.353  32.693  29.375  1.00  0.00     0.065 H 
ATOM     86  C   UNL A   1      45.553  31.123  28.316  1.00  0.00     0.037 A 
ATOM     87  H   UNL A   1      48.278  31.419  27.704  1.00  0.00     0.065 H 
BRANCH  68  88
ATOM     88  C   UNL A   1      39.841  28.890  29.087  1.00  0.00     0.064 A 
ATOM     89  C   UNL A   1      38.903  29.332  28.140  1.00  0.00     0.173 A 
ATOM     90  C   UNL A   1      39.398  28.688  30.403  1.00  0.00     0.173 A 
ATOM     91  F   UNL A   1      39.277  29.548  26.870  1.00  0.00    -0.203 F 
ATOM     92  C   UNL A   1      37.587  29.600  28.506  1.00  0.00     0.198 A 
ATOM     93  C   UNL A   1      38.072  28.927  30.757  1.00  0.00     0.198 A 
ATOM     94  F   UNL A   1      40.249  28.259  31.347  1.00  0.00    -0.203 F 
ATOM     95  F   UNL A   1      36.726  30.079  27.598  1.00  0.00    -0.200 F 
ATOM     96  C   UNL A   1      37.170  29.393  29.813  1.00  0.00     0.200 A 
ATOM     97  F   UNL A   1      37.668  28.713  32.017  1.00  0.00    -0.200 F 
ATOM     98  F   UNL A   1      35.904  29.652  30.163  1.00  0.00    -0.200 F 
ENDBRANCH  68  88
BRANCH  71  99
ATOM     99  C   UNL A   1      49.097  26.761  26.054  1.00  0.00     0.064 A 
ATOM    100  C   UNL A   1      49.430  26.989  24.713  1.00  0.00     0.173 A 
ATOM    101  C   UNL A   1      50.098  26.260  26.901  1.00  0.00     0.173 A 
ATOM    102  F   UNL A   1      48.501  27.447  23.861  1.00  0.00    -0.203 F 
ATOM    103  C   UNL A   1      50.710  26.717  24.233  1.00  0.00     0.198 A 
ATOM    104  C   UNL A   1      51.384  26.015  26.427  1.00  0.00     0.198 A 
ATOM    105  F   UNL A   1      49.830  26.031  28.194  1.00  0.00    -0.203 F 
ATOM    106  F   UNL A   1      50.993  26.910  22.938  1.00  0.00    -0.200 F 
ATOM    107  C   UNL A   1      51.688  26.238  25.092  1.00  0.00     0.200 A 
ATOM    108  F   UNL A   1      52.330  25.567  27.264  1.00  0.00    -0.200 F 
ATOM    109  F   UNL A   1      52.921  25.987  24.633  1.00  0.00    -0.200 F 
ENDBRANCH  71  99
BRANCH  86 110
ATOM    110  C   UNL A   1      46.066  32.507  28.595  1.00  0.00     0.064 A 
ATOM    111  C   UNL A   1      46.654  32.837  29.824  1.00  0.00     0.173 A 
ATOM    112  C   UNL A   1      46.006  33.501  27.607  1.00  0.00     0.173 A 
ATOM    113  F   UNL A   1      46.722  31.927  30.807  1.00  0.00    -0.203 F 
ATOM    114  C   UNL A   1      47.143  34.120  30.063  1.00  0.00     0.198 A 
ATOM    115  C   UNL A   1      46.522  34.773  27.838  1.00  0.00     0.198 A 
ATOM    116  F   UNL A   1      45.459  33.235  26.411  1.00  0.00    -0.203 F 
ATOM    117  F   UNL A   1      47.660  34.426  31.260  1.00  0.00    -0.200 F 
ATOM    118  C   UNL A   1      47.083  35.084  29.067  1.00  0.00     0.200 A 
ATOM    119  F   UNL A   1      46.475  35.699  26.870  1.00  0.00    -0.200 F 
ATOM    120  F   UNL A   1      47.560  36.315  29.296  1.00  0.00    -0.200 F 
ENDBRANCH  86 110
ENDBRANCH  51  54
ENDBRANCH  41  44
ENDBRANCH  37  40
ENDBRANCH  34  37
ENDBRANCH  31  34
ENDBRANCH   1  31
TORSDOF 16
ENDMDL
MODEL 10
REMARK VINA RESULT:     -10.6      1.165      7.688
REMARK SMILES CC(=O)Oc1ccccc1C(=O)NCCCCCCNC(=O)c1ccc(-c2c3nc(c(-c4c(F)c(F)c(F)c(F)c4F)c4ccc([nH]4)c(-c4c(F)c(F)c(F)c(F)c4F)c4nc(c(-c5c(F)c(F)c(F)c(F)c5F)c5ccc2[nH]5)C=C4)C=C3)cc1
REMARK SMILES IDX 16 1 15 4 14 7 13 10 11 11 12 12 10 14 5 15 6 16 7 17 9 19
REMARK SMILES IDX 8 20 4 24 2 25 3 26 1 27 17 31 18 34 19 37 20 40 21 41 22 43
REMARK SMILES IDX 23 44 24 45 85 46 25 47 84 49 26 51 27 54 28 55 78 56 29 57
REMARK SMILES IDX 83 58 77 59 79 60 30 61 82 62 76 64 75 66 31 68 63 71 43 72
REMARK SMILES IDX 62 73 44 74 47 75 61 76 80 77 45 78 46 80 60 82 81 83 48 86
REMARK SMILES IDX 32 88 33 89 41 90 34 91 35 92 39 93 42 94 36 95 37 96 40 97
REMARK SMILES IDX 38 98 64 99 65 100 73 101 66 102 67 103 71 104 74 105 68 106
REMARK SMILES IDX 69 107 72 108 70 109 49 110 50 111 58 112 51 113 52 114
REMARK SMILES IDX 56 115 59 116 53 117 54 118 57 119 55 120
REMARK H PARENT 16 2 16 3 15 5 15 6 14 8 14 9 13 13 6 18 7 21 9 22 8 23 1 28
REMARK H PARENT 1 29 1 30 17 32 17 33 18 35 18 36 19 38 19 39 20 42 24 48
REMARK H PARENT 85 50 25 52 84 53 83 63 77 65 79 67 82 69 76 70 44 79 47 81
REMARK H PARENT 80 84 45 85 81 87
REMARK Flexibility Score: inf
ROOT
ATOM      1  C   UNL A   1      32.251  29.792  27.203  1.00  0.00    -0.052 C 
ATOM      2  H   UNL A   1      32.215  30.225  28.182  1.00  0.00     0.027 H 
ATOM      3  H   UNL A   1      31.754  28.851  27.090  1.00  0.00     0.027 H 
ENDROOT
BRANCH   1   4
ATOM      4  C   UNL A   1      33.721  29.486  26.896  1.00  0.00    -0.036 C 
ATOM      5  H   UNL A   1      34.163  30.383  26.515  1.00  0.00     0.028 H 
ATOM      6  H   UNL A   1      34.126  29.134  27.822  1.00  0.00     0.028 H 
BRANCH   4   7
ATOM      7  C   UNL A   1      34.013  28.372  25.896  1.00  0.00     0.018 C 
ATOM      8  H   UNL A   1      34.974  27.964  26.130  1.00  0.00     0.049 H 
ATOM      9  H   UNL A   1      33.210  27.672  25.995  1.00  0.00     0.049 H 
BRANCH   7  10
ATOM     10  N   UNL A   1      34.024  28.765  24.510  1.00  0.00    -0.352 N 
ATOM     11  C   UNL A   1      33.210  28.412  23.458  1.00  0.00     0.255 C 
ATOM     12  O   UNL A   1      33.462  28.953  22.377  1.00  0.00    -0.269 OA
ATOM     13  H   UNL A   1      34.740  29.397  24.274  1.00  0.00     0.163 HD
BRANCH  11  14
ATOM     14  C   UNL A   1      32.111  27.392  23.499  1.00  0.00     0.082 A 
ATOM     15  C   UNL A   1      30.737  27.592  23.679  1.00  0.00     0.143 A 
ATOM     16  C   UNL A   1      29.836  26.512  23.708  1.00  0.00    -0.018 A 
ATOM     17  C   UNL A   1      30.285  25.213  23.501  1.00  0.00    -0.059 A 
ATOM     18  H   UNL A   1      28.833  26.687  23.885  1.00  0.00     0.066 H 
ATOM     19  C   UNL A   1      32.533  26.063  23.272  1.00  0.00    -0.046 A 
ATOM     20  C   UNL A   1      31.635  24.988  23.272  1.00  0.00    -0.061 A 
ATOM     21  H   UNL A   1      29.620  24.423  23.518  1.00  0.00     0.062 H 
ATOM     22  H   UNL A   1      33.533  25.879  23.100  1.00  0.00     0.063 H 
ATOM     23  H   UNL A   1      31.977  24.030  23.101  1.00  0.00     0.062 H 
BRANCH  15  24
ATOM     24  O   UNL A   1      30.156  28.839  23.921  1.00  0.00    -0.426 OA
BRANCH  24  25
ATOM     25  C   UNL A   1      29.764  29.547  22.793  1.00  0.00     0.308 C 
ATOM     26  O   UNL A   1      29.903  29.206  21.629  1.00  0.00    -0.252 OA
BRANCH  25  27
ATOM     27  C   UNL A   1      29.119  30.830  23.236  1.00  0.00     0.034 C 
ATOM     28  H   UNL A   1      29.339  31.603  22.529  1.00  0.00     0.035 H 
ATOM     29  H   UNL A   1      29.500  31.107  24.196  1.00  0.00     0.035 H 
ATOM     30  H   UNL A   1      28.060  30.694  23.298  1.00  0.00     0.035 H 
ENDBRANCH  25  27
ENDBRANCH  24  25
ENDBRANCH  15  24
ENDBRANCH  11  14
ENDBRANCH   7  10
ENDBRANCH   4   7
ENDBRANCH   1   4
BRANCH   1  31
ATOM     31  C   UNL A   1      31.495  30.737  26.262  1.00  0.00    -0.052 C 
ATOM     32  H   UNL A   1      30.503  30.352  26.152  1.00  0.00     0.027 H 
ATOM     33  H   UNL A   1      32.085  30.756  25.368  1.00  0.00     0.027 H 
BRANCH  31  34
ATOM     34  C   UNL A   1      31.373  32.205  26.673  1.00  0.00    -0.036 C 
ATOM     35  H   UNL A   1      30.789  32.241  27.569  1.00  0.00     0.028 H 
ATOM     36  H   UNL A   1      30.937  32.693  25.827  1.00  0.00     0.028 H 
BRANCH  34  37
ATOM     37  C   UNL A   1      32.669  32.964  26.941  1.00  0.00     0.018 C 
ATOM     38  H   UNL A   1      33.146  33.159  26.004  1.00  0.00     0.049 H 
ATOM     39  H   UNL A   1      33.265  32.350  27.582  1.00  0.00     0.049 H 
BRANCH  37  40
ATOM     40  N   UNL A   1      32.468  34.227  27.626  1.00  0.00    -0.352 N 
ATOM     41  C   UNL A   1      33.113  34.770  28.711  1.00  0.00     0.251 C 
ATOM     42  H   UNL A   1      31.753  34.789  27.250  1.00  0.00     0.163 HD
ATOM     43  O   UNL A   1      32.701  35.824  29.189  1.00  0.00    -0.269 OA
BRANCH  41  44
ATOM     44  C   UNL A   1      34.277  34.099  29.340  1.00  0.00     0.039 A 
ATOM     45  C   UNL A   1      34.034  33.077  30.266  1.00  0.00    -0.049 A 
ATOM     46  C   UNL A   1      35.594  34.489  29.084  1.00  0.00    -0.049 A 
ATOM     47  C   UNL A   1      35.099  32.415  30.886  1.00  0.00    -0.053 A 
ATOM     48  H   UNL A   1      33.063  32.809  30.492  1.00  0.00     0.063 H 
ATOM     49  C   UNL A   1      36.659  33.781  29.646  1.00  0.00    -0.053 A 
ATOM     50  H   UNL A   1      35.780  35.303  28.476  1.00  0.00     0.063 H 
ATOM     51  C   UNL A   1      36.424  32.742  30.560  1.00  0.00    -0.014 A 
ATOM     52  H   UNL A   1      34.910  31.683  31.587  1.00  0.00     0.063 H 
ATOM     53  H   UNL A   1      37.628  34.025  29.386  1.00  0.00     0.063 H 
BRANCH  51  54
ATOM     54  C   UNL A   1      37.569  32.017  31.175  1.00  0.00     0.031 A 
ATOM     55  C   UNL A   1      38.051  32.382  32.554  1.00  0.00     0.074 A 
ATOM     56  C   UNL A   1      38.219  31.070  30.472  1.00  0.00     0.049 A 
ATOM     57  N   UNL A   1      39.069  31.910  33.229  1.00  0.00    -0.248 NA
ATOM     58  C   UNL A   1      37.305  33.439  33.253  1.00  0.00    -0.034 C 
ATOM     59  C   UNL A   1      37.891  30.658  29.107  1.00  0.00    -0.036 A 
ATOM     60  N   UNL A   1      39.303  30.294  30.801  1.00  0.00    -0.354 N 
ATOM     61  C   UNL A   1      39.098  32.625  34.420  1.00  0.00     0.074 A 
ATOM     62  C   UNL A   1      38.027  33.596  34.353  1.00  0.00    -0.034 C 
ATOM     63  H   UNL A   1      36.446  33.930  32.963  1.00  0.00     0.065 H 
ATOM     64  C   UNL A   1      38.746  29.701  28.718  1.00  0.00    -0.036 A 
ATOM     65  H   UNL A   1      37.122  31.043  28.534  1.00  0.00     0.065 H 
ATOM     66  C   UNL A   1      39.704  29.452  29.792  1.00  0.00     0.049 A 
ATOM     67  H   UNL A   1      39.751  30.337  31.677  1.00  0.00     0.167 HD
ATOM     68  C   UNL A   1      39.926  32.471  35.482  1.00  0.00     0.037 A 
ATOM     69  H   UNL A   1      37.849  34.319  35.069  1.00  0.00     0.065 H 
ATOM     70  H   UNL A   1      38.730  29.218  27.807  1.00  0.00     0.065 H 
ATOM     71  C   UNL A   1      40.733  28.585  29.733  1.00  0.00     0.037 A 
ATOM     72  C   UNL A   1      40.970  31.483  35.561  1.00  0.00     0.049 A 
ATOM     73  C   UNL A   1      41.628  28.416  30.931  1.00  0.00     0.074 A 
ATOM     74  C   UNL A   1      41.809  31.197  36.624  1.00  0.00    -0.036 A 
ATOM     75  N   UNL A   1      41.325  30.624  34.531  1.00  0.00    -0.354 N 
ATOM     76  N   UNL A   1      41.596  29.042  32.082  1.00  0.00    -0.248 NA
ATOM     77  C   UNL A   1      42.696  27.412  30.824  1.00  0.00    -0.034 C 
ATOM     78  C   UNL A   1      42.703  30.197  36.221  1.00  0.00    -0.036 A 
ATOM     79  H   UNL A   1      41.782  31.643  37.554  1.00  0.00     0.065 H 
ATOM     80  C   UNL A   1      42.387  29.825  34.924  1.00  0.00     0.049 A 
ATOM     81  H   UNL A   1      40.886  30.586  33.651  1.00  0.00     0.167 HD
ATOM     82  C   UNL A   1      42.620  28.496  32.843  1.00  0.00     0.074 A 
ATOM     83  C   UNL A   1      43.248  27.476  32.029  1.00  0.00    -0.034 C 
ATOM     84  H   UNL A   1      42.951  26.814  30.023  1.00  0.00     0.065 H 
ATOM     85  H   UNL A   1      43.467  29.805  36.792  1.00  0.00     0.065 H 
ATOM     86  C   UNL A   1      43.007  28.815  34.103  1.00  0.00     0.037 A 
ATOM     87  H   UNL A   1      44.024  26.875  32.346  1.00  0.00     0.065 H 
BRANCH  68  88
ATOM     88  C   UNL A   1      39.734  33.400  36.648  1.00  0.00     0.064 A 
ATOM     89  C   UNL A   1      40.420  34.621  36.741  1.00  0.00     0.173 A 
ATOM     90  C   UNL A   1      38.839  33.072  37.679  1.00  0.00     0.173 A 
ATOM     91  F   UNL A   1      41.293  34.978  35.787  1.00  0.00    -0.203 F 
ATOM     92  C   UNL A   1      40.248  35.459  37.839  1.00  0.00     0.198 A 
ATOM     93  C   UNL A   1      38.645  33.929  38.759  1.00  0.00     0.198 A 
ATOM     94  F   UNL A   1      38.150  31.922  37.638  1.00  0.00    -0.203 F 
ATOM     95  F   UNL A   1      40.960  36.591  37.934  1.00  0.00    -0.200 F 
ATOM     96  C   UNL A   1      39.357  35.116  38.845  1.00  0.00     0.200 A 
ATOM     97  F   UNL A   1      37.774  33.602  39.724  1.00  0.00    -0.200 F 
ATOM     98  F   UNL A   1      39.193  35.923  39.902  1.00  0.00    -0.200 F 
ENDBRANCH  68  88
BRANCH  71  99
ATOM     99  C   UNL A   1      40.956  27.796  28.494  1.00  0.00     0.064 A 
ATOM    100  C   UNL A   1      40.303  26.574  28.287  1.00  0.00     0.173 A 
ATOM    101  C   UNL A   1      41.811  28.260  27.482  1.00  0.00     0.173 A 
ATOM    102  F   UNL A   1      39.492  26.080  29.234  1.00  0.00    -0.203 F 
ATOM    103  C   UNL A   1      40.504  25.839  27.120  1.00  0.00     0.198 A 
ATOM    104  C   UNL A   1      41.990  27.538  26.305  1.00  0.00     0.198 A 
ATOM    105  F   UNL A   1      42.455  29.426  27.630  1.00  0.00    -0.203 F 
ATOM    106  F   UNL A   1      39.895  24.656  26.962  1.00  0.00    -0.200 F 
ATOM    107  C   UNL A   1      41.341  26.325  26.127  1.00  0.00     0.200 A 
ATOM    108  F   UNL A   1      42.788  28.019  25.341  1.00  0.00    -0.200 F 
ATOM    109  F   UNL A   1      41.526  25.623  25.001  1.00  0.00    -0.200 F 
ENDBRANCH  71  99
BRANCH  86 110
ATOM    110  C   UNL A   1      44.149  28.038  34.691  1.00  0.00     0.064 A 
ATOM    111  C   UNL A   1      45.473  28.492  34.594  1.00  0.00     0.173 A 
ATOM    112  C   UNL A   1      43.913  26.847  35.393  1.00  0.00     0.173 A 
ATOM    113  F   UNL A   1      45.753  29.618  33.920  1.00  0.00    -0.203 F 
ATOM    114  C   UNL A   1      46.521  27.770  35.160  1.00  0.00     0.198 A 
ATOM    115  C   UNL A   1      44.960  26.142  35.982  1.00  0.00     0.198 A 
ATOM    116  F   UNL A   1      42.665  26.372  35.519  1.00  0.00    -0.203 F 
ATOM    117  F   UNL A   1      47.782  28.199  35.016  1.00  0.00    -0.200 F 
ATOM    118  C   UNL A   1      46.263  26.600  35.859  1.00  0.00     0.200 A 
ATOM    119  F   UNL A   1      44.707  25.019  36.668  1.00  0.00    -0.200 F 
ATOM    120  F   UNL A   1      47.271  25.911  36.409  1.00  0.00    -0.200 F 
ENDBRANCH  86 110
ENDBRANCH  51  54
ENDBRANCH  41  44
ENDBRANCH  37  40
ENDBRANCH  34  37
ENDBRANCH  31  34
ENDBRANCH   1  31
TORSDOF 16
ENDMDL
