MODEL 1
REMARK VINA RESULT:     -11.5      0.000      0.000
REMARK SMILES CC(C)Cc1ccc([C@H](CF)C(=O)NCCCCCCNC(=O)c2ccc(-c3c4nc(c(-c5c(F)c(F)c(F)c(F)c5F)c5ccc([nH]5)c(-c5c(F)c(F)c(F)c(F)c5F)c5nc(c(-c6c(F)c(F)c(F)c(F)c6F)c6ccc3[nH]6)C=C5)C=C4)cc2)cc1
REMARK SMILES IDX 16 1 15 4 14 7 12 8 13 9 9 11 8 13 5 14 6 15 88 16 7 17
REMARK SMILES IDX 87 19 4 23 2 26 1 28 3 32 10 36 11 37 17 40 18 43 19 46
REMARK SMILES IDX 20 49 21 52 22 53 23 55 24 56 25 57 86 58 26 59 85 61 27 63
REMARK SMILES IDX 28 66 29 67 79 68 30 69 84 70 78 71 80 72 31 73 83 74 77 76
REMARK SMILES IDX 76 78 32 80 64 83 44 84 63 85 45 86 48 87 62 88 81 89 46 90
REMARK SMILES IDX 47 92 61 94 82 95 49 98 33 100 34 101 42 102 35 103 36 104
REMARK SMILES IDX 40 105 43 106 37 107 38 108 41 109 39 110 65 111 66 112
REMARK SMILES IDX 74 113 67 114 68 115 72 116 75 117 69 118 70 119 73 120
REMARK SMILES IDX 71 121 50 122 51 123 59 124 52 125 53 126 57 127 60 128
REMARK SMILES IDX 54 129 55 130 58 131 56 132
REMARK H PARENT 16 2 16 3 15 5 15 6 14 10 9 12 6 18 88 20 7 21 87 22 4 24 4 25
REMARK H PARENT 2 27 1 29 1 30 1 31 3 33 3 34 3 35 10 38 10 39 17 41 17 42
REMARK H PARENT 18 44 18 45 19 47 19 48 20 50 20 51 21 54 25 60 86 62 26 64
REMARK H PARENT 85 65 84 75 78 77 80 79 83 81 77 82 45 91 48 93 81 96 46 97
REMARK H PARENT 82 99
REMARK Flexibility Score: inf
ROOT
ATOM      1  C   UNL A   1      32.106  28.887  27.261  1.00  0.00    -0.036 C 
ATOM      2  H   UNL A   1      32.591  29.011  28.206  1.00  0.00     0.028 H 
ATOM      3  H   UNL A   1      31.038  28.907  27.331  1.00  0.00     0.028 H 
ENDROOT
BRANCH   1   4
ATOM      4  C   UNL A   1      32.476  27.512  26.711  1.00  0.00     0.017 C 
ATOM      5  H   UNL A   1      32.662  27.597  25.661  1.00  0.00     0.049 H 
ATOM      6  H   UNL A   1      33.348  27.169  27.228  1.00  0.00     0.049 H 
BRANCH   4   7
ATOM      7  N   UNL A   1      31.414  26.547  26.925  1.00  0.00    -0.355 N 
ATOM      8  C   UNL A   1      30.766  25.734  26.042  1.00  0.00     0.230 C 
ATOM      9  O   UNL A   1      29.929  24.952  26.502  1.00  0.00    -0.274 OA
ATOM     10  H   UNL A   1      31.113  26.464  27.858  1.00  0.00     0.163 HD
BRANCH   8  11
ATOM     11  C   UNL A   1      31.034  25.789  24.535  1.00  0.00     0.091 C 
ATOM     12  H   UNL A   1      32.065  25.960  24.309  1.00  0.00     0.048 H 
BRANCH  11  13
ATOM     13  C   UNL A   1      30.404  27.019  23.892  1.00  0.00    -0.033 A 
ATOM     14  C   UNL A   1      29.120  29.107  22.484  1.00  0.00    -0.048 A 
ATOM     15  C   UNL A   1      28.367  28.105  23.103  1.00  0.00    -0.059 A 
ATOM     16  C   UNL A   1      30.511  29.100  22.637  1.00  0.00    -0.059 A 
ATOM     17  C   UNL A   1      29.002  27.074  23.795  1.00  0.00    -0.058 A 
ATOM     18  H   UNL A   1      27.337  28.129  23.046  1.00  0.00     0.063 H 
ATOM     19  C   UNL A   1      31.144  28.078  23.351  1.00  0.00    -0.058 A 
ATOM     20  H   UNL A   1      31.075  29.856  22.218  1.00  0.00     0.063 H 
ATOM     21  H   UNL A   1      28.433  26.340  24.245  1.00  0.00     0.063 H 
ATOM     22  H   UNL A   1      32.169  28.104  23.482  1.00  0.00     0.063 H 
BRANCH  14  23
ATOM     23  C   UNL A   1      28.444  30.149  21.625  1.00  0.00    -0.026 C 
ATOM     24  H   UNL A   1      28.926  30.167  20.670  1.00  0.00     0.032 H 
ATOM     25  H   UNL A   1      27.411  29.878  21.547  1.00  0.00     0.032 H 
BRANCH  23  26
ATOM     26  C   UNL A   1      28.505  31.566  22.233  1.00  0.00    -0.043 C 
ATOM     27  H   UNL A   1      29.532  31.767  22.460  1.00  0.00     0.030 H 
BRANCH  26  28
ATOM     28  C   UNL A   1      28.028  32.645  21.255  1.00  0.00    -0.062 C 
ATOM     29  H   UNL A   1      27.093  33.043  21.591  1.00  0.00     0.023 H 
ATOM     30  H   UNL A   1      27.904  32.215  20.283  1.00  0.00     0.023 H 
ATOM     31  H   UNL A   1      28.754  33.430  21.208  1.00  0.00     0.023 H 
ENDBRANCH  26  28
BRANCH  26  32
ATOM     32  C   UNL A   1      27.660  31.622  23.507  1.00  0.00    -0.062 C 
ATOM     33  H   UNL A   1      27.305  32.621  23.655  1.00  0.00     0.023 H 
ATOM     34  H   UNL A   1      28.257  31.327  24.345  1.00  0.00     0.023 H 
ATOM     35  H   UNL A   1      26.826  30.958  23.412  1.00  0.00     0.023 H 
ENDBRANCH  26  32
ENDBRANCH  23  26
ENDBRANCH  14  23
ENDBRANCH  11  13
BRANCH  11  36
ATOM     36  C   UNL A   1      30.737  24.416  23.942  1.00  0.00     0.105 C 
ATOM     37  F   UNL A   1      30.948  24.442  22.596  1.00  0.00    -0.250 F 
ATOM     38  H   UNL A   1      29.716  24.156  24.137  1.00  0.00     0.064 H 
ATOM     39  H   UNL A   1      31.382  23.688  24.388  1.00  0.00     0.064 H 
ENDBRANCH  11  36
ENDBRANCH   8  11
ENDBRANCH   4   7
ENDBRANCH   1   4
BRANCH   1  40
ATOM     40  C   UNL A   1      32.502  30.062  26.363  1.00  0.00    -0.052 C 
ATOM     41  H   UNL A   1      33.036  29.669  25.523  1.00  0.00     0.027 H 
ATOM     42  H   UNL A   1      33.087  30.717  26.975  1.00  0.00     0.027 H 
BRANCH  40  43
ATOM     43  C   UNL A   1      31.340  30.907  25.831  1.00  0.00    -0.052 C 
ATOM     44  H   UNL A   1      30.437  30.348  25.970  1.00  0.00     0.027 H 
ATOM     45  H   UNL A   1      31.571  31.109  24.806  1.00  0.00     0.027 H 
BRANCH  43  46
ATOM     46  C   UNL A   1      31.155  32.275  26.495  1.00  0.00    -0.036 C 
ATOM     47  H   UNL A   1      30.344  32.197  27.190  1.00  0.00     0.028 H 
ATOM     48  H   UNL A   1      30.974  32.966  25.699  1.00  0.00     0.028 H 
BRANCH  46  49
ATOM     49  C   UNL A   1      32.371  32.807  27.248  1.00  0.00     0.018 C 
ATOM     50  H   UNL A   1      33.232  32.709  26.621  1.00  0.00     0.049 H 
ATOM     51  H   UNL A   1      32.470  32.235  28.147  1.00  0.00     0.049 H 
BRANCH  49  52
ATOM     52  N   UNL A   1      32.227  34.203  27.628  1.00  0.00    -0.352 N 
ATOM     53  C   UNL A   1      32.910  34.928  28.567  1.00  0.00     0.251 C 
ATOM     54  H   UNL A   1      31.536  34.700  27.135  1.00  0.00     0.163 HD
ATOM     55  O   UNL A   1      32.540  36.069  28.848  1.00  0.00    -0.269 OA
BRANCH  53  56
ATOM     56  C   UNL A   1      34.075  34.349  29.269  1.00  0.00     0.039 A 
ATOM     57  C   UNL A   1      33.861  33.665  30.469  1.00  0.00    -0.049 A 
ATOM     58  C   UNL A   1      35.375  34.500  28.773  1.00  0.00    -0.049 A 
ATOM     59  C   UNL A   1      34.939  33.088  31.144  1.00  0.00    -0.053 A 
ATOM     60  H   UNL A   1      32.908  33.587  30.857  1.00  0.00     0.063 H 
ATOM     61  C   UNL A   1      36.442  33.872  29.415  1.00  0.00    -0.053 A 
ATOM     62  H   UNL A   1      35.544  35.075  27.934  1.00  0.00     0.063 H 
ATOM     63  C   UNL A   1      36.235  33.163  30.608  1.00  0.00    -0.014 A 
ATOM     64  H   UNL A   1      34.783  32.603  32.042  1.00  0.00     0.063 H 
ATOM     65  H   UNL A   1      37.389  33.928  29.009  1.00  0.00     0.063 H 
BRANCH  63  66
ATOM     66  C   UNL A   1      37.378  32.500  31.285  1.00  0.00     0.031 A 
ATOM     67  C   UNL A   1      38.096  31.357  30.624  1.00  0.00     0.074 A 
ATOM     68  C   UNL A   1      37.734  32.893  32.523  1.00  0.00     0.049 A 
ATOM     69  N   UNL A   1      39.090  30.633  31.075  1.00  0.00    -0.248 NA
ATOM     70  C   UNL A   1      37.618  30.958  29.293  1.00  0.00    -0.034 C 
ATOM     71  C   UNL A   1      37.080  33.952  33.292  1.00  0.00    -0.036 A 
ATOM     72  N   UNL A   1      38.729  32.441  33.354  1.00  0.00    -0.354 N 
ATOM     73  C   UNL A   1      39.344  29.686  30.091  1.00  0.00     0.074 A 
ATOM     74  C   UNL A   1      38.371  29.897  29.040  1.00  0.00    -0.034 C 
ATOM     75  H   UNL A   1      36.886  31.390  28.707  1.00  0.00     0.065 H 
ATOM     76  C   UNL A   1      37.702  34.082  34.475  1.00  0.00    -0.036 A 
ATOM     77  H   UNL A   1      36.271  34.509  32.977  1.00  0.00     0.065 H 
ATOM     78  C   UNL A   1      38.778  33.100  34.558  1.00  0.00     0.049 A 
ATOM     79  H   UNL A   1      39.346  31.714  33.111  1.00  0.00     0.167 HD
ATOM     80  C   UNL A   1      40.314  28.740  30.058  1.00  0.00     0.037 A 
ATOM     81  H   UNL A   1      38.276  29.300  28.205  1.00  0.00     0.065 H 
ATOM     82  H   UNL A   1      37.457  34.766  35.208  1.00  0.00     0.065 H 
ATOM     83  C   UNL A   1      39.602  32.931  35.610  1.00  0.00     0.037 A 
ATOM     84  C   UNL A   1      41.300  28.551  31.090  1.00  0.00     0.049 A 
ATOM     85  C   UNL A   1      40.685  31.891  35.539  1.00  0.00     0.074 A 
ATOM     86  C   UNL A   1      42.367  27.670  31.115  1.00  0.00    -0.036 A 
ATOM     87  N   UNL A   1      41.337  29.257  32.284  1.00  0.00    -0.354 N 
ATOM     88  N   UNL A   1      40.963  31.052  34.570  1.00  0.00    -0.248 NA
ATOM     89  C   UNL A   1      41.575  31.782  36.703  1.00  0.00    -0.034 C 
ATOM     90  C   UNL A   1      43.027  27.814  32.341  1.00  0.00    -0.036 A 
ATOM     91  H   UNL A   1      42.631  27.019  30.358  1.00  0.00     0.065 H 
ATOM     92  C   UNL A   1      42.396  28.816  33.062  1.00  0.00     0.049 A 
ATOM     93  H   UNL A   1      40.704  29.965  32.542  1.00  0.00     0.167 HD
ATOM     94  C   UNL A   1      42.071  30.332  34.997  1.00  0.00     0.074 A 
ATOM     95  C   UNL A   1      42.424  30.844  36.305  1.00  0.00    -0.034 C 
ATOM     96  H   UNL A   1      41.547  32.299  37.595  1.00  0.00     0.065 H 
ATOM     97  H   UNL A   1      43.843  27.267  32.654  1.00  0.00     0.065 H 
ATOM     98  C   UNL A   1      42.734  29.334  34.362  1.00  0.00     0.037 A 
ATOM     99  H   UNL A   1      43.233  30.521  36.857  1.00  0.00     0.065 H 
BRANCH  80 100
ATOM    100  C   UNL A   1      40.358  27.836  28.861  1.00  0.00     0.064 A 
ATOM    101  C   UNL A   1      39.633  26.635  28.819  1.00  0.00     0.173 A 
ATOM    102  C   UNL A   1      41.110  28.187  27.730  1.00  0.00     0.173 A 
ATOM    103  F   UNL A   1      38.907  26.248  29.879  1.00  0.00    -0.203 F 
ATOM    104  C   UNL A   1      39.683  25.806  27.703  1.00  0.00     0.198 A 
ATOM    105  C   UNL A   1      41.135  27.369  26.603  1.00  0.00     0.198 A 
ATOM    106  F   UNL A   1      41.817  29.327  27.715  1.00  0.00    -0.203 F 
ATOM    107  F   UNL A   1      39.022  24.640  27.705  1.00  0.00    -0.200 F 
ATOM    108  C   UNL A   1      40.428  26.176  26.593  1.00  0.00     0.200 A 
ATOM    109  F   UNL A   1      41.847  27.734  25.528  1.00  0.00    -0.200 F 
ATOM    110  F   UNL A   1      40.473  25.378  25.517  1.00  0.00    -0.200 F 
ENDBRANCH  80 100
BRANCH  83 111
ATOM    111  C   UNL A   1      39.449  33.794  36.809  1.00  0.00     0.064 A 
ATOM    112  C   UNL A   1      40.059  35.054  36.868  1.00  0.00     0.173 A 
ATOM    113  C   UNL A   1      38.687  33.383  37.911  1.00  0.00     0.173 A 
ATOM    114  F   UNL A   1      40.815  35.480  35.845  1.00  0.00    -0.203 F 
ATOM    115  C   UNL A   1      39.923  35.867  37.990  1.00  0.00     0.198 A 
ATOM    116  C   UNL A   1      38.532  34.208  39.024  1.00  0.00     0.198 A 
ATOM    117  F   UNL A   1      38.080  32.188  37.901  1.00  0.00    -0.203 F 
ATOM    118  F   UNL A   1      40.547  37.052  38.036  1.00  0.00    -0.200 F 
ATOM    119  C   UNL A   1      39.155  35.445  39.065  1.00  0.00     0.200 A 
ATOM    120  F   UNL A   1      37.778  33.803  40.055  1.00  0.00    -0.200 F 
ATOM    121  F   UNL A   1      39.019  36.231  40.142  1.00  0.00    -0.200 F 
ENDBRANCH  83 111
BRANCH  98 122
ATOM    122  C   UNL A   1      43.921  28.746  35.067  1.00  0.00     0.064 A 
ATOM    123  C   UNL A   1      43.791  27.654  35.937  1.00  0.00     0.173 A 
ATOM    124  C   UNL A   1      45.206  29.266  34.849  1.00  0.00     0.173 A 
ATOM    125  F   UNL A   1      42.581  27.133  36.191  1.00  0.00    -0.203 F 
ATOM    126  C   UNL A   1      44.902  27.119  36.583  1.00  0.00     0.198 A 
ATOM    127  C   UNL A   1      46.318  28.711  35.476  1.00  0.00     0.198 A 
ATOM    128  F   UNL A   1      45.384  30.307  34.022  1.00  0.00    -0.203 F 
ATOM    129  F   UNL A   1      44.749  26.105  37.447  1.00  0.00    -0.200 F 
ATOM    130  C   UNL A   1      46.165  27.644  36.348  1.00  0.00     0.200 A 
ATOM    131  F   UNL A   1      47.538  29.212  35.239  1.00  0.00    -0.200 F 
ATOM    132  F   UNL A   1      47.233  27.126  36.969  1.00  0.00    -0.200 F 
ENDBRANCH  98 122
ENDBRANCH  63  66
ENDBRANCH  53  56
ENDBRANCH  49  52
ENDBRANCH  46  49
ENDBRANCH  43  46
ENDBRANCH  40  43
ENDBRANCH   1  40
TORSDOF 19
ENDMDL
MODEL 2
REMARK VINA RESULT:     -11.3      0.879      7.508
REMARK SMILES CC(C)Cc1ccc([C@H](CF)C(=O)NCCCCCCNC(=O)c2ccc(-c3c4nc(c(-c5c(F)c(F)c(F)c(F)c5F)c5ccc([nH]5)c(-c5c(F)c(F)c(F)c(F)c5F)c5nc(c(-c6c(F)c(F)c(F)c(F)c6F)c6ccc3[nH]6)C=C5)C=C4)cc2)cc1
REMARK SMILES IDX 16 1 15 4 14 7 12 8 13 9 9 11 8 13 5 14 6 15 88 16 7 17
REMARK SMILES IDX 87 19 4 23 2 26 1 28 3 32 10 36 11 37 17 40 18 43 19 46
REMARK SMILES IDX 20 49 21 52 22 53 23 55 24 56 25 57 86 58 26 59 85 61 27 63
REMARK SMILES IDX 28 66 29 67 79 68 30 69 84 70 78 71 80 72 31 73 83 74 77 76
REMARK SMILES IDX 76 78 32 80 64 83 44 84 63 85 45 86 48 87 62 88 81 89 46 90
REMARK SMILES IDX 47 92 61 94 82 95 49 98 33 100 34 101 42 102 35 103 36 104
REMARK SMILES IDX 40 105 43 106 37 107 38 108 41 109 39 110 65 111 66 112
REMARK SMILES IDX 74 113 67 114 68 115 72 116 75 117 69 118 70 119 73 120
REMARK SMILES IDX 71 121 50 122 51 123 59 124 52 125 53 126 57 127 60 128
REMARK SMILES IDX 54 129 55 130 58 131 56 132
REMARK H PARENT 16 2 16 3 15 5 15 6 14 10 9 12 6 18 88 20 7 21 87 22 4 24 4 25
REMARK H PARENT 2 27 1 29 1 30 1 31 3 33 3 34 3 35 10 38 10 39 17 41 17 42
REMARK H PARENT 18 44 18 45 19 47 19 48 20 50 20 51 21 54 25 60 86 62 26 64
REMARK H PARENT 85 65 84 75 78 77 80 79 83 81 77 82 45 91 48 93 81 96 46 97
REMARK H PARENT 82 99
REMARK Flexibility Score: inf
ROOT
ATOM      1  C   UNL A   1      31.858  29.043  27.036  1.00  0.00    -0.036 C 
ATOM      2  H   UNL A   1      32.323  29.516  27.875  1.00  0.00     0.028 H 
ATOM      3  H   UNL A   1      30.798  28.945  27.142  1.00  0.00     0.028 H 
ENDROOT
BRANCH   1   4
ATOM      4  C   UNL A   1      32.413  27.626  26.920  1.00  0.00     0.017 C 
ATOM      5  H   UNL A   1      32.910  27.524  25.978  1.00  0.00     0.049 H 
ATOM      6  H   UNL A   1      33.093  27.466  27.731  1.00  0.00     0.049 H 
BRANCH   4   7
ATOM      7  N   UNL A   1      31.361  26.631  27.008  1.00  0.00    -0.355 N 
ATOM      8  C   UNL A   1      30.850  25.797  26.057  1.00  0.00     0.230 C 
ATOM      9  O   UNL A   1      29.985  24.991  26.415  1.00  0.00    -0.274 OA
ATOM     10  H   UNL A   1      30.949  26.542  27.897  1.00  0.00     0.163 HD
BRANCH   8  11
ATOM     11  C   UNL A   1      31.300  25.855  24.594  1.00  0.00     0.091 C 
ATOM     12  H   UNL A   1      32.281  26.267  24.484  1.00  0.00     0.048 H 
BRANCH  11  13
ATOM     13  C   UNL A   1      30.486  26.861  23.790  1.00  0.00    -0.033 A 
ATOM     14  C   UNL A   1      29.100  28.946  22.479  1.00  0.00    -0.048 A 
ATOM     15  C   UNL A   1      30.494  28.879  22.420  1.00  0.00    -0.059 A 
ATOM     16  C   UNL A   1      28.401  27.925  23.131  1.00  0.00    -0.059 A 
ATOM     17  C   UNL A   1      31.178  27.851  23.070  1.00  0.00    -0.058 A 
ATOM     18  H   UNL A   1      31.021  29.594  21.895  1.00  0.00     0.063 H 
ATOM     19  C   UNL A   1      29.086  26.882  23.763  1.00  0.00    -0.058 A 
ATOM     20  H   UNL A   1      27.369  27.942  23.148  1.00  0.00     0.063 H 
ATOM     21  H   UNL A   1      32.208  27.816  23.020  1.00  0.00     0.063 H 
ATOM     22  H   UNL A   1      28.554  26.119  24.213  1.00  0.00     0.063 H 
BRANCH  14  23
ATOM     23  C   UNL A   1      28.368  30.128  21.890  1.00  0.00    -0.026 C 
ATOM     24  H   UNL A   1      28.711  30.276  20.887  1.00  0.00     0.032 H 
ATOM     25  H   UNL A   1      27.321  29.907  21.925  1.00  0.00     0.032 H 
BRANCH  23  26
ATOM     26  C   UNL A   1      28.591  31.433  22.683  1.00  0.00    -0.043 C 
ATOM     27  H   UNL A   1      29.606  31.426  23.022  1.00  0.00     0.030 H 
BRANCH  26  28
ATOM     28  C   UNL A   1      28.401  32.684  21.819  1.00  0.00    -0.062 C 
ATOM     29  H   UNL A   1      29.312  33.245  21.798  1.00  0.00     0.023 H 
ATOM     30  H   UNL A   1      27.620  33.288  22.231  1.00  0.00     0.023 H 
ATOM     31  H   UNL A   1      28.139  32.393  20.822  1.00  0.00     0.023 H 
ENDBRANCH  26  28
BRANCH  26  32
ATOM     32  C   UNL A   1      27.634  31.487  23.876  1.00  0.00    -0.062 C 
ATOM     33  H   UNL A   1      28.194  31.635  24.776  1.00  0.00     0.023 H 
ATOM     34  H   UNL A   1      27.092  30.567  23.940  1.00  0.00     0.023 H 
ATOM     35  H   UNL A   1      26.947  32.298  23.745  1.00  0.00     0.023 H 
ENDBRANCH  26  32
ENDBRANCH  23  26
ENDBRANCH  14  23
ENDBRANCH  11  13
BRANCH  11  36
ATOM     36  C   UNL A   1      31.429  24.427  24.072  1.00  0.00     0.105 C 
ATOM     37  F   UNL A   1      30.258  24.046  23.487  1.00  0.00    -0.250 F 
ATOM     38  H   UNL A   1      31.650  23.768  24.886  1.00  0.00     0.064 H 
ATOM     39  H   UNL A   1      32.217  24.381  23.350  1.00  0.00     0.064 H 
ENDBRANCH  11  36
ENDBRANCH   8  11
ENDBRANCH   4   7
ENDBRANCH   1   4
BRANCH   1  40
ATOM     40  C   UNL A   1      32.089  29.922  25.803  1.00  0.00    -0.052 C 
ATOM     41  H   UNL A   1      32.129  29.284  24.946  1.00  0.00     0.027 H 
ATOM     42  H   UNL A   1      33.001  30.453  25.987  1.00  0.00     0.027 H 
BRANCH  40  43
ATOM     43  C   UNL A   1      31.022  30.991  25.547  1.00  0.00    -0.052 C 
ATOM     44  H   UNL A   1      30.062  30.524  25.630  1.00  0.00     0.027 H 
ATOM     45  H   UNL A   1      31.230  31.384  24.574  1.00  0.00     0.027 H 
BRANCH  43  46
ATOM     46  C   UNL A   1      31.044  32.193  26.496  1.00  0.00    -0.036 C 
ATOM     47  H   UNL A   1      30.438  31.955  27.345  1.00  0.00     0.028 H 
ATOM     48  H   UNL A   1      30.681  33.024  25.928  1.00  0.00     0.028 H 
BRANCH  46  49
ATOM     49  C   UNL A   1      32.425  32.601  27.003  1.00  0.00     0.018 C 
ATOM     50  H   UNL A   1      33.129  32.493  26.204  1.00  0.00     0.049 H 
ATOM     51  H   UNL A   1      32.666  31.967  27.830  1.00  0.00     0.049 H 
BRANCH  49  52
ATOM     52  N   UNL A   1      32.464  33.975  27.475  1.00  0.00    -0.352 N 
ATOM     53  C   UNL A   1      33.276  34.555  28.413  1.00  0.00     0.251 C 
ATOM     54  H   UNL A   1      31.808  34.579  27.058  1.00  0.00     0.163 HD
ATOM     55  O   UNL A   1      33.056  35.708  28.785  1.00  0.00    -0.269 OA
BRANCH  53  56
ATOM     56  C   UNL A   1      34.404  33.804  29.004  1.00  0.00     0.039 A 
ATOM     57  C   UNL A   1      35.708  34.193  28.684  1.00  0.00    -0.049 A 
ATOM     58  C   UNL A   1      34.190  32.703  29.841  1.00  0.00    -0.049 A 
ATOM     59  C   UNL A   1      36.794  33.517  29.243  1.00  0.00    -0.053 A 
ATOM     60  H   UNL A   1      35.868  34.979  28.035  1.00  0.00     0.063 H 
ATOM     61  C   UNL A   1      35.273  32.068  30.447  1.00  0.00    -0.053 A 
ATOM     62  H   UNL A   1      33.230  32.363  30.010  1.00  0.00     0.063 H 
ATOM     63  C   UNL A   1      36.586  32.466  30.152  1.00  0.00    -0.014 A 
ATOM     64  H   UNL A   1      37.756  33.791  28.989  1.00  0.00     0.063 H 
ATOM     65  H   UNL A   1      35.108  31.302  31.117  1.00  0.00     0.063 H 
BRANCH  63  66
ATOM     66  C   UNL A   1      37.732  31.782  30.800  1.00  0.00     0.031 A 
ATOM     67  C   UNL A   1      38.154  32.155  32.193  1.00  0.00     0.074 A 
ATOM     68  C   UNL A   1      38.430  30.860  30.110  1.00  0.00     0.049 A 
ATOM     69  N   UNL A   1      39.150  31.695  32.908  1.00  0.00    -0.248 NA
ATOM     70  C   UNL A   1      37.369  33.203  32.862  1.00  0.00    -0.034 C 
ATOM     71  C   UNL A   1      38.155  30.450  28.732  1.00  0.00    -0.036 A 
ATOM     72  N   UNL A   1      39.519  30.106  30.471  1.00  0.00    -0.354 N 
ATOM     73  C   UNL A   1      39.120  32.406  34.101  1.00  0.00     0.074 A 
ATOM     74  C   UNL A   1      38.037  33.361  33.995  1.00  0.00    -0.034 C 
ATOM     75  H   UNL A   1      36.520  33.690  32.534  1.00  0.00     0.065 H 
ATOM     76  C   UNL A   1      39.039  29.507  28.371  1.00  0.00    -0.036 A 
ATOM     77  H   UNL A   1      37.403  30.827  28.135  1.00  0.00     0.065 H 
ATOM     78  C   UNL A   1      39.958  29.264  29.479  1.00  0.00     0.049 A 
ATOM     79  H   UNL A   1      39.945  30.165  31.357  1.00  0.00     0.167 HD
ATOM     80  C   UNL A   1      39.911  32.261  35.191  1.00  0.00     0.037 A 
ATOM     81  H   UNL A   1      37.815  34.072  34.709  1.00  0.00     0.065 H 
ATOM     82  H   UNL A   1      39.065  29.030  27.455  1.00  0.00     0.065 H 
ATOM     83  C   UNL A   1      40.985  28.394  29.465  1.00  0.00     0.037 A 
ATOM     84  C   UNL A   1      40.968  31.291  35.306  1.00  0.00     0.049 A 
ATOM     85  C   UNL A   1      41.833  28.235  30.696  1.00  0.00     0.074 A 
ATOM     86  C   UNL A   1      41.775  31.016  36.396  1.00  0.00    -0.036 A 
ATOM     87  N   UNL A   1      41.366  30.434  34.289  1.00  0.00    -0.354 N 
ATOM     88  N   UNL A   1      41.746  28.860  31.846  1.00  0.00    -0.248 NA
ATOM     89  C   UNL A   1      42.913  27.241  30.633  1.00  0.00    -0.034 C 
ATOM     90  C   UNL A   1      42.688  30.022  36.027  1.00  0.00    -0.036 A 
ATOM     91  H   UNL A   1      41.714  31.468  37.322  1.00  0.00     0.065 H 
ATOM     92  C   UNL A   1      42.421  29.646  34.719  1.00  0.00     0.049 A 
ATOM     93  H   UNL A   1      40.959  30.393  33.394  1.00  0.00     0.167 HD
ATOM     94  C   UNL A   1      42.744  28.322  32.648  1.00  0.00     0.074 A 
ATOM     95  C   UNL A   1      43.412  27.308  31.859  1.00  0.00    -0.034 C 
ATOM     96  H   UNL A   1      43.206  26.648  29.841  1.00  0.00     0.065 H 
ATOM     97  H   UNL A   1      43.434  29.635  36.626  1.00  0.00     0.065 H 
ATOM     98  C   UNL A   1      43.077  28.642  33.923  1.00  0.00     0.037 A 
ATOM     99  H   UNL A   1      44.179  26.712  32.207  1.00  0.00     0.065 H 
BRANCH  80 100
ATOM    100  C   UNL A   1      39.659  33.176  36.354  1.00  0.00     0.064 A 
ATOM    101  C   UNL A   1      40.304  34.417  36.467  1.00  0.00     0.173 A 
ATOM    102  C   UNL A   1      38.739  32.821  37.354  1.00  0.00     0.173 A 
ATOM    103  F   UNL A   1      41.200  34.799  35.544  1.00  0.00    -0.203 F 
ATOM    104  C   UNL A   1      40.061  35.255  37.552  1.00  0.00     0.198 A 
ATOM    105  C   UNL A   1      38.478  33.674  38.422  1.00  0.00     0.198 A 
ATOM    106  F   UNL A   1      38.092  31.648  37.291  1.00  0.00    -0.203 F 
ATOM    107  F   UNL A   1      40.725  36.414  37.664  1.00  0.00    -0.200 F 
ATOM    108  C   UNL A   1      39.144  34.887  38.525  1.00  0.00     0.200 A 
ATOM    109  F   UNL A   1      37.583  33.322  39.356  1.00  0.00    -0.200 F 
ATOM    110  F   UNL A   1      38.908  35.696  39.567  1.00  0.00    -0.200 F 
ENDBRANCH  80 100
BRANCH  83 111
ATOM    111  C   UNL A   1      41.245  27.583  28.249  1.00  0.00     0.064 A 
ATOM    112  C   UNL A   1      40.640  26.330  28.079  1.00  0.00     0.173 A 
ATOM    113  C   UNL A   1      42.092  28.044  27.232  1.00  0.00     0.173 A 
ATOM    114  F   UNL A   1      39.839  25.839  29.037  1.00  0.00    -0.203 F 
ATOM    115  C   UNL A   1      40.883  25.562  26.943  1.00  0.00     0.198 A 
ATOM    116  C   UNL A   1      42.315  27.286  26.084  1.00  0.00     0.198 A 
ATOM    117  F   UNL A   1      42.690  29.238  27.345  1.00  0.00    -0.203 F 
ATOM    118  F   UNL A   1      40.321  24.352  26.823  1.00  0.00    -0.200 F 
ATOM    119  C   UNL A   1      41.715  26.043  25.944  1.00  0.00     0.200 A 
ATOM    120  F   UNL A   1      43.108  27.759  25.114  1.00  0.00    -0.200 F 
ATOM    121  F   UNL A   1      41.943  25.307  24.848  1.00  0.00    -0.200 F 
ENDBRANCH  83 111
BRANCH  98 122
ATOM    122  C   UNL A   1      44.202  27.871  34.548  1.00  0.00     0.064 A 
ATOM    123  C   UNL A   1      43.978  26.663  35.225  1.00  0.00     0.173 A 
ATOM    124  C   UNL A   1      45.523  28.333  34.445  1.00  0.00     0.173 A 
ATOM    125  F   UNL A   1      42.730  26.190  35.364  1.00  0.00    -0.203 F 
ATOM    126  C   UNL A   1      45.032  25.959  35.800  1.00  0.00     0.198 A 
ATOM    127  C   UNL A   1      46.578  27.612  34.998  1.00  0.00     0.198 A 
ATOM    128  F   UNL A   1      45.791  29.480  33.803  1.00  0.00    -0.203 F 
ATOM    129  F   UNL A   1      44.789  24.832  36.483  1.00  0.00    -0.200 F 
ATOM    130  C   UNL A   1      46.332  26.431  35.680  1.00  0.00     0.200 A 
ATOM    131  F   UNL A   1      47.834  28.063  34.872  1.00  0.00    -0.200 F 
ATOM    132  F   UNL A   1      47.345  25.750  36.232  1.00  0.00    -0.200 F 
ENDBRANCH  98 122
ENDBRANCH  63  66
ENDBRANCH  53  56
ENDBRANCH  49  52
ENDBRANCH  46  49
ENDBRANCH  43  46
ENDBRANCH  40  43
ENDBRANCH   1  40
TORSDOF 19
ENDMDL
MODEL 3
REMARK VINA RESULT:     -10.8      6.064     11.558
REMARK SMILES CC(C)Cc1ccc([C@H](CF)C(=O)NCCCCCCNC(=O)c2ccc(-c3c4nc(c(-c5c(F)c(F)c(F)c(F)c5F)c5ccc([nH]5)c(-c5c(F)c(F)c(F)c(F)c5F)c5nc(c(-c6c(F)c(F)c(F)c(F)c6F)c6ccc3[nH]6)C=C5)C=C4)cc2)cc1
REMARK SMILES IDX 16 1 15 4 14 7 12 8 13 9 9 11 8 13 5 14 6 15 88 16 7 17
REMARK SMILES IDX 87 19 4 23 2 26 1 28 3 32 10 36 11 37 17 40 18 43 19 46
REMARK SMILES IDX 20 49 21 52 22 53 23 55 24 56 25 57 86 58 26 59 85 61 27 63
REMARK SMILES IDX 28 66 29 67 79 68 30 69 84 70 78 71 80 72 31 73 83 74 77 76
REMARK SMILES IDX 76 78 32 80 64 83 44 84 63 85 45 86 48 87 62 88 81 89 46 90
REMARK SMILES IDX 47 92 61 94 82 95 49 98 33 100 34 101 42 102 35 103 36 104
REMARK SMILES IDX 40 105 43 106 37 107 38 108 41 109 39 110 65 111 66 112
REMARK SMILES IDX 74 113 67 114 68 115 72 116 75 117 69 118 70 119 73 120
REMARK SMILES IDX 71 121 50 122 51 123 59 124 52 125 53 126 57 127 60 128
REMARK SMILES IDX 54 129 55 130 58 131 56 132
REMARK H PARENT 16 2 16 3 15 5 15 6 14 10 9 12 6 18 88 20 7 21 87 22 4 24 4 25
REMARK H PARENT 2 27 1 29 1 30 1 31 3 33 3 34 3 35 10 38 10 39 17 41 17 42
REMARK H PARENT 18 44 18 45 19 47 19 48 20 50 20 51 21 54 25 60 86 62 26 64
REMARK H PARENT 85 65 84 75 78 77 80 79 83 81 77 82 45 91 48 93 81 96 46 97
REMARK H PARENT 82 99
REMARK Flexibility Score: inf
ROOT
ATOM      1  C   UNL A   1      36.022  23.087  25.767  1.00  0.00    -0.036 C 
ATOM      2  H   UNL A   1      36.134  23.534  26.732  1.00  0.00     0.028 H 
ATOM      3  H   UNL A   1      36.770  23.400  25.069  1.00  0.00     0.028 H 
ENDROOT
BRANCH   1   4
ATOM      4  C   UNL A   1      34.680  23.530  25.190  1.00  0.00     0.017 C 
ATOM      5  H   UNL A   1      34.812  24.462  24.680  1.00  0.00     0.049 H 
ATOM      6  H   UNL A   1      34.339  22.771  24.517  1.00  0.00     0.049 H 
BRANCH   4   7
ATOM      7  N   UNL A   1      33.681  23.698  26.228  1.00  0.00    -0.355 N 
ATOM      8  C   UNL A   1      32.381  23.288  26.280  1.00  0.00     0.230 C 
ATOM      9  O   UNL A   1      31.758  23.512  27.322  1.00  0.00    -0.274 OA
ATOM     10  H   UNL A   1      33.991  24.186  27.024  1.00  0.00     0.163 HD
BRANCH   8  11
ATOM     11  C   UNL A   1      31.696  22.596  25.098  1.00  0.00     0.091 C 
ATOM     12  H   UNL A   1      30.676  22.348  25.304  1.00  0.00     0.048 H 
BRANCH  11  13
ATOM     13  C   UNL A   1      32.271  21.208  24.843  1.00  0.00    -0.033 A 
ATOM     14  C   UNL A   1      33.055  18.554  24.268  1.00  0.00    -0.048 A 
ATOM     15  C   UNL A   1      32.657  19.411  23.239  1.00  0.00    -0.059 A 
ATOM     16  C   UNL A   1      33.129  19.053  25.573  1.00  0.00    -0.059 A 
ATOM     17  C   UNL A   1      32.269  20.720  23.524  1.00  0.00    -0.058 A 
ATOM     18  H   UNL A   1      32.651  19.074  22.264  1.00  0.00     0.063 H 
ATOM     19  C   UNL A   1      32.761  20.372  25.854  1.00  0.00    -0.058 A 
ATOM     20  H   UNL A   1      33.459  18.441  26.337  1.00  0.00     0.063 H 
ATOM     21  H   UNL A   1      31.975  21.341  22.754  1.00  0.00     0.063 H 
ATOM     22  H   UNL A   1      32.852  20.735  26.817  1.00  0.00     0.063 H 
BRANCH  14  23
ATOM     23  C   UNL A   1      33.348  17.101  23.980  1.00  0.00    -0.026 C 
ATOM     24  H   UNL A   1      32.492  16.668  23.506  1.00  0.00     0.032 H 
ATOM     25  H   UNL A   1      34.214  17.068  23.351  1.00  0.00     0.032 H 
BRANCH  23  26
ATOM     26  C   UNL A   1      33.670  16.286  25.251  1.00  0.00    -0.043 C 
ATOM     27  H   UNL A   1      33.498  16.929  26.089  1.00  0.00     0.030 H 
BRANCH  26  28
ATOM     28  C   UNL A   1      32.758  15.065  25.410  1.00  0.00    -0.062 C 
ATOM     29  H   UNL A   1      31.845  15.360  25.885  1.00  0.00     0.023 H 
ATOM     30  H   UNL A   1      33.250  14.328  26.010  1.00  0.00     0.023 H 
ATOM     31  H   UNL A   1      32.541  14.653  24.446  1.00  0.00     0.023 H 
ENDBRANCH  26  28
BRANCH  26  32
ATOM     32  C   UNL A   1      35.131  15.831  25.222  1.00  0.00    -0.062 C 
ATOM     33  H   UNL A   1      35.506  15.774  26.223  1.00  0.00     0.023 H 
ATOM     34  H   UNL A   1      35.712  16.535  24.663  1.00  0.00     0.023 H 
ATOM     35  H   UNL A   1      35.195  14.868  24.761  1.00  0.00     0.023 H 
ENDBRANCH  26  32
ENDBRANCH  23  26
ENDBRANCH  14  23
ENDBRANCH  11  13
BRANCH  11  36
ATOM     36  C   UNL A   1      31.620  23.585  23.939  1.00  0.00     0.105 C 
ATOM     37  F   UNL A   1      30.315  23.835  23.635  1.00  0.00    -0.250 F 
ATOM     38  H   UNL A   1      32.112  23.170  23.084  1.00  0.00     0.064 H 
ATOM     39  H   UNL A   1      32.100  24.500  24.219  1.00  0.00     0.064 H 
ENDBRANCH  11  36
ENDBRANCH   8  11
ENDBRANCH   4   7
ENDBRANCH   1   4
BRANCH   1  40
ATOM     40  C   UNL A   1      36.182  21.572  25.921  1.00  0.00    -0.052 C 
ATOM     41  H   UNL A   1      35.244  21.173  26.249  1.00  0.00     0.027 H 
ATOM     42  H   UNL A   1      36.978  21.429  26.623  1.00  0.00     0.027 H 
BRANCH  40  43
ATOM     43  C   UNL A   1      36.597  20.820  24.652  1.00  0.00    -0.052 C 
ATOM     44  H   UNL A   1      36.907  21.545  23.928  1.00  0.00     0.027 H 
ATOM     45  H   UNL A   1      35.741  20.250  24.357  1.00  0.00     0.027 H 
BRANCH  43  46
ATOM     46  C   UNL A   1      37.734  19.808  24.822  1.00  0.00    -0.036 C 
ATOM     47  H   UNL A   1      38.165  19.631  23.859  1.00  0.00     0.028 H 
ATOM     48  H   UNL A   1      37.291  18.939  25.261  1.00  0.00     0.028 H 
BRANCH  46  49
ATOM     49  C   UNL A   1      38.854  20.234  25.768  1.00  0.00     0.018 C 
ATOM     50  H   UNL A   1      38.437  20.406  26.738  1.00  0.00     0.049 H 
ATOM     51  H   UNL A   1      39.296  21.121  25.366  1.00  0.00     0.049 H 
BRANCH  49  52
ATOM     52  N   UNL A   1      39.901  19.232  25.882  1.00  0.00    -0.352 N 
ATOM     53  C   UNL A   1      41.242  19.391  26.112  1.00  0.00     0.251 C 
ATOM     54  H   UNL A   1      39.601  18.301  25.778  1.00  0.00     0.163 HD
ATOM     55  O   UNL A   1      41.997  18.422  26.027  1.00  0.00    -0.269 OA
BRANCH  53  56
ATOM     56  C   UNL A   1      41.800  20.720  26.439  1.00  0.00     0.039 A 
ATOM     57  C   UNL A   1      42.059  21.613  25.394  1.00  0.00    -0.049 A 
ATOM     58  C   UNL A   1      42.099  21.083  27.757  1.00  0.00    -0.049 A 
ATOM     59  C   UNL A   1      42.566  22.883  25.673  1.00  0.00    -0.053 A 
ATOM     60  H   UNL A   1      41.877  21.332  24.418  1.00  0.00     0.063 H 
ATOM     61  C   UNL A   1      42.547  22.372  28.039  1.00  0.00    -0.053 A 
ATOM     62  H   UNL A   1      41.987  20.396  28.519  1.00  0.00     0.063 H 
ATOM     63  C   UNL A   1      42.788  23.284  27.001  1.00  0.00    -0.014 A 
ATOM     64  H   UNL A   1      42.779  23.533  24.899  1.00  0.00     0.063 H 
ATOM     65  H   UNL A   1      42.700  22.659  29.019  1.00  0.00     0.063 H 
BRANCH  63  66
ATOM     66  C   UNL A   1      43.267  24.654  27.312  1.00  0.00     0.031 A 
ATOM     67  C   UNL A   1      42.333  25.673  27.901  1.00  0.00     0.074 A 
ATOM     68  C   UNL A   1      44.534  24.998  27.010  1.00  0.00     0.049 A 
ATOM     69  N   UNL A   1      42.560  26.926  28.205  1.00  0.00    -0.248 NA
ATOM     70  C   UNL A   1      40.954  25.233  28.158  1.00  0.00    -0.034 C 
ATOM     71  C   UNL A   1      45.521  24.117  26.385  1.00  0.00    -0.036 A 
ATOM     72  N   UNL A   1      45.205  26.183  27.183  1.00  0.00    -0.354 N 
ATOM     73  C   UNL A   1      41.352  27.427  28.675  1.00  0.00     0.074 A 
ATOM     74  C   UNL A   1      40.384  26.356  28.571  1.00  0.00    -0.034 C 
ATOM     75  H   UNL A   1      40.538  24.295  28.047  1.00  0.00     0.065 H 
ATOM     76  C   UNL A   1      46.677  24.785  26.243  1.00  0.00    -0.036 A 
ATOM     77  H   UNL A   1      45.355  23.140  26.099  1.00  0.00     0.065 H 
ATOM     78  C   UNL A   1      46.506  26.146  26.741  1.00  0.00     0.049 A 
ATOM     79  H   UNL A   1      44.794  26.982  27.583  1.00  0.00     0.167 HD
ATOM     80  C   UNL A   1      41.082  28.660  29.166  1.00  0.00     0.037 A 
ATOM     81  H   UNL A   1      39.380  26.455  28.789  1.00  0.00     0.065 H 
ATOM     82  H   UNL A   1      47.547  24.397  25.845  1.00  0.00     0.065 H 
ATOM     83  C   UNL A   1      47.453  27.103  26.740  1.00  0.00     0.037 A 
ATOM     84  C   UNL A   1      42.053  29.714  29.296  1.00  0.00     0.049 A 
ATOM     85  C   UNL A   1      47.134  28.456  27.313  1.00  0.00     0.074 A 
ATOM     86  C   UNL A   1      41.895  30.973  29.850  1.00  0.00    -0.036 A 
ATOM     87  N   UNL A   1      43.370  29.631  28.864  1.00  0.00    -0.354 N 
ATOM     88  N   UNL A   1      46.009  28.893  27.824  1.00  0.00    -0.248 NA
ATOM     89  C   UNL A   1      48.221  29.444  27.320  1.00  0.00    -0.034 C 
ATOM     90  C   UNL A   1      43.103  31.666  29.717  1.00  0.00    -0.036 A 
ATOM     91  H   UNL A   1      41.033  31.336  30.286  1.00  0.00     0.065 H 
ATOM     92  C   UNL A   1      44.027  30.824  29.119  1.00  0.00     0.049 A 
ATOM     93  H   UNL A   1      43.776  28.843  28.439  1.00  0.00     0.167 HD
ATOM     94  C   UNL A   1      46.256  30.197  28.231  1.00  0.00     0.074 A 
ATOM     95  C   UNL A   1      47.644  30.474  27.923  1.00  0.00    -0.034 C 
ATOM     96  H   UNL A   1      49.181  29.360  26.951  1.00  0.00     0.065 H 
ATOM     97  H   UNL A   1      43.276  32.639  30.013  1.00  0.00     0.065 H 
ATOM     98  C   UNL A   1      45.409  31.086  28.806  1.00  0.00     0.037 A 
ATOM     99  H   UNL A   1      48.124  31.360  28.146  1.00  0.00     0.065 H 
BRANCH  80 100
ATOM    100  C   UNL A   1      39.673  28.936  29.603  1.00  0.00     0.064 A 
ATOM    101  C   UNL A   1      39.252  28.702  30.921  1.00  0.00     0.173 A 
ATOM    102  C   UNL A   1      38.738  29.468  28.701  1.00  0.00     0.173 A 
ATOM    103  F   UNL A   1      40.103  28.184  31.819  1.00  0.00    -0.203 F 
ATOM    104  C   UNL A   1      37.941  28.962  31.312  1.00  0.00     0.198 A 
ATOM    105  C   UNL A   1      37.436  29.753  29.103  1.00  0.00     0.198 A 
ATOM    106  F   UNL A   1      39.090  29.716  27.431  1.00  0.00    -0.203 F 
ATOM    107  F   UNL A   1      37.550  28.684  32.563  1.00  0.00    -0.200 F 
ATOM    108  C   UNL A   1      37.037  29.493  30.405  1.00  0.00     0.200 A 
ATOM    109  F   UNL A   1      36.566  30.277  28.229  1.00  0.00    -0.200 F 
ATOM    110  F   UNL A   1      35.776  29.745  30.785  1.00  0.00    -0.200 F 
ENDBRANCH  80 100
BRANCH  83 111
ATOM    111  C   UNL A   1      48.804  26.799  26.206  1.00  0.00     0.064 A 
ATOM    112  C   UNL A   1      49.778  26.200  27.016  1.00  0.00     0.173 A 
ATOM    113  C   UNL A   1      49.146  27.091  24.878  1.00  0.00     0.173 A 
ATOM    114  F   UNL A   1      49.502  25.922  28.299  1.00  0.00    -0.203 F 
ATOM    115  C   UNL A   1      51.049  25.916  26.522  1.00  0.00     0.198 A 
ATOM    116  C   UNL A   1      50.409  26.784  24.378  1.00  0.00     0.198 A 
ATOM    117  F   UNL A   1      48.247  27.660  24.062  1.00  0.00    -0.203 F 
ATOM    118  F   UNL A   1      51.974  25.376  27.328  1.00  0.00    -0.200 F 
ATOM    119  C   UNL A   1      51.361  26.203  25.201  1.00  0.00     0.200 A 
ATOM    120  F   UNL A   1      50.704  27.049  23.098  1.00  0.00    -0.200 F 
ATOM    121  F   UNL A   1      52.582  25.923  24.725  1.00  0.00    -0.200 F 
ENDBRANCH  83 111
BRANCH  98 122
ATOM    122  C   UNL A   1      45.967  32.433  29.158  1.00  0.00     0.064 A 
ATOM    123  C   UNL A   1      45.899  33.512  28.265  1.00  0.00     0.173 A 
ATOM    124  C   UNL A   1      46.552  32.653  30.414  1.00  0.00     0.173 A 
ATOM    125  F   UNL A   1      45.364  33.345  27.046  1.00  0.00    -0.203 F 
ATOM    126  C   UNL A   1      46.421  34.756  28.606  1.00  0.00     0.198 A 
ATOM    127  C   UNL A   1      47.049  33.907  30.762  1.00  0.00     0.198 A 
ATOM    128  F   UNL A   1      46.637  31.655  31.307  1.00  0.00    -0.203 F 
ATOM    129  F   UNL A   1      46.388  35.761  27.719  1.00  0.00    -0.200 F 
ATOM    130  C   UNL A   1      46.990  34.955  29.856  1.00  0.00     0.200 A 
ATOM    131  F   UNL A   1      47.588  34.099  31.974  1.00  0.00    -0.200 F 
ATOM    132  F   UNL A   1      47.489  36.154  30.183  1.00  0.00    -0.200 F 
ENDBRANCH  98 122
ENDBRANCH  63  66
ENDBRANCH  53  56
ENDBRANCH  49  52
ENDBRANCH  46  49
ENDBRANCH  43  46
ENDBRANCH  40  43
ENDBRANCH   1  40
TORSDOF 19
ENDMDL
MODEL 4
REMARK VINA RESULT:     -10.7      6.002     10.349
REMARK SMILES CC(C)Cc1ccc([C@H](CF)C(=O)NCCCCCCNC(=O)c2ccc(-c3c4nc(c(-c5c(F)c(F)c(F)c(F)c5F)c5ccc([nH]5)c(-c5c(F)c(F)c(F)c(F)c5F)c5nc(c(-c6c(F)c(F)c(F)c(F)c6F)c6ccc3[nH]6)C=C5)C=C4)cc2)cc1
REMARK SMILES IDX 16 1 15 4 14 7 12 8 13 9 9 11 8 13 5 14 6 15 88 16 7 17
REMARK SMILES IDX 87 19 4 23 2 26 1 28 3 32 10 36 11 37 17 40 18 43 19 46
REMARK SMILES IDX 20 49 21 52 22 53 23 55 24 56 25 57 86 58 26 59 85 61 27 63
REMARK SMILES IDX 28 66 29 67 79 68 30 69 84 70 78 71 80 72 31 73 83 74 77 76
REMARK SMILES IDX 76 78 32 80 64 83 44 84 63 85 45 86 48 87 62 88 81 89 46 90
REMARK SMILES IDX 47 92 61 94 82 95 49 98 33 100 34 101 42 102 35 103 36 104
REMARK SMILES IDX 40 105 43 106 37 107 38 108 41 109 39 110 65 111 66 112
REMARK SMILES IDX 74 113 67 114 68 115 72 116 75 117 69 118 70 119 73 120
REMARK SMILES IDX 71 121 50 122 51 123 59 124 52 125 53 126 57 127 60 128
REMARK SMILES IDX 54 129 55 130 58 131 56 132
REMARK H PARENT 16 2 16 3 15 5 15 6 14 10 9 12 6 18 88 20 7 21 87 22 4 24 4 25
REMARK H PARENT 2 27 1 29 1 30 1 31 3 33 3 34 3 35 10 38 10 39 17 41 17 42
REMARK H PARENT 18 44 18 45 19 47 19 48 20 50 20 51 21 54 25 60 86 62 26 64
REMARK H PARENT 85 65 84 75 78 77 80 79 83 81 77 82 45 91 48 93 81 96 46 97
REMARK H PARENT 82 99
REMARK Flexibility Score: inf
ROOT
ATOM      1  C   UNL A   1      36.819  23.079  24.956  1.00  0.00    -0.036 C 
ATOM      2  H   UNL A   1      37.110  23.762  25.726  1.00  0.00     0.028 H 
ATOM      3  H   UNL A   1      37.581  22.926  24.220  1.00  0.00     0.028 H 
ENDROOT
BRANCH   1   4
ATOM      4  C   UNL A   1      35.620  23.671  24.220  1.00  0.00     0.017 C 
ATOM      5  H   UNL A   1      35.971  24.219  23.370  1.00  0.00     0.049 H 
ATOM      6  H   UNL A   1      34.981  22.867  23.920  1.00  0.00     0.049 H 
BRANCH   4   7
ATOM      7  N   UNL A   1      34.857  24.563  25.073  1.00  0.00    -0.355 N 
ATOM      8  C   UNL A   1      33.514  24.634  25.302  1.00  0.00     0.230 C 
ATOM      9  O   UNL A   1      33.125  25.460  26.133  1.00  0.00    -0.274 OA
ATOM     10  H   UNL A   1      35.395  25.223  25.566  1.00  0.00     0.163 HD
BRANCH   8  11
ATOM     11  C   UNL A   1      32.512  23.751  24.555  1.00  0.00     0.091 C 
ATOM     12  H   UNL A   1      31.529  23.803  24.974  1.00  0.00     0.048 H 
BRANCH  11  13
ATOM     13  C   UNL A   1      32.812  22.268  24.741  1.00  0.00    -0.033 A 
ATOM     14  C   UNL A   1      33.086  19.465  24.972  1.00  0.00    -0.048 A 
ATOM     15  C   UNL A   1      32.951  20.060  23.715  1.00  0.00    -0.059 A 
ATOM     16  C   UNL A   1      33.158  20.285  26.104  1.00  0.00    -0.059 A 
ATOM     17  C   UNL A   1      32.814  21.443  23.602  1.00  0.00    -0.058 A 
ATOM     18  H   UNL A   1      32.953  19.472  22.867  1.00  0.00     0.063 H 
ATOM     19  C   UNL A   1      33.044  21.674  25.987  1.00  0.00    -0.058 A 
ATOM     20  H   UNL A   1      33.297  19.860  27.035  1.00  0.00     0.063 H 
ATOM     21  H   UNL A   1      32.712  21.868  22.667  1.00  0.00     0.063 H 
ATOM     22  H   UNL A   1      33.131  22.267  26.828  1.00  0.00     0.063 H 
BRANCH  14  23
ATOM     23  C   UNL A   1      33.102  17.961  25.107  1.00  0.00    -0.026 C 
ATOM     24  H   UNL A   1      33.065  17.712  26.147  1.00  0.00     0.032 H 
ATOM     25  H   UNL A   1      32.254  17.583  24.575  1.00  0.00     0.032 H 
BRANCH  23  26
ATOM     26  C   UNL A   1      34.360  17.313  24.491  1.00  0.00    -0.043 C 
ATOM     27  H   UNL A   1      35.101  18.081  24.408  1.00  0.00     0.030 H 
BRANCH  26  28
ATOM     28  C   UNL A   1      34.941  16.205  25.376  1.00  0.00    -0.062 C 
ATOM     29  H   UNL A   1      36.003  16.164  25.246  1.00  0.00     0.023 H 
ATOM     30  H   UNL A   1      34.511  15.265  25.100  1.00  0.00     0.023 H 
ATOM     31  H   UNL A   1      34.716  16.412  26.402  1.00  0.00     0.023 H 
ENDBRANCH  26  28
BRANCH  26  32
ATOM     32  C   UNL A   1      34.029  16.742  23.111  1.00  0.00    -0.062 C 
ATOM     33  H   UNL A   1      33.291  15.974  23.210  1.00  0.00     0.023 H 
ATOM     34  H   UNL A   1      34.915  16.333  22.673  1.00  0.00     0.023 H 
ATOM     35  H   UNL A   1      33.649  17.522  22.484  1.00  0.00     0.023 H 
ENDBRANCH  26  32
ENDBRANCH  23  26
ENDBRANCH  14  23
ENDBRANCH  11  13
BRANCH  11  36
ATOM     36  C   UNL A   1      32.350  24.297  23.139  1.00  0.00     0.105 C 
ATOM     37  F   UNL A   1      31.025  24.406  22.839  1.00  0.00    -0.250 F 
ATOM     38  H   UNL A   1      32.819  23.631  22.445  1.00  0.00     0.064 H 
ATOM     39  H   UNL A   1      32.809  25.262  23.075  1.00  0.00     0.064 H 
ENDBRANCH  11  36
ENDBRANCH   8  11
ENDBRANCH   4   7
ENDBRANCH   1   4
BRANCH   1  40
ATOM     40  C   UNL A   1      36.562  21.714  25.601  1.00  0.00    -0.052 C 
ATOM     41  H   UNL A   1      35.568  21.719  25.997  1.00  0.00     0.027 H 
ATOM     42  H   UNL A   1      37.321  21.592  26.346  1.00  0.00     0.027 H 
BRANCH  40  43
ATOM     43  C   UNL A   1      36.692  20.507  24.665  1.00  0.00    -0.052 C 
ATOM     44  H   UNL A   1      36.862  20.877  23.674  1.00  0.00     0.027 H 
ATOM     45  H   UNL A   1      35.781  19.956  24.772  1.00  0.00     0.027 H 
BRANCH  43  46
ATOM     46  C   UNL A   1      37.817  19.524  25.001  1.00  0.00    -0.036 C 
ATOM     47  H   UNL A   1      38.178  19.109  24.083  1.00  0.00     0.028 H 
ATOM     48  H   UNL A   1      37.388  18.800  25.661  1.00  0.00     0.028 H 
BRANCH  46  49
ATOM     49  C   UNL A   1      39.008  20.122  25.746  1.00  0.00     0.018 C 
ATOM     50  H   UNL A   1      38.687  20.420  26.722  1.00  0.00     0.049 H 
ATOM     51  H   UNL A   1      39.361  20.955  25.175  1.00  0.00     0.049 H 
BRANCH  49  52
ATOM     52  N   UNL A   1      40.109  19.184  25.884  1.00  0.00    -0.352 N 
ATOM     53  C   UNL A   1      41.436  19.422  26.124  1.00  0.00     0.251 C 
ATOM     54  H   UNL A   1      39.864  18.235  25.792  1.00  0.00     0.163 HD
ATOM     55  O   UNL A   1      42.246  18.497  26.060  1.00  0.00    -0.269 OA
BRANCH  53  56
ATOM     56  C   UNL A   1      41.914  20.786  26.437  1.00  0.00     0.039 A 
ATOM     57  C   UNL A   1      42.214  21.649  25.378  1.00  0.00    -0.049 A 
ATOM     58  C   UNL A   1      42.099  21.210  27.757  1.00  0.00    -0.049 A 
ATOM     59  C   UNL A   1      42.647  22.950  25.641  1.00  0.00    -0.053 A 
ATOM     60  H   UNL A   1      42.117  21.324  24.404  1.00  0.00     0.063 H 
ATOM     61  C   UNL A   1      42.472  22.528  28.019  1.00  0.00    -0.053 A 
ATOM     62  H   UNL A   1      41.959  20.548  28.536  1.00  0.00     0.063 H 
ATOM     63  C   UNL A   1      42.753  23.410  26.964  1.00  0.00    -0.014 A 
ATOM     64  H   UNL A   1      42.891  23.578  24.859  1.00  0.00     0.063 H 
ATOM     65  H   UNL A   1      42.540  22.857  28.994  1.00  0.00     0.063 H 
BRANCH  63  66
ATOM     66  C   UNL A   1      43.152  24.810  27.253  1.00  0.00     0.031 A 
ATOM     67  C   UNL A   1      44.550  25.278  26.967  1.00  0.00     0.074 A 
ATOM     68  C   UNL A   1      42.266  25.647  27.827  1.00  0.00     0.049 A 
ATOM     69  N   UNL A   1      45.092  26.451  27.185  1.00  0.00    -0.248 NA
ATOM     70  C   UNL A   1      45.471  24.291  26.383  1.00  0.00    -0.034 C 
ATOM     71  C   UNL A   1      40.896  25.296  28.204  1.00  0.00    -0.036 A 
ATOM     72  N   UNL A   1      42.389  26.962  28.199  1.00  0.00    -0.354 N 
ATOM     73  C   UNL A   1      46.416  26.337  26.780  1.00  0.00     0.074 A 
ATOM     74  C   UNL A   1      46.608  24.970  26.347  1.00  0.00    -0.034 C 
ATOM     75  H   UNL A   1      45.281  23.323  26.081  1.00  0.00     0.065 H 
ATOM     76  C   UNL A   1      40.299  26.374  28.737  1.00  0.00    -0.036 A 
ATOM     77  H   UNL A   1      40.460  24.369  28.080  1.00  0.00     0.065 H 
ATOM     78  C   UNL A   1      41.249  27.481  28.764  1.00  0.00     0.049 A 
ATOM     79  H   UNL A   1      43.215  27.483  28.075  1.00  0.00     0.167 HD
ATOM     80  C   UNL A   1      47.376  27.293  26.753  1.00  0.00     0.037 A 
ATOM     81  H   UNL A   1      47.514  24.574  26.050  1.00  0.00     0.065 H 
ATOM     82  H   UNL A   1      39.324  26.412  29.075  1.00  0.00     0.065 H 
ATOM     83  C   UNL A   1      41.000  28.713  29.248  1.00  0.00     0.037 A 
ATOM     84  C   UNL A   1      47.174  28.660  27.155  1.00  0.00     0.049 A 
ATOM     85  C   UNL A   1      42.075  29.761  29.184  1.00  0.00     0.074 A 
ATOM     86  C   UNL A   1      48.063  29.719  27.095  1.00  0.00    -0.036 A 
ATOM     87  N   UNL A   1      45.997  29.157  27.696  1.00  0.00    -0.354 N 
ATOM     88  N   UNL A   1      43.301  29.663  28.728  1.00  0.00    -0.248 NA
ATOM     89  C   UNL A   1      41.729  31.096  29.691  1.00  0.00    -0.034 C 
ATOM     90  C   UNL A   1      47.438  30.848  27.636  1.00  0.00    -0.036 A 
ATOM     91  H   UNL A   1      49.022  29.682  26.715  1.00  0.00     0.065 H 
ATOM     92  C   UNL A   1      46.144  30.502  27.994  1.00  0.00     0.049 A 
ATOM     93  H   UNL A   1      45.179  28.632  27.847  1.00  0.00     0.167 HD
ATOM     94  C   UNL A   1      43.864  30.923  28.873  1.00  0.00     0.074 A 
ATOM     95  C   UNL A   1      42.840  31.775  29.444  1.00  0.00    -0.034 C 
ATOM     96  H   UNL A   1      40.851  31.420  30.126  1.00  0.00     0.065 H 
ATOM     97  H   UNL A   1      47.868  31.779  27.750  1.00  0.00     0.065 H 
ATOM     98  C   UNL A   1      45.117  31.337  28.563  1.00  0.00     0.037 A 
ATOM     99  H   UNL A   1      42.961  32.782  29.633  1.00  0.00     0.065 H 
BRANCH  80 100
ATOM    100  C   UNL A   1      48.738  26.890  26.266  1.00  0.00     0.064 A 
ATOM    101  C   UNL A   1      49.107  27.022  24.919  1.00  0.00     0.173 A 
ATOM    102  C   UNL A   1      49.696  26.393  27.163  1.00  0.00     0.173 A 
ATOM    103  F   UNL A   1      48.224  27.482  24.019  1.00  0.00    -0.203 F 
ATOM    104  C   UNL A   1      50.373  26.643  24.482  1.00  0.00     0.198 A 
ATOM    105  C   UNL A   1      50.971  26.041  26.728  1.00  0.00     0.198 A 
ATOM    106  F   UNL A   1      49.397  26.251  28.463  1.00  0.00    -0.203 F 
ATOM    107  F   UNL A   1      50.686  26.733  23.182  1.00  0.00    -0.200 F 
ATOM    108  C   UNL A   1      51.306  26.160  25.387  1.00  0.00     0.200 A 
ATOM    109  F   UNL A   1      51.875  25.584  27.605  1.00  0.00    -0.200 F 
ATOM    110  F   UNL A   1      52.526  25.799  24.965  1.00  0.00    -0.200 F 
ENDBRANCH  80 100
BRANCH  83 111
ATOM    111  C   UNL A   1      39.660  29.026  29.806  1.00  0.00     0.064 A 
ATOM    112  C   UNL A   1      38.643  29.535  28.987  1.00  0.00     0.173 A 
ATOM    113  C   UNL A   1      39.367  28.815  31.160  1.00  0.00     0.173 A 
ATOM    114  F   UNL A   1      38.886  29.773  27.689  1.00  0.00    -0.203 F 
ATOM    115  C   UNL A   1      37.385  29.835  29.504  1.00  0.00     0.198 A 
ATOM    116  C   UNL A   1      38.100  29.092  31.671  1.00  0.00     0.198 A 
ATOM    117  F   UNL A   1      40.304  28.325  31.983  1.00  0.00    -0.203 F 
ATOM    118  F   UNL A   1      36.442  30.355  28.708  1.00  0.00    -0.200 F 
ATOM    119  C   UNL A   1      37.113  29.607  30.845  1.00  0.00     0.200 A 
ATOM    120  F   UNL A   1      37.836  28.858  32.964  1.00  0.00    -0.200 F 
ATOM    121  F   UNL A   1      35.901  29.889  31.341  1.00  0.00    -0.200 F 
ENDBRANCH  83 111
BRANCH  98 122
ATOM    122  C   UNL A   1      45.443  32.780  28.817  1.00  0.00     0.064 A 
ATOM    123  C   UNL A   1      45.187  33.769  27.857  1.00  0.00     0.173 A 
ATOM    124  C   UNL A   1      45.991  33.179  30.045  1.00  0.00     0.173 A 
ATOM    125  F   UNL A   1      44.679  33.434  26.661  1.00  0.00    -0.203 F 
ATOM    126  C   UNL A   1      45.494  35.104  28.107  1.00  0.00     0.198 A 
ATOM    127  C   UNL A   1      46.271  34.518  30.302  1.00  0.00     0.198 A 
ATOM    128  F   UNL A   1      46.249  32.271  30.999  1.00  0.00    -0.203 F 
ATOM    129  F   UNL A   1      45.286  36.027  27.157  1.00  0.00    -0.200 F 
ATOM    130  C   UNL A   1      46.030  35.478  29.331  1.00  0.00     0.200 A 
ATOM    131  F   UNL A   1      46.779  34.879  31.488  1.00  0.00    -0.200 F 
ATOM    132  F   UNL A   1      46.322  36.763  29.570  1.00  0.00    -0.200 F 
ENDBRANCH  98 122
ENDBRANCH  63  66
ENDBRANCH  53  56
ENDBRANCH  49  52
ENDBRANCH  46  49
ENDBRANCH  43  46
ENDBRANCH  40  43
ENDBRANCH   1  40
TORSDOF 19
ENDMDL
MODEL 5
REMARK VINA RESULT:     -10.6      2.300      7.932
REMARK SMILES CC(C)Cc1ccc([C@H](CF)C(=O)NCCCCCCNC(=O)c2ccc(-c3c4nc(c(-c5c(F)c(F)c(F)c(F)c5F)c5ccc([nH]5)c(-c5c(F)c(F)c(F)c(F)c5F)c5nc(c(-c6c(F)c(F)c(F)c(F)c6F)c6ccc3[nH]6)C=C5)C=C4)cc2)cc1
REMARK SMILES IDX 16 1 15 4 14 7 12 8 13 9 9 11 8 13 5 14 6 15 88 16 7 17
REMARK SMILES IDX 87 19 4 23 2 26 1 28 3 32 10 36 11 37 17 40 18 43 19 46
REMARK SMILES IDX 20 49 21 52 22 53 23 55 24 56 25 57 86 58 26 59 85 61 27 63
REMARK SMILES IDX 28 66 29 67 79 68 30 69 84 70 78 71 80 72 31 73 83 74 77 76
REMARK SMILES IDX 76 78 32 80 64 83 44 84 63 85 45 86 48 87 62 88 81 89 46 90
REMARK SMILES IDX 47 92 61 94 82 95 49 98 33 100 34 101 42 102 35 103 36 104
REMARK SMILES IDX 40 105 43 106 37 107 38 108 41 109 39 110 65 111 66 112
REMARK SMILES IDX 74 113 67 114 68 115 72 116 75 117 69 118 70 119 73 120
REMARK SMILES IDX 71 121 50 122 51 123 59 124 52 125 53 126 57 127 60 128
REMARK SMILES IDX 54 129 55 130 58 131 56 132
REMARK H PARENT 16 2 16 3 15 5 15 6 14 10 9 12 6 18 88 20 7 21 87 22 4 24 4 25
REMARK H PARENT 2 27 1 29 1 30 1 31 3 33 3 34 3 35 10 38 10 39 17 41 17 42
REMARK H PARENT 18 44 18 45 19 47 19 48 20 50 20 51 21 54 25 60 86 62 26 64
REMARK H PARENT 85 65 84 75 78 77 80 79 83 81 77 82 45 91 48 93 81 96 46 97
REMARK H PARENT 82 99
REMARK Flexibility Score: inf
ROOT
ATOM      1  C   UNL A   1      33.522  24.052  26.507  1.00  0.00    -0.036 C 
ATOM      2  H   UNL A   1      34.554  24.306  26.628  1.00  0.00     0.028 H 
ATOM      3  H   UNL A   1      33.067  23.703  27.410  1.00  0.00     0.028 H 
ENDROOT
BRANCH   1   4
ATOM      4  C   UNL A   1      33.428  22.905  25.504  1.00  0.00     0.017 C 
ATOM      5  H   UNL A   1      33.608  21.982  26.015  1.00  0.00     0.049 H 
ATOM      6  H   UNL A   1      32.449  22.918  25.072  1.00  0.00     0.049 H 
BRANCH   4   7
ATOM      7  N   UNL A   1      34.397  23.049  24.435  1.00  0.00    -0.355 N 
ATOM      8  C   UNL A   1      34.218  23.152  23.086  1.00  0.00     0.230 C 
ATOM      9  O   UNL A   1      35.225  23.328  22.393  1.00  0.00    -0.274 OA
ATOM     10  H   UNL A   1      35.335  23.078  24.729  1.00  0.00     0.163 HD
BRANCH   8  11
ATOM     11  C   UNL A   1      32.837  23.034  22.435  1.00  0.00     0.091 C 
ATOM     12  H   UNL A   1      32.887  23.026  21.367  1.00  0.00     0.048 H 
BRANCH  11  13
ATOM     13  C   UNL A   1      31.995  24.284  22.662  1.00  0.00    -0.033 A 
ATOM     14  C   UNL A   1      30.660  26.700  23.268  1.00  0.00    -0.048 A 
ATOM     15  C   UNL A   1      31.872  26.718  22.573  1.00  0.00    -0.059 A 
ATOM     16  C   UNL A   1      30.084  25.466  23.591  1.00  0.00    -0.059 A 
ATOM     17  C   UNL A   1      32.531  25.525  22.276  1.00  0.00    -0.058 A 
ATOM     18  H   UNL A   1      32.281  27.618  22.278  1.00  0.00     0.063 H 
ATOM     19  C   UNL A   1      30.735  24.270  23.273  1.00  0.00    -0.058 A 
ATOM     20  H   UNL A   1      29.170  25.438  24.071  1.00  0.00     0.063 H 
ATOM     21  H   UNL A   1      33.427  25.554  21.765  1.00  0.00     0.063 H 
ATOM     22  H   UNL A   1      30.282  23.368  23.490  1.00  0.00     0.063 H 
BRANCH  14  23
ATOM     23  C   UNL A   1      30.012  27.992  23.706  1.00  0.00    -0.026 C 
ATOM     24  H   UNL A   1      29.460  27.809  24.604  1.00  0.00     0.032 H 
ATOM     25  H   UNL A   1      30.794  28.707  23.855  1.00  0.00     0.032 H 
BRANCH  23  26
ATOM     26  C   UNL A   1      29.050  28.573  22.648  1.00  0.00    -0.043 C 
ATOM     27  H   UNL A   1      29.101  27.934  21.791  1.00  0.00     0.030 H 
BRANCH  26  28
ATOM     28  C   UNL A   1      27.594  28.589  23.126  1.00  0.00    -0.062 C 
ATOM     29  H   UNL A   1      27.044  29.320  22.571  1.00  0.00     0.023 H 
ATOM     30  H   UNL A   1      27.563  28.833  24.167  1.00  0.00     0.023 H 
ATOM     31  H   UNL A   1      27.158  27.623  22.974  1.00  0.00     0.023 H 
ENDBRANCH  26  28
BRANCH  26  32
ATOM     32  C   UNL A   1      29.480  29.994  22.278  1.00  0.00    -0.062 C 
ATOM     33  H   UNL A   1      29.177  30.208  21.274  1.00  0.00     0.023 H 
ATOM     34  H   UNL A   1      30.544  30.075  22.355  1.00  0.00     0.023 H 
ATOM     35  H   UNL A   1      29.020  30.691  22.946  1.00  0.00     0.023 H 
ENDBRANCH  26  32
ENDBRANCH  23  26
ENDBRANCH  14  23
ENDBRANCH  11  13
BRANCH  11  36
ATOM     36  C   UNL A   1      32.248  21.674  22.798  1.00  0.00     0.105 C 
ATOM     37  F   UNL A   1      31.519  21.196  21.750  1.00  0.00    -0.250 F 
ATOM     38  H   UNL A   1      31.615  21.777  23.655  1.00  0.00     0.064 H 
ATOM     39  H   UNL A   1      33.041  20.990  23.019  1.00  0.00     0.064 H 
ENDBRANCH  11  36
ENDBRANCH   8  11
ENDBRANCH   4   7
ENDBRANCH   1   4
BRANCH   1  40
ATOM     40  C   UNL A   1      32.763  25.319  26.102  1.00  0.00    -0.052 C 
ATOM     41  H   UNL A   1      32.115  25.587  26.909  1.00  0.00     0.027 H 
ATOM     42  H   UNL A   1      32.244  25.075  25.197  1.00  0.00     0.027 H 
BRANCH  40  43
ATOM     43  C   UNL A   1      33.637  26.534  25.773  1.00  0.00    -0.052 C 
ATOM     44  H   UNL A   1      33.958  26.442  24.755  1.00  0.00     0.027 H 
ATOM     45  H   UNL A   1      34.436  26.519  26.483  1.00  0.00     0.027 H 
BRANCH  43  46
ATOM     46  C   UNL A   1      32.962  27.899  25.932  1.00  0.00    -0.036 C 
ATOM     47  H   UNL A   1      32.748  28.043  26.970  1.00  0.00     0.028 H 
ATOM     48  H   UNL A   1      32.090  27.871  25.313  1.00  0.00     0.028 H 
BRANCH  46  49
ATOM     49  C   UNL A   1      33.782  29.094  25.450  1.00  0.00     0.018 C 
ATOM     50  H   UNL A   1      33.808  29.083  24.381  1.00  0.00     0.049 H 
ATOM     51  H   UNL A   1      34.761  29.004  25.871  1.00  0.00     0.049 H 
BRANCH  49  52
ATOM     52  N   UNL A   1      33.229  30.365  25.890  1.00  0.00    -0.352 N 
ATOM     53  C   UNL A   1      33.585  31.152  26.952  1.00  0.00     0.251 C 
ATOM     54  H   UNL A   1      32.488  30.710  25.342  1.00  0.00     0.163 HD
ATOM     55  O   UNL A   1      32.894  32.129  27.249  1.00  0.00    -0.269 OA
BRANCH  53  56
ATOM     56  C   UNL A   1      34.778  30.832  27.763  1.00  0.00     0.039 A 
ATOM     57  C   UNL A   1      34.781  29.651  28.512  1.00  0.00    -0.049 A 
ATOM     58  C   UNL A   1      35.877  31.697  27.819  1.00  0.00    -0.049 A 
ATOM     59  C   UNL A   1      35.902  29.310  29.271  1.00  0.00    -0.053 A 
ATOM     60  H   UNL A   1      33.956  29.032  28.503  1.00  0.00     0.063 H 
ATOM     61  C   UNL A   1      37.019  31.326  28.529  1.00  0.00    -0.053 A 
ATOM     62  H   UNL A   1      35.842  32.607  27.336  1.00  0.00     0.063 H 
ATOM     63  C   UNL A   1      37.042  30.131  29.264  1.00  0.00    -0.014 A 
ATOM     64  H   UNL A   1      35.894  28.449  29.841  1.00  0.00     0.063 H 
ATOM     65  H   UNL A   1      37.852  31.934  28.511  1.00  0.00     0.063 H 
BRANCH  63  66
ATOM     66  C   UNL A   1      38.261  29.747  30.018  1.00  0.00     0.031 A 
ATOM     67  C   UNL A   1      38.508  30.291  31.396  1.00  0.00     0.074 A 
ATOM     68  C   UNL A   1      39.176  28.947  29.437  1.00  0.00     0.049 A 
ATOM     69  N   UNL A   1      39.530  30.098  32.192  1.00  0.00    -0.248 NA
ATOM     70  C   UNL A   1      37.484  31.194  31.943  1.00  0.00    -0.034 C 
ATOM     71  C   UNL A   1      39.078  28.398  28.083  1.00  0.00    -0.036 A 
ATOM     72  N   UNL A   1      40.371  28.464  29.907  1.00  0.00    -0.354 N 
ATOM     73  C   UNL A   1      39.280  30.865  33.323  1.00  0.00     0.074 A 
ATOM     74  C   UNL A   1      38.033  31.563  33.091  1.00  0.00    -0.034 C 
ATOM     75  H   UNL A   1      36.576  31.470  31.538  1.00  0.00     0.065 H 
ATOM     76  C   UNL A   1      40.158  27.639  27.839  1.00  0.00    -0.036 A 
ATOM     77  H   UNL A   1      38.304  28.569  27.423  1.00  0.00     0.065 H 
ATOM     78  C   UNL A   1      41.035  27.668  29.006  1.00  0.00     0.049 A 
ATOM     79  H   UNL A   1      40.719  28.669  30.805  1.00  0.00     0.167 HD
ATOM     80  C   UNL A   1      40.013  30.961  34.458  1.00  0.00     0.037 A 
ATOM     81  H   UNL A   1      37.625  32.257  33.736  1.00  0.00     0.065 H 
ATOM     82  H   UNL A   1      40.338  27.118  26.966  1.00  0.00     0.065 H 
ATOM     83  C   UNL A   1      42.218  27.033  29.110  1.00  0.00     0.037 A 
ATOM     84  C   UNL A   1      41.237  30.243  34.699  1.00  0.00     0.049 A 
ATOM     85  C   UNL A   1      43.000  27.137  30.389  1.00  0.00     0.074 A 
ATOM     86  C   UNL A   1      42.013  30.217  35.845  1.00  0.00    -0.036 A 
ATOM     87  N   UNL A   1      41.866  29.423  33.772  1.00  0.00    -0.354 N 
ATOM     88  N   UNL A   1      42.714  27.805  31.481  1.00  0.00    -0.248 NA
ATOM     89  C   UNL A   1      44.263  26.389  30.455  1.00  0.00    -0.034 C 
ATOM     90  C   UNL A   1      43.132  29.413  35.598  1.00  0.00    -0.036 A 
ATOM     91  H   UNL A   1      41.802  30.706  36.728  1.00  0.00     0.065 H 
ATOM     92  C   UNL A   1      43.031  28.904  34.313  1.00  0.00     0.049 A 
ATOM     93  H   UNL A   1      41.534  29.238  32.864  1.00  0.00     0.167 HD
ATOM     94  C   UNL A   1      43.749  27.542  32.369  1.00  0.00     0.074 A 
ATOM     95  C   UNL A   1      44.659  26.640  31.694  1.00  0.00    -0.034 C 
ATOM     96  H   UNL A   1      44.721  25.819  29.727  1.00  0.00     0.065 H 
ATOM     97  H   UNL A   1      43.902  29.231  36.261  1.00  0.00     0.065 H 
ATOM     98  C   UNL A   1      43.928  28.008  33.629  1.00  0.00     0.037 A 
ATOM     99  H   UNL A   1      45.509  26.242  32.125  1.00  0.00     0.065 H 
BRANCH  80 100
ATOM    100  C   UNL A   1      39.506  31.878  35.532  1.00  0.00     0.064 A 
ATOM    101  C   UNL A   1      38.569  31.449  36.485  1.00  0.00     0.173 A 
ATOM    102  C   UNL A   1      39.982  33.195  35.629  1.00  0.00     0.173 A 
ATOM    103  F   UNL A   1      38.073  30.203  36.430  1.00  0.00    -0.203 F 
ATOM    104  C   UNL A   1      38.107  32.311  37.475  1.00  0.00     0.198 A 
ATOM    105  C   UNL A   1      39.539  34.046  36.638  1.00  0.00     0.198 A 
ATOM    106  F   UNL A   1      40.882  33.654  34.747  1.00  0.00    -0.203 F 
ATOM    107  F   UNL A   1      37.175  31.893  38.344  1.00  0.00    -0.200 F 
ATOM    108  C   UNL A   1      38.596  33.606  37.555  1.00  0.00     0.200 A 
ATOM    109  F   UNL A   1      40.021  35.293  36.721  1.00  0.00    -0.200 F 
ATOM    110  F   UNL A   1      38.152  34.434  38.512  1.00  0.00    -0.200 F 
ENDBRANCH  80 100
BRANCH  83 111
ATOM    111  C   UNL A   1      42.715  26.215  27.975  1.00  0.00     0.064 A 
ATOM    112  C   UNL A   1      42.330  24.875  27.834  1.00  0.00     0.173 A 
ATOM    113  C   UNL A   1      43.572  26.756  27.007  1.00  0.00     0.173 A 
ATOM    114  F   UNL A   1      41.528  24.309  28.748  1.00  0.00    -0.203 F 
ATOM    115  C   UNL A   1      42.796  24.101  26.774  1.00  0.00     0.198 A 
ATOM    116  C   UNL A   1      44.018  25.988  25.933  1.00  0.00     0.198 A 
ATOM    117  F   UNL A   1      43.964  28.035  27.094  1.00  0.00    -0.203 F 
ATOM    118  F   UNL A   1      42.443  22.811  26.683  1.00  0.00    -0.200 F 
ATOM    119  C   UNL A   1      43.635  24.660  25.821  1.00  0.00     0.200 A 
ATOM    120  F   UNL A   1      44.817  26.534  25.006  1.00  0.00    -0.200 F 
ATOM    121  F   UNL A   1      44.077  23.917  24.798  1.00  0.00    -0.200 F 
ENDBRANCH  83 111
BRANCH  98 122
ATOM    122  C   UNL A   1      45.146  27.533  34.367  1.00  0.00     0.064 A 
ATOM    123  C   UNL A   1      45.128  26.359  35.133  1.00  0.00     0.173 A 
ATOM    124  C   UNL A   1      46.350  28.247  34.282  1.00  0.00     0.173 A 
ATOM    125  F   UNL A   1      43.995  25.651  35.257  1.00  0.00    -0.203 F 
ATOM    126  C   UNL A   1      46.266  25.931  35.811  1.00  0.00     0.198 A 
ATOM    127  C   UNL A   1      47.494  27.801  34.940  1.00  0.00     0.198 A 
ATOM    128  F   UNL A   1      46.421  29.374  33.558  1.00  0.00    -0.203 F 
ATOM    129  F   UNL A   1      46.214  24.831  36.576  1.00  0.00    -0.200 F 
ATOM    130  C   UNL A   1      47.449  26.648  35.709  1.00  0.00     0.200 A 
ATOM    131  F   UNL A   1      48.638  28.490  34.831  1.00  0.00    -0.200 F 
ATOM    132  F   UNL A   1      48.544  26.233  36.360  1.00  0.00    -0.200 F 
ENDBRANCH  98 122
ENDBRANCH  63  66
ENDBRANCH  53  56
ENDBRANCH  49  52
ENDBRANCH  46  49
ENDBRANCH  43  46
ENDBRANCH  40  43
ENDBRANCH   1  40
TORSDOF 19
ENDMDL
MODEL 6
REMARK VINA RESULT:     -10.6      6.032     11.483
REMARK SMILES CC(C)Cc1ccc([C@H](CF)C(=O)NCCCCCCNC(=O)c2ccc(-c3c4nc(c(-c5c(F)c(F)c(F)c(F)c5F)c5ccc([nH]5)c(-c5c(F)c(F)c(F)c(F)c5F)c5nc(c(-c6c(F)c(F)c(F)c(F)c6F)c6ccc3[nH]6)C=C5)C=C4)cc2)cc1
REMARK SMILES IDX 16 1 15 4 14 7 12 8 13 9 9 11 8 13 5 14 6 15 88 16 7 17
REMARK SMILES IDX 87 19 4 23 2 26 1 28 3 32 10 36 11 37 17 40 18 43 19 46
REMARK SMILES IDX 20 49 21 52 22 53 23 55 24 56 25 57 86 58 26 59 85 61 27 63
REMARK SMILES IDX 28 66 29 67 79 68 30 69 84 70 78 71 80 72 31 73 83 74 77 76
REMARK SMILES IDX 76 78 32 80 64 83 44 84 63 85 45 86 48 87 62 88 81 89 46 90
REMARK SMILES IDX 47 92 61 94 82 95 49 98 33 100 34 101 42 102 35 103 36 104
REMARK SMILES IDX 40 105 43 106 37 107 38 108 41 109 39 110 65 111 66 112
REMARK SMILES IDX 74 113 67 114 68 115 72 116 75 117 69 118 70 119 73 120
REMARK SMILES IDX 71 121 50 122 51 123 59 124 52 125 53 126 57 127 60 128
REMARK SMILES IDX 54 129 55 130 58 131 56 132
REMARK H PARENT 16 2 16 3 15 5 15 6 14 10 9 12 6 18 88 20 7 21 87 22 4 24 4 25
REMARK H PARENT 2 27 1 29 1 30 1 31 3 33 3 34 3 35 10 38 10 39 17 41 17 42
REMARK H PARENT 18 44 18 45 19 47 19 48 20 50 20 51 21 54 25 60 86 62 26 64
REMARK H PARENT 85 65 84 75 78 77 80 79 83 81 77 82 45 91 48 93 81 96 46 97
REMARK H PARENT 82 99
REMARK Flexibility Score: inf
ROOT
ATOM      1  C   UNL A   1      36.250  23.138  25.651  1.00  0.00    -0.036 C 
ATOM      2  H   UNL A   1      36.032  23.346  26.678  1.00  0.00     0.028 H 
ATOM      3  H   UNL A   1      37.234  23.441  25.360  1.00  0.00     0.028 H 
ENDROOT
BRANCH   1   4
ATOM      4  C   UNL A   1      35.279  23.937  24.787  1.00  0.00     0.017 C 
ATOM      5  H   UNL A   1      35.832  24.649  24.211  1.00  0.00     0.049 H 
ATOM      6  H   UNL A   1      34.757  23.253  24.150  1.00  0.00     0.049 H 
BRANCH   4   7
ATOM      7  N   UNL A   1      34.300  24.642  25.593  1.00  0.00    -0.355 N 
ATOM      8  C   UNL A   1      32.939  24.550  25.615  1.00  0.00     0.230 C 
ATOM      9  O   UNL A   1      32.339  25.230  26.452  1.00  0.00    -0.274 OA
ATOM     10  H   UNL A   1      34.679  25.290  26.229  1.00  0.00     0.163 HD
BRANCH   8  11
ATOM     11  C   UNL A   1      32.166  23.664  24.634  1.00  0.00     0.091 C 
ATOM     12  H   UNL A   1      31.122  23.617  24.860  1.00  0.00     0.048 H 
BRANCH  11  13
ATOM     13  C   UNL A   1      32.545  22.194  24.777  1.00  0.00    -0.033 A 
ATOM     14  C   UNL A   1      32.977  19.404  24.908  1.00  0.00    -0.048 A 
ATOM     15  C   UNL A   1      32.895  20.049  23.671  1.00  0.00    -0.059 A 
ATOM     16  C   UNL A   1      32.917  20.172  26.076  1.00  0.00    -0.059 A 
ATOM     17  C   UNL A   1      32.680  21.426  23.608  1.00  0.00    -0.058 A 
ATOM     18  H   UNL A   1      32.994  19.504  22.800  1.00  0.00     0.063 H 
ATOM     19  C   UNL A   1      32.724  21.556  26.011  1.00  0.00    -0.058 A 
ATOM     20  H   UNL A   1      33.015  19.713  26.995  1.00  0.00     0.063 H 
ATOM     21  H   UNL A   1      32.619  21.888  22.687  1.00  0.00     0.063 H 
ATOM     22  H   UNL A   1      32.714  22.112  26.881  1.00  0.00     0.063 H 
BRANCH  14  23
ATOM     23  C   UNL A   1      33.077  17.899  24.978  1.00  0.00    -0.026 C 
ATOM     24  H   UNL A   1      33.056  17.605  26.007  1.00  0.00     0.032 H 
ATOM     25  H   UNL A   1      32.252  17.497  24.429  1.00  0.00     0.032 H 
BRANCH  23  26
ATOM     26  C   UNL A   1      34.370  17.350  24.338  1.00  0.00    -0.043 C 
ATOM     27  H   UNL A   1      35.065  18.162  24.284  1.00  0.00     0.030 H 
BRANCH  26  28
ATOM     28  C   UNL A   1      35.016  16.243  25.178  1.00  0.00    -0.062 C 
ATOM     29  H   UNL A   1      34.549  15.307  24.956  1.00  0.00     0.023 H 
ATOM     30  H   UNL A   1      34.892  16.466  26.217  1.00  0.00     0.023 H 
ATOM     31  H   UNL A   1      36.060  16.184  24.949  1.00  0.00     0.023 H 
ENDBRANCH  26  28
BRANCH  26  32
ATOM     32  C   UNL A   1      34.069  16.815  22.936  1.00  0.00    -0.062 C 
ATOM     33  H   UNL A   1      34.155  15.749  22.935  1.00  0.00     0.023 H 
ATOM     34  H   UNL A   1      34.767  17.231  22.239  1.00  0.00     0.023 H 
ATOM     35  H   UNL A   1      33.075  17.094  22.654  1.00  0.00     0.023 H 
ENDBRANCH  26  32
ENDBRANCH  23  26
ENDBRANCH  14  23
ENDBRANCH  11  13
BRANCH  11  36
ATOM     36  C   UNL A   1      32.227  24.307  23.252  1.00  0.00     0.105 C 
ATOM     37  F   UNL A   1      30.964  24.464  22.764  1.00  0.00    -0.250 F 
ATOM     38  H   UNL A   1      32.788  23.680  22.591  1.00  0.00     0.064 H 
ATOM     39  H   UNL A   1      32.700  25.265  23.325  1.00  0.00     0.064 H 
ENDBRANCH  11  36
ENDBRANCH   8  11
ENDBRANCH   4   7
ENDBRANCH   1   4
BRANCH   1  40
ATOM     40  C   UNL A   1      36.186  21.621  25.448  1.00  0.00    -0.052 C 
ATOM     41  H   UNL A   1      35.195  21.372  25.134  1.00  0.00     0.027 H 
ATOM     42  H   UNL A   1      36.462  21.186  26.387  1.00  0.00     0.027 H 
BRANCH  40  43
ATOM     43  C   UNL A   1      37.166  21.053  24.416  1.00  0.00    -0.052 C 
ATOM     44  H   UNL A   1      37.851  21.832  24.149  1.00  0.00     0.027 H 
ATOM     45  H   UNL A   1      36.564  20.707  23.602  1.00  0.00     0.027 H 
BRANCH  43  46
ATOM     46  C   UNL A   1      37.985  19.842  24.873  1.00  0.00    -0.036 C 
ATOM     47  H   UNL A   1      38.484  19.439  24.017  1.00  0.00     0.028 H 
ATOM     48  H   UNL A   1      37.286  19.167  25.322  1.00  0.00     0.028 H 
BRANCH  46  49
ATOM     49  C   UNL A   1      39.038  20.130  25.939  1.00  0.00     0.018 C 
ATOM     50  H   UNL A   1      38.567  20.116  26.900  1.00  0.00     0.049 H 
ATOM     51  H   UNL A   1      39.465  21.086  25.723  1.00  0.00     0.049 H 
BRANCH  49  52
ATOM     52  N   UNL A   1      40.117  19.155  25.936  1.00  0.00    -0.352 N 
ATOM     53  C   UNL A   1      41.467  19.345  26.071  1.00  0.00     0.251 C 
ATOM     54  H   UNL A   1      39.835  18.220  25.821  1.00  0.00     0.163 HD
ATOM     55  O   UNL A   1      42.238  18.401  25.892  1.00  0.00    -0.269 OA
BRANCH  53  56
ATOM     56  C   UNL A   1      42.013  20.677  26.404  1.00  0.00     0.039 A 
ATOM     57  C   UNL A   1      42.272  21.574  25.363  1.00  0.00    -0.049 A 
ATOM     58  C   UNL A   1      42.301  21.039  27.725  1.00  0.00    -0.049 A 
ATOM     59  C   UNL A   1      42.768  22.848  25.648  1.00  0.00    -0.053 A 
ATOM     60  H   UNL A   1      42.099  21.295  24.385  1.00  0.00     0.063 H 
ATOM     61  C   UNL A   1      42.737  22.331  28.014  1.00  0.00    -0.053 A 
ATOM     62  H   UNL A   1      42.190  20.349  28.485  1.00  0.00     0.063 H 
ATOM     63  C   UNL A   1      42.979  23.247  26.979  1.00  0.00    -0.014 A 
ATOM     64  H   UNL A   1      42.981  23.501  24.877  1.00  0.00     0.063 H 
ATOM     65  H   UNL A   1      42.882  22.616  28.994  1.00  0.00     0.063 H 
BRANCH  63  66
ATOM     66  C   UNL A   1      43.446  24.620  27.296  1.00  0.00     0.031 A 
ATOM     67  C   UNL A   1      42.496  25.636  27.863  1.00  0.00     0.074 A 
ATOM     68  C   UNL A   1      44.717  24.968  27.021  1.00  0.00     0.049 A 
ATOM     69  N   UNL A   1      42.711  26.891  28.168  1.00  0.00    -0.248 NA
ATOM     70  C   UNL A   1      41.113  25.192  28.092  1.00  0.00    -0.034 C 
ATOM     71  C   UNL A   1      45.721  24.089  26.419  1.00  0.00    -0.036 A 
ATOM     72  N   UNL A   1      45.380  26.156  27.204  1.00  0.00    -0.354 N 
ATOM     73  C   UNL A   1      41.491  27.388  28.610  1.00  0.00     0.074 A 
ATOM     74  C   UNL A   1      40.530  26.313  28.489  1.00  0.00    -0.034 C 
ATOM     75  H   UNL A   1      40.703  24.252  27.974  1.00  0.00     0.065 H 
ATOM     76  C   UNL A   1      46.877  24.761  26.299  1.00  0.00    -0.036 A 
ATOM     77  H   UNL A   1      45.565  23.110  26.131  1.00  0.00     0.065 H 
ATOM     78  C   UNL A   1      46.690  26.123  26.790  1.00  0.00     0.049 A 
ATOM     79  H   UNL A   1      44.957  26.955  27.593  1.00  0.00     0.167 HD
ATOM     80  C   UNL A   1      41.206  28.622  29.093  1.00  0.00     0.037 A 
ATOM     81  H   UNL A   1      39.521  26.409  28.686  1.00  0.00     0.065 H 
ATOM     82  H   UNL A   1      47.757  24.376  25.920  1.00  0.00     0.065 H 
ATOM     83  C   UNL A   1      47.633  27.084  26.806  1.00  0.00     0.037 A 
ATOM     84  C   UNL A   1      42.170  29.680  29.240  1.00  0.00     0.049 A 
ATOM     85  C   UNL A   1      47.297  28.437  27.368  1.00  0.00     0.074 A 
ATOM     86  C   UNL A   1      41.995  30.940  29.787  1.00  0.00    -0.036 A 
ATOM     87  N   UNL A   1      43.496  29.601  28.837  1.00  0.00    -0.354 N 
ATOM     88  N   UNL A   1      46.159  28.871  27.854  1.00  0.00    -0.248 NA
ATOM     89  C   UNL A   1      48.379  29.430  27.396  1.00  0.00    -0.034 C 
ATOM     90  C   UNL A   1      43.203  31.637  29.678  1.00  0.00    -0.036 A 
ATOM     91  H   UNL A   1      41.123  31.301  30.204  1.00  0.00     0.065 H 
ATOM     92  C   UNL A   1      44.143  30.797  29.102  1.00  0.00     0.049 A 
ATOM     93  H   UNL A   1      43.914  28.813  28.422  1.00  0.00     0.167 HD
ATOM     94  C   UNL A   1      46.393  30.177  28.263  1.00  0.00     0.074 A 
ATOM     95  C   UNL A   1      47.786  30.459  27.984  1.00  0.00    -0.034 C 
ATOM     96  H   UNL A   1      49.347  29.348  27.047  1.00  0.00     0.065 H 
ATOM     97  H   UNL A   1      43.365  32.612  29.975  1.00  0.00     0.065 H 
ATOM     98  C   UNL A   1      45.530  31.064  28.818  1.00  0.00     0.037 A 
ATOM     99  H   UNL A   1      48.257  31.347  28.215  1.00  0.00     0.065 H 
BRANCH  80 100
ATOM    100  C   UNL A   1      39.787  28.893  29.499  1.00  0.00     0.064 A 
ATOM    101  C   UNL A   1      38.847  29.409  28.593  1.00  0.00     0.173 A 
ATOM    102  C   UNL A   1      39.352  28.608  30.803  1.00  0.00     0.173 A 
ATOM    103  F   UNL A   1      39.215  29.710  27.338  1.00  0.00    -0.203 F 
ATOM    104  C   UNL A   1      37.535  29.657  28.984  1.00  0.00     0.198 A 
ATOM    105  C   UNL A   1      38.031  28.830  31.183  1.00  0.00     0.198 A 
ATOM    106  F   UNL A   1      40.208  28.109  31.707  1.00  0.00    -0.203 F 
ATOM    107  F   UNL A   1      36.668  30.195  28.115  1.00  0.00    -0.200 F 
ATOM    108  C   UNL A   1      37.126  29.361  30.276  1.00  0.00     0.200 A 
ATOM    109  F   UNL A   1      37.635  28.534  32.428  1.00  0.00    -0.200 F 
ATOM    110  F   UNL A   1      35.860  29.597  30.650  1.00  0.00    -0.200 F 
ENDBRANCH  80 100
BRANCH  83 111
ATOM    111  C   UNL A   1      48.996  26.784  26.301  1.00  0.00     0.064 A 
ATOM    112  C   UNL A   1      49.335  27.024  24.963  1.00  0.00     0.173 A 
ATOM    113  C   UNL A   1      49.988  26.263  27.143  1.00  0.00     0.173 A 
ATOM    114  F   UNL A   1      48.411  27.503  24.115  1.00  0.00    -0.203 F 
ATOM    115  C   UNL A   1      50.610  26.742  24.481  1.00  0.00     0.198 A 
ATOM    116  C   UNL A   1      51.271  26.004  26.667  1.00  0.00     0.198 A 
ATOM    117  F   UNL A   1      49.715  26.021  28.434  1.00  0.00    -0.203 F 
ATOM    118  F   UNL A   1      50.897  26.946  23.188  1.00  0.00    -0.200 F 
ATOM    119  C   UNL A   1      51.580  26.237  25.336  1.00  0.00     0.200 A 
ATOM    120  F   UNL A   1      52.209  25.529  27.498  1.00  0.00    -0.200 F 
ATOM    121  F   UNL A   1      52.809  25.972  24.874  1.00  0.00    -0.200 F 
ENDBRANCH  83 111
BRANCH  98 122
ATOM    122  C   UNL A   1      46.075  32.414  29.178  1.00  0.00     0.064 A 
ATOM    123  C   UNL A   1      46.657  32.661  30.430  1.00  0.00     0.173 A 
ATOM    124  C   UNL A   1      46.041  33.465  28.249  1.00  0.00     0.173 A 
ATOM    125  F   UNL A   1      46.697  31.693  31.358  1.00  0.00    -0.203 F 
ATOM    126  C   UNL A   1      47.159  33.919  30.749  1.00  0.00     0.198 A 
ATOM    127  C   UNL A   1      46.569  34.714  28.561  1.00  0.00     0.198 A 
ATOM    128  F   UNL A   1      45.501  33.278  27.035  1.00  0.00    -0.203 F 
ATOM    129  F   UNL A   1      47.667  34.147  31.968  1.00  0.00    -0.200 F 
ATOM    130  C   UNL A   1      47.121  34.943  29.813  1.00  0.00     0.200 A 
ATOM    131  F   UNL A   1      46.540  35.699  27.652  1.00  0.00    -0.200 F 
ATOM    132  F   UNL A   1      47.607  36.153  30.121  1.00  0.00    -0.200 F 
ENDBRANCH  98 122
ENDBRANCH  63  66
ENDBRANCH  53  56
ENDBRANCH  49  52
ENDBRANCH  46  49
ENDBRANCH  43  46
ENDBRANCH  40  43
ENDBRANCH   1  40
TORSDOF 19
ENDMDL
MODEL 7
REMARK VINA RESULT:     -10.5      4.111      7.842
REMARK SMILES CC(C)Cc1ccc([C@H](CF)C(=O)NCCCCCCNC(=O)c2ccc(-c3c4nc(c(-c5c(F)c(F)c(F)c(F)c5F)c5ccc([nH]5)c(-c5c(F)c(F)c(F)c(F)c5F)c5nc(c(-c6c(F)c(F)c(F)c(F)c6F)c6ccc3[nH]6)C=C5)C=C4)cc2)cc1
REMARK SMILES IDX 16 1 15 4 14 7 12 8 13 9 9 11 8 13 5 14 6 15 88 16 7 17
REMARK SMILES IDX 87 19 4 23 2 26 1 28 3 32 10 36 11 37 17 40 18 43 19 46
REMARK SMILES IDX 20 49 21 52 22 53 23 55 24 56 25 57 86 58 26 59 85 61 27 63
REMARK SMILES IDX 28 66 29 67 79 68 30 69 84 70 78 71 80 72 31 73 83 74 77 76
REMARK SMILES IDX 76 78 32 80 64 83 44 84 63 85 45 86 48 87 62 88 81 89 46 90
REMARK SMILES IDX 47 92 61 94 82 95 49 98 33 100 34 101 42 102 35 103 36 104
REMARK SMILES IDX 40 105 43 106 37 107 38 108 41 109 39 110 65 111 66 112
REMARK SMILES IDX 74 113 67 114 68 115 72 116 75 117 69 118 70 119 73 120
REMARK SMILES IDX 71 121 50 122 51 123 59 124 52 125 53 126 57 127 60 128
REMARK SMILES IDX 54 129 55 130 58 131 56 132
REMARK H PARENT 16 2 16 3 15 5 15 6 14 10 9 12 6 18 88 20 7 21 87 22 4 24 4 25
REMARK H PARENT 2 27 1 29 1 30 1 31 3 33 3 34 3 35 10 38 10 39 17 41 17 42
REMARK H PARENT 18 44 18 45 19 47 19 48 20 50 20 51 21 54 25 60 86 62 26 64
REMARK H PARENT 85 65 84 75 78 77 80 79 83 81 77 82 45 91 48 93 81 96 46 97
REMARK H PARENT 82 99
REMARK Flexibility Score: inf
ROOT
ATOM      1  C   UNL A   1      32.413  22.317  24.557  1.00  0.00    -0.036 C 
ATOM      2  H   UNL A   1      31.844  21.639  25.158  1.00  0.00     0.028 H 
ATOM      3  H   UNL A   1      32.797  23.149  25.111  1.00  0.00     0.028 H 
ENDROOT
BRANCH   1   4
ATOM      4  C   UNL A   1      31.488  22.898  23.491  1.00  0.00     0.017 C 
ATOM      5  H   UNL A   1      30.967  22.097  23.009  1.00  0.00     0.049 H 
ATOM      6  H   UNL A   1      30.804  23.567  23.970  1.00  0.00     0.049 H 
BRANCH   4   7
ATOM      7  N   UNL A   1      32.228  23.647  22.492  1.00  0.00    -0.355 N 
ATOM      8  C   UNL A   1      32.777  24.895  22.548  1.00  0.00     0.230 C 
ATOM      9  O   UNL A   1      33.416  25.277  21.563  1.00  0.00    -0.274 OA
ATOM     10  H   UNL A   1      32.356  23.179  21.636  1.00  0.00     0.163 HD
BRANCH   8  11
ATOM     11  C   UNL A   1      32.600  25.809  23.763  1.00  0.00     0.091 C 
ATOM     12  H   UNL A   1      32.246  25.283  24.624  1.00  0.00     0.048 H 
BRANCH  11  13
ATOM     13  C   UNL A   1      31.464  26.806  23.563  1.00  0.00    -0.033 A 
ATOM     14  C   UNL A   1      29.249  28.459  22.976  1.00  0.00    -0.048 A 
ATOM     15  C   UNL A   1      29.056  27.191  23.529  1.00  0.00    -0.059 A 
ATOM     16  C   UNL A   1      30.555  28.924  22.789  1.00  0.00    -0.059 A 
ATOM     17  C   UNL A   1      30.150  26.374  23.816  1.00  0.00    -0.058 A 
ATOM     18  H   UNL A   1      28.100  26.856  23.725  1.00  0.00     0.063 H 
ATOM     19  C   UNL A   1      31.652  28.114  23.099  1.00  0.00    -0.058 A 
ATOM     20  H   UNL A   1      30.711  29.875  22.418  1.00  0.00     0.063 H 
ATOM     21  H   UNL A   1      29.992  25.439  24.221  1.00  0.00     0.063 H 
ATOM     22  H   UNL A   1      32.610  28.483  22.985  1.00  0.00     0.063 H 
BRANCH  14  23
ATOM     23  C   UNL A   1      28.065  29.290  22.543  1.00  0.00    -0.026 C 
ATOM     24  H   UNL A   1      27.729  28.934  21.591  1.00  0.00     0.032 H 
ATOM     25  H   UNL A   1      27.311  29.192  23.296  1.00  0.00     0.032 H 
BRANCH  23  26
ATOM     26  C   UNL A   1      28.396  30.793  22.414  1.00  0.00    -0.043 C 
ATOM     27  H   UNL A   1      29.454  30.894  22.541  1.00  0.00     0.030 H 
BRANCH  26  28
ATOM     28  C   UNL A   1      28.039  31.356  21.034  1.00  0.00    -0.062 C 
ATOM     29  H   UNL A   1      27.245  30.779  20.608  1.00  0.00     0.023 H 
ATOM     30  H   UNL A   1      28.898  31.308  20.397  1.00  0.00     0.023 H 
ATOM     31  H   UNL A   1      27.726  32.374  21.135  1.00  0.00     0.023 H 
ENDBRANCH  26  28
BRANCH  26  32
ATOM     32  C   UNL A   1      27.655  31.583  23.495  1.00  0.00    -0.062 C 
ATOM     33  H   UNL A   1      28.167  32.504  23.677  1.00  0.00     0.023 H 
ATOM     34  H   UNL A   1      27.621  31.008  24.397  1.00  0.00     0.023 H 
ATOM     35  H   UNL A   1      26.658  31.789  23.165  1.00  0.00     0.023 H 
ENDBRANCH  26  32
ENDBRANCH  23  26
ENDBRANCH  14  23
ENDBRANCH  11  13
BRANCH  11  36
ATOM     36  C   UNL A   1      33.973  26.332  24.176  1.00  0.00     0.105 C 
ATOM     37  F   UNL A   1      34.030  26.446  25.533  1.00  0.00    -0.250 F 
ATOM     38  H   UNL A   1      34.137  27.292  23.731  1.00  0.00     0.064 H 
ATOM     39  H   UNL A   1      34.728  25.650  23.845  1.00  0.00     0.064 H 
ENDBRANCH  11  36
ENDBRANCH   8  11
ENDBRANCH   4   7
ENDBRANCH   1   4
BRANCH   1  40
ATOM     40  C   UNL A   1      33.628  21.565  24.008  1.00  0.00    -0.052 C 
ATOM     41  H   UNL A   1      33.728  21.812  22.972  1.00  0.00     0.027 H 
ATOM     42  H   UNL A   1      33.438  20.527  24.186  1.00  0.00     0.027 H 
BRANCH  40  43
ATOM     43  C   UNL A   1      34.961  21.874  24.698  1.00  0.00    -0.052 C 
ATOM     44  H   UNL A   1      35.622  21.051  24.519  1.00  0.00     0.027 H 
ATOM     45  H   UNL A   1      34.727  22.026  25.731  1.00  0.00     0.027 H 
BRANCH  43  46
ATOM     46  C   UNL A   1      35.667  23.153  24.237  1.00  0.00    -0.036 C 
ATOM     47  H   UNL A   1      34.923  23.912  24.108  1.00  0.00     0.028 H 
ATOM     48  H   UNL A   1      36.181  22.897  23.335  1.00  0.00     0.028 H 
BRANCH  46  49
ATOM     49  C   UNL A   1      36.730  23.693  25.190  1.00  0.00     0.018 C 
ATOM     50  H   UNL A   1      36.252  24.005  26.095  1.00  0.00     0.049 H 
ATOM     51  H   UNL A   1      37.218  24.509  24.700  1.00  0.00     0.049 H 
BRANCH  49  52
ATOM     52  N   UNL A   1      37.744  22.704  25.516  1.00  0.00    -0.352 N 
ATOM     53  C   UNL A   1      38.955  22.864  26.135  1.00  0.00     0.251 C 
ATOM     54  H   UNL A   1      37.527  21.781  25.252  1.00  0.00     0.163 HD
ATOM     55  O   UNL A   1      39.745  21.921  26.189  1.00  0.00    -0.269 OA
BRANCH  53  56
ATOM     56  C   UNL A   1      39.338  24.167  26.719  1.00  0.00     0.039 A 
ATOM     57  C   UNL A   1      38.957  24.447  28.036  1.00  0.00    -0.049 A 
ATOM     58  C   UNL A   1      40.038  25.124  25.976  1.00  0.00    -0.049 A 
ATOM     59  C   UNL A   1      39.323  25.660  28.623  1.00  0.00    -0.053 A 
ATOM     60  H   UNL A   1      38.407  23.759  28.572  1.00  0.00     0.063 H 
ATOM     61  C   UNL A   1      40.455  26.308  26.583  1.00  0.00    -0.053 A 
ATOM     62  H   UNL A   1      40.245  24.953  24.980  1.00  0.00     0.063 H 
ATOM     63  C   UNL A   1      40.099  26.589  27.911  1.00  0.00    -0.014 A 
ATOM     64  H   UNL A   1      39.022  25.875  29.587  1.00  0.00     0.063 H 
ATOM     65  H   UNL A   1      41.030  26.980  26.053  1.00  0.00     0.063 H 
BRANCH  63  66
ATOM     66  C   UNL A   1      40.546  27.854  28.547  1.00  0.00     0.031 A 
ATOM     67  C   UNL A   1      41.977  28.030  28.970  1.00  0.00     0.074 A 
ATOM     68  C   UNL A   1      39.647  28.825  28.794  1.00  0.00     0.049 A 
ATOM     69  N   UNL A   1      42.543  29.046  29.572  1.00  0.00    -0.248 NA
ATOM     70  C   UNL A   1      42.886  26.905  28.707  1.00  0.00    -0.034 C 
ATOM     71  C   UNL A   1      38.219  28.753  28.482  1.00  0.00    -0.036 A 
ATOM     72  N   UNL A   1      39.800  30.061  29.372  1.00  0.00    -0.354 N 
ATOM     73  C   UNL A   1      43.868  28.677  29.771  1.00  0.00     0.074 A 
ATOM     74  C   UNL A   1      44.009  27.327  29.269  1.00  0.00    -0.034 C 
ATOM     75  H   UNL A   1      42.700  26.018  28.213  1.00  0.00     0.065 H 
ATOM     76  C   UNL A   1      37.630  29.900  28.855  1.00  0.00    -0.036 A 
ATOM     77  H   UNL A   1      37.741  27.948  28.046  1.00  0.00     0.065 H 
ATOM     78  C   UNL A   1      38.630  30.777  29.455  1.00  0.00     0.049 A 
ATOM     79  H   UNL A   1      40.664  30.400  29.698  1.00  0.00     0.167 HD
ATOM     80  C   UNL A   1      44.877  29.407  30.305  1.00  0.00     0.037 A 
ATOM     81  H   UNL A   1      44.872  26.766  29.341  1.00  0.00     0.065 H 
ATOM     82  H   UNL A   1      36.629  30.126  28.736  1.00  0.00     0.065 H 
ATOM     83  C   UNL A   1      38.394  32.003  29.957  1.00  0.00     0.037 A 
ATOM     84  C   UNL A   1      44.741  30.760  30.776  1.00  0.00     0.049 A 
ATOM     85  C   UNL A   1      39.535  32.801  30.522  1.00  0.00     0.074 A 
ATOM     86  C   UNL A   1      45.720  31.608  31.265  1.00  0.00    -0.036 A 
ATOM     87  N   UNL A   1      43.546  31.464  30.818  1.00  0.00    -0.354 N 
ATOM     88  N   UNL A   1      40.799  32.471  30.636  1.00  0.00    -0.248 NA
ATOM     89  C   UNL A   1      39.220  34.148  31.019  1.00  0.00    -0.034 C 
ATOM     90  C   UNL A   1      45.111  32.811  31.640  1.00  0.00    -0.036 A 
ATOM     91  H   UNL A   1      46.725  31.389  31.340  1.00  0.00     0.065 H 
ATOM     92  C   UNL A   1      43.759  32.728  31.344  1.00  0.00     0.049 A 
ATOM     93  H   UNL A   1      42.675  31.117  30.519  1.00  0.00     0.167 HD
ATOM     94  C   UNL A   1      41.432  33.572  31.195  1.00  0.00     0.074 A 
ATOM     95  C   UNL A   1      40.416  34.588  31.382  1.00  0.00    -0.034 C 
ATOM     96  H   UNL A   1      38.307  34.626  31.071  1.00  0.00     0.065 H 
ATOM     97  H   UNL A   1      45.587  33.621  32.065  1.00  0.00     0.065 H 
ATOM     98  C   UNL A   1      42.738  33.727  31.526  1.00  0.00     0.037 A 
ATOM     99  H   UNL A   1      40.601  35.534  31.751  1.00  0.00     0.065 H 
BRANCH  80 100
ATOM    100  C   UNL A   1      46.224  28.752  30.406  1.00  0.00     0.064 A 
ATOM    101  C   UNL A   1      47.159  28.828  29.363  1.00  0.00     0.173 A 
ATOM    102  C   UNL A   1      46.596  28.064  31.572  1.00  0.00     0.173 A 
ATOM    103  F   UNL A   1      46.849  29.465  28.223  1.00  0.00    -0.203 F 
ATOM    104  C   UNL A   1      48.404  28.215  29.470  1.00  0.00     0.198 A 
ATOM    105  C   UNL A   1      47.853  27.477  31.687  1.00  0.00     0.198 A 
ATOM    106  F   UNL A   1      45.742  27.966  32.601  1.00  0.00    -0.203 F 
ATOM    107  F   UNL A   1      49.262  28.260  28.442  1.00  0.00    -0.200 F 
ATOM    108  C   UNL A   1      48.753  27.546  30.634  1.00  0.00     0.200 A 
ATOM    109  F   UNL A   1      48.193  26.840  32.816  1.00  0.00    -0.200 F 
ATOM    110  F   UNL A   1      49.954  26.959  30.737  1.00  0.00    -0.200 F 
ENDBRANCH  80 100
BRANCH  83 111
ATOM    111  C   UNL A   1      37.019  32.562  29.916  1.00  0.00     0.064 A 
ATOM    112  C   UNL A   1      36.146  32.401  31.001  1.00  0.00     0.173 A 
ATOM    113  C   UNL A   1      36.553  33.272  28.801  1.00  0.00     0.173 A 
ATOM    114  F   UNL A   1      36.541  31.710  32.080  1.00  0.00    -0.203 F 
ATOM    115  C   UNL A   1      34.853  32.919  30.967  1.00  0.00     0.198 A 
ATOM    116  C   UNL A   1      35.268  33.811  28.778  1.00  0.00     0.198 A 
ATOM    117  F   UNL A   1      37.352  33.458  27.740  1.00  0.00    -0.203 F 
ATOM    118  F   UNL A   1      34.027  32.719  32.002  1.00  0.00    -0.200 F 
ATOM    119  C   UNL A   1      34.418  33.628  29.858  1.00  0.00     0.200 A 
ATOM    120  F   UNL A   1      34.855  34.508  27.711  1.00  0.00    -0.200 F 
ATOM    121  F   UNL A   1      33.177  34.132  29.828  1.00  0.00    -0.200 F 
ENDBRANCH  83 111
BRANCH  98 122
ATOM    122  C   UNL A   1      43.144  35.051  32.105  1.00  0.00     0.064 A 
ATOM    123  C   UNL A   1      43.109  35.289  33.487  1.00  0.00     0.173 A 
ATOM    124  C   UNL A   1      43.598  36.082  31.270  1.00  0.00     0.173 A 
ATOM    125  F   UNL A   1      42.665  34.339  34.324  1.00  0.00    -0.203 F 
ATOM    126  C   UNL A   1      43.489  36.522  34.009  1.00  0.00     0.198 A 
ATOM    127  C   UNL A   1      44.003  37.305  31.798  1.00  0.00     0.198 A 
ATOM    128  F   UNL A   1      43.656  35.902  29.941  1.00  0.00    -0.203 F 
ATOM    129  F   UNL A   1      43.402  36.745  35.328  1.00  0.00    -0.200 F 
ATOM    130  C   UNL A   1      43.942  37.527  33.166  1.00  0.00     0.200 A 
ATOM    131  F   UNL A   1      44.450  38.270  30.983  1.00  0.00    -0.200 F 
ATOM    132  F   UNL A   1      44.309  38.712  33.671  1.00  0.00    -0.200 F 
ENDBRANCH  98 122
ENDBRANCH  63  66
ENDBRANCH  53  56
ENDBRANCH  49  52
ENDBRANCH  46  49
ENDBRANCH  43  46
ENDBRANCH  40  43
ENDBRANCH   1  40
TORSDOF 19
ENDMDL
MODEL 8
REMARK VINA RESULT:     -10.5      1.964      3.939
REMARK SMILES CC(C)Cc1ccc([C@H](CF)C(=O)NCCCCCCNC(=O)c2ccc(-c3c4nc(c(-c5c(F)c(F)c(F)c(F)c5F)c5ccc([nH]5)c(-c5c(F)c(F)c(F)c(F)c5F)c5nc(c(-c6c(F)c(F)c(F)c(F)c6F)c6ccc3[nH]6)C=C5)C=C4)cc2)cc1
REMARK SMILES IDX 16 1 15 4 14 7 12 8 13 9 9 11 8 13 5 14 6 15 88 16 7 17
REMARK SMILES IDX 87 19 4 23 2 26 1 28 3 32 10 36 11 37 17 40 18 43 19 46
REMARK SMILES IDX 20 49 21 52 22 53 23 55 24 56 25 57 86 58 26 59 85 61 27 63
REMARK SMILES IDX 28 66 29 67 79 68 30 69 84 70 78 71 80 72 31 73 83 74 77 76
REMARK SMILES IDX 76 78 32 80 64 83 44 84 63 85 45 86 48 87 62 88 81 89 46 90
REMARK SMILES IDX 47 92 61 94 82 95 49 98 33 100 34 101 42 102 35 103 36 104
REMARK SMILES IDX 40 105 43 106 37 107 38 108 41 109 39 110 65 111 66 112
REMARK SMILES IDX 74 113 67 114 68 115 72 116 75 117 69 118 70 119 73 120
REMARK SMILES IDX 71 121 50 122 51 123 59 124 52 125 53 126 57 127 60 128
REMARK SMILES IDX 54 129 55 130 58 131 56 132
REMARK H PARENT 16 2 16 3 15 5 15 6 14 10 9 12 6 18 88 20 7 21 87 22 4 24 4 25
REMARK H PARENT 2 27 1 29 1 30 1 31 3 33 3 34 3 35 10 38 10 39 17 41 17 42
REMARK H PARENT 18 44 18 45 19 47 19 48 20 50 20 51 21 54 25 60 86 62 26 64
REMARK H PARENT 85 65 84 75 78 77 80 79 83 81 77 82 45 91 48 93 81 96 46 97
REMARK H PARENT 82 99
REMARK Flexibility Score: inf
ROOT
ATOM      1  C   UNL A   1      31.767  28.499  26.748  1.00  0.00    -0.036 C 
ATOM      2  H   UNL A   1      31.183  28.470  27.643  1.00  0.00     0.028 H 
ATOM      3  H   UNL A   1      31.195  28.292  25.867  1.00  0.00     0.028 H 
ENDROOT
BRANCH   1   4
ATOM      4  C   UNL A   1      32.831  27.409  26.838  1.00  0.00     0.017 C 
ATOM      5  H   UNL A   1      33.671  27.788  27.383  1.00  0.00     0.049 H 
ATOM      6  H   UNL A   1      32.403  26.563  27.335  1.00  0.00     0.049 H 
BRANCH   4   7
ATOM      7  N   UNL A   1      33.275  26.984  25.523  1.00  0.00    -0.355 N 
ATOM      8  C   UNL A   1      33.026  25.834  24.834  1.00  0.00     0.230 C 
ATOM      9  O   UNL A   1      33.484  25.749  23.690  1.00  0.00    -0.274 OA
ATOM     10  H   UNL A   1      33.847  27.631  25.052  1.00  0.00     0.163 HD
BRANCH   8  11
ATOM     11  C   UNL A   1      32.233  24.674  25.443  1.00  0.00     0.091 C 
ATOM     12  H   UNL A   1      32.264  24.673  26.512  1.00  0.00     0.048 H 
BRANCH  11  13
ATOM     13  C   UNL A   1      32.883  23.327  25.148  1.00  0.00    -0.033 A 
ATOM     14  C   UNL A   1      33.840  20.699  24.740  1.00  0.00    -0.048 A 
ATOM     15  C   UNL A   1      32.668  21.129  24.113  1.00  0.00    -0.059 A 
ATOM     16  C   UNL A   1      34.569  21.612  25.510  1.00  0.00    -0.059 A 
ATOM     17  C   UNL A   1      32.195  22.425  24.317  1.00  0.00    -0.058 A 
ATOM     18  H   UNL A   1      32.150  20.484  23.496  1.00  0.00     0.063 H 
ATOM     19  C   UNL A   1      34.106  22.919  25.695  1.00  0.00    -0.058 A 
ATOM     20  H   UNL A   1      35.457  21.319  25.947  1.00  0.00     0.063 H 
ATOM     21  H   UNL A   1      31.326  22.728  23.849  1.00  0.00     0.063 H 
ATOM     22  H   UNL A   1      34.671  23.589  26.240  1.00  0.00     0.063 H 
BRANCH  14  23
ATOM     23  C   UNL A   1      34.282  19.260  24.626  1.00  0.00    -0.026 C 
ATOM     24  H   UNL A   1      35.092  19.206  23.928  1.00  0.00     0.032 H 
ATOM     25  H   UNL A   1      34.575  18.937  25.604  1.00  0.00     0.032 H 
BRANCH  23  26
ATOM     26  C   UNL A   1      33.157  18.318  24.146  1.00  0.00    -0.043 C 
ATOM     27  H   UNL A   1      32.425  18.927  23.657  1.00  0.00     0.030 H 
BRANCH  26  28
ATOM     28  C   UNL A   1      33.652  17.284  23.130  1.00  0.00    -0.062 C 
ATOM     29  H   UNL A   1      33.744  16.330  23.607  1.00  0.00     0.023 H 
ATOM     30  H   UNL A   1      34.606  17.586  22.749  1.00  0.00     0.023 H 
ATOM     31  H   UNL A   1      32.952  17.213  22.323  1.00  0.00     0.023 H 
ENDBRANCH  26  28
BRANCH  26  32
ATOM     32  C   UNL A   1      32.534  17.599  25.344  1.00  0.00    -0.062 C 
ATOM     33  H   UNL A   1      31.480  17.780  25.360  1.00  0.00     0.023 H 
ATOM     34  H   UNL A   1      32.974  17.966  26.248  1.00  0.00     0.023 H 
ATOM     35  H   UNL A   1      32.714  16.547  25.262  1.00  0.00     0.023 H 
ENDBRANCH  26  32
ENDBRANCH  23  26
ENDBRANCH  14  23
ENDBRANCH  11  13
BRANCH  11  36
ATOM     36  C   UNL A   1      30.758  24.868  25.105  1.00  0.00     0.105 C 
ATOM     37  F   UNL A   1      30.026  24.901  26.254  1.00  0.00    -0.250 F 
ATOM     38  H   UNL A   1      30.423  24.058  24.492  1.00  0.00     0.064 H 
ATOM     39  H   UNL A   1      30.632  25.792  24.578  1.00  0.00     0.064 H 
ENDBRANCH  11  36
ENDBRANCH   8  11
ENDBRANCH   4   7
ENDBRANCH   1   4
BRANCH   1  40
ATOM     40  C   UNL A   1      32.318  29.918  26.581  1.00  0.00    -0.052 C 
ATOM     41  H   UNL A   1      33.239  29.852  26.041  1.00  0.00     0.027 H 
ATOM     42  H   UNL A   1      32.428  30.309  27.572  1.00  0.00     0.027 H 
BRANCH  40  43
ATOM     43  C   UNL A   1      31.403  30.898  25.839  1.00  0.00    -0.052 C 
ATOM     44  H   UNL A   1      30.439  30.440  25.745  1.00  0.00     0.027 H 
ATOM     45  H   UNL A   1      31.883  31.094  24.904  1.00  0.00     0.027 H 
BRANCH  43  46
ATOM     46  C   UNL A   1      31.212  32.263  26.506  1.00  0.00    -0.036 C 
ATOM     47  H   UNL A   1      30.418  32.175  27.218  1.00  0.00     0.028 H 
ATOM     48  H   UNL A   1      31.004  32.951  25.713  1.00  0.00     0.028 H 
BRANCH  46  49
ATOM     49  C   UNL A   1      32.437  32.814  27.232  1.00  0.00     0.018 C 
ATOM     50  H   UNL A   1      33.283  32.742  26.580  1.00  0.00     0.049 H 
ATOM     51  H   UNL A   1      32.573  32.235  28.121  1.00  0.00     0.049 H 
BRANCH  49  52
ATOM     52  N   UNL A   1      32.273  34.202  27.631  1.00  0.00    -0.352 N 
ATOM     53  C   UNL A   1      32.939  34.921  28.588  1.00  0.00     0.251 C 
ATOM     54  H   UNL A   1      31.580  34.699  27.140  1.00  0.00     0.163 HD
ATOM     55  O   UNL A   1      32.552  36.053  28.882  1.00  0.00    -0.269 OA
BRANCH  53  56
ATOM     56  C   UNL A   1      34.104  34.345  29.291  1.00  0.00     0.039 A 
ATOM     57  C   UNL A   1      33.894  33.683  30.505  1.00  0.00    -0.049 A 
ATOM     58  C   UNL A   1      35.402  34.477  28.784  1.00  0.00    -0.049 A 
ATOM     59  C   UNL A   1      34.971  33.109  31.182  1.00  0.00    -0.053 A 
ATOM     60  H   UNL A   1      32.943  33.619  30.900  1.00  0.00     0.063 H 
ATOM     61  C   UNL A   1      36.468  33.852  29.429  1.00  0.00    -0.053 A 
ATOM     62  H   UNL A   1      35.569  35.037  27.934  1.00  0.00     0.063 H 
ATOM     63  C   UNL A   1      36.264  33.165  30.636  1.00  0.00    -0.014 A 
ATOM     64  H   UNL A   1      34.818  32.641  32.089  1.00  0.00     0.063 H 
ATOM     65  H   UNL A   1      37.412  33.894  29.016  1.00  0.00     0.063 H 
BRANCH  63  66
ATOM     66  C   UNL A   1      37.407  32.505  31.316  1.00  0.00     0.031 A 
ATOM     67  C   UNL A   1      38.130  31.365  30.658  1.00  0.00     0.074 A 
ATOM     68  C   UNL A   1      37.758  32.898  32.555  1.00  0.00     0.049 A 
ATOM     69  N   UNL A   1      39.124  30.643  31.111  1.00  0.00    -0.248 NA
ATOM     70  C   UNL A   1      37.657  30.965  29.324  1.00  0.00    -0.034 C 
ATOM     71  C   UNL A   1      37.098  33.956  33.323  1.00  0.00    -0.036 A 
ATOM     72  N   UNL A   1      38.751  32.449  33.389  1.00  0.00    -0.354 N 
ATOM     73  C   UNL A   1      39.384  29.697  30.127  1.00  0.00     0.074 A 
ATOM     74  C   UNL A   1      38.414  29.906  29.074  1.00  0.00    -0.034 C 
ATOM     75  H   UNL A   1      36.926  31.395  28.736  1.00  0.00     0.065 H 
ATOM     76  C   UNL A   1      37.716  34.087  34.508  1.00  0.00    -0.036 A 
ATOM     77  H   UNL A   1      36.288  34.510  33.005  1.00  0.00     0.065 H 
ATOM     78  C   UNL A   1      38.795  33.108  34.594  1.00  0.00     0.049 A 
ATOM     79  H   UNL A   1      39.371  31.724  33.148  1.00  0.00     0.167 HD
ATOM     80  C   UNL A   1      40.357  28.754  30.098  1.00  0.00     0.037 A 
ATOM     81  H   UNL A   1      38.323  29.309  28.238  1.00  0.00     0.065 H 
ATOM     82  H   UNL A   1      37.467  34.770  35.240  1.00  0.00     0.065 H 
ATOM     83  C   UNL A   1      39.615  32.940  35.649  1.00  0.00     0.037 A 
ATOM     84  C   UNL A   1      41.340  28.567  31.132  1.00  0.00     0.049 A 
ATOM     85  C   UNL A   1      40.701  31.904  35.581  1.00  0.00     0.074 A 
ATOM     86  C   UNL A   1      42.410  27.689  31.160  1.00  0.00    -0.036 A 
ATOM     87  N   UNL A   1      41.371  29.272  32.327  1.00  0.00    -0.354 N 
ATOM     88  N   UNL A   1      40.985  31.066  34.613  1.00  0.00    -0.248 NA
ATOM     89  C   UNL A   1      41.589  31.797  36.747  1.00  0.00    -0.034 C 
ATOM     90  C   UNL A   1      43.065  27.835  32.388  1.00  0.00    -0.036 A 
ATOM     91  H   UNL A   1      42.678  27.040  30.404  1.00  0.00     0.065 H 
ATOM     92  C   UNL A   1      42.429  28.834  33.108  1.00  0.00     0.049 A 
ATOM     93  H   UNL A   1      40.736  29.979  32.583  1.00  0.00     0.167 HD
ATOM     94  C   UNL A   1      42.093  30.349  35.043  1.00  0.00     0.074 A 
ATOM     95  C   UNL A   1      42.441  30.862  36.352  1.00  0.00    -0.034 C 
ATOM     96  H   UNL A   1      41.556  32.314  37.640  1.00  0.00     0.065 H 
ATOM     97  H   UNL A   1      43.882  27.290  32.704  1.00  0.00     0.065 H 
ATOM     98  C   UNL A   1      42.762  29.353  34.410  1.00  0.00     0.037 A 
ATOM     99  H   UNL A   1      43.250  30.540  36.906  1.00  0.00     0.065 H 
BRANCH  80 100
ATOM    100  C   UNL A   1      40.407  27.850  28.900  1.00  0.00     0.064 A 
ATOM    101  C   UNL A   1      39.696  26.642  28.860  1.00  0.00     0.173 A 
ATOM    102  C   UNL A   1      41.152  28.210  27.766  1.00  0.00     0.173 A 
ATOM    103  F   UNL A   1      38.977  26.246  29.923  1.00  0.00    -0.203 F 
ATOM    104  C   UNL A   1      39.752  25.813  27.743  1.00  0.00     0.198 A 
ATOM    105  C   UNL A   1      41.183  27.393  26.640  1.00  0.00     0.198 A 
ATOM    106  F   UNL A   1      41.846  29.358  27.749  1.00  0.00    -0.203 F 
ATOM    107  F   UNL A   1      39.103  24.640  27.748  1.00  0.00    -0.200 F 
ATOM    108  C   UNL A   1      40.489  26.191  26.632  1.00  0.00     0.200 A 
ATOM    109  F   UNL A   1      41.887  27.765  25.562  1.00  0.00    -0.200 F 
ATOM    110  F   UNL A   1      40.539  25.394  25.556  1.00  0.00    -0.200 F 
ENDBRANCH  80 100
BRANCH  83 111
ATOM    111  C   UNL A   1      39.457  33.802  36.847  1.00  0.00     0.064 A 
ATOM    112  C   UNL A   1      40.064  35.064  36.910  1.00  0.00     0.173 A 
ATOM    113  C   UNL A   1      38.691  33.390  37.946  1.00  0.00     0.173 A 
ATOM    114  F   UNL A   1      40.824  35.491  35.890  1.00  0.00    -0.203 F 
ATOM    115  C   UNL A   1      39.923  35.876  38.032  1.00  0.00     0.198 A 
ATOM    116  C   UNL A   1      38.529  34.214  39.059  1.00  0.00     0.198 A 
ATOM    117  F   UNL A   1      38.085  32.194  37.933  1.00  0.00    -0.203 F 
ATOM    118  F   UNL A   1      40.545  37.062  38.081  1.00  0.00    -0.200 F 
ATOM    119  C   UNL A   1      39.151  35.452  39.103  1.00  0.00     0.200 A 
ATOM    120  F   UNL A   1      37.771  33.808  40.086  1.00  0.00    -0.200 F 
ATOM    121  F   UNL A   1      39.009  36.237  40.180  1.00  0.00    -0.200 F 
ENDBRANCH  83 111
BRANCH  98 122
ATOM    122  C   UNL A   1      43.948  28.768  35.118  1.00  0.00     0.064 A 
ATOM    123  C   UNL A   1      45.230  29.320  34.981  1.00  0.00     0.173 A 
ATOM    124  C   UNL A   1      43.794  27.661  35.966  1.00  0.00     0.173 A 
ATOM    125  F   UNL A   1      45.430  30.368  34.168  1.00  0.00    -0.203 F 
ATOM    126  C   UNL A   1      46.321  28.767  35.645  1.00  0.00     0.198 A 
ATOM    127  C   UNL A   1      44.883  27.127  36.650  1.00  0.00     0.198 A 
ATOM    128  F   UNL A   1      42.587  27.100  36.136  1.00  0.00    -0.203 F 
ATOM    129  F   UNL A   1      47.546  29.279  35.462  1.00  0.00    -0.200 F 
ATOM    130  C   UNL A   1      46.146  27.675  36.484  1.00  0.00     0.200 A 
ATOM    131  F   UNL A   1      44.710  26.080  37.468  1.00  0.00    -0.200 F 
ATOM    132  F   UNL A   1      47.197  27.146  37.125  1.00  0.00    -0.200 F 
ENDBRANCH  98 122
ENDBRANCH  63  66
ENDBRANCH  53  56
ENDBRANCH  49  52
ENDBRANCH  46  49
ENDBRANCH  43  46
ENDBRANCH  40  43
ENDBRANCH   1  40
TORSDOF 19
ENDMDL
MODEL 9
REMARK VINA RESULT:     -10.5      5.737     10.586
REMARK SMILES CC(C)Cc1ccc([C@H](CF)C(=O)NCCCCCCNC(=O)c2ccc(-c3c4nc(c(-c5c(F)c(F)c(F)c(F)c5F)c5ccc([nH]5)c(-c5c(F)c(F)c(F)c(F)c5F)c5nc(c(-c6c(F)c(F)c(F)c(F)c6F)c6ccc3[nH]6)C=C5)C=C4)cc2)cc1
REMARK SMILES IDX 16 1 15 4 14 7 12 8 13 9 9 11 8 13 5 14 6 15 88 16 7 17
REMARK SMILES IDX 87 19 4 23 2 26 1 28 3 32 10 36 11 37 17 40 18 43 19 46
REMARK SMILES IDX 20 49 21 52 22 53 23 55 24 56 25 57 86 58 26 59 85 61 27 63
REMARK SMILES IDX 28 66 29 67 79 68 30 69 84 70 78 71 80 72 31 73 83 74 77 76
REMARK SMILES IDX 76 78 32 80 64 83 44 84 63 85 45 86 48 87 62 88 81 89 46 90
REMARK SMILES IDX 47 92 61 94 82 95 49 98 33 100 34 101 42 102 35 103 36 104
REMARK SMILES IDX 40 105 43 106 37 107 38 108 41 109 39 110 65 111 66 112
REMARK SMILES IDX 74 113 67 114 68 115 72 116 75 117 69 118 70 119 73 120
REMARK SMILES IDX 71 121 50 122 51 123 59 124 52 125 53 126 57 127 60 128
REMARK SMILES IDX 54 129 55 130 58 131 56 132
REMARK H PARENT 16 2 16 3 15 5 15 6 14 10 9 12 6 18 88 20 7 21 87 22 4 24 4 25
REMARK H PARENT 2 27 1 29 1 30 1 31 3 33 3 34 3 35 10 38 10 39 17 41 17 42
REMARK H PARENT 18 44 18 45 19 47 19 48 20 50 20 51 21 54 25 60 86 62 26 64
REMARK H PARENT 85 65 84 75 78 77 80 79 83 81 77 82 45 91 48 93 81 96 46 97
REMARK H PARENT 82 99
REMARK Flexibility Score: inf
ROOT
ATOM      1  C   UNL A   1      43.604  24.195  25.745  1.00  0.00    -0.036 C 
ATOM      2  H   UNL A   1      44.456  23.752  25.272  1.00  0.00     0.028 H 
ATOM      3  H   UNL A   1      42.685  23.705  25.501  1.00  0.00     0.028 H 
ENDROOT
BRANCH   1   4
ATOM      4  C   UNL A   1      43.474  25.631  25.245  1.00  0.00     0.017 C 
ATOM      5  H   UNL A   1      42.685  25.677  24.523  1.00  0.00     0.049 H 
ATOM      6  H   UNL A   1      43.262  26.259  26.085  1.00  0.00     0.049 H 
BRANCH   4   7
ATOM      7  N   UNL A   1      44.703  26.096  24.630  1.00  0.00    -0.355 N 
ATOM      8  C   UNL A   1      45.763  26.767  25.167  1.00  0.00     0.230 C 
ATOM      9  O   UNL A   1      46.723  26.994  24.425  1.00  0.00    -0.274 OA
ATOM     10  H   UNL A   1      44.786  25.895  23.670  1.00  0.00     0.163 HD
BRANCH   8  11
ATOM     11  C   UNL A   1      45.772  27.247  26.620  1.00  0.00     0.091 C 
ATOM     12  H   UNL A   1      44.955  26.853  27.187  1.00  0.00     0.048 H 
BRANCH  11  13
ATOM     13  C   UNL A   1      45.485  28.740  26.727  1.00  0.00    -0.033 A 
ATOM     14  C   UNL A   1      44.759  31.471  26.685  1.00  0.00    -0.048 A 
ATOM     15  C   UNL A   1      43.811  30.493  26.995  1.00  0.00    -0.059 A 
ATOM     16  C   UNL A   1      46.086  31.083  26.470  1.00  0.00    -0.059 A 
ATOM     17  C   UNL A   1      44.170  29.145  27.013  1.00  0.00    -0.058 A 
ATOM     18  H   UNL A   1      42.840  30.769  27.211  1.00  0.00     0.063 H 
ATOM     19  C   UNL A   1      46.450  29.733  26.511  1.00  0.00    -0.058 A 
ATOM     20  H   UNL A   1      46.804  31.799  26.279  1.00  0.00     0.063 H 
ATOM     21  H   UNL A   1      43.458  28.434  27.241  1.00  0.00     0.063 H 
ATOM     22  H   UNL A   1      47.439  29.465  26.382  1.00  0.00     0.063 H 
BRANCH  14  23
ATOM     23  C   UNL A   1      44.344  32.915  26.535  1.00  0.00    -0.026 C 
ATOM     24  H   UNL A   1      45.194  33.482  26.218  1.00  0.00     0.032 H 
ATOM     25  H   UNL A   1      43.551  32.948  25.818  1.00  0.00     0.032 H 
BRANCH  23  26
ATOM     26  C   UNL A   1      43.807  33.528  27.846  1.00  0.00    -0.043 C 
ATOM     27  H   UNL A   1      42.997  32.910  28.175  1.00  0.00     0.030 H 
BRANCH  26  28
ATOM     28  C   UNL A   1      44.859  33.542  28.961  1.00  0.00    -0.062 C 
ATOM     29  H   UNL A   1      45.796  33.203  28.571  1.00  0.00     0.023 H 
ATOM     30  H   UNL A   1      44.547  32.894  29.754  1.00  0.00     0.023 H 
ATOM     31  H   UNL A   1      44.968  34.538  29.337  1.00  0.00     0.023 H 
ENDBRANCH  26  28
BRANCH  26  32
ATOM     32  C   UNL A   1      43.316  34.955  27.591  1.00  0.00    -0.062 C 
ATOM     33  H   UNL A   1      44.153  35.622  27.573  1.00  0.00     0.023 H 
ATOM     34  H   UNL A   1      42.645  35.246  28.372  1.00  0.00     0.023 H 
ATOM     35  H   UNL A   1      42.808  34.994  26.650  1.00  0.00     0.023 H 
ENDBRANCH  26  32
ENDBRANCH  23  26
ENDBRANCH  14  23
ENDBRANCH  11  13
BRANCH  11  36
ATOM     36  C   UNL A   1      47.015  26.686  27.306  1.00  0.00     0.105 C 
ATOM     37  F   UNL A   1      46.670  26.139  28.505  1.00  0.00    -0.250 F 
ATOM     38  H   UNL A   1      47.721  27.475  27.464  1.00  0.00     0.064 H 
ATOM     39  H   UNL A   1      47.454  25.932  26.685  1.00  0.00     0.064 H 
ENDBRANCH  11  36
ENDBRANCH   8  11
ENDBRANCH   4   7
ENDBRANCH   1   4
BRANCH   1  40
ATOM     40  C   UNL A   1      43.777  24.060  27.261  1.00  0.00    -0.052 C 
ATOM     41  H   UNL A   1      43.669  25.032  27.693  1.00  0.00     0.027 H 
ATOM     42  H   UNL A   1      44.745  23.628  27.411  1.00  0.00     0.027 H 
BRANCH  40  43
ATOM     43  C   UNL A   1      42.784  23.121  27.956  1.00  0.00    -0.052 C 
ATOM     44  H   UNL A   1      42.040  23.725  28.433  1.00  0.00     0.027 H 
ATOM     45  H   UNL A   1      43.366  22.533  28.635  1.00  0.00     0.027 H 
BRANCH  43  46
ATOM     46  C   UNL A   1      42.067  22.121  27.045  1.00  0.00    -0.036 C 
ATOM     47  H   UNL A   1      42.689  21.256  26.950  1.00  0.00     0.028 H 
ATOM     48  H   UNL A   1      41.898  22.633  26.121  1.00  0.00     0.028 H 
BRANCH  46  49
ATOM     49  C   UNL A   1      40.694  21.663  27.530  1.00  0.00     0.018 C 
ATOM     50  H   UNL A   1      40.463  22.176  28.440  1.00  0.00     0.049 H 
ATOM     51  H   UNL A   1      40.739  20.604  27.674  1.00  0.00     0.049 H 
BRANCH  49  52
ATOM     52  N   UNL A   1      39.641  21.932  26.564  1.00  0.00    -0.352 N 
ATOM     53  C   UNL A   1      38.945  23.087  26.328  1.00  0.00     0.251 C 
ATOM     54  H   UNL A   1      39.393  21.169  25.994  1.00  0.00     0.163 HD
ATOM     55  O   UNL A   1      37.981  23.076  25.561  1.00  0.00    -0.269 OA
BRANCH  53  56
ATOM     56  C   UNL A   1      39.322  24.347  27.003  1.00  0.00     0.039 A 
ATOM     57  C   UNL A   1      38.917  24.544  28.327  1.00  0.00    -0.049 A 
ATOM     58  C   UNL A   1      40.039  25.346  26.337  1.00  0.00    -0.049 A 
ATOM     59  C   UNL A   1      39.275  25.714  28.999  1.00  0.00    -0.053 A 
ATOM     60  H   UNL A   1      38.353  23.825  28.807  1.00  0.00     0.063 H 
ATOM     61  C   UNL A   1      40.449  26.486  27.027  1.00  0.00    -0.053 A 
ATOM     62  H   UNL A   1      40.265  25.239  25.336  1.00  0.00     0.063 H 
ATOM     63  C   UNL A   1      40.069  26.683  28.363  1.00  0.00    -0.014 A 
ATOM     64  H   UNL A   1      38.957  25.868  29.969  1.00  0.00     0.063 H 
ATOM     65  H   UNL A   1      41.037  27.189  26.553  1.00  0.00     0.063 H 
BRANCH  63  66
ATOM     66  C   UNL A   1      40.508  27.902  29.089  1.00  0.00     0.031 A 
ATOM     67  C   UNL A   1      41.908  28.007  29.625  1.00  0.00     0.074 A 
ATOM     68  C   UNL A   1      39.626  28.895  29.312  1.00  0.00     0.049 A 
ATOM     69  N   UNL A   1      42.460  28.974  30.313  1.00  0.00    -0.248 NA
ATOM     70  C   UNL A   1      42.796  26.861  29.379  1.00  0.00    -0.034 C 
ATOM     71  C   UNL A   1      38.224  28.888  28.891  1.00  0.00    -0.036 A 
ATOM     72  N   UNL A   1      39.776  30.097  29.956  1.00  0.00    -0.354 N 
ATOM     73  C   UNL A   1      43.753  28.548  30.594  1.00  0.00     0.074 A 
ATOM     74  C   UNL A   1      43.887  27.217  30.042  1.00  0.00    -0.034 C 
ATOM     75  H   UNL A   1      42.618  26.004  28.832  1.00  0.00     0.065 H 
ATOM     76  C   UNL A   1      37.647  30.040  29.271  1.00  0.00    -0.036 A 
ATOM     77  H   UNL A   1      37.755  28.122  28.384  1.00  0.00     0.065 H 
ATOM     78  C   UNL A   1      38.628  30.852  29.984  1.00  0.00     0.049 A 
ATOM     79  H   UNL A   1      40.624  30.390  30.360  1.00  0.00     0.167 HD
ATOM     80  C   UNL A   1      44.742  29.216  31.235  1.00  0.00     0.037 A 
ATOM     81  H   UNL A   1      44.722  26.621  30.153  1.00  0.00     0.065 H 
ATOM     82  H   UNL A   1      36.667  30.307  29.088  1.00  0.00     0.065 H 
ATOM     83  C   UNL A   1      38.395  32.064  30.523  1.00  0.00     0.037 A 
ATOM     84  C   UNL A   1      44.616  30.552  31.756  1.00  0.00     0.049 A 
ATOM     85  C   UNL A   1      39.517  32.794  31.207  1.00  0.00     0.074 A 
ATOM     86  C   UNL A   1      45.583  31.341  32.355  1.00  0.00    -0.036 A 
ATOM     87  N   UNL A   1      43.445  31.297  31.740  1.00  0.00    -0.354 N 
ATOM     88  N   UNL A   1      40.756  32.412  31.400  1.00  0.00    -0.248 NA
ATOM     89  C   UNL A   1      39.210  34.128  31.740  1.00  0.00    -0.034 C 
ATOM     90  C   UNL A   1      44.988  32.549  32.738  1.00  0.00    -0.036 A 
ATOM     91  H   UNL A   1      46.572  31.083  32.494  1.00  0.00     0.065 H 
ATOM     92  C   UNL A   1      43.661  32.528  32.339  1.00  0.00     0.049 A 
ATOM     93  H   UNL A   1      42.589  30.996  31.361  1.00  0.00     0.167 HD
ATOM     94  C   UNL A   1      41.382  33.464  32.055  1.00  0.00     0.074 A 
ATOM     95  C   UNL A   1      40.389  34.507  32.212  1.00  0.00    -0.034 C 
ATOM     96  H   UNL A   1      38.312  34.637  31.745  1.00  0.00     0.065 H 
ATOM     97  H   UNL A   1      45.457  33.321  33.234  1.00  0.00     0.065 H 
ATOM     98  C   UNL A   1      42.663  33.556  32.489  1.00  0.00     0.037 A 
ATOM     99  H   UNL A   1      40.576  35.429  32.636  1.00  0.00     0.065 H 
BRANCH  80 100
ATOM    100  C   UNL A   1      46.054  28.509  31.406  1.00  0.00     0.064 A 
ATOM    101  C   UNL A   1      47.133  28.738  30.538  1.00  0.00     0.173 A 
ATOM    102  C   UNL A   1      46.247  27.611  32.468  1.00  0.00     0.173 A 
ATOM    103  F   UNL A   1      46.997  29.578  29.500  1.00  0.00    -0.203 F 
ATOM    104  C   UNL A   1      48.344  28.073  30.709  1.00  0.00     0.198 A 
ATOM    105  C   UNL A   1      47.469  26.970  32.652  1.00  0.00     0.198 A 
ATOM    106  F   UNL A   1      45.250  27.360  33.330  1.00  0.00    -0.203 F 
ATOM    107  F   UNL A   1      49.344  28.272  29.838  1.00  0.00    -0.200 F 
ATOM    108  C   UNL A   1      48.514  27.196  31.769  1.00  0.00     0.200 A 
ATOM    109  F   UNL A   1      47.635  26.130  33.684  1.00  0.00    -0.200 F 
ATOM    110  F   UNL A   1      49.682  26.559  31.933  1.00  0.00    -0.200 F 
ENDBRANCH  80 100
BRANCH  83 111
ATOM    111  C   UNL A   1      37.047  32.674  30.404  1.00  0.00     0.064 A 
ATOM    112  C   UNL A   1      36.088  32.497  31.411  1.00  0.00     0.173 A 
ATOM    113  C   UNL A   1      36.693  33.450  29.293  1.00  0.00     0.173 A 
ATOM    114  F   UNL A   1      36.376  31.743  32.483  1.00  0.00    -0.203 F 
ATOM    115  C   UNL A   1      34.820  33.062  31.304  1.00  0.00     0.198 A 
ATOM    116  C   UNL A   1      35.432  34.037  29.199  1.00  0.00     0.198 A 
ATOM    117  F   UNL A   1      37.577  33.654  28.305  1.00  0.00    -0.203 F 
ATOM    118  F   UNL A   1      33.910  32.847  32.263  1.00  0.00    -0.200 F 
ATOM    119  C   UNL A   1      34.495  33.837  30.201  1.00  0.00     0.200 A 
ATOM    120  F   UNL A   1      35.126  34.796  28.138  1.00  0.00    -0.200 F 
ATOM    121  F   UNL A   1      33.278  34.387  30.102  1.00  0.00    -0.200 F 
ENDBRANCH  83 111
BRANCH  98 122
ATOM    122  C   UNL A   1      43.067  34.838  33.157  1.00  0.00     0.064 A 
ATOM    123  C   UNL A   1      43.504  35.945  32.416  1.00  0.00     0.173 A 
ATOM    124  C   UNL A   1      42.990  34.967  34.551  1.00  0.00     0.173 A 
ATOM    125  F   UNL A   1      43.611  35.864  31.081  1.00  0.00    -0.203 F 
ATOM    126  C   UNL A   1      43.876  37.128  33.050  1.00  0.00     0.198 A 
ATOM    127  C   UNL A   1      43.336  36.160  35.180  1.00  0.00     0.198 A 
ATOM    128  F   UNL A   1      42.572  33.938  35.305  1.00  0.00    -0.203 F 
ATOM    129  F   UNL A   1      44.336  38.158  32.326  1.00  0.00    -0.200 F 
ATOM    130  C   UNL A   1      43.785  37.236  34.430  1.00  0.00     0.200 A 
ATOM    131  F   UNL A   1      43.238  36.267  36.512  1.00  0.00    -0.200 F 
ATOM    132  F   UNL A   1      44.141  38.376  35.038  1.00  0.00    -0.200 F 
ENDBRANCH  98 122
ENDBRANCH  63  66
ENDBRANCH  53  56
ENDBRANCH  49  52
ENDBRANCH  46  49
ENDBRANCH  43  46
ENDBRANCH  40  43
ENDBRANCH   1  40
TORSDOF 19
ENDMDL
MODEL 10
REMARK VINA RESULT:     -10.5      4.256      8.296
REMARK SMILES CC(C)Cc1ccc([C@H](CF)C(=O)NCCCCCCNC(=O)c2ccc(-c3c4nc(c(-c5c(F)c(F)c(F)c(F)c5F)c5ccc([nH]5)c(-c5c(F)c(F)c(F)c(F)c5F)c5nc(c(-c6c(F)c(F)c(F)c(F)c6F)c6ccc3[nH]6)C=C5)C=C4)cc2)cc1
REMARK SMILES IDX 16 1 15 4 14 7 12 8 13 9 9 11 8 13 5 14 6 15 88 16 7 17
REMARK SMILES IDX 87 19 4 23 2 26 1 28 3 32 10 36 11 37 17 40 18 43 19 46
REMARK SMILES IDX 20 49 21 52 22 53 23 55 24 56 25 57 86 58 26 59 85 61 27 63
REMARK SMILES IDX 28 66 29 67 79 68 30 69 84 70 78 71 80 72 31 73 83 74 77 76
REMARK SMILES IDX 76 78 32 80 64 83 44 84 63 85 45 86 48 87 62 88 81 89 46 90
REMARK SMILES IDX 47 92 61 94 82 95 49 98 33 100 34 101 42 102 35 103 36 104
REMARK SMILES IDX 40 105 43 106 37 107 38 108 41 109 39 110 65 111 66 112
REMARK SMILES IDX 74 113 67 114 68 115 72 116 75 117 69 118 70 119 73 120
REMARK SMILES IDX 71 121 50 122 51 123 59 124 52 125 53 126 57 127 60 128
REMARK SMILES IDX 54 129 55 130 58 131 56 132
REMARK H PARENT 16 2 16 3 15 5 15 6 14 10 9 12 6 18 88 20 7 21 87 22 4 24 4 25
REMARK H PARENT 2 27 1 29 1 30 1 31 3 33 3 34 3 35 10 38 10 39 17 41 17 42
REMARK H PARENT 18 44 18 45 19 47 19 48 20 50 20 51 21 54 25 60 86 62 26 64
REMARK H PARENT 85 65 84 75 78 77 80 79 83 81 77 82 45 91 48 93 81 96 46 97
REMARK H PARENT 82 99
REMARK Flexibility Score: inf
ROOT
ATOM      1  C   UNL A   1      32.424  26.087  26.297  1.00  0.00    -0.036 C 
ATOM      2  H   UNL A   1      31.379  25.888  26.189  1.00  0.00     0.028 H 
ATOM      3  H   UNL A   1      32.684  26.457  27.267  1.00  0.00     0.028 H 
ENDROOT
BRANCH   1   4
ATOM      4  C   UNL A   1      32.806  27.180  25.302  1.00  0.00     0.017 C 
ATOM      5  H   UNL A   1      33.263  27.989  25.834  1.00  0.00     0.049 H 
ATOM      6  H   UNL A   1      33.483  26.760  24.588  1.00  0.00     0.049 H 
BRANCH   4   7
ATOM      7  N   UNL A   1      31.647  27.682  24.588  1.00  0.00    -0.355 N 
ATOM      8  C   UNL A   1      31.233  27.462  23.307  1.00  0.00     0.230 C 
ATOM      9  O   UNL A   1      30.162  27.970  22.962  1.00  0.00    -0.274 OA
ATOM     10  H   UNL A   1      31.064  28.276  25.112  1.00  0.00     0.163 HD
BRANCH   8  11
ATOM     11  C   UNL A   1      32.059  26.640  22.313  1.00  0.00     0.091 C 
ATOM     12  H   UNL A   1      31.604  26.588  21.347  1.00  0.00     0.048 H 
BRANCH  11  13
ATOM     13  C   UNL A   1      32.086  25.162  22.684  1.00  0.00    -0.033 A 
ATOM     14  C   UNL A   1      32.168  22.363  23.067  1.00  0.00    -0.048 A 
ATOM     15  C   UNL A   1      33.285  23.041  22.572  1.00  0.00    -0.059 A 
ATOM     16  C   UNL A   1      31.039  23.101  23.439  1.00  0.00    -0.059 A 
ATOM     17  C   UNL A   1      33.242  24.422  22.381  1.00  0.00    -0.058 A 
ATOM     18  H   UNL A   1      34.145  22.517  22.346  1.00  0.00     0.063 H 
ATOM     19  C   UNL A   1      31.006  24.488  23.269  1.00  0.00    -0.058 A 
ATOM     20  H   UNL A   1      30.222  22.616  23.843  1.00  0.00     0.063 H 
ATOM     21  H   UNL A   1      34.074  24.908  22.012  1.00  0.00     0.063 H 
ATOM     22  H   UNL A   1      30.177  25.022  23.578  1.00  0.00     0.063 H 
BRANCH  14  23
ATOM     23  C   UNL A   1      32.166  20.855  23.151  1.00  0.00    -0.026 C 
ATOM     24  H   UNL A   1      31.179  20.530  23.406  1.00  0.00     0.032 H 
ATOM     25  H   UNL A   1      32.476  20.481  22.197  1.00  0.00     0.032 H 
BRANCH  23  26
ATOM     26  C   UNL A   1      33.152  20.307  24.204  1.00  0.00    -0.043 C 
ATOM     27  H   UNL A   1      34.138  20.568  23.879  1.00  0.00     0.030 H 
BRANCH  26  28
ATOM     28  C   UNL A   1      32.940  20.933  25.587  1.00  0.00    -0.062 C 
ATOM     29  H   UNL A   1      33.633  20.506  26.282  1.00  0.00     0.023 H 
ATOM     30  H   UNL A   1      31.940  20.742  25.916  1.00  0.00     0.023 H 
ATOM     31  H   UNL A   1      33.100  21.990  25.528  1.00  0.00     0.023 H 
ENDBRANCH  26  28
BRANCH  26  32
ATOM     32  C   UNL A   1      33.012  18.787  24.306  1.00  0.00    -0.062 C 
ATOM     33  H   UNL A   1      33.199  18.478  25.314  1.00  0.00     0.023 H 
ATOM     34  H   UNL A   1      33.719  18.319  23.652  1.00  0.00     0.023 H 
ATOM     35  H   UNL A   1      32.021  18.500  24.023  1.00  0.00     0.023 H 
ENDBRANCH  26  32
ENDBRANCH  23  26
ENDBRANCH  14  23
ENDBRANCH  11  13
BRANCH  11  36
ATOM     36  C   UNL A   1      33.382  27.362  22.072  1.00  0.00     0.105 C 
ATOM     37  F   UNL A   1      33.201  28.706  22.204  1.00  0.00    -0.250 F 
ATOM     38  H   UNL A   1      33.731  27.144  21.084  1.00  0.00     0.064 H 
ATOM     39  H   UNL A   1      34.104  27.029  22.789  1.00  0.00     0.064 H 
ENDBRANCH  11  36
ENDBRANCH   8  11
ENDBRANCH   4   7
ENDBRANCH   1   4
BRANCH   1  40
ATOM     40  C   UNL A   1      33.182  24.769  26.119  1.00  0.00    -0.052 C 
ATOM     41  H   UNL A   1      32.624  24.157  25.442  1.00  0.00     0.027 H 
ATOM     42  H   UNL A   1      33.278  24.349  27.099  1.00  0.00     0.027 H 
BRANCH  40  43
ATOM     43  C   UNL A   1      34.609  24.897  25.574  1.00  0.00    -0.052 C 
ATOM     44  H   UNL A   1      35.086  25.705  26.089  1.00  0.00     0.027 H 
ATOM     45  H   UNL A   1      34.505  25.056  24.521  1.00  0.00     0.027 H 
BRANCH  43  46
ATOM     46  C   UNL A   1      35.491  23.654  25.724  1.00  0.00    -0.036 C 
ATOM     47  H   UNL A   1      34.934  22.810  25.377  1.00  0.00     0.028 H 
ATOM     48  H   UNL A   1      35.751  23.602  26.760  1.00  0.00     0.028 H 
BRANCH  46  49
ATOM     49  C   UNL A   1      36.812  23.694  24.960  1.00  0.00     0.018 C 
ATOM     50  H   UNL A   1      37.258  24.657  25.095  1.00  0.00     0.049 H 
ATOM     51  H   UNL A   1      36.596  23.499  23.931  1.00  0.00     0.049 H 
BRANCH  49  52
ATOM     52  N   UNL A   1      37.750  22.679  25.413  1.00  0.00    -0.352 N 
ATOM     53  C   UNL A   1      38.911  22.818  26.125  1.00  0.00     0.251 C 
ATOM     54  H   UNL A   1      37.514  21.755  25.171  1.00  0.00     0.163 HD
ATOM     55  O   UNL A   1      39.651  21.846  26.286  1.00  0.00    -0.269 OA
BRANCH  53  56
ATOM     56  C   UNL A   1      39.303  24.129  26.684  1.00  0.00     0.039 A 
ATOM     57  C   UNL A   1      38.907  24.446  27.987  1.00  0.00    -0.049 A 
ATOM     58  C   UNL A   1      40.027  25.059  25.928  1.00  0.00    -0.049 A 
ATOM     59  C   UNL A   1      39.279  25.668  28.550  1.00  0.00    -0.053 A 
ATOM     60  H   UNL A   1      38.339  23.779  28.531  1.00  0.00     0.063 H 
ATOM     61  C   UNL A   1      40.450  26.251  26.513  1.00  0.00    -0.053 A 
ATOM     62  H   UNL A   1      40.246  24.861  24.940  1.00  0.00     0.063 H 
ATOM     63  C   UNL A   1      40.079  26.570  27.828  1.00  0.00    -0.014 A 
ATOM     64  H   UNL A   1      38.967  25.911  29.504  1.00  0.00     0.063 H 
ATOM     65  H   UNL A   1      41.042  26.903  25.975  1.00  0.00     0.063 H 
BRANCH  63  66
ATOM     66  C   UNL A   1      40.533  27.843  28.440  1.00  0.00     0.031 A 
ATOM     67  C   UNL A   1      41.970  28.029  28.834  1.00  0.00     0.074 A 
ATOM     68  C   UNL A   1      39.635  28.815  28.692  1.00  0.00     0.049 A 
ATOM     69  N   UNL A   1      42.544  29.055  29.413  1.00  0.00    -0.248 NA
ATOM     70  C   UNL A   1      42.879  26.904  28.568  1.00  0.00    -0.034 C 
ATOM     71  C   UNL A   1      38.202  28.734  28.406  1.00  0.00    -0.036 A 
ATOM     72  N   UNL A   1      39.794  30.058  29.252  1.00  0.00    -0.354 N 
ATOM     73  C   UNL A   1      43.874  28.692  29.592  1.00  0.00     0.074 A 
ATOM     74  C   UNL A   1      44.011  27.337  29.104  1.00  0.00    -0.034 C 
ATOM     75  H   UNL A   1      42.686  26.011  28.089  1.00  0.00     0.065 H 
ATOM     76  C   UNL A   1      37.616  29.884  28.776  1.00  0.00    -0.036 A 
ATOM     77  H   UNL A   1      37.719  27.923  27.990  1.00  0.00     0.065 H 
ATOM     78  C   UNL A   1      38.624  30.771  29.347  1.00  0.00     0.049 A 
ATOM     79  H   UNL A   1      40.663  30.404  29.557  1.00  0.00     0.167 HD
ATOM     80  C   UNL A   1      44.890  29.432  30.099  1.00  0.00     0.037 A 
ATOM     81  H   UNL A   1      44.877  26.779  29.167  1.00  0.00     0.065 H 
ATOM     82  H   UNL A   1      36.612  30.105  28.673  1.00  0.00     0.065 H 
ATOM     83  C   UNL A   1      38.392  32.003  29.839  1.00  0.00     0.037 A 
ATOM     84  C   UNL A   1      44.758  30.790  30.555  1.00  0.00     0.049 A 
ATOM     85  C   UNL A   1      39.541  32.812  30.373  1.00  0.00     0.074 A 
ATOM     86  C   UNL A   1      45.743  31.648  31.015  1.00  0.00    -0.036 A 
ATOM     87  N   UNL A   1      43.561  31.491  30.611  1.00  0.00    -0.354 N 
ATOM     88  N   UNL A   1      40.808  32.487  30.467  1.00  0.00    -0.248 NA
ATOM     89  C   UNL A   1      39.230  34.163  30.858  1.00  0.00    -0.034 C 
ATOM     90  C   UNL A   1      45.136  32.853  31.387  1.00  0.00    -0.036 A 
ATOM     91  H   UNL A   1      46.750  31.433  31.074  1.00  0.00     0.065 H 
ATOM     92  C   UNL A   1      43.780  32.762  31.117  1.00  0.00     0.049 A 
ATOM     93  H   UNL A   1      42.686  31.138  30.332  1.00  0.00     0.167 HD
ATOM     94  C   UNL A   1      41.448  33.597  31.001  1.00  0.00     0.074 A 
ATOM     95  C   UNL A   1      40.432  34.611  31.194  1.00  0.00    -0.034 C 
ATOM     96  H   UNL A   1      38.317  34.639  30.921  1.00  0.00     0.065 H 
ATOM     97  H   UNL A   1      45.618  33.670  31.793  1.00  0.00     0.065 H 
ATOM     98  C   UNL A   1      42.759  33.761  31.306  1.00  0.00     0.037 A 
ATOM     99  H   UNL A   1      40.619  35.563  31.548  1.00  0.00     0.065 H 
BRANCH  80 100
ATOM    100  C   UNL A   1      46.241  28.783  30.183  1.00  0.00     0.064 A 
ATOM    101  C   UNL A   1      46.652  28.085  31.329  1.00  0.00     0.173 A 
ATOM    102  C   UNL A   1      47.125  28.835  29.094  1.00  0.00     0.173 A 
ATOM    103  F   UNL A   1      45.848  28.016  32.401  1.00  0.00    -0.203 F 
ATOM    104  C   UNL A   1      47.908  27.489  31.393  1.00  0.00     0.198 A 
ATOM    105  C   UNL A   1      48.369  28.213  29.151  1.00  0.00     0.198 A 
ATOM    106  F   UNL A   1      46.779  29.485  27.973  1.00  0.00    -0.203 F 
ATOM    107  F   UNL A   1      48.298  26.870  32.516  1.00  0.00    -0.200 F 
ATOM    108  C   UNL A   1      48.763  27.548  30.303  1.00  0.00     0.200 A 
ATOM    109  F   UNL A   1      49.190  28.262  28.093  1.00  0.00    -0.200 F 
ATOM    110  F   UNL A   1      49.971  26.970  30.365  1.00  0.00    -0.200 F 
ENDBRANCH  80 100
BRANCH  83 111
ATOM    111  C   UNL A   1      37.015  32.556  29.816  1.00  0.00     0.064 A 
ATOM    112  C   UNL A   1      36.159  32.397  30.914  1.00  0.00     0.173 A 
ATOM    113  C   UNL A   1      36.530  33.260  28.705  1.00  0.00     0.173 A 
ATOM    114  F   UNL A   1      36.573  31.712  31.991  1.00  0.00    -0.203 F 
ATOM    115  C   UNL A   1      34.864  32.910  30.898  1.00  0.00     0.198 A 
ATOM    116  C   UNL A   1      35.243  33.795  28.699  1.00  0.00     0.198 A 
ATOM    117  F   UNL A   1      37.312  33.444  27.632  1.00  0.00    -0.203 F 
ATOM    118  F   UNL A   1      34.054  32.712  31.946  1.00  0.00    -0.200 F 
ATOM    119  C   UNL A   1      34.409  33.614  29.793  1.00  0.00     0.200 A 
ATOM    120  F   UNL A   1      34.811  34.486  27.636  1.00  0.00    -0.200 F 
ATOM    121  F   UNL A   1      33.166  34.113  29.780  1.00  0.00    -0.200 F 
ENDBRANCH  83 111
BRANCH  98 122
ATOM    122  C   UNL A   1      43.170  35.092  31.861  1.00  0.00     0.064 A 
ATOM    123  C   UNL A   1      43.628  36.124  31.029  1.00  0.00     0.173 A 
ATOM    124  C   UNL A   1      43.079  35.347  33.237  1.00  0.00     0.173 A 
ATOM    125  F   UNL A   1      43.749  35.923  29.708  1.00  0.00    -0.203 F 
ATOM    126  C   UNL A   1      44.006  37.355  31.559  1.00  0.00     0.198 A 
ATOM    127  C   UNL A   1      43.432  36.588  33.760  1.00  0.00     0.198 A 
ATOM    128  F   UNL A   1      42.641  34.394  34.075  1.00  0.00    -0.203 F 
ATOM    129  F   UNL A   1      44.486  38.311  30.752  1.00  0.00    -0.200 F 
ATOM    130  C   UNL A   1      43.901  37.588  32.923  1.00  0.00     0.200 A 
ATOM    131  F   UNL A   1      43.320  36.815  35.076  1.00  0.00    -0.200 F 
ATOM    132  F   UNL A   1      44.263  38.774  33.430  1.00  0.00    -0.200 F 
ENDBRANCH  98 122
ENDBRANCH  63  66
ENDBRANCH  53  56
ENDBRANCH  49  52
ENDBRANCH  46  49
ENDBRANCH  43  46
ENDBRANCH  40  43
ENDBRANCH   1  40
TORSDOF 19
ENDMDL
