MODEL 1
REMARK VINA RESULT:     -11.6      0.000      0.000
REMARK SMILES Cc1cc(C)c2c(OCCCC(=O)NCCCCCCNC(=O)c3ccc(-c4c5nc(c(-c6c(F)c(F)c(F)c(F)c6F)c6ccc([nH]6)c(-c6c(F)c(F)c(F)c(F)c6F)c6nc(c(-c7c(F)c(F)c(F)c(F)c7F)c7ccc4[nH]7)C=C6)C=C5)cc3)nsc2n1
REMARK SMILES IDX 16 1 15 4 14 7 12 8 13 9 11 11 10 14 9 17 8 20 7 21 2 22
REMARK SMILES IDX 3 23 90 24 4 25 89 27 6 28 88 29 87 30 1 31 5 35 17 39 18 42
REMARK SMILES IDX 19 45 20 48 21 51 22 52 23 54 24 55 25 56 86 57 26 58 85 60
REMARK SMILES IDX 27 62 28 65 29 66 79 67 30 68 84 69 78 70 80 71 31 72 83 73
REMARK SMILES IDX 77 75 76 77 32 79 64 82 44 83 63 84 45 85 48 86 62 87 81 88
REMARK SMILES IDX 46 89 47 91 61 93 82 94 49 97 33 99 34 100 42 101 35 102
REMARK SMILES IDX 36 103 40 104 43 105 37 106 38 107 41 108 39 109 65 110
REMARK SMILES IDX 66 111 74 112 67 113 68 114 72 115 75 116 69 117 70 118
REMARK SMILES IDX 73 119 71 120 50 121 51 122 59 123 52 124 53 125 57 126
REMARK SMILES IDX 60 127 54 128 55 129 58 130 56 131
REMARK H PARENT 16 2 16 3 15 5 15 6 14 10 11 12 11 13 10 15 10 16 9 18 9 19
REMARK H PARENT 3 26 1 32 1 33 1 34 5 36 5 37 5 38 17 40 17 41 18 43 18 44
REMARK H PARENT 19 46 19 47 20 49 20 50 21 53 25 59 86 61 26 63 85 64 84 74
REMARK H PARENT 78 76 80 78 83 80 77 81 45 90 48 92 81 95 46 96 82 98
REMARK Flexibility Score: inf
ROOT
ATOM      1  C   UNL A   1      39.047  22.212  26.241  1.00  0.00    -0.036 C 
ATOM      2  H   UNL A   1      38.727  22.109  27.257  1.00  0.00     0.028 H 
ATOM      3  H   UNL A   1      38.978  23.205  25.850  1.00  0.00     0.028 H 
ENDROOT
BRANCH   1   4
ATOM      4  C   UNL A   1      38.086  21.346  25.348  1.00  0.00     0.017 C 
ATOM      5  H   UNL A   1      38.680  20.619  24.832  1.00  0.00     0.049 H 
ATOM      6  H   UNL A   1      37.369  20.916  26.016  1.00  0.00     0.049 H 
BRANCH   4   7
ATOM      7  N   UNL A   1      37.268  22.139  24.287  1.00  0.00    -0.356 N 
ATOM      8  C   UNL A   1      36.298  23.043  23.922  1.00  0.00     0.220 C 
ATOM      9  O   UNL A   1      36.354  23.198  22.679  1.00  0.00    -0.275 OA
ATOM     10  H   UNL A   1      37.638  21.835  23.427  1.00  0.00     0.163 HD
BRANCH   8  11
ATOM     11  C   UNL A   1      35.255  24.085  24.666  1.00  0.00     0.030 C 
ATOM     12  H   UNL A   1      34.676  23.420  25.271  1.00  0.00     0.037 H 
ATOM     13  H   UNL A   1      36.018  24.815  24.843  1.00  0.00     0.037 H 
BRANCH  11  14
ATOM     14  C   UNL A   1      34.154  25.205  24.259  1.00  0.00    -0.010 C 
ATOM     15  H   UNL A   1      33.380  25.055  24.982  1.00  0.00     0.031 H 
ATOM     16  H   UNL A   1      34.859  26.000  24.141  1.00  0.00     0.031 H 
BRANCH  14  17
ATOM     17  C   UNL A   1      33.339  25.532  22.922  1.00  0.00     0.090 C 
ATOM     18  H   UNL A   1      33.735  26.462  22.570  1.00  0.00     0.071 H 
ATOM     19  H   UNL A   1      33.476  24.614  22.391  1.00  0.00     0.071 H 
BRANCH  17  20
ATOM     20  O   UNL A   1      31.912  25.667  22.823  1.00  0.00    -0.477 OA
BRANCH  20  21
ATOM     21  C   UNL A   1      31.238  26.803  23.142  1.00  0.00     0.235 A 
ATOM     22  C   UNL A   1      31.784  29.322  26.236  1.00  0.00     0.039 A 
ATOM     23  C   UNL A   1      31.669  27.981  26.594  1.00  0.00    -0.037 A 
ATOM     24  N   UNL A   1      31.321  29.805  25.064  1.00  0.00    -0.240 NA
ATOM     25  C   UNL A   1      31.168  27.023  25.688  1.00  0.00    -0.034 A 
ATOM     26  H   UNL A   1      31.956  27.683  27.539  1.00  0.00     0.064 H 
ATOM     27  C   UNL A   1      31.031  28.831  24.176  1.00  0.00     0.147 A 
ATOM     28  C   UNL A   1      31.115  27.466  24.385  1.00  0.00     0.078 A 
ATOM     29  S   UNL A   1      30.458  29.050  22.589  1.00  0.00    -0.012 S 
ATOM     30  N   UNL A   1      30.756  27.473  22.095  1.00  0.00    -0.153 NA
BRANCH  22  31
ATOM     31  C   UNL A   1      32.536  30.263  27.145  1.00  0.00    -0.022 C 
ATOM     32  H   UNL A   1      32.273  30.061  28.162  1.00  0.00     0.030 H 
ATOM     33  H   UNL A   1      32.281  31.273  26.903  1.00  0.00     0.030 H 
ATOM     34  H   UNL A   1      33.588  30.119  27.013  1.00  0.00     0.030 H 
ENDBRANCH  22  31
BRANCH  25  35
ATOM     35  C   UNL A   1      30.754  25.617  25.905  1.00  0.00    -0.039 C 
ATOM     36  H   UNL A   1      29.718  25.508  25.659  1.00  0.00     0.028 H 
ATOM     37  H   UNL A   1      30.906  25.355  26.931  1.00  0.00     0.028 H 
ATOM     38  H   UNL A   1      31.338  24.973  25.282  1.00  0.00     0.028 H 
ENDBRANCH  25  35
ENDBRANCH  20  21
ENDBRANCH  17  20
ENDBRANCH  14  17
ENDBRANCH  11  14
ENDBRANCH   8  11
ENDBRANCH   4   7
ENDBRANCH   1   4
BRANCH   1  39
ATOM     39  C   UNL A   1      40.542  21.855  26.184  1.00  0.00    -0.052 C 
ATOM     40  H   UNL A   1      41.085  22.774  26.113  1.00  0.00     0.027 H 
ATOM     41  H   UNL A   1      40.626  21.198  25.345  1.00  0.00     0.027 H 
BRANCH  39  42
ATOM     42  C   UNL A   1      41.143  21.056  27.359  1.00  0.00    -0.052 C 
ATOM     43  H   UNL A   1      40.334  20.534  27.827  1.00  0.00     0.027 H 
ATOM     44  H   UNL A   1      41.638  21.803  27.946  1.00  0.00     0.027 H 
BRANCH  42  45
ATOM     45  C   UNL A   1      42.249  20.019  27.079  1.00  0.00    -0.036 C 
ATOM     46  H   UNL A   1      42.077  19.179  27.720  1.00  0.00     0.028 H 
ATOM     47  H   UNL A   1      43.171  20.531  27.259  1.00  0.00     0.028 H 
BRANCH  45  48
ATOM     48  C   UNL A   1      42.346  19.500  25.648  1.00  0.00     0.018 C 
ATOM     49  H   UNL A   1      41.821  20.176  25.007  1.00  0.00     0.049 H 
ATOM     50  H   UNL A   1      41.920  18.518  25.644  1.00  0.00     0.049 H 
BRANCH  48  51
ATOM     51  N   UNL A   1      43.714  19.371  25.160  1.00  0.00    -0.352 N 
ATOM     52  C   UNL A   1      44.637  20.351  24.842  1.00  0.00     0.251 C 
ATOM     53  H   UNL A   1      44.029  18.446  25.039  1.00  0.00     0.163 HD
ATOM     54  O   UNL A   1      45.602  20.085  24.154  1.00  0.00    -0.269 OA
BRANCH  52  55
ATOM     55  C   UNL A   1      44.447  21.733  25.341  1.00  0.00     0.039 A 
ATOM     56  C   UNL A   1      43.606  22.615  24.656  1.00  0.00    -0.049 A 
ATOM     57  C   UNL A   1      45.143  22.164  26.469  1.00  0.00    -0.049 A 
ATOM     58  C   UNL A   1      43.429  23.902  25.158  1.00  0.00    -0.053 A 
ATOM     59  H   UNL A   1      43.125  22.318  23.793  1.00  0.00     0.063 H 
ATOM     60  C   UNL A   1      44.862  23.381  27.045  1.00  0.00    -0.053 A 
ATOM     61  H   UNL A   1      45.878  21.564  26.875  1.00  0.00     0.063 H 
ATOM     62  C   UNL A   1      44.043  24.269  26.370  1.00  0.00    -0.014 A 
ATOM     63  H   UNL A   1      42.849  24.583  24.644  1.00  0.00     0.063 H 
ATOM     64  H   UNL A   1      45.257  23.628  27.967  1.00  0.00     0.063 H 
BRANCH  62  65
ATOM     65  C   UNL A   1      43.705  25.536  27.003  1.00  0.00     0.031 A 
ATOM     66  C   UNL A   1      44.647  26.624  26.645  1.00  0.00     0.074 A 
ATOM     67  C   UNL A   1      42.589  25.767  27.728  1.00  0.00     0.049 A 
ATOM     68  N   UNL A   1      45.575  27.109  27.397  1.00  0.00    -0.248 NA
ATOM     69  C   UNL A   1      44.703  27.090  25.252  1.00  0.00    -0.034 C 
ATOM     70  C   UNL A   1      41.428  24.895  27.922  1.00  0.00    -0.036 A 
ATOM     71  N   UNL A   1      42.236  26.893  28.416  1.00  0.00    -0.354 N 
ATOM     72  C   UNL A   1      46.204  28.095  26.644  1.00  0.00     0.074 A 
ATOM     73  C   UNL A   1      45.759  27.906  25.290  1.00  0.00    -0.034 C 
ATOM     74  H   UNL A   1      44.091  26.849  24.456  1.00  0.00     0.065 H 
ATOM     75  C   UNL A   1      40.422  25.592  28.501  1.00  0.00    -0.036 A 
ATOM     76  H   UNL A   1      41.382  23.898  27.657  1.00  0.00     0.065 H 
ATOM     77  C   UNL A   1      40.922  26.902  28.877  1.00  0.00     0.049 A 
ATOM     78  H   UNL A   1      42.861  27.637  28.575  1.00  0.00     0.167 HD
ATOM     79  C   UNL A   1      46.815  29.135  27.274  1.00  0.00     0.037 A 
ATOM     80  H   UNL A   1      46.195  28.343  24.462  1.00  0.00     0.065 H 
ATOM     81  H   UNL A   1      39.461  25.250  28.651  1.00  0.00     0.065 H 
ATOM     82  C   UNL A   1      40.305  27.916  29.533  1.00  0.00     0.037 A 
ATOM     83  C   UNL A   1      47.001  28.826  28.673  1.00  0.00     0.049 A 
ATOM     84  C   UNL A   1      41.375  28.732  30.148  1.00  0.00     0.074 A 
ATOM     85  C   UNL A   1      47.757  27.932  29.401  1.00  0.00    -0.036 A 
ATOM     86  N   UNL A   1      45.979  29.240  29.488  1.00  0.00    -0.354 N 
ATOM     87  N   UNL A   1      42.136  28.314  31.120  1.00  0.00    -0.248 NA
ATOM     88  C   UNL A   1      41.859  29.902  29.431  1.00  0.00    -0.034 C 
ATOM     89  C   UNL A   1      46.966  27.601  30.543  1.00  0.00    -0.036 A 
ATOM     90  H   UNL A   1      48.698  27.577  29.169  1.00  0.00     0.065 H 
ATOM     91  C   UNL A   1      45.788  28.348  30.504  1.00  0.00     0.049 A 
ATOM     92  H   UNL A   1      45.456  30.065  29.357  1.00  0.00     0.167 HD
ATOM     93  C   UNL A   1      43.372  28.871  30.852  1.00  0.00     0.074 A 
ATOM     94  C   UNL A   1      43.102  29.958  29.916  1.00  0.00    -0.034 C 
ATOM     95  H   UNL A   1      41.381  30.510  28.747  1.00  0.00     0.065 H 
ATOM     96  H   UNL A   1      47.223  26.921  31.276  1.00  0.00     0.065 H 
ATOM     97  C   UNL A   1      44.514  28.199  31.177  1.00  0.00     0.037 A 
ATOM     98  H   UNL A   1      43.789  30.683  29.659  1.00  0.00     0.065 H 
BRANCH  79  99
ATOM     99  C   UNL A   1      46.787  30.573  26.790  1.00  0.00     0.064 A 
ATOM    100  C   UNL A   1      47.974  31.335  26.869  1.00  0.00     0.173 A 
ATOM    101  C   UNL A   1      45.610  31.320  26.566  1.00  0.00     0.173 A 
ATOM    102  F   UNL A   1      49.156  30.741  27.097  1.00  0.00    -0.203 F 
ATOM    103  C   UNL A   1      47.966  32.733  26.819  1.00  0.00     0.198 A 
ATOM    104  C   UNL A   1      45.614  32.711  26.469  1.00  0.00     0.198 A 
ATOM    105  F   UNL A   1      44.396  30.763  26.545  1.00  0.00    -0.203 F 
ATOM    106  F   UNL A   1      49.100  33.412  27.034  1.00  0.00    -0.200 F 
ATOM    107  C   UNL A   1      46.784  33.420  26.627  1.00  0.00     0.200 A 
ATOM    108  F   UNL A   1      44.451  33.361  26.306  1.00  0.00    -0.200 F 
ATOM    109  F   UNL A   1      46.762  34.759  26.642  1.00  0.00    -0.200 F 
ENDBRANCH  79  99
BRANCH  82 110
ATOM    110  C   UNL A   1      38.901  28.394  29.469  1.00  0.00     0.064 A 
ATOM    111  C   UNL A   1      38.142  28.555  30.645  1.00  0.00     0.173 A 
ATOM    112  C   UNL A   1      38.395  29.015  28.313  1.00  0.00     0.173 A 
ATOM    113  F   UNL A   1      38.565  28.020  31.801  1.00  0.00    -0.203 F 
ATOM    114  C   UNL A   1      36.986  29.342  30.676  1.00  0.00     0.198 A 
ATOM    115  C   UNL A   1      37.238  29.798  28.344  1.00  0.00     0.198 A 
ATOM    116  F   UNL A   1      39.069  28.961  27.155  1.00  0.00    -0.203 F 
ATOM    117  F   UNL A   1      36.343  29.543  31.835  1.00  0.00    -0.200 F 
ATOM    118  C   UNL A   1      36.547  29.980  29.529  1.00  0.00     0.200 A 
ATOM    119  F   UNL A   1      36.839  30.438  27.236  1.00  0.00    -0.200 F 
ATOM    120  F   UNL A   1      35.488  30.801  29.574  1.00  0.00    -0.200 F 
ENDBRANCH  82 110
BRANCH  97 121
ATOM    121  C   UNL A   1      44.406  27.094  32.190  1.00  0.00     0.064 A 
ATOM    122  C   UNL A   1      44.247  27.287  33.573  1.00  0.00     0.173 A 
ATOM    123  C   UNL A   1      44.327  25.779  31.708  1.00  0.00     0.173 A 
ATOM    124  F   UNL A   1      44.239  28.515  34.104  1.00  0.00    -0.203 F 
ATOM    125  C   UNL A   1      44.035  26.207  34.431  1.00  0.00     0.198 A 
ATOM    126  C   UNL A   1      44.078  24.709  32.561  1.00  0.00     0.198 A 
ATOM    127  F   UNL A   1      44.438  25.539  30.393  1.00  0.00    -0.203 F 
ATOM    128  F   UNL A   1      43.892  26.414  35.749  1.00  0.00    -0.200 F 
ATOM    129  C   UNL A   1      43.939  24.922  33.923  1.00  0.00     0.200 A 
ATOM    130  F   UNL A   1      43.943  23.476  32.058  1.00  0.00    -0.200 F 
ATOM    131  F   UNL A   1      43.685  23.891  34.741  1.00  0.00    -0.200 F 
ENDBRANCH  97 121
ENDBRANCH  62  65
ENDBRANCH  52  55
ENDBRANCH  48  51
ENDBRANCH  45  48
ENDBRANCH  42  45
ENDBRANCH  39  42
ENDBRANCH   1  39
TORSDOF 19
ENDMDL
MODEL 2
REMARK VINA RESULT:     -11.4      1.337      2.003
REMARK SMILES Cc1cc(C)c2c(OCCCC(=O)NCCCCCCNC(=O)c3ccc(-c4c5nc(c(-c6c(F)c(F)c(F)c(F)c6F)c6ccc([nH]6)c(-c6c(F)c(F)c(F)c(F)c6F)c6nc(c(-c7c(F)c(F)c(F)c(F)c7F)c7ccc4[nH]7)C=C6)C=C5)cc3)nsc2n1
REMARK SMILES IDX 16 1 15 4 14 7 12 8 13 9 11 11 10 14 9 17 8 20 7 21 2 22
REMARK SMILES IDX 3 23 90 24 4 25 89 27 6 28 88 29 87 30 1 31 5 35 17 39 18 42
REMARK SMILES IDX 19 45 20 48 21 51 22 52 23 54 24 55 25 56 86 57 26 58 85 60
REMARK SMILES IDX 27 62 28 65 29 66 79 67 30 68 84 69 78 70 80 71 31 72 83 73
REMARK SMILES IDX 77 75 76 77 32 79 64 82 44 83 63 84 45 85 48 86 62 87 81 88
REMARK SMILES IDX 46 89 47 91 61 93 82 94 49 97 33 99 34 100 42 101 35 102
REMARK SMILES IDX 36 103 40 104 43 105 37 106 38 107 41 108 39 109 65 110
REMARK SMILES IDX 66 111 74 112 67 113 68 114 72 115 75 116 69 117 70 118
REMARK SMILES IDX 73 119 71 120 50 121 51 122 59 123 52 124 53 125 57 126
REMARK SMILES IDX 60 127 54 128 55 129 58 130 56 131
REMARK H PARENT 16 2 16 3 15 5 15 6 14 10 11 12 11 13 10 15 10 16 9 18 9 19
REMARK H PARENT 3 26 1 32 1 33 1 34 5 36 5 37 5 38 17 40 17 41 18 43 18 44
REMARK H PARENT 19 46 19 47 20 49 20 50 21 53 25 59 86 61 26 63 85 64 84 74
REMARK H PARENT 78 76 80 78 83 80 77 81 45 90 48 92 81 95 46 96 82 98
REMARK Flexibility Score: inf
ROOT
ATOM      1  C   UNL A   1      39.140  22.194  26.431  1.00  0.00    -0.036 C 
ATOM      2  H   UNL A   1      38.757  21.955  27.401  1.00  0.00     0.028 H 
ATOM      3  H   UNL A   1      39.013  23.216  26.141  1.00  0.00     0.028 H 
ENDROOT
BRANCH   1   4
ATOM      4  C   UNL A   1      38.327  21.359  25.377  1.00  0.00     0.017 C 
ATOM      5  H   UNL A   1      39.020  20.756  24.827  1.00  0.00     0.049 H 
ATOM      6  H   UNL A   1      37.614  20.789  25.937  1.00  0.00     0.049 H 
BRANCH   4   7
ATOM      7  N   UNL A   1      37.502  22.197  24.356  1.00  0.00    -0.356 N 
ATOM      8  C   UNL A   1      36.496  23.077  24.031  1.00  0.00     0.220 C 
ATOM      9  O   UNL A   1      36.586  23.342  22.809  1.00  0.00    -0.275 OA
ATOM     10  H   UNL A   1      37.918  21.988  23.489  1.00  0.00     0.163 HD
BRANCH   8  11
ATOM     11  C   UNL A   1      35.372  23.994  24.820  1.00  0.00     0.030 C 
ATOM     12  H   UNL A   1      35.946  24.854  25.094  1.00  0.00     0.037 H 
ATOM     13  H   UNL A   1      34.608  23.779  24.103  1.00  0.00     0.037 H 
BRANCH  11  14
ATOM     14  C   UNL A   1      34.355  23.860  26.077  1.00  0.00    -0.010 C 
ATOM     15  H   UNL A   1      34.924  23.297  26.787  1.00  0.00     0.031 H 
ATOM     16  H   UNL A   1      34.057  24.887  26.074  1.00  0.00     0.031 H 
BRANCH  14  17
ATOM     17  C   UNL A   1      32.877  23.277  26.257  1.00  0.00     0.090 C 
ATOM     18  H   UNL A   1      33.006  22.227  26.423  1.00  0.00     0.071 H 
ATOM     19  H   UNL A   1      32.509  23.935  27.015  1.00  0.00     0.071 H 
BRANCH  17  20
ATOM     20  O   UNL A   1      31.813  23.380  25.298  1.00  0.00    -0.477 OA
BRANCH  20  21
ATOM     21  C   UNL A   1      32.004  23.694  23.990  1.00  0.00     0.235 A 
ATOM     22  C   UNL A   1      33.221  27.159  22.338  1.00  0.00     0.039 A 
ATOM     23  C   UNL A   1      32.159  27.283  23.231  1.00  0.00    -0.037 A 
ATOM     24  N   UNL A   1      33.529  25.993  21.732  1.00  0.00    -0.240 NA
ATOM     25  C   UNL A   1      31.418  26.159  23.647  1.00  0.00    -0.034 A 
ATOM     26  H   UNL A   1      31.910  28.217  23.595  1.00  0.00     0.064 H 
ATOM     27  C   UNL A   1      32.920  24.932  22.301  1.00  0.00     0.147 A 
ATOM     28  C   UNL A   1      32.023  24.956  23.353  1.00  0.00     0.078 A 
ATOM     29  S   UNL A   1      33.088  23.303  21.837  1.00  0.00    -0.012 S 
ATOM     30  N   UNL A   1      32.388  22.670  23.226  1.00  0.00    -0.153 NA
BRANCH  22  31
ATOM     31  C   UNL A   1      34.126  28.342  22.104  1.00  0.00    -0.022 C 
ATOM     32  H   UNL A   1      34.546  28.660  23.035  1.00  0.00     0.030 H 
ATOM     33  H   UNL A   1      33.562  29.144  21.674  1.00  0.00     0.030 H 
ATOM     34  H   UNL A   1      34.913  28.062  21.436  1.00  0.00     0.030 H 
ENDBRANCH  22  31
BRANCH  25  35
ATOM     35  C   UNL A   1      30.141  26.069  24.394  1.00  0.00    -0.039 C 
ATOM     36  H   UNL A   1      29.886  27.033  24.781  1.00  0.00     0.028 H 
ATOM     37  H   UNL A   1      30.248  25.377  25.202  1.00  0.00     0.028 H 
ATOM     38  H   UNL A   1      29.366  25.733  23.736  1.00  0.00     0.028 H 
ENDBRANCH  25  35
ENDBRANCH  20  21
ENDBRANCH  17  20
ENDBRANCH  14  17
ENDBRANCH  11  14
ENDBRANCH   8  11
ENDBRANCH   4   7
ENDBRANCH   1   4
BRANCH   1  39
ATOM     39  C   UNL A   1      40.660  21.965  26.460  1.00  0.00    -0.052 C 
ATOM     40  H   UNL A   1      41.123  22.922  26.578  1.00  0.00     0.027 H 
ATOM     41  H   UNL A   1      40.870  21.455  25.544  1.00  0.00     0.027 H 
BRANCH  39  42
ATOM     42  C   UNL A   1      41.234  21.040  27.554  1.00  0.00    -0.052 C 
ATOM     43  H   UNL A   1      40.401  20.569  28.033  1.00  0.00     0.027 H 
ATOM     44  H   UNL A   1      41.827  21.698  28.156  1.00  0.00     0.027 H 
BRANCH  42  45
ATOM     45  C   UNL A   1      42.218  19.922  27.156  1.00  0.00    -0.036 C 
ATOM     46  H   UNL A   1      41.935  19.036  27.686  1.00  0.00     0.028 H 
ATOM     47  H   UNL A   1      43.189  20.295  27.407  1.00  0.00     0.028 H 
BRANCH  45  48
ATOM     48  C   UNL A   1      42.288  19.574  25.673  1.00  0.00     0.018 C 
ATOM     49  H   UNL A   1      41.790  20.345  25.122  1.00  0.00     0.049 H 
ATOM     50  H   UNL A   1      41.819  18.619  25.555  1.00  0.00     0.049 H 
BRANCH  48  51
ATOM     51  N   UNL A   1      43.648  19.447  25.161  1.00  0.00    -0.352 N 
ATOM     52  C   UNL A   1      44.566  20.428  24.833  1.00  0.00     0.251 C 
ATOM     53  H   UNL A   1      43.959  18.522  25.031  1.00  0.00     0.163 HD
ATOM     54  O   UNL A   1      45.519  20.164  24.127  1.00  0.00    -0.269 OA
BRANCH  52  55
ATOM     55  C   UNL A   1      44.385  21.807  25.341  1.00  0.00     0.039 A 
ATOM     56  C   UNL A   1      43.613  22.723  24.621  1.00  0.00    -0.049 A 
ATOM     57  C   UNL A   1      45.024  22.202  26.515  1.00  0.00    -0.049 A 
ATOM     58  C   UNL A   1      43.442  24.007  25.132  1.00  0.00    -0.053 A 
ATOM     59  H   UNL A   1      43.177  22.453  23.726  1.00  0.00     0.063 H 
ATOM     60  C   UNL A   1      44.744  23.418  27.093  1.00  0.00    -0.053 A 
ATOM     61  H   UNL A   1      45.715  21.574  26.955  1.00  0.00     0.063 H 
ATOM     62  C   UNL A   1      43.993  24.339  26.384  1.00  0.00    -0.014 A 
ATOM     63  H   UNL A   1      42.915  24.712  24.595  1.00  0.00     0.063 H 
ATOM     64  H   UNL A   1      45.089  23.640  28.041  1.00  0.00     0.063 H 
BRANCH  62  65
ATOM     65  C   UNL A   1      43.653  25.607  27.016  1.00  0.00     0.031 A 
ATOM     66  C   UNL A   1      44.599  26.693  26.664  1.00  0.00     0.074 A 
ATOM     67  C   UNL A   1      42.534  25.839  27.735  1.00  0.00     0.049 A 
ATOM     68  N   UNL A   1      45.524  27.176  27.421  1.00  0.00    -0.248 NA
ATOM     69  C   UNL A   1      44.664  27.159  25.271  1.00  0.00    -0.034 C 
ATOM     70  C   UNL A   1      41.370  24.968  27.923  1.00  0.00    -0.036 A 
ATOM     71  N   UNL A   1      42.179  26.965  28.422  1.00  0.00    -0.354 N 
ATOM     72  C   UNL A   1      46.159  28.161  26.672  1.00  0.00     0.074 A 
ATOM     73  C   UNL A   1      45.721  27.974  25.316  1.00  0.00    -0.034 C 
ATOM     74  H   UNL A   1      44.056  26.920  24.472  1.00  0.00     0.065 H 
ATOM     75  C   UNL A   1      40.362  25.667  28.496  1.00  0.00    -0.036 A 
ATOM     76  H   UNL A   1      41.324  23.972  27.656  1.00  0.00     0.065 H 
ATOM     77  C   UNL A   1      40.862  26.976  28.876  1.00  0.00     0.049 A 
ATOM     78  H   UNL A   1      42.804  27.708  28.584  1.00  0.00     0.167 HD
ATOM     79  C   UNL A   1      46.768  29.200  27.306  1.00  0.00     0.037 A 
ATOM     80  H   UNL A   1      46.163  28.410  24.491  1.00  0.00     0.065 H 
ATOM     81  H   UNL A   1      39.400  25.327  28.641  1.00  0.00     0.065 H 
ATOM     82  C   UNL A   1      40.243  27.991  29.528  1.00  0.00     0.037 A 
ATOM     83  C   UNL A   1      46.945  28.889  28.707  1.00  0.00     0.049 A 
ATOM     84  C   UNL A   1      41.311  28.805  30.150  1.00  0.00     0.074 A 
ATOM     85  C   UNL A   1      47.696  27.994  29.438  1.00  0.00    -0.036 A 
ATOM     86  N   UNL A   1      45.920  29.305  29.515  1.00  0.00    -0.354 N 
ATOM     87  N   UNL A   1      42.066  28.385  31.125  1.00  0.00    -0.248 NA
ATOM     88  C   UNL A   1      41.801  29.974  29.436  1.00  0.00    -0.034 C 
ATOM     89  C   UNL A   1      46.898  27.664  30.575  1.00  0.00    -0.036 A 
ATOM     90  H   UNL A   1      48.638  27.638  29.211  1.00  0.00     0.065 H 
ATOM     91  C   UNL A   1      45.722  28.413  30.531  1.00  0.00     0.049 A 
ATOM     92  H   UNL A   1      45.399  30.131  29.382  1.00  0.00     0.167 HD
ATOM     93  C   UNL A   1      43.305  28.940  30.865  1.00  0.00     0.074 A 
ATOM     94  C   UNL A   1      43.041  30.028  29.928  1.00  0.00    -0.034 C 
ATOM     95  H   UNL A   1      41.329  30.583  28.750  1.00  0.00     0.065 H 
ATOM     96  H   UNL A   1      47.150  26.983  31.309  1.00  0.00     0.065 H 
ATOM     97  C   UNL A   1      44.444  28.266  31.196  1.00  0.00     0.037 A 
ATOM     98  H   UNL A   1      43.732  30.752  29.675  1.00  0.00     0.065 H 
BRANCH  79  99
ATOM     99  C   UNL A   1      46.746  30.638  26.823  1.00  0.00     0.064 A 
ATOM    100  C   UNL A   1      47.933  31.399  26.909  1.00  0.00     0.173 A 
ATOM    101  C   UNL A   1      45.571  31.388  26.593  1.00  0.00     0.173 A 
ATOM    102  F   UNL A   1      49.112  30.802  27.144  1.00  0.00    -0.203 F 
ATOM    103  C   UNL A   1      47.928  32.796  26.860  1.00  0.00     0.198 A 
ATOM    104  C   UNL A   1      45.577  32.779  26.496  1.00  0.00     0.198 A 
ATOM    105  F   UNL A   1      44.356  30.832  26.564  1.00  0.00    -0.203 F 
ATOM    106  F   UNL A   1      49.062  33.474  27.082  1.00  0.00    -0.200 F 
ATOM    107  C   UNL A   1      46.748  33.485  26.661  1.00  0.00     0.200 A 
ATOM    108  F   UNL A   1      44.417  33.430  26.327  1.00  0.00    -0.200 F 
ATOM    109  F   UNL A   1      46.728  34.824  26.677  1.00  0.00    -0.200 F 
ENDBRANCH  79  99
BRANCH  82 110
ATOM    110  C   UNL A   1      38.841  28.472  29.457  1.00  0.00     0.064 A 
ATOM    111  C   UNL A   1      38.077  28.638  30.629  1.00  0.00     0.173 A 
ATOM    112  C   UNL A   1      38.341  29.089  28.296  1.00  0.00     0.173 A 
ATOM    113  F   UNL A   1      38.494  28.107  31.788  1.00  0.00    -0.203 F 
ATOM    114  C   UNL A   1      36.923  29.428  30.652  1.00  0.00     0.198 A 
ATOM    115  C   UNL A   1      37.184  29.874  28.320  1.00  0.00     0.198 A 
ATOM    116  F   UNL A   1      39.019  29.030  27.141  1.00  0.00    -0.203 F 
ATOM    117  F   UNL A   1      36.275  29.634  31.808  1.00  0.00    -0.200 F 
ATOM    118  C   UNL A   1      36.489  30.062  29.501  1.00  0.00     0.200 A 
ATOM    119  F   UNL A   1      36.792  30.511  27.207  1.00  0.00    -0.200 F 
ATOM    120  F   UNL A   1      35.432  30.886  29.538  1.00  0.00    -0.200 F 
ENDBRANCH  82 110
BRANCH  97 121
ATOM    121  C   UNL A   1      44.328  27.160  32.208  1.00  0.00     0.064 A 
ATOM    122  C   UNL A   1      44.195  25.797  31.894  1.00  0.00     0.173 A 
ATOM    123  C   UNL A   1      44.496  27.498  33.558  1.00  0.00     0.173 A 
ATOM    124  F   UNL A   1      44.102  25.385  30.624  1.00  0.00    -0.203 F 
ATOM    125  C   UNL A   1      44.212  24.823  32.893  1.00  0.00     0.198 A 
ATOM    126  C   UNL A   1      44.551  26.522  34.548  1.00  0.00     0.198 A 
ATOM    127  F   UNL A   1      44.661  28.782  33.913  1.00  0.00    -0.203 F 
ATOM    128  F   UNL A   1      44.078  23.527  32.571  1.00  0.00    -0.200 F 
ATOM    129  C   UNL A   1      44.403  25.186  34.216  1.00  0.00     0.200 A 
ATOM    130  F   UNL A   1      44.779  26.877  35.819  1.00  0.00    -0.200 F 
ATOM    131  F   UNL A   1      44.471  24.246  35.169  1.00  0.00    -0.200 F 
ENDBRANCH  97 121
ENDBRANCH  62  65
ENDBRANCH  52  55
ENDBRANCH  48  51
ENDBRANCH  45  48
ENDBRANCH  42  45
ENDBRANCH  39  42
ENDBRANCH   1  39
TORSDOF 19
ENDMDL
MODEL 3
REMARK VINA RESULT:     -11.0      2.867      4.088
REMARK SMILES Cc1cc(C)c2c(OCCCC(=O)NCCCCCCNC(=O)c3ccc(-c4c5nc(c(-c6c(F)c(F)c(F)c(F)c6F)c6ccc([nH]6)c(-c6c(F)c(F)c(F)c(F)c6F)c6nc(c(-c7c(F)c(F)c(F)c(F)c7F)c7ccc4[nH]7)C=C6)C=C5)cc3)nsc2n1
REMARK SMILES IDX 16 1 15 4 14 7 12 8 13 9 11 11 10 14 9 17 8 20 7 21 2 22
REMARK SMILES IDX 3 23 90 24 4 25 89 27 6 28 88 29 87 30 1 31 5 35 17 39 18 42
REMARK SMILES IDX 19 45 20 48 21 51 22 52 23 54 24 55 25 56 86 57 26 58 85 60
REMARK SMILES IDX 27 62 28 65 29 66 79 67 30 68 84 69 78 70 80 71 31 72 83 73
REMARK SMILES IDX 77 75 76 77 32 79 64 82 44 83 63 84 45 85 48 86 62 87 81 88
REMARK SMILES IDX 46 89 47 91 61 93 82 94 49 97 33 99 34 100 42 101 35 102
REMARK SMILES IDX 36 103 40 104 43 105 37 106 38 107 41 108 39 109 65 110
REMARK SMILES IDX 66 111 74 112 67 113 68 114 72 115 75 116 69 117 70 118
REMARK SMILES IDX 73 119 71 120 50 121 51 122 59 123 52 124 53 125 57 126
REMARK SMILES IDX 60 127 54 128 55 129 58 130 56 131
REMARK H PARENT 16 2 16 3 15 5 15 6 14 10 11 12 11 13 10 15 10 16 9 18 9 19
REMARK H PARENT 3 26 1 32 1 33 1 34 5 36 5 37 5 38 17 40 17 41 18 43 18 44
REMARK H PARENT 19 46 19 47 20 49 20 50 21 53 25 59 86 61 26 63 85 64 84 74
REMARK H PARENT 78 76 80 78 83 80 77 81 45 90 48 92 81 95 46 96 82 98
REMARK Flexibility Score: inf
ROOT
ATOM      1  C   UNL A   1      35.792  22.242  25.774  1.00  0.00    -0.036 C 
ATOM      2  H   UNL A   1      35.829  22.275  26.843  1.00  0.00     0.028 H 
ATOM      3  H   UNL A   1      34.939  22.724  25.344  1.00  0.00     0.028 H 
ENDROOT
BRANCH   1   4
ATOM      4  C   UNL A   1      35.678  20.734  25.347  1.00  0.00     0.017 C 
ATOM      5  H   UNL A   1      36.069  20.641  24.354  1.00  0.00     0.049 H 
ATOM      6  H   UNL A   1      36.227  20.177  26.077  1.00  0.00     0.049 H 
BRANCH   4   7
ATOM      7  N   UNL A   1      34.234  20.148  25.352  1.00  0.00    -0.356 N 
ATOM      8  C   UNL A   1      32.866  20.279  25.361  1.00  0.00     0.220 C 
ATOM      9  O   UNL A   1      32.361  19.137  25.241  1.00  0.00    -0.275 OA
ATOM     10  H   UNL A   1      34.376  19.174  25.343  1.00  0.00     0.163 HD
BRANCH   8  11
ATOM     11  C   UNL A   1      31.754  21.497  25.292  1.00  0.00     0.030 C 
ATOM     12  H   UNL A   1      32.091  22.053  24.443  1.00  0.00     0.037 H 
ATOM     13  H   UNL A   1      30.935  20.841  25.503  1.00  0.00     0.037 H 
BRANCH  11  14
ATOM     14  C   UNL A   1      31.174  22.673  26.248  1.00  0.00    -0.010 C 
ATOM     15  H   UNL A   1      30.212  22.875  25.825  1.00  0.00     0.031 H 
ATOM     16  H   UNL A   1      31.450  22.200  27.167  1.00  0.00     0.031 H 
BRANCH  14  17
ATOM     17  C   UNL A   1      31.693  24.126  26.667  1.00  0.00     0.090 C 
ATOM     18  H   UNL A   1      32.228  23.982  27.583  1.00  0.00     0.071 H 
ATOM     19  H   UNL A   1      32.180  24.419  25.761  1.00  0.00     0.071 H 
BRANCH  17  20
ATOM     20  O   UNL A   1      30.866  25.280  26.891  1.00  0.00    -0.477 OA
BRANCH  20  21
ATOM     21  C   UNL A   1      30.550  26.180  25.923  1.00  0.00     0.235 A 
ATOM     22  C   UNL A   1      32.969  28.522  23.713  1.00  0.00     0.039 A 
ATOM     23  C   UNL A   1      33.187  28.596  25.087  1.00  0.00    -0.037 A 
ATOM     24  N   UNL A   1      31.807  28.085  23.184  1.00  0.00    -0.240 NA
ATOM     25  C   UNL A   1      32.241  28.096  26.006  1.00  0.00    -0.034 A 
ATOM     26  H   UNL A   1      34.058  29.024  25.440  1.00  0.00     0.064 H 
ATOM     27  C   UNL A   1      31.027  27.453  24.086  1.00  0.00     0.147 A 
ATOM     28  C   UNL A   1      31.288  27.282  25.433  1.00  0.00     0.078 A 
ATOM     29  S   UNL A   1      29.511  26.740  23.785  1.00  0.00    -0.012 S 
ATOM     30  N   UNL A   1      29.452  25.881  25.227  1.00  0.00    -0.153 NA
BRANCH  22  31
ATOM     31  C   UNL A   1      34.100  28.853  22.772  1.00  0.00    -0.022 C 
ATOM     32  H   UNL A   1      34.119  29.908  22.595  1.00  0.00     0.030 H 
ATOM     33  H   UNL A   1      33.955  28.338  21.845  1.00  0.00     0.030 H 
ATOM     34  H   UNL A   1      35.027  28.547  23.209  1.00  0.00     0.030 H 
ENDBRANCH  22  31
BRANCH  25  35
ATOM     35  C   UNL A   1      32.149  28.256  27.476  1.00  0.00    -0.039 C 
ATOM     36  H   UNL A   1      32.964  27.745  27.943  1.00  0.00     0.028 H 
ATOM     37  H   UNL A   1      31.224  27.844  27.822  1.00  0.00     0.028 H 
ATOM     38  H   UNL A   1      32.191  29.296  27.725  1.00  0.00     0.028 H 
ENDBRANCH  25  35
ENDBRANCH  20  21
ENDBRANCH  17  20
ENDBRANCH  14  17
ENDBRANCH  11  14
ENDBRANCH   8  11
ENDBRANCH   4   7
ENDBRANCH   1   4
BRANCH   1  39
ATOM     39  C   UNL A   1      37.009  23.015  25.241  1.00  0.00    -0.052 C 
ATOM     40  H   UNL A   1      36.690  24.019  25.053  1.00  0.00     0.027 H 
ATOM     41  H   UNL A   1      37.323  22.457  24.384  1.00  0.00     0.027 H 
BRANCH  39  42
ATOM     42  C   UNL A   1      38.267  23.093  26.131  1.00  0.00    -0.052 C 
ATOM     43  H   UNL A   1      37.933  23.311  27.124  1.00  0.00     0.027 H 
ATOM     44  H   UNL A   1      38.871  23.835  25.651  1.00  0.00     0.027 H 
BRANCH  42  45
ATOM     45  C   UNL A   1      39.200  21.869  26.226  1.00  0.00    -0.036 C 
ATOM     46  H   UNL A   1      39.573  21.667  25.244  1.00  0.00     0.028 H 
ATOM     47  H   UNL A   1      38.601  21.086  26.641  1.00  0.00     0.028 H 
BRANCH  45  48
ATOM     48  C   UNL A   1      40.399  22.001  27.160  1.00  0.00     0.018 C 
ATOM     49  H   UNL A   1      40.463  21.114  27.755  1.00  0.00     0.049 H 
ATOM     50  H   UNL A   1      40.238  22.879  27.751  1.00  0.00     0.049 H 
BRANCH  48  51
ATOM     51  N   UNL A   1      41.669  22.183  26.466  1.00  0.00    -0.352 N 
ATOM     52  C   UNL A   1      42.336  23.348  26.132  1.00  0.00     0.251 C 
ATOM     53  H   UNL A   1      42.119  21.350  26.196  1.00  0.00     0.163 HD
ATOM     54  O   UNL A   1      43.206  23.334  25.284  1.00  0.00    -0.269 OA
BRANCH  52  55
ATOM     55  C   UNL A   1      41.986  24.618  26.807  1.00  0.00     0.039 A 
ATOM     56  C   UNL A   1      42.556  24.935  28.043  1.00  0.00    -0.049 A 
ATOM     57  C   UNL A   1      41.053  25.476  26.227  1.00  0.00    -0.049 A 
ATOM     58  C   UNL A   1      42.226  26.146  28.646  1.00  0.00    -0.053 A 
ATOM     59  H   UNL A   1      43.211  24.283  28.501  1.00  0.00     0.063 H 
ATOM     60  C   UNL A   1      40.833  26.731  26.748  1.00  0.00    -0.053 A 
ATOM     61  H   UNL A   1      40.520  25.167  25.400  1.00  0.00     0.063 H 
ATOM     62  C   UNL A   1      41.380  27.050  27.978  1.00  0.00    -0.014 A 
ATOM     63  H   UNL A   1      42.599  26.378  29.579  1.00  0.00     0.063 H 
ATOM     64  H   UNL A   1      40.268  27.422  26.228  1.00  0.00     0.063 H 
BRANCH  62  65
ATOM     65  C   UNL A   1      41.190  28.395  28.505  1.00  0.00     0.031 A 
ATOM     66  C   UNL A   1      42.274  29.324  28.102  1.00  0.00     0.074 A 
ATOM     67  C   UNL A   1      40.096  28.820  29.171  1.00  0.00     0.049 A 
ATOM     68  N   UNL A   1      43.236  29.745  28.848  1.00  0.00    -0.248 NA
ATOM     69  C   UNL A   1      42.424  29.670  26.681  1.00  0.00    -0.034 C 
ATOM     70  C   UNL A   1      38.827  28.118  29.388  1.00  0.00    -0.036 A 
ATOM     71  N   UNL A   1      39.872  30.030  29.763  1.00  0.00    -0.354 N 
ATOM     72  C   UNL A   1      44.006  30.583  28.048  1.00  0.00     0.074 A 
ATOM     73  C   UNL A   1      43.575  30.348  26.696  1.00  0.00    -0.034 C 
ATOM     74  H   UNL A   1      41.807  29.448  25.884  1.00  0.00     0.065 H 
ATOM     75  C   UNL A   1      37.905  28.979  29.879  1.00  0.00    -0.036 A 
ATOM     76  H   UNL A   1      38.661  27.118  29.195  1.00  0.00     0.065 H 
ATOM     77  C   UNL A   1      38.559  30.240  30.175  1.00  0.00     0.049 A 
ATOM     78  H   UNL A   1      40.583  30.700  29.888  1.00  0.00     0.167 HD
ATOM     79  C   UNL A   1      44.729  31.584  28.621  1.00  0.00     0.037 A 
ATOM     80  H   UNL A   1      44.084  30.661  25.855  1.00  0.00     0.065 H 
ATOM     81  H   UNL A   1      36.904  28.773  30.020  1.00  0.00     0.065 H 
ATOM     82  C   UNL A   1      38.060  31.372  30.733  1.00  0.00     0.037 A 
ATOM     83  C   UNL A   1      44.837  31.362  30.045  1.00  0.00     0.049 A 
ATOM     84  C   UNL A   1      39.210  32.091  31.324  1.00  0.00     0.074 A 
ATOM     85  C   UNL A   1      45.454  30.439  30.862  1.00  0.00    -0.036 A 
ATOM     86  N   UNL A   1      43.857  31.963  30.791  1.00  0.00    -0.354 N 
ATOM     87  N   UNL A   1      39.886  31.657  32.350  1.00  0.00    -0.248 NA
ATOM     88  C   UNL A   1      39.859  33.132  30.541  1.00  0.00    -0.034 C 
ATOM     89  C   UNL A   1      44.598  30.299  31.997  1.00  0.00    -0.036 A 
ATOM     90  H   UNL A   1      46.347  29.951  30.690  1.00  0.00     0.065 H 
ATOM     91  C   UNL A   1      43.527  31.183  31.863  1.00  0.00     0.049 A 
ATOM     92  H   UNL A   1      43.447  32.835  30.582  1.00  0.00     0.167 HD
ATOM     93  C   UNL A   1      41.190  32.032  32.086  1.00  0.00     0.074 A 
ATOM     94  C   UNL A   1      41.085  33.069  31.063  1.00  0.00    -0.034 C 
ATOM     95  H   UNL A   1      39.480  33.741  29.798  1.00  0.00     0.065 H 
ATOM     96  H   UNL A   1      44.747  29.650  32.786  1.00  0.00     0.065 H 
ATOM     97  C   UNL A   1      42.228  31.248  32.499  1.00  0.00     0.037 A 
ATOM     98  H   UNL A   1      41.866  33.679  30.778  1.00  0.00     0.065 H 
BRANCH  79  99
ATOM     99  C   UNL A   1      44.898  32.972  28.033  1.00  0.00     0.064 A 
ATOM    100  C   UNL A   1      46.200  33.414  27.708  1.00  0.00     0.173 A 
ATOM    101  C   UNL A   1      43.916  33.986  28.076  1.00  0.00     0.173 A 
ATOM    102  F   UNL A   1      47.223  32.547  27.653  1.00  0.00    -0.203 F 
ATOM    103  C   UNL A   1      46.505  34.767  27.533  1.00  0.00     0.198 A 
ATOM    104  C   UNL A   1      44.216  35.329  27.853  1.00  0.00     0.198 A 
ATOM    105  F   UNL A   1      42.654  33.750  28.445  1.00  0.00    -0.203 F 
ATOM    106  F   UNL A   1      47.779  35.145  27.361  1.00  0.00    -0.200 F 
ATOM    107  C   UNL A   1      45.513  35.724  27.613  1.00  0.00     0.200 A 
ATOM    108  F   UNL A   1      43.243  36.245  27.960  1.00  0.00    -0.200 F 
ATOM    109  F   UNL A   1      45.811  37.026  27.509  1.00  0.00    -0.200 F 
ENDBRANCH  79  99
BRANCH  82 110
ATOM    110  C   UNL A   1      36.732  32.017  30.585  1.00  0.00     0.064 A 
ATOM    111  C   UNL A   1      35.824  32.049  31.662  1.00  0.00     0.173 A 
ATOM    112  C   UNL A   1      36.462  32.894  29.519  1.00  0.00     0.173 A 
ATOM    113  F   UNL A   1      36.019  31.266  32.734  1.00  0.00    -0.203 F 
ATOM    114  C   UNL A   1      34.754  32.949  31.699  1.00  0.00     0.198 A 
ATOM    115  C   UNL A   1      35.390  33.789  29.555  1.00  0.00     0.198 A 
ATOM    116  F   UNL A   1      37.294  32.973  28.470  1.00  0.00    -0.203 F 
ATOM    117  F   UNL A   1      33.966  33.009  32.783  1.00  0.00    -0.200 F 
ATOM    118  C   UNL A   1      34.550  33.833  30.654  1.00  0.00     0.200 A 
ATOM    119  F   UNL A   1      35.221  34.664  28.554  1.00  0.00    -0.200 F 
ATOM    120  F   UNL A   1      33.577  34.752  30.724  1.00  0.00    -0.200 F 
ENDBRANCH  82 110
BRANCH  97 121
ATOM    121  C   UNL A   1      41.953  30.247  33.586  1.00  0.00     0.064 A 
ATOM    122  C   UNL A   1      41.571  28.912  33.368  1.00  0.00     0.173 A 
ATOM    123  C   UNL A   1      42.223  30.634  34.906  1.00  0.00     0.173 A 
ATOM    124  F   UNL A   1      41.363  28.445  32.131  1.00  0.00    -0.203 F 
ATOM    125  C   UNL A   1      41.450  28.015  34.430  1.00  0.00     0.198 A 
ATOM    126  C   UNL A   1      42.138  29.727  35.958  1.00  0.00     0.198 A 
ATOM    127  F   UNL A   1      42.624  31.887  35.169  1.00  0.00    -0.203 F 
ATOM    128  F   UNL A   1      41.077  26.746  34.199  1.00  0.00    -0.200 F 
ATOM    129  C   UNL A   1      41.746  28.420  35.721  1.00  0.00     0.200 A 
ATOM    130  F   UNL A   1      42.468  30.115  37.197  1.00  0.00    -0.200 F 
ATOM    131  F   UNL A   1      41.679  27.545  36.734  1.00  0.00    -0.200 F 
ENDBRANCH  97 121
ENDBRANCH  62  65
ENDBRANCH  52  55
ENDBRANCH  48  51
ENDBRANCH  45  48
ENDBRANCH  42  45
ENDBRANCH  39  42
ENDBRANCH   1  39
TORSDOF 19
ENDMDL
MODEL 4
REMARK VINA RESULT:     -11.0      4.044      9.828
REMARK SMILES Cc1cc(C)c2c(OCCCC(=O)NCCCCCCNC(=O)c3ccc(-c4c5nc(c(-c6c(F)c(F)c(F)c(F)c6F)c6ccc([nH]6)c(-c6c(F)c(F)c(F)c(F)c6F)c6nc(c(-c7c(F)c(F)c(F)c(F)c7F)c7ccc4[nH]7)C=C6)C=C5)cc3)nsc2n1
REMARK SMILES IDX 16 1 15 4 14 7 12 8 13 9 11 11 10 14 9 17 8 20 7 21 2 22
REMARK SMILES IDX 3 23 90 24 4 25 89 27 6 28 88 29 87 30 1 31 5 35 17 39 18 42
REMARK SMILES IDX 19 45 20 48 21 51 22 52 23 54 24 55 25 56 86 57 26 58 85 60
REMARK SMILES IDX 27 62 28 65 29 66 79 67 30 68 84 69 78 70 80 71 31 72 83 73
REMARK SMILES IDX 77 75 76 77 32 79 64 82 44 83 63 84 45 85 48 86 62 87 81 88
REMARK SMILES IDX 46 89 47 91 61 93 82 94 49 97 33 99 34 100 42 101 35 102
REMARK SMILES IDX 36 103 40 104 43 105 37 106 38 107 41 108 39 109 65 110
REMARK SMILES IDX 66 111 74 112 67 113 68 114 72 115 75 116 69 117 70 118
REMARK SMILES IDX 73 119 71 120 50 121 51 122 59 123 52 124 53 125 57 126
REMARK SMILES IDX 60 127 54 128 55 129 58 130 56 131
REMARK H PARENT 16 2 16 3 15 5 15 6 14 10 11 12 11 13 10 15 10 16 9 18 9 19
REMARK H PARENT 3 26 1 32 1 33 1 34 5 36 5 37 5 38 17 40 17 41 18 43 18 44
REMARK H PARENT 19 46 19 47 20 49 20 50 21 53 25 59 86 61 26 63 85 64 84 74
REMARK H PARENT 78 76 80 78 83 80 77 81 45 90 48 92 81 95 46 96 82 98
REMARK Flexibility Score: inf
ROOT
ATOM      1  C   UNL A   1      33.964  31.976  28.041  1.00  0.00    -0.036 C 
ATOM      2  H   UNL A   1      33.801  31.978  29.099  1.00  0.00     0.028 H 
ATOM      3  H   UNL A   1      33.120  32.281  27.460  1.00  0.00     0.028 H 
ENDROOT
BRANCH   1   4
ATOM      4  C   UNL A   1      34.254  30.493  27.607  1.00  0.00     0.017 C 
ATOM      5  H   UNL A   1      34.653  30.512  26.613  1.00  0.00     0.049 H 
ATOM      6  H   UNL A   1      34.934  30.099  28.333  1.00  0.00     0.049 H 
BRANCH   4   7
ATOM      7  N   UNL A   1      33.019  29.544  27.612  1.00  0.00    -0.356 N 
ATOM      8  C   UNL A   1      31.992  28.876  26.986  1.00  0.00     0.220 C 
ATOM      9  O   UNL A   1      31.433  28.137  27.831  1.00  0.00    -0.275 OA
ATOM     10  H   UNL A   1      32.923  29.287  28.557  1.00  0.00     0.163 HD
BRANCH   8  11
ATOM     11  C   UNL A   1      31.444  28.644  25.446  1.00  0.00     0.030 C 
ATOM     12  H   UNL A   1      31.008  27.670  25.515  1.00  0.00     0.037 H 
ATOM     13  H   UNL A   1      31.076  29.645  25.364  1.00  0.00     0.037 H 
BRANCH  11  14
ATOM     14  C   UNL A   1      32.029  28.639  23.933  1.00  0.00    -0.010 C 
ATOM     15  H   UNL A   1      31.445  29.392  23.447  1.00  0.00     0.031 H 
ATOM     16  H   UNL A   1      33.058  28.630  24.224  1.00  0.00     0.031 H 
BRANCH  14  17
ATOM     17  C   UNL A   1      32.184  27.519  22.802  1.00  0.00     0.090 C 
ATOM     18  H   UNL A   1      31.360  26.852  22.949  1.00  0.00     0.071 H 
ATOM     19  H   UNL A   1      32.269  28.141  21.935  1.00  0.00     0.071 H 
BRANCH  17  20
ATOM     20  O   UNL A   1      33.328  26.671  22.614  1.00  0.00    -0.477 OA
BRANCH  20  21
ATOM     21  C   UNL A   1      33.357  25.357  22.959  1.00  0.00     0.235 A 
ATOM     22  C   UNL A   1      31.452  23.452  25.952  1.00  0.00     0.039 A 
ATOM     23  C   UNL A   1      32.161  24.584  26.344  1.00  0.00    -0.037 A 
ATOM     24  N   UNL A   1      31.718  22.787  24.808  1.00  0.00    -0.240 NA
ATOM     25  C   UNL A   1      33.123  25.175  25.499  1.00  0.00    -0.034 A 
ATOM     26  H   UNL A   1      31.980  25.000  27.272  1.00  0.00     0.064 H 
ATOM     27  C   UNL A   1      32.500  23.492  23.965  1.00  0.00     0.147 A 
ATOM     28  C   UNL A   1      33.057  24.737  24.194  1.00  0.00     0.078 A 
ATOM     29  S   UNL A   1      33.019  22.999  22.420  1.00  0.00    -0.012 S 
ATOM     30  N   UNL A   1      33.542  24.520  21.937  1.00  0.00    -0.153 NA
BRANCH  22  31
ATOM     31  C   UNL A   1      30.278  22.997  26.783  1.00  0.00    -0.022 C 
ATOM     32  H   UNL A   1      29.680  22.317  26.212  1.00  0.00     0.030 H 
ATOM     33  H   UNL A   1      29.688  23.844  27.062  1.00  0.00     0.030 H 
ATOM     34  H   UNL A   1      30.635  22.504  27.663  1.00  0.00     0.030 H 
ENDBRANCH  22  31
BRANCH  25  35
ATOM     35  C   UNL A   1      34.136  26.220  25.774  1.00  0.00    -0.039 C 
ATOM     36  H   UNL A   1      34.008  26.588  26.771  1.00  0.00     0.028 H 
ATOM     37  H   UNL A   1      34.017  27.025  25.079  1.00  0.00     0.028 H 
ATOM     38  H   UNL A   1      35.116  25.803  25.672  1.00  0.00     0.028 H 
ENDBRANCH  25  35
ENDBRANCH  20  21
ENDBRANCH  17  20
ENDBRANCH  14  17
ENDBRANCH  11  14
ENDBRANCH   8  11
ENDBRANCH   4   7
ENDBRANCH   1   4
BRANCH   1  39
ATOM     39  C   UNL A   1      35.064  33.006  27.737  1.00  0.00    -0.052 C 
ATOM     40  H   UNL A   1      34.811  33.475  26.809  1.00  0.00     0.027 H 
ATOM     41  H   UNL A   1      35.970  32.437  27.741  1.00  0.00     0.027 H 
BRANCH  39  42
ATOM     42  C   UNL A   1      35.311  34.129  28.766  1.00  0.00    -0.052 C 
ATOM     43  H   UNL A   1      36.237  34.596  28.501  1.00  0.00     0.027 H 
ATOM     44  H   UNL A   1      35.280  33.620  29.707  1.00  0.00     0.027 H 
BRANCH  42  45
ATOM     45  C   UNL A   1      34.267  35.253  28.923  1.00  0.00    -0.036 C 
ATOM     46  H   UNL A   1      33.928  35.521  27.944  1.00  0.00     0.028 H 
ATOM     47  H   UNL A   1      34.771  36.037  29.448  1.00  0.00     0.028 H 
BRANCH  45  48
ATOM     48  C   UNL A   1      33.039  34.924  29.766  1.00  0.00     0.018 C 
ATOM     49  H   UNL A   1      33.024  33.870  29.945  1.00  0.00     0.049 H 
ATOM     50  H   UNL A   1      32.184  35.257  29.214  1.00  0.00     0.049 H 
BRANCH  48  51
ATOM     51  N   UNL A   1      33.007  35.610  31.052  1.00  0.00    -0.352 N 
ATOM     52  C   UNL A   1      33.650  35.301  32.237  1.00  0.00     0.251 C 
ATOM     53  H   UNL A   1      32.442  36.417  31.081  1.00  0.00     0.163 HD
ATOM     54  O   UNL A   1      33.268  35.781  33.286  1.00  0.00    -0.269 OA
BRANCH  52  55
ATOM     55  C   UNL A   1      34.808  34.378  32.229  1.00  0.00     0.039 A 
ATOM     56  C   UNL A   1      34.603  32.998  32.153  1.00  0.00    -0.049 A 
ATOM     57  C   UNL A   1      36.101  34.888  32.341  1.00  0.00    -0.049 A 
ATOM     58  C   UNL A   1      35.710  32.153  32.125  1.00  0.00    -0.053 A 
ATOM     59  H   UNL A   1      33.648  32.610  32.118  1.00  0.00     0.063 H 
ATOM     60  C   UNL A   1      37.195  34.072  32.172  1.00  0.00    -0.053 A 
ATOM     61  H   UNL A   1      36.238  35.888  32.554  1.00  0.00     0.063 H 
ATOM     62  C   UNL A   1      37.006  32.702  32.111  1.00  0.00    -0.014 A 
ATOM     63  H   UNL A   1      35.581  31.130  32.116  1.00  0.00     0.063 H 
ATOM     64  H   UNL A   1      38.143  34.475  32.092  1.00  0.00     0.063 H 
BRANCH  62  65
ATOM     65  C   UNL A   1      38.159  31.842  31.880  1.00  0.00     0.031 A 
ATOM     66  C   UNL A   1      38.884  31.510  33.130  1.00  0.00     0.074 A 
ATOM     67  C   UNL A   1      38.480  31.277  30.697  1.00  0.00     0.049 A 
ATOM     68  N   UNL A   1      40.007  32.009  33.517  1.00  0.00    -0.248 NA
ATOM     69  C   UNL A   1      38.210  30.695  34.152  1.00  0.00    -0.034 C 
ATOM     70  C   UNL A   1      37.709  31.263  29.450  1.00  0.00    -0.036 A 
ATOM     71  N   UNL A   1      39.577  30.528  30.378  1.00  0.00    -0.354 N 
ATOM     72  C   UNL A   1      40.293  31.413  34.741  1.00  0.00     0.074 A 
ATOM     73  C   UNL A   1      39.078  30.771  35.164  1.00  0.00    -0.034 C 
ATOM     74  H   UNL A   1      37.306  30.198  34.101  1.00  0.00     0.065 H 
ATOM     75  C   UNL A   1      38.257  30.382  28.581  1.00  0.00    -0.036 A 
ATOM     76  H   UNL A   1      36.873  31.839  29.262  1.00  0.00     0.065 H 
ATOM     77  C   UNL A   1      39.510  29.901  29.136  1.00  0.00     0.049 A 
ATOM     78  H   UNL A   1      40.353  30.440  30.977  1.00  0.00     0.167 HD
ATOM     79  C   UNL A   1      41.587  31.284  35.141  1.00  0.00     0.037 A 
ATOM     80  H   UNL A   1      38.902  30.417  36.117  1.00  0.00     0.065 H 
ATOM     81  H   UNL A   1      37.854  30.099  27.675  1.00  0.00     0.065 H 
ATOM     82  C   UNL A   1      40.433  29.059  28.607  1.00  0.00     0.037 A 
ATOM     83  C   UNL A   1      42.439  32.137  34.343  1.00  0.00     0.049 A 
ATOM     84  C   UNL A   1      41.713  29.360  29.284  1.00  0.00     0.074 A 
ATOM     85  C   UNL A   1      42.616  33.495  34.185  1.00  0.00    -0.036 A 
ATOM     86  N   UNL A   1      42.969  31.533  33.233  1.00  0.00    -0.354 N 
ATOM     87  N   UNL A   1      42.367  30.477  29.132  1.00  0.00    -0.248 NA
ATOM     88  C   UNL A   1      42.097  28.560  30.437  1.00  0.00    -0.034 C 
ATOM     89  C   UNL A   1      42.974  33.678  32.815  1.00  0.00    -0.036 A 
ATOM     90  H   UNL A   1      42.512  34.226  34.906  1.00  0.00     0.065 H 
ATOM     91  C   UNL A   1      43.064  32.426  32.204  1.00  0.00     0.049 A 
ATOM     92  H   UNL A   1      43.242  30.587  33.184  1.00  0.00     0.167 HD
ATOM     93  C   UNL A   1      42.908  30.730  30.379  1.00  0.00     0.074 A 
ATOM     94  C   UNL A   1      42.854  29.451  31.081  1.00  0.00    -0.034 C 
ATOM     95  H   UNL A   1      41.854  27.588  30.685  1.00  0.00     0.065 H 
ATOM     96  H   UNL A   1      43.139  34.586  32.352  1.00  0.00     0.065 H 
ATOM     97  C   UNL A   1      43.058  32.014  30.815  1.00  0.00     0.037 A 
ATOM     98  H   UNL A   1      43.342  29.259  31.969  1.00  0.00     0.065 H 
BRANCH  79  99
ATOM     99  C   UNL A   1      42.151  30.073  35.861  1.00  0.00     0.064 A 
ATOM    100  C   UNL A   1      43.131  30.276  36.858  1.00  0.00     0.173 A 
ATOM    101  C   UNL A   1      42.025  28.741  35.409  1.00  0.00     0.173 A 
ATOM    102  F   UNL A   1      43.358  31.502  37.355  1.00  0.00    -0.203 F 
ATOM    103  C   UNL A   1      43.972  29.249  37.296  1.00  0.00     0.198 A 
ATOM    104  C   UNL A   1      42.834  27.710  35.884  1.00  0.00     0.198 A 
ATOM    105  F   UNL A   1      41.203  28.393  34.415  1.00  0.00    -0.203 F 
ATOM    106  F   UNL A   1      44.973  29.524  38.143  1.00  0.00    -0.200 F 
ATOM    107  C   UNL A   1      43.828  27.967  36.802  1.00  0.00     0.200 A 
ATOM    108  F   UNL A   1      42.693  26.478  35.373  1.00  0.00    -0.200 F 
ATOM    109  F   UNL A   1      44.671  26.994  37.171  1.00  0.00    -0.200 F 
ENDBRANCH  79  99
BRANCH  82 110
ATOM    110  C   UNL A   1      40.264  27.852  27.760  1.00  0.00     0.064 A 
ATOM    111  C   UNL A   1      41.018  27.690  26.582  1.00  0.00     0.173 A 
ATOM    112  C   UNL A   1      39.627  26.699  28.254  1.00  0.00     0.173 A 
ATOM    113  F   UNL A   1      41.683  28.730  26.056  1.00  0.00    -0.203 F 
ATOM    114  C   UNL A   1      41.178  26.440  25.974  1.00  0.00     0.198 A 
ATOM    115  C   UNL A   1      39.784  25.452  27.643  1.00  0.00     0.198 A 
ATOM    116  F   UNL A   1      38.926  26.740  29.397  1.00  0.00    -0.203 F 
ATOM    117  F   UNL A   1      41.977  26.313  24.904  1.00  0.00    -0.200 F 
ATOM    118  C   UNL A   1      40.577  25.319  26.517  1.00  0.00     0.200 A 
ATOM    119  F   UNL A   1      39.225  24.367  28.196  1.00  0.00    -0.200 F 
ATOM    120  F   UNL A   1      40.796  24.107  25.986  1.00  0.00    -0.200 F 
ENDBRANCH  82 110
BRANCH  97 121
ATOM    121  C   UNL A   1      43.040  33.106  29.783  1.00  0.00     0.064 A 
ATOM    122  C   UNL A   1      41.943  33.946  29.524  1.00  0.00     0.173 A 
ATOM    123  C   UNL A   1      44.243  33.393  29.122  1.00  0.00     0.173 A 
ATOM    124  F   UNL A   1      40.781  33.784  30.165  1.00  0.00    -0.203 F 
ATOM    125  C   UNL A   1      42.048  35.012  28.630  1.00  0.00     0.198 A 
ATOM    126  C   UNL A   1      44.355  34.479  28.261  1.00  0.00     0.198 A 
ATOM    127  F   UNL A   1      45.332  32.644  29.356  1.00  0.00    -0.203 F 
ATOM    128  F   UNL A   1      40.987  35.798  28.393  1.00  0.00    -0.200 F 
ATOM    129  C   UNL A   1      43.257  35.285  28.010  1.00  0.00     0.200 A 
ATOM    130  F   UNL A   1      45.538  34.762  27.699  1.00  0.00    -0.200 F 
ATOM    131  F   UNL A   1      43.371  36.340  27.191  1.00  0.00    -0.200 F 
ENDBRANCH  97 121
ENDBRANCH  62  65
ENDBRANCH  52  55
ENDBRANCH  48  51
ENDBRANCH  45  48
ENDBRANCH  42  45
ENDBRANCH  39  42
ENDBRANCH   1  39
TORSDOF 19
ENDMDL
MODEL 5
REMARK VINA RESULT:     -10.9      2.981      8.950
REMARK SMILES Cc1cc(C)c2c(OCCCC(=O)NCCCCCCNC(=O)c3ccc(-c4c5nc(c(-c6c(F)c(F)c(F)c(F)c6F)c6ccc([nH]6)c(-c6c(F)c(F)c(F)c(F)c6F)c6nc(c(-c7c(F)c(F)c(F)c(F)c7F)c7ccc4[nH]7)C=C6)C=C5)cc3)nsc2n1
REMARK SMILES IDX 16 1 15 4 14 7 12 8 13 9 11 11 10 14 9 17 8 20 7 21 2 22
REMARK SMILES IDX 3 23 90 24 4 25 89 27 6 28 88 29 87 30 1 31 5 35 17 39 18 42
REMARK SMILES IDX 19 45 20 48 21 51 22 52 23 54 24 55 25 56 86 57 26 58 85 60
REMARK SMILES IDX 27 62 28 65 29 66 79 67 30 68 84 69 78 70 80 71 31 72 83 73
REMARK SMILES IDX 77 75 76 77 32 79 64 82 44 83 63 84 45 85 48 86 62 87 81 88
REMARK SMILES IDX 46 89 47 91 61 93 82 94 49 97 33 99 34 100 42 101 35 102
REMARK SMILES IDX 36 103 40 104 43 105 37 106 38 107 41 108 39 109 65 110
REMARK SMILES IDX 66 111 74 112 67 113 68 114 72 115 75 116 69 117 70 118
REMARK SMILES IDX 73 119 71 120 50 121 51 122 59 123 52 124 53 125 57 126
REMARK SMILES IDX 60 127 54 128 55 129 58 130 56 131
REMARK H PARENT 16 2 16 3 15 5 15 6 14 10 11 12 11 13 10 15 10 16 9 18 9 19
REMARK H PARENT 3 26 1 32 1 33 1 34 5 36 5 37 5 38 17 40 17 41 18 43 18 44
REMARK H PARENT 19 46 19 47 20 49 20 50 21 53 25 59 86 61 26 63 85 64 84 74
REMARK H PARENT 78 76 80 78 83 80 77 81 45 90 48 92 81 95 46 96 82 98
REMARK Flexibility Score: inf
ROOT
ATOM      1  C   UNL A   1      32.067  28.049  27.074  1.00  0.00    -0.036 C 
ATOM      2  H   UNL A   1      31.783  27.178  27.629  1.00  0.00     0.028 H 
ATOM      3  H   UNL A   1      31.646  28.963  27.435  1.00  0.00     0.028 H 
ENDROOT
BRANCH   1   4
ATOM      4  C   UNL A   1      31.515  27.884  25.612  1.00  0.00     0.017 C 
ATOM      5  H   UNL A   1      30.647  28.503  25.515  1.00  0.00     0.049 H 
ATOM      6  H   UNL A   1      32.316  28.164  24.959  1.00  0.00     0.049 H 
BRANCH   4   7
ATOM      7  N   UNL A   1      31.118  26.432  25.210  1.00  0.00    -0.356 N 
ATOM      8  C   UNL A   1      31.121  25.070  25.401  1.00  0.00     0.220 C 
ATOM      9  O   UNL A   1      30.369  24.552  24.542  1.00  0.00    -0.275 OA
ATOM     10  H   UNL A   1      30.586  26.552  24.390  1.00  0.00     0.163 HD
BRANCH   8  11
ATOM     11  C   UNL A   1      31.667  23.995  26.529  1.00  0.00     0.030 C 
ATOM     12  H   UNL A   1      31.156  24.325  27.409  1.00  0.00     0.037 H 
ATOM     13  H   UNL A   1      31.585  23.163  25.862  1.00  0.00     0.037 H 
BRANCH  11  14
ATOM     14  C   UNL A   1      33.080  23.482  27.139  1.00  0.00    -0.010 C 
ATOM     15  H   UNL A   1      33.787  23.787  26.397  1.00  0.00     0.031 H 
ATOM     16  H   UNL A   1      32.901  23.847  28.128  1.00  0.00     0.031 H 
BRANCH  14  17
ATOM     17  C   UNL A   1      33.641  22.059  27.606  1.00  0.00     0.090 C 
ATOM     18  H   UNL A   1      34.298  22.269  28.425  1.00  0.00     0.071 H 
ATOM     19  H   UNL A   1      32.722  21.529  27.733  1.00  0.00     0.071 H 
BRANCH  17  20
ATOM     20  O   UNL A   1      34.356  21.127  26.779  1.00  0.00    -0.477 OA
BRANCH  20  21
ATOM     21  C   UNL A   1      34.941  21.461  25.598  1.00  0.00     0.235 A 
ATOM     22  C   UNL A   1      33.465  23.601  22.523  1.00  0.00     0.039 A 
ATOM     23  C   UNL A   1      32.646  22.559  22.950  1.00  0.00    -0.037 A 
ATOM     24  N   UNL A   1      34.790  23.635  22.777  1.00  0.00    -0.240 NA
ATOM     25  C   UNL A   1      33.139  21.536  23.786  1.00  0.00    -0.034 A 
ATOM     26  H   UNL A   1      31.658  22.535  22.650  1.00  0.00     0.064 H 
ATOM     27  C   UNL A   1      35.163  22.749  23.723  1.00  0.00     0.147 A 
ATOM     28  C   UNL A   1      34.353  21.832  24.368  1.00  0.00     0.078 A 
ATOM     29  S   UNL A   1      36.737  22.524  24.331  1.00  0.00    -0.012 S 
ATOM     30  N   UNL A   1      36.264  21.614  25.661  1.00  0.00    -0.153 NA
BRANCH  22  31
ATOM     31  C   UNL A   1      32.843  24.787  21.828  1.00  0.00    -0.022 C 
ATOM     32  H   UNL A   1      33.556  25.584  21.777  1.00  0.00     0.030 H 
ATOM     33  H   UNL A   1      31.984  25.111  22.376  1.00  0.00     0.030 H 
ATOM     34  H   UNL A   1      32.551  24.506  20.838  1.00  0.00     0.030 H 
ENDBRANCH  22  31
BRANCH  25  35
ATOM     35  C   UNL A   1      32.538  20.241  24.180  1.00  0.00    -0.039 C 
ATOM     36  H   UNL A   1      31.787  20.406  24.924  1.00  0.00     0.028 H 
ATOM     37  H   UNL A   1      33.298  19.600  24.576  1.00  0.00     0.028 H 
ATOM     38  H   UNL A   1      32.094  19.778  23.323  1.00  0.00     0.028 H 
ENDBRANCH  25  35
ENDBRANCH  20  21
ENDBRANCH  17  20
ENDBRANCH  14  17
ENDBRANCH  11  14
ENDBRANCH   8  11
ENDBRANCH   4   7
ENDBRANCH   1   4
BRANCH   1  39
ATOM     39  C   UNL A   1      33.589  28.217  27.217  1.00  0.00    -0.052 C 
ATOM     40  H   UNL A   1      34.049  27.446  26.637  1.00  0.00     0.027 H 
ATOM     41  H   UNL A   1      33.763  28.175  28.272  1.00  0.00     0.027 H 
BRANCH  39  42
ATOM     42  C   UNL A   1      34.215  29.557  26.778  1.00  0.00    -0.052 C 
ATOM     43  H   UNL A   1      34.108  29.618  25.715  1.00  0.00     0.027 H 
ATOM     44  H   UNL A   1      35.214  29.506  27.160  1.00  0.00     0.027 H 
BRANCH  42  45
ATOM     45  C   UNL A   1      33.667  30.874  27.364  1.00  0.00    -0.036 C 
ATOM     46  H   UNL A   1      33.181  30.641  28.289  1.00  0.00     0.028 H 
ATOM     47  H   UNL A   1      33.020  31.272  26.611  1.00  0.00     0.028 H 
BRANCH  45  48
ATOM     48  C   UNL A   1      34.690  31.971  27.641  1.00  0.00     0.018 C 
ATOM     49  H   UNL A   1      34.500  32.786  26.976  1.00  0.00     0.049 H 
ATOM     50  H   UNL A   1      35.658  31.539  27.492  1.00  0.00     0.049 H 
BRANCH  48  51
ATOM     51  N   UNL A   1      34.657  32.475  29.010  1.00  0.00    -0.352 N 
ATOM     52  C   UNL A   1      35.359  32.056  30.125  1.00  0.00     0.251 C 
ATOM     53  H   UNL A   1      34.042  33.229  29.161  1.00  0.00     0.163 HD
ATOM     54  O   UNL A   1      34.982  32.364  31.239  1.00  0.00    -0.269 OA
BRANCH  52  55
ATOM     55  C   UNL A   1      36.575  31.225  29.963  1.00  0.00     0.039 A 
ATOM     56  C   UNL A   1      37.835  31.828  29.923  1.00  0.00    -0.049 A 
ATOM     57  C   UNL A   1      36.454  29.846  29.805  1.00  0.00    -0.049 A 
ATOM     58  C   UNL A   1      38.962  31.022  29.790  1.00  0.00    -0.053 A 
ATOM     59  H   UNL A   1      37.929  32.853  29.990  1.00  0.00     0.063 H 
ATOM     60  C   UNL A   1      37.567  29.037  29.817  1.00  0.00    -0.053 A 
ATOM     61  H   UNL A   1      35.520  29.426  29.678  1.00  0.00     0.063 H 
ATOM     62  C   UNL A   1      38.820  29.622  29.762  1.00  0.00    -0.014 A 
ATOM     63  H   UNL A   1      39.898  31.449  29.712  1.00  0.00     0.063 H 
ATOM     64  H   UNL A   1      37.468  28.010  29.865  1.00  0.00     0.063 H 
BRANCH  62  65
ATOM     65  C   UNL A   1      39.999  28.769  29.827  1.00  0.00     0.031 A 
ATOM     66  C   UNL A   1      40.492  28.579  31.213  1.00  0.00     0.074 A 
ATOM     67  C   UNL A   1      40.528  28.097  28.782  1.00  0.00     0.049 A 
ATOM     68  N   UNL A   1      41.526  29.138  31.739  1.00  0.00    -0.248 NA
ATOM     69  C   UNL A   1      39.650  27.854  32.176  1.00  0.00    -0.034 C 
ATOM     70  C   UNL A   1      39.992  27.944  27.426  1.00  0.00    -0.036 A 
ATOM     71  N   UNL A   1      41.667  27.345  28.739  1.00  0.00    -0.354 N 
ATOM     72  C   UNL A   1      41.591  28.672  33.048  1.00  0.00     0.074 A 
ATOM     73  C   UNL A   1      40.323  28.048  33.312  1.00  0.00    -0.034 C 
ATOM     74  H   UNL A   1      38.772  27.334  32.016  1.00  0.00     0.065 H 
ATOM     75  C   UNL A   1      40.689  26.993  26.762  1.00  0.00    -0.036 A 
ATOM     76  H   UNL A   1      39.200  28.479  27.037  1.00  0.00     0.065 H 
ATOM     77  C   UNL A   1      41.825  26.597  27.575  1.00  0.00     0.049 A 
ATOM     78  H   UNL A   1      42.325  27.334  29.472  1.00  0.00     0.167 HD
ATOM     79  C   UNL A   1      42.795  28.611  33.681  1.00  0.00     0.037 A 
ATOM     80  H   UNL A   1      39.982  27.787  34.250  1.00  0.00     0.065 H 
ATOM     81  H   UNL A   1      40.455  26.613  25.832  1.00  0.00     0.065 H 
ATOM     82  C   UNL A   1      42.831  25.728  27.305  1.00  0.00     0.037 A 
ATOM     83  C   UNL A   1      43.771  29.400  32.965  1.00  0.00     0.049 A 
ATOM     84  C   UNL A   1      43.969  26.122  28.164  1.00  0.00     0.074 A 
ATOM     85  C   UNL A   1      43.968  30.739  32.704  1.00  0.00    -0.036 A 
ATOM     86  N   UNL A   1      44.493  28.701  32.032  1.00  0.00    -0.354 N 
ATOM     87  N   UNL A   1      44.635  27.233  28.018  1.00  0.00    -0.248 NA
ATOM     88  C   UNL A   1      44.144  25.449  29.442  1.00  0.00    -0.034 C 
ATOM     89  C   UNL A   1      44.563  30.794  31.407  1.00  0.00    -0.036 A 
ATOM     90  H   UNL A   1      43.734  31.536  33.318  1.00  0.00     0.065 H 
ATOM     91  C   UNL A   1      44.765  29.491  30.951  1.00  0.00     0.049 A 
ATOM     92  H   UNL A   1      44.774  27.762  32.128  1.00  0.00     0.167 HD
ATOM     93  C   UNL A   1      44.944  27.620  29.309  1.00  0.00     0.074 A 
ATOM     94  C   UNL A   1      44.771  26.415  30.115  1.00  0.00    -0.034 C 
ATOM     95  H   UNL A   1      43.865  24.500  29.740  1.00  0.00     0.065 H 
ATOM     96  H   UNL A   1      44.804  31.655  30.892  1.00  0.00     0.065 H 
ATOM     97  C   UNL A   1      45.009  28.944  29.632  1.00  0.00     0.037 A 
ATOM     98  H   UNL A   1      45.095  26.323  31.091  1.00  0.00     0.065 H 
BRANCH  79  99
ATOM     99  C   UNL A   1      43.226  27.491  34.609  1.00  0.00     0.064 A 
ATOM    100  C   UNL A   1      43.513  27.802  35.957  1.00  0.00     0.173 A 
ATOM    101  C   UNL A   1      43.678  26.224  34.178  1.00  0.00     0.173 A 
ATOM    102  F   UNL A   1      43.151  28.984  36.478  1.00  0.00    -0.203 F 
ATOM    103  C   UNL A   1      44.267  26.953  36.773  1.00  0.00     0.198 A 
ATOM    104  C   UNL A   1      44.388  25.360  35.011  1.00  0.00     0.198 A 
ATOM    105  F   UNL A   1      43.559  25.808  32.914  1.00  0.00    -0.203 F 
ATOM    106  F   UNL A   1      44.626  27.355  37.999  1.00  0.00    -0.200 F 
ATOM    107  C   UNL A   1      44.711  25.735  36.296  1.00  0.00     0.200 A 
ATOM    108  F   UNL A   1      44.831  24.193  34.520  1.00  0.00    -0.200 F 
ATOM    109  F   UNL A   1      45.487  24.948  37.052  1.00  0.00    -0.200 F 
ENDBRANCH  79  99
BRANCH  82 110
ATOM    110  C   UNL A   1      42.821  24.439  26.569  1.00  0.00     0.064 A 
ATOM    111  C   UNL A   1      43.514  24.303  25.350  1.00  0.00     0.173 A 
ATOM    112  C   UNL A   1      42.427  23.244  27.197  1.00  0.00     0.173 A 
ATOM    113  F   UNL A   1      43.953  25.389  24.696  1.00  0.00    -0.203 F 
ATOM    114  C   UNL A   1      43.849  23.048  24.828  1.00  0.00     0.198 A 
ATOM    115  C   UNL A   1      42.758  21.992  26.672  1.00  0.00     0.198 A 
ATOM    116  F   UNL A   1      41.804  23.267  28.385  1.00  0.00    -0.203 F 
ATOM    117  F   UNL A   1      44.588  22.963  23.712  1.00  0.00    -0.200 F 
ATOM    118  C   UNL A   1      43.489  21.895  25.500  1.00  0.00     0.200 A 
ATOM    119  F   UNL A   1      42.434  20.881  27.348  1.00  0.00    -0.200 F 
ATOM    120  F   UNL A   1      43.880  20.695  25.048  1.00  0.00    -0.200 F 
ENDBRANCH  82 110
BRANCH  97 121
ATOM    121  C   UNL A   1      45.170  29.927  28.508  1.00  0.00     0.064 A 
ATOM    122  C   UNL A   1      44.108  30.549  27.828  1.00  0.00     0.173 A 
ATOM    123  C   UNL A   1      46.470  30.354  28.202  1.00  0.00     0.173 A 
ATOM    124  F   UNL A   1      42.836  30.249  28.111  1.00  0.00    -0.203 F 
ATOM    125  C   UNL A   1      44.346  31.539  26.875  1.00  0.00     0.198 A 
ATOM    126  C   UNL A   1      46.701  31.369  27.279  1.00  0.00     0.198 A 
ATOM    127  F   UNL A   1      47.520  29.820  28.844  1.00  0.00    -0.203 F 
ATOM    128  F   UNL A   1      43.317  32.115  26.233  1.00  0.00    -0.200 F 
ATOM    129  C   UNL A   1      45.640  31.957  26.611  1.00  0.00     0.200 A 
ATOM    130  F   UNL A   1      47.951  31.797  27.062  1.00  0.00    -0.200 F 
ATOM    131  F   UNL A   1      45.864  32.945  25.733  1.00  0.00    -0.200 F 
ENDBRANCH  97 121
ENDBRANCH  62  65
ENDBRANCH  52  55
ENDBRANCH  48  51
ENDBRANCH  45  48
ENDBRANCH  42  45
ENDBRANCH  39  42
ENDBRANCH   1  39
TORSDOF 19
ENDMDL
MODEL 6
REMARK VINA RESULT:     -10.9      3.944      8.303
REMARK SMILES Cc1cc(C)c2c(OCCCC(=O)NCCCCCCNC(=O)c3ccc(-c4c5nc(c(-c6c(F)c(F)c(F)c(F)c6F)c6ccc([nH]6)c(-c6c(F)c(F)c(F)c(F)c6F)c6nc(c(-c7c(F)c(F)c(F)c(F)c7F)c7ccc4[nH]7)C=C6)C=C5)cc3)nsc2n1
REMARK SMILES IDX 16 1 15 4 14 7 12 8 13 9 11 11 10 14 9 17 8 20 7 21 2 22
REMARK SMILES IDX 3 23 90 24 4 25 89 27 6 28 88 29 87 30 1 31 5 35 17 39 18 42
REMARK SMILES IDX 19 45 20 48 21 51 22 52 23 54 24 55 25 56 86 57 26 58 85 60
REMARK SMILES IDX 27 62 28 65 29 66 79 67 30 68 84 69 78 70 80 71 31 72 83 73
REMARK SMILES IDX 77 75 76 77 32 79 64 82 44 83 63 84 45 85 48 86 62 87 81 88
REMARK SMILES IDX 46 89 47 91 61 93 82 94 49 97 33 99 34 100 42 101 35 102
REMARK SMILES IDX 36 103 40 104 43 105 37 106 38 107 41 108 39 109 65 110
REMARK SMILES IDX 66 111 74 112 67 113 68 114 72 115 75 116 69 117 70 118
REMARK SMILES IDX 73 119 71 120 50 121 51 122 59 123 52 124 53 125 57 126
REMARK SMILES IDX 60 127 54 128 55 129 58 130 56 131
REMARK H PARENT 16 2 16 3 15 5 15 6 14 10 11 12 11 13 10 15 10 16 9 18 9 19
REMARK H PARENT 3 26 1 32 1 33 1 34 5 36 5 37 5 38 17 40 17 41 18 43 18 44
REMARK H PARENT 19 46 19 47 20 49 20 50 21 53 25 59 86 61 26 63 85 64 84 74
REMARK H PARENT 78 76 80 78 83 80 77 81 45 90 48 92 81 95 46 96 82 98
REMARK Flexibility Score: inf
ROOT
ATOM      1  C   UNL A   1      41.647  27.830  33.042  1.00  0.00    -0.036 C 
ATOM      2  H   UNL A   1      42.655  27.951  32.702  1.00  0.00     0.028 H 
ATOM      3  H   UNL A   1      41.181  26.918  32.735  1.00  0.00     0.028 H 
ENDROOT
BRANCH   1   4
ATOM      4  C   UNL A   1      40.785  28.976  32.397  1.00  0.00     0.017 C 
ATOM      5  H   UNL A   1      41.195  29.914  32.710  1.00  0.00     0.049 H 
ATOM      6  H   UNL A   1      40.830  28.821  31.339  1.00  0.00     0.049 H 
BRANCH   4   7
ATOM      7  N   UNL A   1      39.273  28.962  32.770  1.00  0.00    -0.356 N 
ATOM      8  C   UNL A   1      38.106  29.582  33.150  1.00  0.00     0.220 C 
ATOM      9  O   UNL A   1      37.186  28.730  33.135  1.00  0.00    -0.275 OA
ATOM     10  H   UNL A   1      39.020  28.014  32.695  1.00  0.00     0.163 HD
BRANCH   8  11
ATOM     11  C   UNL A   1      37.569  31.120  33.418  1.00  0.00     0.030 C 
ATOM     12  H   UNL A   1      37.720  31.224  34.471  1.00  0.00     0.037 H 
ATOM     13  H   UNL A   1      38.039  31.501  32.534  1.00  0.00     0.037 H 
BRANCH  11  14
ATOM     14  C   UNL A   1      36.224  31.999  33.188  1.00  0.00    -0.010 C 
ATOM     15  H   UNL A   1      35.552  31.604  33.920  1.00  0.00     0.031 H 
ATOM     16  H   UNL A   1      36.728  32.941  33.135  1.00  0.00     0.031 H 
BRANCH  14  17
ATOM     17  C   UNL A   1      35.270  32.269  31.933  1.00  0.00     0.090 C 
ATOM     18  H   UNL A   1      35.302  31.369  31.355  1.00  0.00     0.071 H 
ATOM     19  H   UNL A   1      34.386  32.594  32.439  1.00  0.00     0.071 H 
BRANCH  17  20
ATOM     20  O   UNL A   1      35.420  33.335  30.981  1.00  0.00    -0.477 OA
BRANCH  20  21
ATOM     21  C   UNL A   1      34.953  33.278  29.706  1.00  0.00     0.235 A 
ATOM     22  C   UNL A   1      34.348  30.077  27.340  1.00  0.00     0.039 A 
ATOM     23  C   UNL A   1      35.614  30.140  27.918  1.00  0.00    -0.037 A 
ATOM     24  N   UNL A   1      33.558  31.161  27.200  1.00  0.00    -0.240 NA
ATOM     25  C   UNL A   1      36.091  31.329  28.506  1.00  0.00    -0.034 A 
ATOM     26  H   UNL A   1      36.214  29.299  27.917  1.00  0.00     0.064 H 
ATOM     27  C   UNL A   1      33.977  32.211  27.936  1.00  0.00     0.147 A 
ATOM     28  C   UNL A   1      35.110  32.271  28.727  1.00  0.00     0.078 A 
ATOM     29  S   UNL A   1      33.223  33.734  28.044  1.00  0.00    -0.012 S 
ATOM     30  N   UNL A   1      34.087  34.242  29.391  1.00  0.00    -0.153 NA
BRANCH  22  31
ATOM     31  C   UNL A   1      33.791  28.734  26.936  1.00  0.00    -0.022 C 
ATOM     32  H   UNL A   1      34.211  27.972  27.558  1.00  0.00     0.030 H 
ATOM     33  H   UNL A   1      34.040  28.538  25.914  1.00  0.00     0.030 H 
ATOM     34  H   UNL A   1      32.728  28.742  27.050  1.00  0.00     0.030 H 
ENDBRANCH  22  31
BRANCH  25  35
ATOM     35  C   UNL A   1      37.449  31.695  28.972  1.00  0.00    -0.039 C 
ATOM     36  H   UNL A   1      38.161  31.477  28.204  1.00  0.00     0.028 H 
ATOM     37  H   UNL A   1      37.689  31.134  29.850  1.00  0.00     0.028 H 
ATOM     38  H   UNL A   1      37.478  32.741  29.198  1.00  0.00     0.028 H 
ENDBRANCH  25  35
ENDBRANCH  20  21
ENDBRANCH  17  20
ENDBRANCH  14  17
ENDBRANCH  11  14
ENDBRANCH   8  11
ENDBRANCH   4   7
ENDBRANCH   1   4
BRANCH   1  39
ATOM     39  C   UNL A   1      41.676  27.777  34.578  1.00  0.00    -0.052 C 
ATOM     40  H   UNL A   1      40.910  28.434  34.933  1.00  0.00     0.027 H 
ATOM     41  H   UNL A   1      42.679  28.047  34.834  1.00  0.00     0.027 H 
BRANCH  39  42
ATOM     42  C   UNL A   1      41.461  26.410  35.261  1.00  0.00    -0.052 C 
ATOM     43  H   UNL A   1      42.017  25.689  34.698  1.00  0.00     0.027 H 
ATOM     44  H   UNL A   1      40.396  26.297  35.271  1.00  0.00     0.027 H 
BRANCH  42  45
ATOM     45  C   UNL A   1      41.860  26.235  36.740  1.00  0.00    -0.036 C 
ATOM     46  H   UNL A   1      41.013  26.495  37.339  1.00  0.00     0.028 H 
ATOM     47  H   UNL A   1      42.712  26.866  36.881  1.00  0.00     0.028 H 
BRANCH  45  48
ATOM     48  C   UNL A   1      42.314  24.840  37.159  1.00  0.00     0.018 C 
ATOM     49  H   UNL A   1      42.199  24.182  36.324  1.00  0.00     0.049 H 
ATOM     50  H   UNL A   1      41.708  24.553  37.994  1.00  0.00     0.049 H 
BRANCH  48  51
ATOM     51  N   UNL A   1      43.703  24.782  37.603  1.00  0.00    -0.352 N 
ATOM     52  C   UNL A   1      44.860  24.591  36.869  1.00  0.00     0.251 C 
ATOM     53  H   UNL A   1      43.836  24.896  38.572  1.00  0.00     0.163 HD
ATOM     54  O   UNL A   1      45.887  24.250  37.421  1.00  0.00    -0.269 OA
BRANCH  52  55
ATOM     55  C   UNL A   1      44.846  24.799  35.403  1.00  0.00     0.039 A 
ATOM     56  C   UNL A   1      44.917  26.093  34.879  1.00  0.00    -0.049 A 
ATOM     57  C   UNL A   1      44.716  23.705  34.549  1.00  0.00    -0.049 A 
ATOM     58  C   UNL A   1      44.923  26.259  33.496  1.00  0.00    -0.053 A 
ATOM     59  H   UNL A   1      44.964  26.911  35.505  1.00  0.00     0.063 H 
ATOM     60  C   UNL A   1      44.865  23.853  33.190  1.00  0.00    -0.053 A 
ATOM     61  H   UNL A   1      44.506  22.774  34.941  1.00  0.00     0.063 H 
ATOM     62  C   UNL A   1      44.921  25.130  32.657  1.00  0.00    -0.014 A 
ATOM     63  H   UNL A   1      44.929  27.207  33.089  1.00  0.00     0.063 H 
ATOM     64  H   UNL A   1      44.932  23.025  32.576  1.00  0.00     0.063 H 
BRANCH  62  65
ATOM     65  C   UNL A   1      45.130  25.286  31.224  1.00  0.00     0.031 A 
ATOM     66  C   UNL A   1      46.196  26.267  30.906  1.00  0.00     0.074 A 
ATOM     67  C   UNL A   1      44.537  24.540  30.268  1.00  0.00     0.049 A 
ATOM     68  N   UNL A   1      46.024  27.468  30.471  1.00  0.00    -0.248 NA
ATOM     69  C   UNL A   1      47.582  25.964  31.292  1.00  0.00    -0.034 C 
ATOM     70  C   UNL A   1      43.697  23.349  30.426  1.00  0.00    -0.036 A 
ATOM     71  N   UNL A   1      44.616  24.672  28.911  1.00  0.00    -0.354 N 
ATOM     72  C   UNL A   1      47.297  28.010  30.325  1.00  0.00     0.074 A 
ATOM     73  C   UNL A   1      48.190  27.121  31.018  1.00  0.00    -0.034 C 
ATOM     74  H   UNL A   1      47.979  25.091  31.674  1.00  0.00     0.065 H 
ATOM     75  C   UNL A   1      43.514  22.754  29.225  1.00  0.00    -0.036 A 
ATOM     76  H   UNL A   1      43.305  23.013  31.320  1.00  0.00     0.065 H 
ATOM     77  C   UNL A   1      44.070  23.610  28.193  1.00  0.00     0.049 A 
ATOM     78  H   UNL A   1      45.024  25.454  28.475  1.00  0.00     0.167 HD
ATOM     79  C   UNL A   1      47.508  28.994  29.409  1.00  0.00     0.037 A 
ATOM     80  H   UNL A   1      49.166  27.346  31.267  1.00  0.00     0.065 H 
ATOM     81  H   UNL A   1      43.054  21.844  29.067  1.00  0.00     0.065 H 
ATOM     82  C   UNL A   1      44.071  23.464  26.844  1.00  0.00     0.037 A 
ATOM     83  C   UNL A   1      46.245  29.555  28.985  1.00  0.00     0.049 A 
ATOM     84  C   UNL A   1      44.225  24.821  26.275  1.00  0.00     0.074 A 
ATOM     85  C   UNL A   1      45.245  30.302  29.568  1.00  0.00    -0.036 A 
ATOM     86  N   UNL A   1      45.705  28.962  27.874  1.00  0.00    -0.354 N 
ATOM     87  N   UNL A   1      43.317  25.751  26.364  1.00  0.00    -0.248 NA
ATOM     88  C   UNL A   1      45.559  25.279  25.916  1.00  0.00    -0.034 C 
ATOM     89  C   UNL A   1      44.033  29.873  28.946  1.00  0.00    -0.036 A 
ATOM     90  H   UNL A   1      45.350  31.021  30.301  1.00  0.00     0.065 H 
ATOM     91  C   UNL A   1      44.342  28.929  27.966  1.00  0.00     0.049 A 
ATOM     92  H   UNL A   1      46.226  28.608  27.116  1.00  0.00     0.167 HD
ATOM     93  C   UNL A   1      44.037  26.921  26.515  1.00  0.00     0.074 A 
ATOM     94  C   UNL A   1      45.386  26.595  26.065  1.00  0.00    -0.034 C 
ATOM     95  H   UNL A   1      46.394  24.744  25.631  1.00  0.00     0.065 H 
ATOM     96  H   UNL A   1      43.085  30.206  29.183  1.00  0.00     0.065 H 
ATOM     97  C   UNL A   1      43.541  27.941  27.275  1.00  0.00     0.037 A 
ATOM     98  H   UNL A   1      46.120  27.297  25.883  1.00  0.00     0.065 H 
BRANCH  79  99
ATOM     99  C   UNL A   1      48.745  29.111  28.538  1.00  0.00     0.064 A 
ATOM    100  C   UNL A   1      49.368  30.373  28.416  1.00  0.00     0.173 A 
ATOM    101  C   UNL A   1      49.146  28.151  27.583  1.00  0.00     0.173 A 
ATOM    102  F   UNL A   1      49.056  31.375  29.254  1.00  0.00    -0.203 F 
ATOM    103  C   UNL A   1      50.248  30.672  27.371  1.00  0.00     0.198 A 
ATOM    104  C   UNL A   1      50.062  28.439  26.571  1.00  0.00     0.198 A 
ATOM    105  F   UNL A   1      48.597  26.936  27.509  1.00  0.00    -0.203 F 
ATOM    106  F   UNL A   1      50.706  31.922  27.223  1.00  0.00    -0.200 F 
ATOM    107  C   UNL A   1      50.588  29.705  26.445  1.00  0.00     0.200 A 
ATOM    108  F   UNL A   1      50.359  27.494  25.667  1.00  0.00    -0.200 F 
ATOM    109  F   UNL A   1      51.380  30.004  25.406  1.00  0.00    -0.200 F 
ENDBRANCH  79  99
BRANCH  82 110
ATOM    110  C   UNL A   1      44.207  22.248  26.005  1.00  0.00     0.064 A 
ATOM    111  C   UNL A   1      45.476  21.803  25.584  1.00  0.00     0.173 A 
ATOM    112  C   UNL A   1      43.153  21.324  25.885  1.00  0.00     0.173 A 
ATOM    113  F   UNL A   1      46.543  22.608  25.689  1.00  0.00    -0.203 F 
ATOM    114  C   UNL A   1      45.687  20.495  25.135  1.00  0.00     0.198 A 
ATOM    115  C   UNL A   1      43.366  20.019  25.431  1.00  0.00     0.198 A 
ATOM    116  F   UNL A   1      41.918  21.635  26.304  1.00  0.00    -0.203 F 
ATOM    117  F   UNL A   1      46.927  20.085  24.829  1.00  0.00    -0.200 F 
ATOM    118  C   UNL A   1      44.636  19.598  25.078  1.00  0.00     0.200 A 
ATOM    119  F   UNL A   1      42.347  19.148  25.413  1.00  0.00    -0.200 F 
ATOM    120  F   UNL A   1      44.850  18.322  24.728  1.00  0.00    -0.200 F 
ENDBRANCH  82 110
BRANCH  97 121
ATOM    121  C   UNL A   1      42.066  27.939  27.563  1.00  0.00     0.064 A 
ATOM    122  C   UNL A   1      41.470  27.344  28.689  1.00  0.00     0.173 A 
ATOM    123  C   UNL A   1      41.240  28.695  26.720  1.00  0.00     0.173 A 
ATOM    124  F   UNL A   1      42.201  26.665  29.581  1.00  0.00    -0.203 F 
ATOM    125  C   UNL A   1      40.106  27.489  28.943  1.00  0.00     0.198 A 
ATOM    126  C   UNL A   1      39.888  28.869  26.996  1.00  0.00     0.198 A 
ATOM    127  F   UNL A   1      41.761  29.313  25.648  1.00  0.00    -0.203 F 
ATOM    128  F   UNL A   1      39.557  26.908  30.020  1.00  0.00    -0.200 F 
ATOM    129  C   UNL A   1      39.320  28.262  28.103  1.00  0.00     0.200 A 
ATOM    130  F   UNL A   1      39.144  29.653  26.205  1.00  0.00    -0.200 F 
ATOM    131  F   UNL A   1      38.020  28.443  28.376  1.00  0.00    -0.200 F 
ENDBRANCH  97 121
ENDBRANCH  62  65
ENDBRANCH  52  55
ENDBRANCH  48  51
ENDBRANCH  45  48
ENDBRANCH  42  45
ENDBRANCH  39  42
ENDBRANCH   1  39
TORSDOF 19
ENDMDL
MODEL 7
REMARK VINA RESULT:     -10.8      7.993     13.196
REMARK SMILES Cc1cc(C)c2c(OCCCC(=O)NCCCCCCNC(=O)c3ccc(-c4c5nc(c(-c6c(F)c(F)c(F)c(F)c6F)c6ccc([nH]6)c(-c6c(F)c(F)c(F)c(F)c6F)c6nc(c(-c7c(F)c(F)c(F)c(F)c7F)c7ccc4[nH]7)C=C6)C=C5)cc3)nsc2n1
REMARK SMILES IDX 16 1 15 4 14 7 12 8 13 9 11 11 10 14 9 17 8 20 7 21 2 22
REMARK SMILES IDX 3 23 90 24 4 25 89 27 6 28 88 29 87 30 1 31 5 35 17 39 18 42
REMARK SMILES IDX 19 45 20 48 21 51 22 52 23 54 24 55 25 56 86 57 26 58 85 60
REMARK SMILES IDX 27 62 28 65 29 66 79 67 30 68 84 69 78 70 80 71 31 72 83 73
REMARK SMILES IDX 77 75 76 77 32 79 64 82 44 83 63 84 45 85 48 86 62 87 81 88
REMARK SMILES IDX 46 89 47 91 61 93 82 94 49 97 33 99 34 100 42 101 35 102
REMARK SMILES IDX 36 103 40 104 43 105 37 106 38 107 41 108 39 109 65 110
REMARK SMILES IDX 66 111 74 112 67 113 68 114 72 115 75 116 69 117 70 118
REMARK SMILES IDX 73 119 71 120 50 121 51 122 59 123 52 124 53 125 57 126
REMARK SMILES IDX 60 127 54 128 55 129 58 130 56 131
REMARK H PARENT 16 2 16 3 15 5 15 6 14 10 11 12 11 13 10 15 10 16 9 18 9 19
REMARK H PARENT 3 26 1 32 1 33 1 34 5 36 5 37 5 38 17 40 17 41 18 43 18 44
REMARK H PARENT 19 46 19 47 20 49 20 50 21 53 25 59 86 61 26 63 85 64 84 74
REMARK H PARENT 78 76 80 78 83 80 77 81 45 90 48 92 81 95 46 96 82 98
REMARK Flexibility Score: inf
ROOT
ATOM      1  C   UNL A   1      46.402  19.853  35.386  1.00  0.00    -0.036 C 
ATOM      2  H   UNL A   1      47.132  19.351  34.786  1.00  0.00     0.028 H 
ATOM      3  H   UNL A   1      46.774  20.231  36.315  1.00  0.00     0.028 H 
ENDROOT
BRANCH   1   4
ATOM      4  C   UNL A   1      45.301  18.801  35.776  1.00  0.00     0.017 C 
ATOM      5  H   UNL A   1      44.344  19.227  35.551  1.00  0.00     0.049 H 
ATOM      6  H   UNL A   1      45.520  17.919  35.212  1.00  0.00     0.049 H 
BRANCH   4   7
ATOM      7  N   UNL A   1      45.294  18.367  37.272  1.00  0.00    -0.356 N 
ATOM      8  C   UNL A   1      44.843  17.592  38.314  1.00  0.00     0.220 C 
ATOM      9  O   UNL A   1      45.532  17.858  39.328  1.00  0.00    -0.275 OA
ATOM     10  H   UNL A   1      45.965  18.954  37.690  1.00  0.00     0.163 HD
BRANCH   8  11
ATOM     11  C   UNL A   1      43.815  16.319  38.536  1.00  0.00     0.030 C 
ATOM     12  H   UNL A   1      42.860  16.793  38.456  1.00  0.00     0.037 H 
ATOM     13  H   UNL A   1      44.400  15.665  37.924  1.00  0.00     0.037 H 
BRANCH  11  14
ATOM     14  C   UNL A   1      43.522  15.168  39.641  1.00  0.00    -0.010 C 
ATOM     15  H   UNL A   1      44.033  14.317  39.243  1.00  0.00     0.031 H 
ATOM     16  H   UNL A   1      43.743  15.784  40.487  1.00  0.00     0.031 H 
BRANCH  14  17
ATOM     17  C   UNL A   1      42.194  14.532  40.263  1.00  0.00     0.090 C 
ATOM     18  H   UNL A   1      41.425  14.724  39.543  1.00  0.00     0.071 H 
ATOM     19  H   UNL A   1      42.543  13.544  40.476  1.00  0.00     0.071 H 
BRANCH  17  20
ATOM     20  O   UNL A   1      41.616  14.873  41.533  1.00  0.00    -0.477 OA
BRANCH  20  21
ATOM     21  C   UNL A   1      42.262  14.723  42.720  1.00  0.00     0.235 A 
ATOM     22  C   UNL A   1      44.315  11.563  44.139  1.00  0.00     0.039 A 
ATOM     23  C   UNL A   1      43.037  11.263  43.675  1.00  0.00    -0.037 A 
ATOM     24  N   UNL A   1      44.681  12.809  44.506  1.00  0.00    -0.240 NA
ATOM     25  C   UNL A   1      42.085  12.278  43.443  1.00  0.00    -0.034 A 
ATOM     26  H   UNL A   1      42.781  10.279  43.495  1.00  0.00     0.064 H 
ATOM     27  C   UNL A   1      43.810  13.753  44.092  1.00  0.00     0.147 A 
ATOM     28  C   UNL A   1      42.623  13.546  43.414  1.00  0.00     0.078 A 
ATOM     29  S   UNL A   1      43.950  15.432  44.336  1.00  0.00    -0.012 S 
ATOM     30  N   UNL A   1      42.767  15.852  43.220  1.00  0.00    -0.153 NA
BRANCH  22  31
ATOM     31  C   UNL A   1      45.366  10.482  44.149  1.00  0.00    -0.022 C 
ATOM     32  H   UNL A   1      45.121   9.754  44.895  1.00  0.00     0.030 H 
ATOM     33  H   UNL A   1      46.320  10.912  44.370  1.00  0.00     0.030 H 
ATOM     34  H   UNL A   1      45.400  10.011  43.189  1.00  0.00     0.030 H 
ENDBRANCH  22  31
BRANCH  25  35
ATOM     35  C   UNL A   1      40.632  12.191  43.171  1.00  0.00    -0.039 C 
ATOM     36  H   UNL A   1      40.454  11.457  42.412  1.00  0.00     0.028 H 
ATOM     37  H   UNL A   1      40.273  13.142  42.838  1.00  0.00     0.028 H 
ATOM     38  H   UNL A   1      40.117  11.909  44.066  1.00  0.00     0.028 H 
ENDBRANCH  25  35
ENDBRANCH  20  21
ENDBRANCH  17  20
ENDBRANCH  14  17
ENDBRANCH  11  14
ENDBRANCH   8  11
ENDBRANCH   4   7
ENDBRANCH   1   4
BRANCH   1  39
ATOM     39  C   UNL A   1      45.925  21.088  34.604  1.00  0.00    -0.052 C 
ATOM     40  H   UNL A   1      45.437  20.735  33.721  1.00  0.00     0.027 H 
ATOM     41  H   UNL A   1      46.813  21.663  34.449  1.00  0.00     0.027 H 
BRANCH  39  42
ATOM     42  C   UNL A   1      44.955  22.061  35.306  1.00  0.00    -0.052 C 
ATOM     43  H   UNL A   1      44.069  21.507  35.537  1.00  0.00     0.027 H 
ATOM     44  H   UNL A   1      44.853  22.865  34.606  1.00  0.00     0.027 H 
BRANCH  42  45
ATOM     45  C   UNL A   1      45.400  22.763  36.605  1.00  0.00    -0.036 C 
ATOM     46  H   UNL A   1      46.426  23.042  36.489  1.00  0.00     0.028 H 
ATOM     47  H   UNL A   1      45.219  22.055  37.387  1.00  0.00     0.028 H 
BRANCH  45  48
ATOM     48  C   UNL A   1      44.621  24.013  37.002  1.00  0.00     0.018 C 
ATOM     49  H   UNL A   1      44.096  23.810  37.911  1.00  0.00     0.049 H 
ATOM     50  H   UNL A   1      43.961  24.239  36.190  1.00  0.00     0.049 H 
BRANCH  48  51
ATOM     51  N   UNL A   1      45.460  25.189  37.206  1.00  0.00    -0.352 N 
ATOM     52  C   UNL A   1      46.240  25.888  36.303  1.00  0.00     0.251 C 
ATOM     53  H   UNL A   1      45.470  25.538  38.127  1.00  0.00     0.163 HD
ATOM     54  O   UNL A   1      47.114  26.634  36.697  1.00  0.00    -0.269 OA
BRANCH  52  55
ATOM     55  C   UNL A   1      46.013  25.724  34.849  1.00  0.00     0.039 A 
ATOM     56  C   UNL A   1      44.919  26.342  34.237  1.00  0.00    -0.049 A 
ATOM     57  C   UNL A   1      46.867  24.915  34.102  1.00  0.00    -0.049 A 
ATOM     58  C   UNL A   1      44.740  26.188  32.865  1.00  0.00    -0.053 A 
ATOM     59  H   UNL A   1      44.254  26.902  34.793  1.00  0.00     0.063 H 
ATOM     60  C   UNL A   1      46.777  24.877  32.730  1.00  0.00    -0.053 A 
ATOM     61  H   UNL A   1      47.575  24.339  34.583  1.00  0.00     0.063 H 
ATOM     62  C   UNL A   1      45.690  25.472  32.113  1.00  0.00    -0.014 A 
ATOM     63  H   UNL A   1      43.914  26.596  32.401  1.00  0.00     0.063 H 
ATOM     64  H   UNL A   1      47.508  24.411  32.169  1.00  0.00     0.063 H 
BRANCH  62  65
ATOM     65  C   UNL A   1      45.621  25.475  30.658  1.00  0.00     0.031 A 
ATOM     66  C   UNL A   1      46.644  26.353  30.040  1.00  0.00     0.074 A 
ATOM     67  C   UNL A   1      44.822  24.678  29.918  1.00  0.00     0.049 A 
ATOM     68  N   UNL A   1      46.440  27.514  29.520  1.00  0.00    -0.248 NA
ATOM     69  C   UNL A   1      48.065  26.005  30.186  1.00  0.00    -0.034 C 
ATOM     70  C   UNL A   1      43.980  23.562  30.360  1.00  0.00    -0.036 A 
ATOM     71  N   UNL A   1      44.639  24.673  28.565  1.00  0.00    -0.354 N 
ATOM     72  C   UNL A   1      47.681  27.961  29.077  1.00  0.00     0.074 A 
ATOM     73  C   UNL A   1      48.655  27.090  29.678  1.00  0.00    -0.034 C 
ATOM     74  H   UNL A   1      48.492  25.150  30.576  1.00  0.00     0.065 H 
ATOM     75  C   UNL A   1      43.541  22.866  29.286  1.00  0.00    -0.036 A 
ATOM     76  H   UNL A   1      43.757  23.339  31.342  1.00  0.00     0.065 H 
ATOM     77  C   UNL A   1      43.920  23.582  28.081  1.00  0.00     0.049 A 
ATOM     78  H   UNL A   1      44.986  25.383  27.978  1.00  0.00     0.167 HD
ATOM     79  C   UNL A   1      47.750  28.837  28.038  1.00  0.00     0.037 A 
ATOM     80  H   UNL A   1      49.669  27.278  29.712  1.00  0.00     0.065 H 
ATOM     81  H   UNL A   1      43.022  21.975  29.316  1.00  0.00     0.065 H 
ATOM     82  C   UNL A   1      43.650  23.307  26.780  1.00  0.00     0.037 A 
ATOM     83  C   UNL A   1      46.453  29.430  27.805  1.00  0.00     0.049 A 
ATOM     84  C   UNL A   1      43.746  24.590  26.050  1.00  0.00     0.074 A 
ATOM     85  C   UNL A   1      45.618  30.291  28.484  1.00  0.00    -0.036 A 
ATOM     86  N   UNL A   1      45.681  28.767  26.886  1.00  0.00    -0.354 N 
ATOM     87  N   UNL A   1      42.912  25.578  26.211  1.00  0.00    -0.248 NA
ATOM     88  C   UNL A   1      45.002  24.928  25.398  1.00  0.00    -0.034 C 
ATOM     89  C   UNL A   1      44.291  29.879  28.154  1.00  0.00    -0.036 A 
ATOM     90  H   UNL A   1      45.894  31.070  29.103  1.00  0.00     0.065 H 
ATOM     91  C   UNL A   1      44.363  28.827  27.239  1.00  0.00     0.049 A 
ATOM     92  H   UNL A   1      46.029  28.310  26.085  1.00  0.00     0.167 HD
ATOM     93  C   UNL A   1      43.696  26.711  26.096  1.00  0.00     0.074 A 
ATOM     94  C   UNL A   1      44.917  26.260  25.435  1.00  0.00    -0.034 C 
ATOM     95  H   UNL A   1      45.742  24.317  25.018  1.00  0.00     0.065 H 
ATOM     96  H   UNL A   1      43.422  30.291  28.529  1.00  0.00     0.065 H 
ATOM     97  C   UNL A   1      43.401  27.828  26.823  1.00  0.00     0.037 A 
ATOM     98  H   UNL A   1      45.630  26.895  25.043  1.00  0.00     0.065 H 
BRANCH  79  99
ATOM     99  C   UNL A   1      48.796  28.793  26.940  1.00  0.00     0.064 A 
ATOM    100  C   UNL A   1      48.925  27.611  26.176  1.00  0.00     0.173 A 
ATOM    101  C   UNL A   1      49.870  29.703  26.819  1.00  0.00     0.173 A 
ATOM    102  F   UNL A   1      47.977  26.662  26.221  1.00  0.00    -0.203 F 
ATOM    103  C   UNL A   1      50.072  27.328  25.429  1.00  0.00     0.198 A 
ATOM    104  C   UNL A   1      50.991  29.437  26.034  1.00  0.00     0.198 A 
ATOM    105  F   UNL A   1      49.943  30.829  27.534  1.00  0.00    -0.203 F 
ATOM    106  F   UNL A   1      50.200  26.136  24.833  1.00  0.00    -0.200 F 
ATOM    107  C   UNL A   1      51.108  28.239  25.366  1.00  0.00     0.200 A 
ATOM    108  F   UNL A   1      51.997  30.324  26.006  1.00  0.00    -0.200 F 
ATOM    109  F   UNL A   1      52.235  27.946  24.704  1.00  0.00    -0.200 F 
ENDBRANCH  79  99
BRANCH  82 110
ATOM    110  C   UNL A   1      43.569  22.009  26.066  1.00  0.00     0.064 A 
ATOM    111  C   UNL A   1      44.737  21.356  25.625  1.00  0.00     0.173 A 
ATOM    112  C   UNL A   1      42.398  21.231  26.099  1.00  0.00     0.173 A 
ATOM    113  F   UNL A   1      45.906  22.013  25.588  1.00  0.00    -0.203 F 
ATOM    114  C   UNL A   1      44.745  19.994  25.303  1.00  0.00     0.198 A 
ATOM    115  C   UNL A   1      42.406  19.872  25.773  1.00  0.00     0.198 A 
ATOM    116  F   UNL A   1      41.244  21.747  26.550  1.00  0.00    -0.203 F 
ATOM    117  F   UNL A   1      45.896  19.391  24.974  1.00  0.00    -0.200 F 
ATOM    118  C   UNL A   1      43.583  19.249  25.397  1.00  0.00     0.200 A 
ATOM    119  F   UNL A   1      41.283  19.151  25.899  1.00  0.00    -0.200 F 
ATOM    120  F   UNL A   1      43.605  17.928  25.170  1.00  0.00    -0.200 F 
ENDBRANCH  82 110
BRANCH  97 121
ATOM    121  C   UNL A   1      42.013  27.944  27.385  1.00  0.00     0.064 A 
ATOM    122  C   UNL A   1      41.627  27.507  28.665  1.00  0.00     0.173 A 
ATOM    123  C   UNL A   1      41.067  28.656  26.634  1.00  0.00     0.173 A 
ATOM    124  F   UNL A   1      42.491  26.883  29.472  1.00  0.00    -0.203 F 
ATOM    125  C   UNL A   1      40.345  27.760  29.155  1.00  0.00     0.198 A 
ATOM    126  C   UNL A   1      39.803  28.940  27.141  1.00  0.00     0.198 A 
ATOM    127  F   UNL A   1      41.392  29.126  25.420  1.00  0.00    -0.203 F 
ATOM    128  F   UNL A   1      39.996  27.328  30.377  1.00  0.00    -0.200 F 
ATOM    129  C   UNL A   1      39.441  28.487  28.398  1.00  0.00     0.200 A 
ATOM    130  F   UNL A   1      38.949  29.679  26.422  1.00  0.00    -0.200 F 
ATOM    131  F   UNL A   1      38.227  28.773  28.891  1.00  0.00    -0.200 F 
ENDBRANCH  97 121
ENDBRANCH  62  65
ENDBRANCH  52  55
ENDBRANCH  48  51
ENDBRANCH  45  48
ENDBRANCH  42  45
ENDBRANCH  39  42
ENDBRANCH   1  39
TORSDOF 19
ENDMDL
MODEL 8
REMARK VINA RESULT:     -10.7      3.130      9.127
REMARK SMILES Cc1cc(C)c2c(OCCCC(=O)NCCCCCCNC(=O)c3ccc(-c4c5nc(c(-c6c(F)c(F)c(F)c(F)c6F)c6ccc([nH]6)c(-c6c(F)c(F)c(F)c(F)c6F)c6nc(c(-c7c(F)c(F)c(F)c(F)c7F)c7ccc4[nH]7)C=C6)C=C5)cc3)nsc2n1
REMARK SMILES IDX 16 1 15 4 14 7 12 8 13 9 11 11 10 14 9 17 8 20 7 21 2 22
REMARK SMILES IDX 3 23 90 24 4 25 89 27 6 28 88 29 87 30 1 31 5 35 17 39 18 42
REMARK SMILES IDX 19 45 20 48 21 51 22 52 23 54 24 55 25 56 86 57 26 58 85 60
REMARK SMILES IDX 27 62 28 65 29 66 79 67 30 68 84 69 78 70 80 71 31 72 83 73
REMARK SMILES IDX 77 75 76 77 32 79 64 82 44 83 63 84 45 85 48 86 62 87 81 88
REMARK SMILES IDX 46 89 47 91 61 93 82 94 49 97 33 99 34 100 42 101 35 102
REMARK SMILES IDX 36 103 40 104 43 105 37 106 38 107 41 108 39 109 65 110
REMARK SMILES IDX 66 111 74 112 67 113 68 114 72 115 75 116 69 117 70 118
REMARK SMILES IDX 73 119 71 120 50 121 51 122 59 123 52 124 53 125 57 126
REMARK SMILES IDX 60 127 54 128 55 129 58 130 56 131
REMARK H PARENT 16 2 16 3 15 5 15 6 14 10 11 12 11 13 10 15 10 16 9 18 9 19
REMARK H PARENT 3 26 1 32 1 33 1 34 5 36 5 37 5 38 17 40 17 41 18 43 18 44
REMARK H PARENT 19 46 19 47 20 49 20 50 21 53 25 59 86 61 26 63 85 64 84 74
REMARK H PARENT 78 76 80 78 83 80 77 81 45 90 48 92 81 95 46 96 82 98
REMARK Flexibility Score: inf
ROOT
ATOM      1  C   UNL A   1      33.528  28.692  27.005  1.00  0.00    -0.036 C 
ATOM      2  H   UNL A   1      33.493  27.628  27.116  1.00  0.00     0.028 H 
ATOM      3  H   UNL A   1      32.768  29.220  27.542  1.00  0.00     0.028 H 
ENDROOT
BRANCH   1   4
ATOM      4  C   UNL A   1      33.273  29.023  25.490  1.00  0.00     0.017 C 
ATOM      5  H   UNL A   1      33.172  30.085  25.396  1.00  0.00     0.049 H 
ATOM      6  H   UNL A   1      34.109  28.623  24.954  1.00  0.00     0.049 H 
BRANCH   4   7
ATOM      7  N   UNL A   1      32.006  28.363  24.868  1.00  0.00    -0.356 N 
ATOM      8  C   UNL A   1      31.154  27.301  24.678  1.00  0.00     0.220 C 
ATOM      9  O   UNL A   1      30.172  27.700  24.007  1.00  0.00    -0.275 OA
ATOM     10  H   UNL A   1      31.604  29.084  24.331  1.00  0.00     0.163 HD
BRANCH   8  11
ATOM     11  C   UNL A   1      30.982  25.756  25.235  1.00  0.00     0.030 C 
ATOM     12  H   UNL A   1      30.134  25.850  25.880  1.00  0.00     0.037 H 
ATOM     13  H   UNL A   1      31.171  25.325  24.274  1.00  0.00     0.037 H 
BRANCH  11  14
ATOM     14  C   UNL A   1      31.864  24.635  26.010  1.00  0.00    -0.010 C 
ATOM     15  H   UNL A   1      32.823  24.719  25.543  1.00  0.00     0.031 H 
ATOM     16  H   UNL A   1      31.536  24.910  26.990  1.00  0.00     0.031 H 
BRANCH  14  17
ATOM     17  C   UNL A   1      31.712  23.060  26.238  1.00  0.00     0.090 C 
ATOM     18  H   UNL A   1      32.606  22.761  26.747  1.00  0.00     0.071 H 
ATOM     19  H   UNL A   1      30.751  23.032  26.706  1.00  0.00     0.071 H 
BRANCH  17  20
ATOM     20  O   UNL A   1      31.518  22.078  25.208  1.00  0.00    -0.477 OA
BRANCH  20  21
ATOM     21  C   UNL A   1      32.473  21.193  24.820  1.00  0.00     0.235 A 
ATOM     22  C   UNL A   1      36.480  21.587  24.809  1.00  0.00     0.039 A 
ATOM     23  C   UNL A   1      35.793  22.625  24.183  1.00  0.00    -0.037 A 
ATOM     24  N   UNL A   1      35.936  20.368  25.001  1.00  0.00    -0.240 NA
ATOM     25  C   UNL A   1      34.436  22.493  23.825  1.00  0.00    -0.034 A 
ATOM     26  H   UNL A   1      36.287  23.508  23.978  1.00  0.00     0.064 H 
ATOM     27  C   UNL A   1      34.600  20.357  24.816  1.00  0.00     0.147 A 
ATOM     28  C   UNL A   1      33.808  21.418  24.416  1.00  0.00     0.078 A 
ATOM     29  S   UNL A   1      33.566  19.017  24.999  1.00  0.00    -0.012 S 
ATOM     30  N   UNL A   1      32.146  19.912  25.000  1.00  0.00    -0.153 NA
BRANCH  22  31
ATOM     31  C   UNL A   1      37.850  21.853  25.380  1.00  0.00    -0.022 C 
ATOM     32  H   UNL A   1      38.536  21.114  25.020  1.00  0.00     0.030 H 
ATOM     33  H   UNL A   1      37.806  21.810  26.448  1.00  0.00     0.030 H 
ATOM     34  H   UNL A   1      38.180  22.824  25.075  1.00  0.00     0.030 H 
ENDBRANCH  22  31
BRANCH  25  35
ATOM     35  C   UNL A   1      33.577  23.349  22.974  1.00  0.00    -0.039 C 
ATOM     36  H   UNL A   1      33.459  22.895  22.013  1.00  0.00     0.028 H 
ATOM     37  H   UNL A   1      34.032  24.311  22.861  1.00  0.00     0.028 H 
ATOM     38  H   UNL A   1      32.617  23.461  23.435  1.00  0.00     0.028 H 
ENDBRANCH  25  35
ENDBRANCH  20  21
ENDBRANCH  17  20
ENDBRANCH  14  17
ENDBRANCH  11  14
ENDBRANCH   8  11
ENDBRANCH   4   7
ENDBRANCH   1   4
BRANCH   1  39
ATOM     39  C   UNL A   1      34.859  29.181  27.598  1.00  0.00    -0.052 C 
ATOM     40  H   UNL A   1      35.634  28.572  27.183  1.00  0.00     0.027 H 
ATOM     41  H   UNL A   1      34.723  29.104  28.657  1.00  0.00     0.027 H 
BRANCH  39  42
ATOM     42  C   UNL A   1      35.260  30.653  27.369  1.00  0.00    -0.052 C 
ATOM     43  H   UNL A   1      35.256  30.816  26.311  1.00  0.00     0.027 H 
ATOM     44  H   UNL A   1      36.204  30.738  27.867  1.00  0.00     0.027 H 
BRANCH  42  45
ATOM     45  C   UNL A   1      34.410  31.774  28.003  1.00  0.00    -0.036 C 
ATOM     46  H   UNL A   1      33.858  31.345  28.813  1.00  0.00     0.028 H 
ATOM     47  H   UNL A   1      33.805  32.155  27.207  1.00  0.00     0.028 H 
BRANCH  45  48
ATOM     48  C   UNL A   1      35.172  32.978  28.546  1.00  0.00     0.018 C 
ATOM     49  H   UNL A   1      34.787  33.860  28.080  1.00  0.00     0.049 H 
ATOM     50  H   UNL A   1      36.207  32.817  28.325  1.00  0.00     0.049 H 
BRANCH  48  51
ATOM     51  N   UNL A   1      35.068  33.137  29.992  1.00  0.00    -0.352 N 
ATOM     52  C   UNL A   1      35.638  32.393  31.009  1.00  0.00     0.251 C 
ATOM     53  H   UNL A   1      34.506  33.889  30.289  1.00  0.00     0.163 HD
ATOM     54  O   UNL A   1      35.197  32.458  32.139  1.00  0.00    -0.269 OA
BRANCH  52  55
ATOM     55  C   UNL A   1      36.790  31.508  30.718  1.00  0.00     0.039 A 
ATOM     56  C   UNL A   1      38.050  32.059  30.464  1.00  0.00    -0.049 A 
ATOM     57  C   UNL A   1      36.605  30.128  30.656  1.00  0.00    -0.049 A 
ATOM     58  C   UNL A   1      39.120  31.204  30.214  1.00  0.00    -0.053 A 
ATOM     59  H   UNL A   1      38.184  33.082  30.461  1.00  0.00     0.063 H 
ATOM     60  C   UNL A   1      37.682  29.279  30.551  1.00  0.00    -0.053 A 
ATOM     61  H   UNL A   1      35.650  29.740  30.687  1.00  0.00     0.063 H 
ATOM     62  C   UNL A   1      38.932  29.811  30.283  1.00  0.00    -0.014 A 
ATOM     63  H   UNL A   1      40.047  31.590  29.978  1.00  0.00     0.063 H 
ATOM     64  H   UNL A   1      37.560  28.260  30.669  1.00  0.00     0.063 H 
BRANCH  62  65
ATOM     65  C   UNL A   1      40.080  28.917  30.224  1.00  0.00     0.031 A 
ATOM     66  C   UNL A   1      40.699  28.692  31.553  1.00  0.00     0.074 A 
ATOM     67  C   UNL A   1      40.481  28.242  29.126  1.00  0.00     0.049 A 
ATOM     68  N   UNL A   1      41.799  29.209  31.981  1.00  0.00    -0.248 NA
ATOM     69  C   UNL A   1      39.930  27.984  32.587  1.00  0.00    -0.034 C 
ATOM     70  C   UNL A   1      39.809  28.125  27.828  1.00  0.00    -0.036 A 
ATOM     71  N   UNL A   1      41.583  27.452  28.964  1.00  0.00    -0.354 N 
ATOM     72  C   UNL A   1      41.975  28.724  33.272  1.00  0.00     0.074 A 
ATOM     73  C   UNL A   1      40.718  28.141  33.653  1.00  0.00    -0.034 C 
ATOM     74  H   UNL A   1      39.023  27.497  32.509  1.00  0.00     0.065 H 
ATOM     75  C   UNL A   1      40.404  27.160  27.089  1.00  0.00    -0.036 A 
ATOM     76  H   UNL A   1      39.002  28.692  27.523  1.00  0.00     0.065 H 
ATOM     77  C   UNL A   1      41.599  26.714  27.783  1.00  0.00     0.049 A 
ATOM     78  H   UNL A   1      42.308  27.408  29.628  1.00  0.00     0.167 HD
ATOM     79  C   UNL A   1      43.232  28.614  33.784  1.00  0.00     0.037 A 
ATOM     80  H   UNL A   1      40.461  27.879  34.618  1.00  0.00     0.065 H 
ATOM     81  H   UNL A   1      40.066  26.800  26.183  1.00  0.00     0.065 H 
ATOM     82  C   UNL A   1      42.542  25.815  27.407  1.00  0.00     0.037 A 
ATOM     83  C   UNL A   1      44.161  29.378  32.982  1.00  0.00     0.049 A 
ATOM     84  C   UNL A   1      43.772  26.158  28.154  1.00  0.00     0.074 A 
ATOM     85  C   UNL A   1      44.378  30.713  32.716  1.00  0.00    -0.036 A 
ATOM     86  N   UNL A   1      44.763  28.667  31.977  1.00  0.00    -0.354 N 
ATOM     87  N   UNL A   1      44.460  27.247  27.954  1.00  0.00    -0.248 NA
ATOM     88  C   UNL A   1      44.048  25.462  29.401  1.00  0.00    -0.034 C 
ATOM     89  C   UNL A   1      44.846  30.764  31.368  1.00  0.00    -0.036 A 
ATOM     90  H   UNL A   1      44.234  31.509  33.358  1.00  0.00     0.065 H 
ATOM     91  C   UNL A   1      44.956  29.461  30.882  1.00  0.00     0.049 A 
ATOM     92  H   UNL A   1      45.019  27.717  32.036  1.00  0.00     0.167 HD
ATOM     93  C   UNL A   1      44.907  27.606  29.212  1.00  0.00     0.074 A 
ATOM     94  C   UNL A   1      44.772  26.398  30.020  1.00  0.00    -0.034 C 
ATOM     95  H   UNL A   1      43.766  24.521  29.716  1.00  0.00     0.065 H 
ATOM     96  H   UNL A   1      45.065  31.623  30.840  1.00  0.00     0.065 H 
ATOM     97  C   UNL A   1      45.050  28.923  29.540  1.00  0.00     0.037 A 
ATOM     98  H   UNL A   1      45.185  26.282  30.958  1.00  0.00     0.065 H 
BRANCH  79  99
ATOM     99  C   UNL A   1      43.712  27.467  34.653  1.00  0.00     0.064 A 
ATOM    100  C   UNL A   1      43.627  26.152  34.144  1.00  0.00     0.173 A 
ATOM    101  C   UNL A   1      43.938  27.556  36.045  1.00  0.00     0.173 A 
ATOM    102  F   UNL A   1      43.397  25.937  32.839  1.00  0.00    -0.203 F 
ATOM    103  C   UNL A   1      43.673  25.028  34.974  1.00  0.00     0.198 A 
ATOM    104  C   UNL A   1      44.031  26.430  36.862  1.00  0.00     0.198 A 
ATOM    105  F   UNL A   1      43.964  28.722  36.696  1.00  0.00    -0.203 F 
ATOM    106  F   UNL A   1      43.453  23.811  34.459  1.00  0.00    -0.200 F 
ATOM    107  C   UNL A   1      43.867  25.169  36.334  1.00  0.00     0.200 A 
ATOM    108  F   UNL A   1      44.195  26.590  38.183  1.00  0.00    -0.200 F 
ATOM    109  F   UNL A   1      43.849  24.099  37.141  1.00  0.00    -0.200 F 
ENDBRANCH  79  99
BRANCH  82 110
ATOM    110  C   UNL A   1      42.415  24.537  26.663  1.00  0.00     0.064 A 
ATOM    111  C   UNL A   1      43.187  24.297  25.509  1.00  0.00     0.173 A 
ATOM    112  C   UNL A   1      41.802  23.413  27.244  1.00  0.00     0.173 A 
ATOM    113  F   UNL A   1      43.830  25.307  24.904  1.00  0.00    -0.203 F 
ATOM    114  C   UNL A   1      43.385  23.005  25.009  1.00  0.00     0.198 A 
ATOM    115  C   UNL A   1      41.997  22.124  26.741  1.00  0.00     0.198 A 
ATOM    116  F   UNL A   1      41.086  23.529  28.373  1.00  0.00    -0.203 F 
ATOM    117  F   UNL A   1      44.200  22.811  23.961  1.00  0.00    -0.200 F 
ATOM    118  C   UNL A   1      42.807  21.918  25.638  1.00  0.00     0.200 A 
ATOM    119  F   UNL A   1      41.460  21.074  27.378  1.00  0.00    -0.200 F 
ATOM    120  F   UNL A   1      43.062  20.673  25.212  1.00  0.00    -0.200 F 
ENDBRANCH  82 110
BRANCH  97 121
ATOM    121  C   UNL A   1      45.135  29.915  28.415  1.00  0.00     0.064 A 
ATOM    122  C   UNL A   1      44.046  30.638  27.899  1.00  0.00     0.173 A 
ATOM    123  C   UNL A   1      46.411  30.240  27.933  1.00  0.00     0.173 A 
ATOM    124  F   UNL A   1      42.804  30.438  28.356  1.00  0.00    -0.203 F 
ATOM    125  C   UNL A   1      44.230  31.627  26.932  1.00  0.00     0.198 A 
ATOM    126  C   UNL A   1      46.596  31.253  26.997  1.00  0.00     0.198 A 
ATOM    127  F   UNL A   1      47.492  29.606  28.414  1.00  0.00    -0.203 F 
ATOM    128  F   UNL A   1      43.175  32.300  26.449  1.00  0.00    -0.200 F 
ATOM    129  C   UNL A   1      45.506  31.941  26.493  1.00  0.00     0.200 A 
ATOM    130  F   UNL A   1      47.836  31.581  26.610  1.00  0.00    -0.200 F 
ATOM    131  F   UNL A   1      45.688  32.927  25.602  1.00  0.00    -0.200 F 
ENDBRANCH  97 121
ENDBRANCH  62  65
ENDBRANCH  52  55
ENDBRANCH  48  51
ENDBRANCH  45  48
ENDBRANCH  42  45
ENDBRANCH  39  42
ENDBRANCH   1  39
TORSDOF 19
ENDMDL
MODEL 9
REMARK VINA RESULT:     -10.6      4.729      8.339
REMARK SMILES Cc1cc(C)c2c(OCCCC(=O)NCCCCCCNC(=O)c3ccc(-c4c5nc(c(-c6c(F)c(F)c(F)c(F)c6F)c6ccc([nH]6)c(-c6c(F)c(F)c(F)c(F)c6F)c6nc(c(-c7c(F)c(F)c(F)c(F)c7F)c7ccc4[nH]7)C=C6)C=C5)cc3)nsc2n1
REMARK SMILES IDX 16 1 15 4 14 7 12 8 13 9 11 11 10 14 9 17 8 20 7 21 2 22
REMARK SMILES IDX 3 23 90 24 4 25 89 27 6 28 88 29 87 30 1 31 5 35 17 39 18 42
REMARK SMILES IDX 19 45 20 48 21 51 22 52 23 54 24 55 25 56 86 57 26 58 85 60
REMARK SMILES IDX 27 62 28 65 29 66 79 67 30 68 84 69 78 70 80 71 31 72 83 73
REMARK SMILES IDX 77 75 76 77 32 79 64 82 44 83 63 84 45 85 48 86 62 87 81 88
REMARK SMILES IDX 46 89 47 91 61 93 82 94 49 97 33 99 34 100 42 101 35 102
REMARK SMILES IDX 36 103 40 104 43 105 37 106 38 107 41 108 39 109 65 110
REMARK SMILES IDX 66 111 74 112 67 113 68 114 72 115 75 116 69 117 70 118
REMARK SMILES IDX 73 119 71 120 50 121 51 122 59 123 52 124 53 125 57 126
REMARK SMILES IDX 60 127 54 128 55 129 58 130 56 131
REMARK H PARENT 16 2 16 3 15 5 15 6 14 10 11 12 11 13 10 15 10 16 9 18 9 19
REMARK H PARENT 3 26 1 32 1 33 1 34 5 36 5 37 5 38 17 40 17 41 18 43 18 44
REMARK H PARENT 19 46 19 47 20 49 20 50 21 53 25 59 86 61 26 63 85 64 84 74
REMARK H PARENT 78 76 80 78 83 80 77 81 45 90 48 92 81 95 46 96 82 98
REMARK Flexibility Score: inf
ROOT
ATOM      1  C   UNL A   1      44.900  25.987  26.546  1.00  0.00    -0.036 C 
ATOM      2  H   UNL A   1      44.017  25.779  27.113  1.00  0.00     0.028 H 
ATOM      3  H   UNL A   1      45.567  26.688  27.003  1.00  0.00     0.028 H 
ENDROOT
BRANCH   1   4
ATOM      4  C   UNL A   1      44.454  26.657  25.196  1.00  0.00     0.017 C 
ATOM      5  H   UNL A   1      44.205  25.876  24.506  1.00  0.00     0.049 H 
ATOM      6  H   UNL A   1      43.628  27.293  25.439  1.00  0.00     0.049 H 
BRANCH   4   7
ATOM      7  N   UNL A   1      45.519  27.572  24.522  1.00  0.00    -0.356 N 
ATOM      8  C   UNL A   1      46.790  27.831  24.065  1.00  0.00     0.220 C 
ATOM      9  O   UNL A   1      46.778  28.940  23.479  1.00  0.00    -0.275 OA
ATOM     10  H   UNL A   1      45.024  28.397  24.314  1.00  0.00     0.163 HD
BRANCH   8  11
ATOM     11  C   UNL A   1      48.223  27.025  23.913  1.00  0.00     0.030 C 
ATOM     12  H   UNL A   1      47.909  26.005  23.989  1.00  0.00     0.037 H 
ATOM     13  H   UNL A   1      48.567  27.664  23.127  1.00  0.00     0.037 H 
BRANCH  11  14
ATOM     14  C   UNL A   1      49.677  26.977  24.632  1.00  0.00    -0.010 C 
ATOM     15  H   UNL A   1      50.323  26.648  23.846  1.00  0.00     0.031 H 
ATOM     16  H   UNL A   1      49.583  27.930  25.109  1.00  0.00     0.031 H 
BRANCH  14  17
ATOM     17  C   UNL A   1      50.261  26.225  25.916  1.00  0.00     0.090 C 
ATOM     18  H   UNL A   1      50.986  25.535  25.534  1.00  0.00     0.071 H 
ATOM     19  H   UNL A   1      50.533  27.066  26.517  1.00  0.00     0.071 H 
BRANCH  17  20
ATOM     20  O   UNL A   1      49.492  25.474  26.870  1.00  0.00    -0.477 OA
BRANCH  20  21
ATOM     21  C   UNL A   1      49.483  25.736  28.204  1.00  0.00     0.235 A 
ATOM     22  C   UNL A   1      46.365  26.031  30.735  1.00  0.00     0.039 A 
ATOM     23  C   UNL A   1      46.252  26.806  29.583  1.00  0.00    -0.037 A 
ATOM     24  N   UNL A   1      47.551  25.582  31.196  1.00  0.00    -0.240 NA
ATOM     25  C   UNL A   1      47.369  27.061  28.761  1.00  0.00    -0.034 A 
ATOM     26  H   UNL A   1      45.333  27.201  29.326  1.00  0.00     0.064 H 
ATOM     27  C   UNL A   1      48.540  25.692  30.285  1.00  0.00     0.147 A 
ATOM     28  C   UNL A   1      48.447  26.244  29.021  1.00  0.00     0.078 A 
ATOM     29  S   UNL A   1      50.158  25.203  30.489  1.00  0.00    -0.012 S 
ATOM     30  N   UNL A   1      50.558  25.298  28.861  1.00  0.00    -0.153 NA
BRANCH  22  31
ATOM     31  C   UNL A   1      45.112  25.593  31.450  1.00  0.00    -0.022 C 
ATOM     32  H   UNL A   1      44.263  26.069  31.007  1.00  0.00     0.030 H 
ATOM     33  H   UNL A   1      45.176  25.866  32.483  1.00  0.00     0.030 H 
ATOM     34  H   UNL A   1      45.008  24.531  31.368  1.00  0.00     0.030 H 
ENDBRANCH  22  31
BRANCH  25  35
ATOM     35  C   UNL A   1      47.541  28.013  27.638  1.00  0.00    -0.039 C 
ATOM     36  H   UNL A   1      46.774  28.758  27.681  1.00  0.00     0.028 H 
ATOM     37  H   UNL A   1      47.474  27.486  26.710  1.00  0.00     0.028 H 
ATOM     38  H   UNL A   1      48.499  28.483  27.713  1.00  0.00     0.028 H 
ENDBRANCH  25  35
ENDBRANCH  20  21
ENDBRANCH  17  20
ENDBRANCH  14  17
ENDBRANCH  11  14
ENDBRANCH   8  11
ENDBRANCH   4   7
ENDBRANCH   1   4
BRANCH   1  39
ATOM     39  C   UNL A   1      45.700  24.679  26.431  1.00  0.00    -0.052 C 
ATOM     40  H   UNL A   1      45.222  23.958  27.059  1.00  0.00     0.027 H 
ATOM     41  H   UNL A   1      46.697  24.953  26.708  1.00  0.00     0.027 H 
BRANCH  39  42
ATOM     42  C   UNL A   1      45.852  24.042  25.034  1.00  0.00    -0.052 C 
ATOM     43  H   UNL A   1      46.787  23.519  25.030  1.00  0.00     0.027 H 
ATOM     44  H   UNL A   1      45.762  24.873  24.366  1.00  0.00     0.027 H 
BRANCH  42  45
ATOM     45  C   UNL A   1      44.779  23.053  24.535  1.00  0.00    -0.036 C 
ATOM     46  H   UNL A   1      44.893  22.143  25.087  1.00  0.00     0.028 H 
ATOM     47  H   UNL A   1      44.949  22.957  23.483  1.00  0.00     0.028 H 
BRANCH  45  48
ATOM     48  C   UNL A   1      43.328  23.501  24.672  1.00  0.00     0.018 C 
ATOM     49  H   UNL A   1      42.939  23.692  23.694  1.00  0.00     0.049 H 
ATOM     50  H   UNL A   1      43.329  24.374  25.291  1.00  0.00     0.049 H 
BRANCH  48  51
ATOM     51  N   UNL A   1      42.468  22.520  25.325  1.00  0.00    -0.352 N 
ATOM     52  C   UNL A   1      41.811  22.587  26.540  1.00  0.00     0.251 C 
ATOM     53  H   UNL A   1      42.335  21.683  24.823  1.00  0.00     0.163 HD
ATOM     54  O   UNL A   1      41.406  21.575  27.076  1.00  0.00    -0.269 OA
BRANCH  52  55
ATOM     55  C   UNL A   1      41.602  23.900  27.194  1.00  0.00     0.039 A 
ATOM     56  C   UNL A   1      42.394  24.274  28.283  1.00  0.00    -0.049 A 
ATOM     57  C   UNL A   1      40.584  24.741  26.748  1.00  0.00    -0.049 A 
ATOM     58  C   UNL A   1      42.191  25.522  28.866  1.00  0.00    -0.053 A 
ATOM     59  H   UNL A   1      43.117  23.636  28.650  1.00  0.00     0.063 H 
ATOM     60  C   UNL A   1      40.475  26.027  27.226  1.00  0.00    -0.053 A 
ATOM     61  H   UNL A   1      39.905  24.396  26.052  1.00  0.00     0.063 H 
ATOM     62  C   UNL A   1      41.243  26.404  28.314  1.00  0.00    -0.014 A 
ATOM     63  H   UNL A   1      42.733  25.799  29.699  1.00  0.00     0.063 H 
ATOM     64  H   UNL A   1      39.830  26.698  26.780  1.00  0.00     0.063 H 
BRANCH  62  65
ATOM     65  C   UNL A   1      41.165  27.779  28.788  1.00  0.00     0.031 A 
ATOM     66  C   UNL A   1      42.304  28.608  28.324  1.00  0.00     0.074 A 
ATOM     67  C   UNL A   1      40.120  28.311  29.457  1.00  0.00     0.049 A 
ATOM     68  N   UNL A   1      43.312  28.986  29.033  1.00  0.00    -0.248 NA
ATOM     69  C   UNL A   1      42.447  28.885  26.887  1.00  0.00    -0.034 C 
ATOM     70  C   UNL A   1      38.809  27.715  29.729  1.00  0.00    -0.036 A 
ATOM     71  N   UNL A   1      40.001  29.557  30.002  1.00  0.00    -0.354 N 
ATOM     72  C   UNL A   1      44.123  29.731  28.183  1.00  0.00     0.074 A 
ATOM     73  C   UNL A   1      43.645  29.475  26.851  1.00  0.00    -0.034 C 
ATOM     74  H   UNL A   1      41.797  28.677  26.113  1.00  0.00     0.065 H 
ATOM     75  C   UNL A   1      37.964  28.661  30.201  1.00  0.00    -0.036 A 
ATOM     76  H   UNL A   1      38.565  26.723  29.581  1.00  0.00     0.065 H 
ATOM     77  C   UNL A   1      38.716  29.881  30.432  1.00  0.00     0.049 A 
ATOM     78  H   UNL A   1      40.761  30.177  30.085  1.00  0.00     0.167 HD
ATOM     79  C   UNL A   1      44.931  30.697  28.699  1.00  0.00     0.037 A 
ATOM     80  H   UNL A   1      44.156  29.715  25.988  1.00  0.00     0.065 H 
ATOM     81  H   UNL A   1      36.955  28.536  30.371  1.00  0.00     0.065 H 
ATOM     82  C   UNL A   1      38.315  31.068  30.951  1.00  0.00     0.037 A 
ATOM     83  C   UNL A   1      45.055  30.525  30.129  1.00  0.00     0.049 A 
ATOM     84  C   UNL A   1      39.528  31.723  31.489  1.00  0.00     0.074 A 
ATOM     85  C   UNL A   1      45.621  29.593  30.971  1.00  0.00    -0.036 A 
ATOM     86  N   UNL A   1      44.139  31.228  30.868  1.00  0.00    -0.354 N 
ATOM     87  N   UNL A   1      40.193  31.281  32.518  1.00  0.00    -0.248 NA
ATOM     88  C   UNL A   1      40.233  32.680  30.650  1.00  0.00    -0.034 C 
ATOM     89  C   UNL A   1      44.784  29.563  32.128  1.00  0.00    -0.036 A 
ATOM     90  H   UNL A   1      46.472  29.034  30.802  1.00  0.00     0.065 H 
ATOM     91  C   UNL A   1      43.778  30.518  31.978  1.00  0.00     0.049 A 
ATOM     92  H   UNL A   1      43.790  32.118  30.631  1.00  0.00     0.167 HD
ATOM     93  C   UNL A   1      41.515  31.547  32.212  1.00  0.00     0.074 A 
ATOM     94  C   UNL A   1      41.463  32.547  31.150  1.00  0.00    -0.034 C 
ATOM     95  H   UNL A   1      39.884  33.285  29.889  1.00  0.00     0.065 H 
ATOM     96  H   UNL A   1      44.903  28.937  32.940  1.00  0.00     0.065 H 
ATOM     97  C   UNL A   1      42.502  30.705  32.638  1.00  0.00     0.037 A 
ATOM     98  H   UNL A   1      42.281  33.086  30.824  1.00  0.00     0.065 H 
BRANCH  79  99
ATOM     99  C   UNL A   1      45.188  32.044  28.050  1.00  0.00     0.064 A 
ATOM    100  C   UNL A   1      44.089  32.900  27.812  1.00  0.00     0.173 A 
ATOM    101  C   UNL A   1      46.375  32.392  27.369  1.00  0.00     0.173 A 
ATOM    102  F   UNL A   1      42.900  32.664  28.388  1.00  0.00    -0.203 F 
ATOM    103  C   UNL A   1      44.153  33.958  26.899  1.00  0.00     0.198 A 
ATOM    104  C   UNL A   1      46.448  33.477  26.496  1.00  0.00     0.198 A 
ATOM    105  F   UNL A   1      47.481  31.643  27.421  1.00  0.00    -0.203 F 
ATOM    106  F   UNL A   1      43.046  34.654  26.610  1.00  0.00    -0.200 F 
ATOM    107  C   UNL A   1      45.331  34.240  26.236  1.00  0.00     0.200 A 
ATOM    108  F   UNL A   1      47.594  33.718  25.843  1.00  0.00    -0.200 F 
ATOM    109  F   UNL A   1      45.380  35.211  25.315  1.00  0.00    -0.200 F 
ENDBRANCH  79  99
BRANCH  82 110
ATOM    110  C   UNL A   1      37.034  31.804  30.803  1.00  0.00     0.064 A 
ATOM    111  C   UNL A   1      36.137  31.910  31.884  1.00  0.00     0.173 A 
ATOM    112  C   UNL A   1      36.822  32.687  29.730  1.00  0.00     0.173 A 
ATOM    113  F   UNL A   1      36.282  31.126  32.963  1.00  0.00    -0.203 F 
ATOM    114  C   UNL A   1      35.133  32.884  31.917  1.00  0.00     0.198 A 
ATOM    115  C   UNL A   1      35.815  33.657  29.762  1.00  0.00     0.198 A 
ATOM    116  F   UNL A   1      37.651  32.697  28.676  1.00  0.00    -0.203 F 
ATOM    117  F   UNL A   1      34.358  33.010  33.004  1.00  0.00    -0.200 F 
ATOM    118  C   UNL A   1      34.987  33.770  30.864  1.00  0.00     0.200 A 
ATOM    119  F   UNL A   1      35.703  34.531  28.752  1.00  0.00    -0.200 F 
ATOM    120  F   UNL A   1      34.081  34.756  30.929  1.00  0.00    -0.200 F 
ENDBRANCH  82 110
BRANCH  97 121
ATOM    121  C   UNL A   1      42.179  29.772  33.770  1.00  0.00     0.064 A 
ATOM    122  C   UNL A   1      41.705  28.457  33.615  1.00  0.00     0.173 A 
ATOM    123  C   UNL A   1      42.496  30.195  35.068  1.00  0.00     0.173 A 
ATOM    124  F   UNL A   1      41.446  27.953  32.404  1.00  0.00    -0.203 F 
ATOM    125  C   UNL A   1      41.542  27.617  34.717  1.00  0.00     0.198 A 
ATOM    126  C   UNL A   1      42.369  29.342  36.160  1.00  0.00     0.198 A 
ATOM    127  F   UNL A   1      42.984  31.429  35.271  1.00  0.00    -0.203 F 
ATOM    128  F   UNL A   1      41.083  26.368  34.548  1.00  0.00    -0.200 F 
ATOM    129  C   UNL A   1      41.887  28.056  35.985  1.00  0.00     0.200 A 
ATOM    130  F   UNL A   1      42.745  29.759  37.376  1.00  0.00    -0.200 F 
ATOM    131  F   UNL A   1      41.779  27.231  37.036  1.00  0.00    -0.200 F 
ENDBRANCH  97 121
ENDBRANCH  62  65
ENDBRANCH  52  55
ENDBRANCH  48  51
ENDBRANCH  45  48
ENDBRANCH  42  45
ENDBRANCH  39  42
ENDBRANCH   1  39
TORSDOF 19
ENDMDL
MODEL 10
REMARK VINA RESULT:     -10.5      4.433     10.554
REMARK SMILES Cc1cc(C)c2c(OCCCC(=O)NCCCCCCNC(=O)c3ccc(-c4c5nc(c(-c6c(F)c(F)c(F)c(F)c6F)c6ccc([nH]6)c(-c6c(F)c(F)c(F)c(F)c6F)c6nc(c(-c7c(F)c(F)c(F)c(F)c7F)c7ccc4[nH]7)C=C6)C=C5)cc3)nsc2n1
REMARK SMILES IDX 16 1 15 4 14 7 12 8 13 9 11 11 10 14 9 17 8 20 7 21 2 22
REMARK SMILES IDX 3 23 90 24 4 25 89 27 6 28 88 29 87 30 1 31 5 35 17 39 18 42
REMARK SMILES IDX 19 45 20 48 21 51 22 52 23 54 24 55 25 56 86 57 26 58 85 60
REMARK SMILES IDX 27 62 28 65 29 66 79 67 30 68 84 69 78 70 80 71 31 72 83 73
REMARK SMILES IDX 77 75 76 77 32 79 64 82 44 83 63 84 45 85 48 86 62 87 81 88
REMARK SMILES IDX 46 89 47 91 61 93 82 94 49 97 33 99 34 100 42 101 35 102
REMARK SMILES IDX 36 103 40 104 43 105 37 106 38 107 41 108 39 109 65 110
REMARK SMILES IDX 66 111 74 112 67 113 68 114 72 115 75 116 69 117 70 118
REMARK SMILES IDX 73 119 71 120 50 121 51 122 59 123 52 124 53 125 57 126
REMARK SMILES IDX 60 127 54 128 55 129 58 130 56 131
REMARK H PARENT 16 2 16 3 15 5 15 6 14 10 11 12 11 13 10 15 10 16 9 18 9 19
REMARK H PARENT 3 26 1 32 1 33 1 34 5 36 5 37 5 38 17 40 17 41 18 43 18 44
REMARK H PARENT 19 46 19 47 20 49 20 50 21 53 25 59 86 61 26 63 85 64 84 74
REMARK H PARENT 78 76 80 78 83 80 77 81 45 90 48 92 81 95 46 96 82 98
REMARK Flexibility Score: inf
ROOT
ATOM      1  C   UNL A   1      46.176  30.283  26.187  1.00  0.00    -0.036 C 
ATOM      2  H   UNL A   1      46.334  30.260  25.128  1.00  0.00     0.028 H 
ATOM      3  H   UNL A   1      47.072  30.294  26.770  1.00  0.00     0.028 H 
ENDROOT
BRANCH   1   4
ATOM      4  C   UNL A   1      45.434  28.956  26.586  1.00  0.00     0.017 C 
ATOM      5  H   UNL A   1      46.140  28.154  26.531  1.00  0.00     0.049 H 
ATOM      6  H   UNL A   1      45.046  29.119  27.571  1.00  0.00     0.049 H 
BRANCH   4   7
ATOM      7  N   UNL A   1      44.211  28.583  25.697  1.00  0.00    -0.356 N 
ATOM      8  C   UNL A   1      43.302  27.685  25.189  1.00  0.00     0.220 C 
ATOM      9  O   UNL A   1      42.461  28.320  24.508  1.00  0.00    -0.275 OA
ATOM     10  H   UNL A   1      43.953  29.437  25.280  1.00  0.00     0.163 HD
BRANCH   8  11
ATOM     11  C   UNL A   1      42.917  26.091  25.385  1.00  0.00     0.030 C 
ATOM     12  H   UNL A   1      43.097  25.701  24.406  1.00  0.00     0.037 H 
ATOM     13  H   UNL A   1      43.404  26.030  26.336  1.00  0.00     0.037 H 
BRANCH  11  14
ATOM     14  C   UNL A   1      41.657  25.193  25.874  1.00  0.00    -0.010 C 
ATOM     15  H   UNL A   1      40.999  25.918  26.306  1.00  0.00     0.031 H 
ATOM     16  H   UNL A   1      41.580  24.629  24.968  1.00  0.00     0.031 H 
BRANCH  14  17
ATOM     17  C   UNL A   1      41.495  23.935  26.847  1.00  0.00     0.090 C 
ATOM     18  H   UNL A   1      41.335  24.350  27.821  1.00  0.00     0.071 H 
ATOM     19  H   UNL A   1      40.736  23.392  26.325  1.00  0.00     0.071 H 
BRANCH  17  20
ATOM     20  O   UNL A   1      42.464  22.891  27.036  1.00  0.00    -0.477 OA
BRANCH  20  21
ATOM     21  C   UNL A   1      42.452  21.718  26.350  1.00  0.00     0.235 A 
ATOM     22  C   UNL A   1      45.522  19.342  25.282  1.00  0.00     0.039 A 
ATOM     23  C   UNL A   1      45.676  20.681  24.930  1.00  0.00    -0.037 A 
ATOM     24  N   UNL A   1      44.317  18.791  25.539  1.00  0.00    -0.240 NA
ATOM     25  C   UNL A   1      44.582  21.571  24.944  1.00  0.00    -0.034 A 
ATOM     26  H   UNL A   1      46.608  21.029  24.655  1.00  0.00     0.064 H 
ATOM     27  C   UNL A   1      43.350  19.713  25.720  1.00  0.00     0.147 A 
ATOM     28  C   UNL A   1      43.481  21.085  25.616  1.00  0.00     0.078 A 
ATOM     29  S   UNL A   1      41.718  19.403  26.093  1.00  0.00    -0.012 S 
ATOM     30  N   UNL A   1      41.354  20.982  26.533  1.00  0.00    -0.153 NA
BRANCH  22  31
ATOM     31  C   UNL A   1      46.750  18.489  25.478  1.00  0.00    -0.022 C 
ATOM     32  H   UNL A   1      47.145  18.208  24.523  1.00  0.00     0.030 H 
ATOM     33  H   UNL A   1      46.491  17.610  26.029  1.00  0.00     0.030 H 
ATOM     34  H   UNL A   1      47.487  19.045  26.018  1.00  0.00     0.030 H 
ENDBRANCH  22  31
BRANCH  25  35
ATOM     35  C   UNL A   1      44.454  22.947  24.412  1.00  0.00    -0.039 C 
ATOM     36  H   UNL A   1      43.575  23.016  23.806  1.00  0.00     0.028 H 
ATOM     37  H   UNL A   1      45.314  23.183  23.822  1.00  0.00     0.028 H 
ATOM     38  H   UNL A   1      44.380  23.639  25.226  1.00  0.00     0.028 H 
ENDBRANCH  25  35
ENDBRANCH  20  21
ENDBRANCH  17  20
ENDBRANCH  14  17
ENDBRANCH  11  14
ENDBRANCH   8  11
ENDBRANCH   4   7
ENDBRANCH   1   4
BRANCH   1  39
ATOM     39  C   UNL A   1      45.454  31.599  26.522  1.00  0.00    -0.052 C 
ATOM     40  H   UNL A   1      44.624  31.355  27.150  1.00  0.00     0.027 H 
ATOM     41  H   UNL A   1      45.210  32.019  25.569  1.00  0.00     0.027 H 
BRANCH  39  42
ATOM     42  C   UNL A   1      46.259  32.707  27.234  1.00  0.00    -0.052 C 
ATOM     43  H   UNL A   1      46.954  32.218  27.885  1.00  0.00     0.027 H 
ATOM     44  H   UNL A   1      45.504  33.308  27.699  1.00  0.00     0.027 H 
BRANCH  42  45
ATOM     45  C   UNL A   1      47.062  33.717  26.390  1.00  0.00    -0.036 C 
ATOM     46  H   UNL A   1      47.688  33.160  25.725  1.00  0.00     0.028 H 
ATOM     47  H   UNL A   1      47.594  34.318  27.098  1.00  0.00     0.028 H 
BRANCH  45  48
ATOM     48  C   UNL A   1      46.250  34.698  25.552  1.00  0.00     0.018 C 
ATOM     49  H   UNL A   1      45.249  34.331  25.477  1.00  0.00     0.049 H 
ATOM     50  H   UNL A   1      46.733  34.767  24.599  1.00  0.00     0.049 H 
BRANCH  48  51
ATOM     51  N   UNL A   1      46.206  36.048  26.103  1.00  0.00    -0.352 N 
ATOM     52  C   UNL A   1      45.320  36.606  27.008  1.00  0.00     0.251 C 
ATOM     53  H   UNL A   1      46.914  36.653  25.784  1.00  0.00     0.163 HD
ATOM     54  O   UNL A   1      45.231  37.813  27.113  1.00  0.00    -0.269 OA
BRANCH  52  55
ATOM     55  C   UNL A   1      44.475  35.729  27.850  1.00  0.00     0.039 A 
ATOM     56  C   UNL A   1      43.252  35.258  27.363  1.00  0.00    -0.049 A 
ATOM     57  C   UNL A   1      44.881  35.411  29.145  1.00  0.00    -0.049 A 
ATOM     58  C   UNL A   1      42.487  34.417  28.168  1.00  0.00    -0.053 A 
ATOM     59  H   UNL A   1      42.922  35.528  26.424  1.00  0.00     0.063 H 
ATOM     60  C   UNL A   1      44.200  34.472  29.884  1.00  0.00    -0.053 A 
ATOM     61  H   UNL A   1      45.701  35.886  29.553  1.00  0.00     0.063 H 
ATOM     62  C   UNL A   1      42.981  34.009  29.421  1.00  0.00    -0.014 A 
ATOM     63  H   UNL A   1      41.561  34.096  27.847  1.00  0.00     0.063 H 
ATOM     64  H   UNL A   1      44.593  34.119  30.772  1.00  0.00     0.063 H 
BRANCH  62  65
ATOM     65  C   UNL A   1      42.285  32.978  30.177  1.00  0.00     0.031 A 
ATOM     66  C   UNL A   1      42.851  31.625  29.954  1.00  0.00     0.074 A 
ATOM     67  C   UNL A   1      41.321  33.206  31.094  1.00  0.00     0.049 A 
ATOM     68  N   UNL A   1      42.336  30.691  29.232  1.00  0.00    -0.248 NA
ATOM     69  C   UNL A   1      44.219  31.340  30.411  1.00  0.00    -0.034 C 
ATOM     70  C   UNL A   1      40.862  34.487  31.640  1.00  0.00    -0.036 A 
ATOM     71  N   UNL A   1      40.568  32.300  31.785  1.00  0.00    -0.354 N 
ATOM     72  C   UNL A   1      43.213  29.615  29.311  1.00  0.00     0.074 A 
ATOM     73  C   UNL A   1      44.427  30.132  29.882  1.00  0.00    -0.034 C 
ATOM     74  H   UNL A   1      44.851  31.919  30.987  1.00  0.00     0.065 H 
ATOM     75  C   UNL A   1      40.065  34.270  32.712  1.00  0.00    -0.036 A 
ATOM     76  H   UNL A   1      41.111  35.416  31.265  1.00  0.00     0.065 H 
ATOM     77  C   UNL A   1      39.814  32.844  32.822  1.00  0.00     0.049 A 
ATOM     78  H   UNL A   1      40.558  31.341  31.567  1.00  0.00     0.167 HD
ATOM     79  C   UNL A   1      42.741  28.348  29.147  1.00  0.00     0.037 A 
ATOM     80  H   UNL A   1      45.332  29.637  29.884  1.00  0.00     0.065 H 
ATOM     81  H   UNL A   1      39.696  34.995  33.345  1.00  0.00     0.065 H 
ATOM     82  C   UNL A   1      39.032  32.160  33.694  1.00  0.00     0.037 A 
ATOM     83  C   UNL A   1      41.424  28.385  28.554  1.00  0.00     0.049 A 
ATOM     84  C   UNL A   1      38.682  30.884  33.034  1.00  0.00     0.074 A 
ATOM     85  C   UNL A   1      40.893  28.748  27.335  1.00  0.00    -0.036 A 
ATOM     86  N   UNL A   1      40.394  28.399  29.459  1.00  0.00    -0.354 N 
ATOM     87  N   UNL A   1      37.914  30.799  31.985  1.00  0.00    -0.248 NA
ATOM     88  C   UNL A   1      39.490  29.708  33.316  1.00  0.00    -0.034 C 
ATOM     89  C   UNL A   1      39.599  29.278  27.623  1.00  0.00    -0.036 A 
ATOM     90  H   UNL A   1      41.338  28.655  26.408  1.00  0.00     0.065 H 
ATOM     91  C   UNL A   1      39.361  29.163  28.993  1.00  0.00     0.049 A 
ATOM     92  H   UNL A   1      40.398  27.925  30.323  1.00  0.00     0.167 HD
ATOM     93  C   UNL A   1      38.461  29.770  31.241  1.00  0.00     0.074 A 
ATOM     94  C   UNL A   1      39.308  29.037  32.177  1.00  0.00    -0.034 C 
ATOM     95  H   UNL A   1      40.044  29.464  34.153  1.00  0.00     0.065 H 
ATOM     96  H   UNL A   1      38.946  29.681  26.932  1.00  0.00     0.065 H 
ATOM     97  C   UNL A   1      38.411  29.805  29.878  1.00  0.00     0.037 A 
ATOM     98  H   UNL A   1      39.717  28.110  31.981  1.00  0.00     0.065 H 
BRANCH  79  99
ATOM     99  C   UNL A   1      43.204  27.145  29.947  1.00  0.00     0.064 A 
ATOM    100  C   UNL A   1      43.194  27.227  31.357  1.00  0.00     0.173 A 
ATOM    101  C   UNL A   1      43.947  26.068  29.416  1.00  0.00     0.173 A 
ATOM    102  F   UNL A   1      42.538  28.219  31.980  1.00  0.00    -0.203 F 
ATOM    103  C   UNL A   1      43.939  26.357  32.159  1.00  0.00     0.198 A 
ATOM    104  C   UNL A   1      44.649  25.173  30.223  1.00  0.00     0.198 A 
ATOM    105  F   UNL A   1      44.124  25.893  28.104  1.00  0.00    -0.203 F 
ATOM    106  F   UNL A   1      44.002  26.562  33.482  1.00  0.00    -0.200 F 
ATOM    107  C   UNL A   1      44.672  25.335  31.590  1.00  0.00     0.200 A 
ATOM    108  F   UNL A   1      45.375  24.203  29.648  1.00  0.00    -0.200 F 
ATOM    109  F   UNL A   1      45.437  24.539  32.349  1.00  0.00    -0.200 F 
ENDBRANCH  79  99
BRANCH  82 110
ATOM    110  C   UNL A   1      38.767  32.389  35.137  1.00  0.00     0.064 A 
ATOM    111  C   UNL A   1      39.831  32.526  36.050  1.00  0.00     0.173 A 
ATOM    112  C   UNL A   1      37.502  32.808  35.588  1.00  0.00     0.173 A 
ATOM    113  F   UNL A   1      41.076  32.177  35.695  1.00  0.00    -0.203 F 
ATOM    114  C   UNL A   1      39.651  33.109  37.310  1.00  0.00     0.198 A 
ATOM    115  C   UNL A   1      37.324  33.385  36.848  1.00  0.00     0.198 A 
ATOM    116  F   UNL A   1      36.435  32.763  34.776  1.00  0.00    -0.203 F 
ATOM    117  F   UNL A   1      40.707  33.303  38.114  1.00  0.00    -0.200 F 
ATOM    118  C   UNL A   1      38.402  33.556  37.699  1.00  0.00     0.200 A 
ATOM    119  F   UNL A   1      36.116  33.847  37.203  1.00  0.00    -0.200 F 
ATOM    120  F   UNL A   1      38.243  34.190  38.870  1.00  0.00    -0.200 F 
ENDBRANCH  82 110
BRANCH  97 121
ATOM    121  C   UNL A   1      37.402  30.719  29.242  1.00  0.00     0.064 A 
ATOM    122  C   UNL A   1      36.091  30.349  28.896  1.00  0.00     0.173 A 
ATOM    123  C   UNL A   1      37.748  32.071  29.106  1.00  0.00     0.173 A 
ATOM    124  F   UNL A   1      35.659  29.094  29.063  1.00  0.00    -0.203 F 
ATOM    125  C   UNL A   1      35.179  31.291  28.418  1.00  0.00     0.198 A 
ATOM    126  C   UNL A   1      36.826  33.014  28.665  1.00  0.00     0.198 A 
ATOM    127  F   UNL A   1      38.976  32.487  29.453  1.00  0.00    -0.203 F 
ATOM    128  F   UNL A   1      33.934  30.915  28.088  1.00  0.00    -0.200 F 
ATOM    129  C   UNL A   1      35.544  32.624  28.317  1.00  0.00     0.200 A 
ATOM    130  F   UNL A   1      37.172  34.307  28.611  1.00  0.00    -0.200 F 
ATOM    131  F   UNL A   1      34.652  33.537  27.906  1.00  0.00    -0.200 F 
ENDBRANCH  97 121
ENDBRANCH  62  65
ENDBRANCH  52  55
ENDBRANCH  48  51
ENDBRANCH  45  48
ENDBRANCH  42  45
ENDBRANCH  39  42
ENDBRANCH   1  39
TORSDOF 19
ENDMDL
