MODEL 1
REMARK VINA RESULT:     -12.3      0.000      0.000
REMARK SMILES O=C(NCCCCCCNC(=O)[C@H](CO)NC(=O)[C@H](Cc1c[nH]c2ccccc12)NC(=O)c1ccc(F)cc1)c1ccc(-c2c3nc(c(-c4c(F)c(F)c(F)c(F)c4F)c4ccc([nH]4)c(-c4c(F)c(F)c(F)c(F)c4F)c4nc(c(-c5c(F)c(F)c(F)c(F)c5F)c5ccc2[nH]5)C=C4)C=C3)cc1
REMARK SMILES IDX 7 1 6 4 5 7 4 10 3 13 1 14 2 15 40 17 41 18 102 19 42 20
REMARK SMILES IDX 101 22 43 24 44 27 45 28 95 29 46 30 100 31 94 32 96 33
REMARK SMILES IDX 47 34 99 35 93 37 92 39 48 41 80 44 60 45 79 46 61 47 64 48
REMARK SMILES IDX 78 49 97 50 62 51 63 53 77 55 98 56 65 59 49 61 50 62 58 63
REMARK SMILES IDX 51 64 52 65 56 66 59 67 53 68 54 69 57 70 55 71 81 72 82 73
REMARK SMILES IDX 90 74 83 75 84 76 88 77 91 78 85 79 86 80 89 81 87 82 66 83
REMARK SMILES IDX 67 84 75 85 68 86 69 87 73 88 76 89 70 90 71 91 74 92 72 93
REMARK SMILES IDX 8 94 9 97 10 100 11 101 12 103 13 104 16 106 17 107 18 109
REMARK SMILES IDX 19 110 30 112 31 113 32 115 33 116 34 117 39 118 35 119
REMARK SMILES IDX 38 121 36 123 37 126 20 127 21 130 22 131 29 132 23 133
REMARK SMILES IDX 24 135 28 136 25 138 27 139 26 141 14 145 15 148
REMARK H PARENT 7 2 7 3 6 5 6 6 5 8 5 9 4 11 4 12 3 16 41 21 102 23 42 25
REMARK H PARENT 101 26 100 36 94 38 96 40 99 42 93 43 61 52 64 54 97 57 62 58
REMARK H PARENT 98 60 8 95 8 96 9 98 9 99 10 102 13 105 16 108 19 111 30 114
REMARK H PARENT 34 120 39 122 35 124 38 125 20 128 20 129 22 134 23 137 28 140
REMARK H PARENT 25 142 27 143 26 144 14 146 14 147 15 149
REMARK Flexibility Score: inf
ROOT
ATOM      1  C   UNL A   1      31.780  29.427  26.958  1.00  0.00    -0.052 C 
ATOM      2  H   UNL A   1      30.764  29.178  27.180  1.00  0.00     0.027 H 
ATOM      3  H   UNL A   1      32.371  29.687  27.811  1.00  0.00     0.027 H 
ENDROOT
BRANCH   1   4
ATOM      4  C   UNL A   1      31.770  30.680  26.077  1.00  0.00    -0.052 C 
ATOM      5  H   UNL A   1      32.739  30.774  25.631  1.00  0.00     0.027 H 
ATOM      6  H   UNL A   1      30.975  30.530  25.376  1.00  0.00     0.027 H 
BRANCH   4   7
ATOM      7  C   UNL A   1      31.451  31.997  26.780  1.00  0.00    -0.036 C 
ATOM      8  H   UNL A   1      30.951  32.631  26.078  1.00  0.00     0.028 H 
ATOM      9  H   UNL A   1      30.857  31.736  27.631  1.00  0.00     0.028 H 
BRANCH   7  10
ATOM     10  C   UNL A   1      32.646  32.763  27.330  1.00  0.00     0.018 C 
ATOM     11  H   UNL A   1      33.000  32.256  28.202  1.00  0.00     0.049 H 
ATOM     12  H   UNL A   1      33.378  32.799  26.551  1.00  0.00     0.049 H 
BRANCH  10  13
ATOM     13  N   UNL A   1      32.344  34.137  27.691  1.00  0.00    -0.352 N 
ATOM     14  O   UNL A   1      32.555  36.068  28.845  1.00  0.00    -0.269 OA
ATOM     15  C   UNL A   1      32.985  34.945  28.599  1.00  0.00     0.251 C 
ATOM     16  H   UNL A   1      31.578  34.542  27.223  1.00  0.00     0.163 HD
BRANCH  15  17
ATOM     17  C   UNL A   1      34.173  34.434  29.317  1.00  0.00     0.039 A 
ATOM     18  C   UNL A   1      35.456  34.620  28.799  1.00  0.00    -0.049 A 
ATOM     19  C   UNL A   1      33.991  33.729  30.510  1.00  0.00    -0.049 A 
ATOM     20  C   UNL A   1      36.535  33.971  29.388  1.00  0.00    -0.053 A 
ATOM     21  H   UNL A   1      35.603  35.237  27.984  1.00  0.00     0.063 H 
ATOM     22  C   UNL A   1      35.090  33.150  31.149  1.00  0.00    -0.053 A 
ATOM     23  H   UNL A   1      33.046  33.637  30.917  1.00  0.00     0.063 H 
ATOM     24  C   UNL A   1      36.365  33.232  30.571  1.00  0.00    -0.014 A 
ATOM     25  H   UNL A   1      37.468  34.031  28.951  1.00  0.00     0.063 H 
ATOM     26  H   UNL A   1      34.962  32.660  32.048  1.00  0.00     0.063 H 
BRANCH  24  27
ATOM     27  C   UNL A   1      37.548  32.595  31.203  1.00  0.00     0.031 A 
ATOM     28  C   UNL A   1      37.970  32.946  32.601  1.00  0.00     0.074 A 
ATOM     29  C   UNL A   1      38.216  31.651  30.513  1.00  0.00     0.049 A 
ATOM     30  N   UNL A   1      38.953  32.452  33.313  1.00  0.00    -0.248 NA
ATOM     31  C   UNL A   1      37.198  33.990  33.291  1.00  0.00    -0.034 C 
ATOM     32  C   UNL A   1      37.901  31.234  29.145  1.00  0.00    -0.036 A 
ATOM     33  N   UNL A   1      39.271  30.851  30.871  1.00  0.00    -0.354 N 
ATOM     34  C   UNL A   1      38.927  33.134  34.523  1.00  0.00     0.074 A 
ATOM     35  C   UNL A   1      37.848  34.094  34.443  1.00  0.00    -0.034 C 
ATOM     36  H   UNL A   1      36.365  34.506  32.965  1.00  0.00     0.065 H 
ATOM     37  C   UNL A   1      38.702  30.216  28.801  1.00  0.00    -0.036 A 
ATOM     38  H   UNL A   1      37.179  31.657  28.542  1.00  0.00     0.065 H 
ATOM     39  C   UNL A   1      39.624  29.947  29.901  1.00  0.00     0.049 A 
ATOM     40  H   UNL A   1      39.731  30.920  31.738  1.00  0.00     0.167 HD
ATOM     41  C   UNL A   1      39.728  32.963  35.604  1.00  0.00     0.037 A 
ATOM     42  H   UNL A   1      37.615  34.773  35.184  1.00  0.00     0.065 H 
ATOM     43  H   UNL A   1      38.672  29.705  27.906  1.00  0.00     0.065 H 
ATOM     44  C   UNL A   1      40.585  29.005  29.892  1.00  0.00     0.037 A 
ATOM     45  C   UNL A   1      40.790  31.994  35.683  1.00  0.00     0.049 A 
ATOM     46  C   UNL A   1      41.461  28.842  31.098  1.00  0.00     0.074 A 
ATOM     47  C   UNL A   1      41.646  31.736  36.741  1.00  0.00    -0.036 A 
ATOM     48  N   UNL A   1      41.140  31.118  34.666  1.00  0.00    -0.354 N 
ATOM     49  N   UNL A   1      41.422  29.489  32.237  1.00  0.00    -0.248 NA
ATOM     50  C   UNL A   1      42.516  27.823  31.019  1.00  0.00    -0.034 C 
ATOM     51  C   UNL A   1      42.537  30.732  36.350  1.00  0.00    -0.036 A 
ATOM     52  H   UNL A   1      41.629  32.206  37.660  1.00  0.00     0.065 H 
ATOM     53  C   UNL A   1      42.208  30.330  35.066  1.00  0.00     0.049 A 
ATOM     54  H   UNL A   1      40.697  31.065  33.788  1.00  0.00     0.167 HD
ATOM     55  C   UNL A   1      42.440  28.955  33.012  1.00  0.00     0.074 A 
ATOM     56  C   UNL A   1      43.065  27.914  32.222  1.00  0.00    -0.034 C 
ATOM     57  H   UNL A   1      42.763  27.201  30.233  1.00  0.00     0.065 H 
ATOM     58  H   UNL A   1      43.309  30.354  36.923  1.00  0.00     0.065 H 
ATOM     59  C   UNL A   1      42.823  29.301  34.265  1.00  0.00     0.037 A 
ATOM     60  H   UNL A   1      43.841  27.319  32.554  1.00  0.00     0.065 H 
BRANCH  41  61
ATOM     61  C   UNL A   1      39.494  33.849  36.792  1.00  0.00     0.064 A 
ATOM     62  C   UNL A   1      40.079  35.123  36.857  1.00  0.00     0.173 A 
ATOM     63  C   UNL A   1      38.745  33.415  37.896  1.00  0.00     0.173 A 
ATOM     64  F   UNL A   1      40.812  35.583  35.831  1.00  0.00    -0.203 F 
ATOM     65  C   UNL A   1      39.930  35.925  37.985  1.00  0.00     0.198 A 
ATOM     66  C   UNL A   1      38.577  34.230  39.013  1.00  0.00     0.198 A 
ATOM     67  F   UNL A   1      38.155  32.211  37.880  1.00  0.00    -0.203 F 
ATOM     68  F   UNL A   1      40.520  37.128  38.034  1.00  0.00    -0.200 F 
ATOM     69  C   UNL A   1      39.175  35.481  39.060  1.00  0.00     0.200 A 
ATOM     70  F   UNL A   1      37.828  33.809  40.041  1.00  0.00    -0.200 F 
ATOM     71  F   UNL A   1      39.022  36.258  40.141  1.00  0.00    -0.200 F 
ENDBRANCH  41  61
BRANCH  44  72
ATOM     72  C   UNL A   1      40.736  28.139  28.696  1.00  0.00     0.064 A 
ATOM     73  C   UNL A   1      41.478  28.559  27.583  1.00  0.00     0.173 A 
ATOM     74  C   UNL A   1      40.082  26.902  28.621  1.00  0.00     0.173 A 
ATOM     75  F   UNL A   1      42.113  29.739  27.606  1.00  0.00    -0.203 F 
ATOM     76  C   UNL A   1      41.533  27.786  26.425  1.00  0.00     0.198 A 
ATOM     77  C   UNL A   1      40.160  26.119  27.471  1.00  0.00     0.198 A 
ATOM     78  F   UNL A   1      39.374  26.454  29.669  1.00  0.00    -0.203 F 
ATOM     79  F   UNL A   1      42.209  28.232  25.357  1.00  0.00    -0.200 F 
ATOM     80  C   UNL A   1      40.876  26.567  26.371  1.00  0.00     0.200 A 
ATOM     81  F   UNL A   1      39.538  24.933  27.429  1.00  0.00    -0.200 F 
ATOM     82  F   UNL A   1      40.929  25.825  25.257  1.00  0.00    -0.200 F 
ENDBRANCH  44  72
BRANCH  59  83
ATOM     83  C   UNL A   1      43.968  28.544  34.868  1.00  0.00     0.064 A 
ATOM     84  C   UNL A   1      43.737  27.371  35.602  1.00  0.00     0.173 A 
ATOM     85  C   UNL A   1      45.286  29.010  34.766  1.00  0.00     0.173 A 
ATOM     86  F   UNL A   1      42.493  26.889  35.731  1.00  0.00    -0.203 F 
ATOM     87  C   UNL A   1      44.786  26.696  36.219  1.00  0.00     0.198 A 
ATOM     88  C   UNL A   1      46.336  28.319  35.365  1.00  0.00     0.198 A 
ATOM     89  F   UNL A   1      45.557  30.121  34.063  1.00  0.00    -0.203 F 
ATOM     90  F   UNL A   1      44.540  25.590  36.935  1.00  0.00    -0.200 F 
ATOM     91  C   UNL A   1      46.085  27.169  36.098  1.00  0.00     0.200 A 
ATOM     92  F   UNL A   1      47.593  28.764  35.227  1.00  0.00    -0.200 F 
ATOM     93  F   UNL A   1      47.095  26.511  36.682  1.00  0.00    -0.200 F 
ENDBRANCH  59  83
ENDBRANCH  24  27
ENDBRANCH  15  17
ENDBRANCH  10  13
ENDBRANCH   7  10
ENDBRANCH   4   7
ENDBRANCH   1   4
BRANCH   1  94
ATOM     94  C   UNL A   1      32.448  28.180  26.368  1.00  0.00    -0.036 C 
ATOM     95  H   UNL A   1      32.896  27.634  27.172  1.00  0.00     0.028 H 
ATOM     96  H   UNL A   1      33.151  28.539  25.645  1.00  0.00     0.028 H 
BRANCH  94  97
ATOM     97  C   UNL A   1      31.521  27.235  25.616  1.00  0.00     0.017 C 
ATOM     98  H   UNL A   1      30.707  26.969  26.258  1.00  0.00     0.049 H 
ATOM     99  H   UNL A   1      32.092  26.375  25.333  1.00  0.00     0.049 H 
BRANCH  97 100
ATOM    100  N   UNL A   1      30.988  27.829  24.412  1.00  0.00    -0.354 N 
ATOM    101  C   UNL A   1      31.516  27.931  23.163  1.00  0.00     0.244 C 
ATOM    102  H   UNL A   1      30.093  28.226  24.512  1.00  0.00     0.163 HD
ATOM    103  O   UNL A   1      30.845  28.547  22.329  1.00  0.00    -0.273 OA
BRANCH 101 104
ATOM    104  C   UNL A   1      32.912  27.395  22.808  1.00  0.00     0.131 C 
ATOM    105  H   UNL A   1      33.174  26.694  23.572  1.00  0.00     0.066 H 
BRANCH 104 106
ATOM    106  N   UNL A   1      32.861  26.713  21.513  1.00  0.00    -0.340 N 
ATOM    107  C   UNL A   1      32.820  25.399  21.160  1.00  0.00     0.243 C 
ATOM    108  H   UNL A   1      32.856  27.328  20.745  1.00  0.00     0.164 HD
ATOM    109  O   UNL A   1      32.820  25.207  19.938  1.00  0.00    -0.273 OA
BRANCH 107 110
ATOM    110  C   UNL A   1      32.999  24.223  22.160  1.00  0.00     0.112 C 
ATOM    111  H   UNL A   1      32.562  24.607  23.058  1.00  0.00     0.064 H 
BRANCH 110 112
ATOM    112  N   UNL A   1      32.226  23.003  21.933  1.00  0.00    -0.340 N 
ATOM    113  C   UNL A   1      32.130  21.802  22.586  1.00  0.00     0.251 C 
ATOM    114  H   UNL A   1      31.646  23.057  21.138  1.00  0.00     0.164 HD
ATOM    115  O   UNL A   1      31.594  20.878  21.971  1.00  0.00    -0.269 OA
BRANCH 113 116
ATOM    116  C   UNL A   1      32.574  21.548  23.991  1.00  0.00     0.040 A 
ATOM    117  C   UNL A   1      33.601  20.672  24.361  1.00  0.00    -0.047 A 
ATOM    118  C   UNL A   1      32.011  22.365  24.990  1.00  0.00    -0.047 A 
ATOM    119  C   UNL A   1      34.053  20.611  25.685  1.00  0.00    -0.026 A 
ATOM    120  H   UNL A   1      34.032  20.063  23.649  1.00  0.00     0.063 H 
ATOM    121  C   UNL A   1      32.463  22.309  26.312  1.00  0.00    -0.026 A 
ATOM    122  H   UNL A   1      31.251  23.018  24.741  1.00  0.00     0.063 H 
ATOM    123  C   UNL A   1      33.484  21.433  26.647  1.00  0.00     0.123 A 
ATOM    124  H   UNL A   1      34.808  19.957  25.944  1.00  0.00     0.065 H 
ATOM    125  H   UNL A   1      32.039  22.915  27.033  1.00  0.00     0.065 H 
ATOM    126  F   UNL A   1      33.940  21.393  27.904  1.00  0.00    -0.207 F 
ENDBRANCH 113 116
ENDBRANCH 110 112
BRANCH 110 127
ATOM    127  C   UNL A   1      34.497  23.907  22.369  1.00  0.00     0.004 C 
ATOM    128  H   UNL A   1      35.045  24.601  21.767  1.00  0.00     0.034 H 
ATOM    129  H   UNL A   1      34.564  22.869  22.115  1.00  0.00     0.034 H 
BRANCH 127 130
ATOM    130  C   UNL A   1      35.102  23.960  23.752  1.00  0.00    -0.020 A 
ATOM    131  C   UNL A   1      34.677  24.881  24.697  1.00  0.00     0.005 A 
ATOM    132  C   UNL A   1      36.166  23.211  24.376  1.00  0.00     0.003 A 
ATOM    133  N   UNL A   1      35.407  24.723  25.837  1.00  0.00    -0.361 N 
ATOM    134  H   UNL A   1      33.927  25.578  24.558  1.00  0.00     0.082 H 
ATOM    135  C   UNL A   1      36.321  23.713  25.674  1.00  0.00     0.046 A 
ATOM    136  C   UNL A   1      37.022  22.155  23.994  1.00  0.00    -0.053 A 
ATOM    137  H   UNL A   1      35.294  25.255  26.657  1.00  0.00     0.166 HD
ATOM    138  C   UNL A   1      37.263  23.220  26.586  1.00  0.00    -0.038 A 
ATOM    139  C   UNL A   1      37.965  21.642  24.895  1.00  0.00    -0.062 A 
ATOM    140  H   UNL A   1      36.953  21.758  23.044  1.00  0.00     0.063 H 
ATOM    141  C   UNL A   1      38.083  22.169  26.175  1.00  0.00    -0.060 A 
ATOM    142  H   UNL A   1      37.348  23.621  27.533  1.00  0.00     0.064 H 
ATOM    143  H   UNL A   1      38.578  20.864  24.606  1.00  0.00     0.062 H 
ATOM    144  H   UNL A   1      38.784  21.782  26.825  1.00  0.00     0.062 H 
ENDBRANCH 127 130
ENDBRANCH 110 127
ENDBRANCH 107 110
ENDBRANCH 104 106
BRANCH 104 145
ATOM    145  C   UNL A   1      34.040  28.438  22.872  1.00  0.00     0.072 C 
ATOM    146  H   UNL A   1      34.377  28.640  21.876  1.00  0.00     0.059 H 
ATOM    147  H   UNL A   1      34.823  28.033  23.478  1.00  0.00     0.059 H 
BRANCH 145 148
ATOM    148  O   UNL A   1      33.617  29.659  23.467  1.00  0.00    -0.394 OA
ATOM    149  H   UNL A   1      32.653  29.736  23.399  1.00  0.00     0.210 HD
ENDBRANCH 145 148
ENDBRANCH 104 145
ENDBRANCH 101 104
ENDBRANCH  97 100
ENDBRANCH  94  97
ENDBRANCH   1  94
TORSDOF 21
ENDMDL
MODEL 2
REMARK VINA RESULT:     -12.3      5.143     10.852
REMARK SMILES O=C(NCCCCCCNC(=O)[C@H](CO)NC(=O)[C@H](Cc1c[nH]c2ccccc12)NC(=O)c1ccc(F)cc1)c1ccc(-c2c3nc(c(-c4c(F)c(F)c(F)c(F)c4F)c4ccc([nH]4)c(-c4c(F)c(F)c(F)c(F)c4F)c4nc(c(-c5c(F)c(F)c(F)c(F)c5F)c5ccc2[nH]5)C=C4)C=C3)cc1
REMARK SMILES IDX 7 1 6 4 5 7 4 10 3 13 1 14 2 15 40 17 41 18 102 19 42 20
REMARK SMILES IDX 101 22 43 24 44 27 45 28 95 29 46 30 100 31 94 32 96 33
REMARK SMILES IDX 47 34 99 35 93 37 92 39 48 41 80 44 60 45 79 46 61 47 64 48
REMARK SMILES IDX 78 49 97 50 62 51 63 53 77 55 98 56 65 59 49 61 50 62 58 63
REMARK SMILES IDX 51 64 52 65 56 66 59 67 53 68 54 69 57 70 55 71 81 72 82 73
REMARK SMILES IDX 90 74 83 75 84 76 88 77 91 78 85 79 86 80 89 81 87 82 66 83
REMARK SMILES IDX 67 84 75 85 68 86 69 87 73 88 76 89 70 90 71 91 74 92 72 93
REMARK SMILES IDX 8 94 9 97 10 100 11 101 12 103 13 104 16 106 17 107 18 109
REMARK SMILES IDX 19 110 30 112 31 113 32 115 33 116 34 117 39 118 35 119
REMARK SMILES IDX 38 121 36 123 37 126 20 127 21 130 22 131 29 132 23 133
REMARK SMILES IDX 24 135 28 136 25 138 27 139 26 141 14 145 15 148
REMARK H PARENT 7 2 7 3 6 5 6 6 5 8 5 9 4 11 4 12 3 16 41 21 102 23 42 25
REMARK H PARENT 101 26 100 36 94 38 96 40 99 42 93 43 61 52 64 54 97 57 62 58
REMARK H PARENT 98 60 8 95 8 96 9 98 9 99 10 102 13 105 16 108 19 111 30 114
REMARK H PARENT 34 120 39 122 35 124 38 125 20 128 20 129 22 134 23 137 28 140
REMARK H PARENT 25 142 27 143 26 144 14 146 14 147 15 149
REMARK Flexibility Score: inf
ROOT
ATOM      1  C   UNL A   1      36.807  21.833  24.059  1.00  0.00    -0.052 C 
ATOM      2  H   UNL A   1      36.506  21.390  23.133  1.00  0.00     0.027 H 
ATOM      3  H   UNL A   1      37.760  22.317  24.032  1.00  0.00     0.027 H 
ENDROOT
BRANCH   1   4
ATOM      4  C   UNL A   1      36.955  20.706  25.086  1.00  0.00    -0.052 C 
ATOM      5  H   UNL A   1      37.008  21.153  26.057  1.00  0.00     0.027 H 
ATOM      6  H   UNL A   1      36.106  20.071  24.939  1.00  0.00     0.027 H 
BRANCH   4   7
ATOM      7  C   UNL A   1      38.174  19.800  24.923  1.00  0.00    -0.036 C 
ATOM      8  H   UNL A   1      37.866  18.796  25.126  1.00  0.00     0.028 H 
ATOM      9  H   UNL A   1      38.520  19.956  23.922  1.00  0.00     0.028 H 
BRANCH   7  10
ATOM     10  C   UNL A   1      39.360  20.115  25.823  1.00  0.00     0.018 C 
ATOM     11  H   UNL A   1      39.819  21.016  25.475  1.00  0.00     0.049 H 
ATOM     12  H   UNL A   1      38.980  20.207  26.818  1.00  0.00     0.049 H 
BRANCH  10  13
ATOM     13  N   UNL A   1      40.367  19.069  25.850  1.00  0.00    -0.352 N 
ATOM     14  O   UNL A   1      42.448  18.202  26.011  1.00  0.00    -0.269 OA
ATOM     15  C   UNL A   1      41.713  19.182  26.099  1.00  0.00     0.251 C 
ATOM     16  H   UNL A   1      40.041  18.159  25.665  1.00  0.00     0.163 HD
BRANCH  15  17
ATOM     17  C   UNL A   1      42.284  20.505  26.431  1.00  0.00     0.039 A 
ATOM     18  C   UNL A   1      42.318  20.960  27.751  1.00  0.00    -0.049 A 
ATOM     19  C   UNL A   1      42.761  21.315  25.395  1.00  0.00    -0.049 A 
ATOM     20  C   UNL A   1      42.681  22.276  28.015  1.00  0.00    -0.053 A 
ATOM     21  H   UNL A   1      42.076  20.322  28.526  1.00  0.00     0.063 H 
ATOM     22  C   UNL A   1      43.208  22.608  25.675  1.00  0.00    -0.053 A 
ATOM     23  H   UNL A   1      42.782  20.957  24.427  1.00  0.00     0.063 H 
ATOM     24  C   UNL A   1      43.134  23.113  26.982  1.00  0.00    -0.014 A 
ATOM     25  H   UNL A   1      42.616  22.640  28.979  1.00  0.00     0.063 H 
ATOM     26  H   UNL A   1      43.593  23.195  24.918  1.00  0.00     0.063 H 
BRANCH  24  27
ATOM     27  C   UNL A   1      43.563  24.497  27.307  1.00  0.00     0.031 A 
ATOM     28  C   UNL A   1      44.953  24.976  26.997  1.00  0.00     0.074 A 
ATOM     29  C   UNL A   1      42.663  25.340  27.847  1.00  0.00     0.049 A 
ATOM     30  N   UNL A   1      45.474  26.164  27.178  1.00  0.00    -0.248 NA
ATOM     31  C   UNL A   1      45.883  23.997  26.413  1.00  0.00    -0.034 C 
ATOM     32  C   UNL A   1      41.287  24.983  28.199  1.00  0.00    -0.036 A 
ATOM     33  N   UNL A   1      42.754  26.671  28.165  1.00  0.00    -0.354 N 
ATOM     34  C   UNL A   1      46.792  26.072  26.750  1.00  0.00     0.074 A 
ATOM     35  C   UNL A   1      47.001  24.706  26.320  1.00  0.00    -0.034 C 
ATOM     36  H   UNL A   1      45.711  23.016  26.145  1.00  0.00     0.065 H 
ATOM     37  C   UNL A   1      40.645  26.079  28.625  1.00  0.00    -0.036 A 
ATOM     38  H   UNL A   1      40.878  24.039  28.130  1.00  0.00     0.065 H 
ATOM     39  C   UNL A   1      41.577  27.202  28.632  1.00  0.00     0.049 A 
ATOM     40  H   UNL A   1      43.582  27.194  28.069  1.00  0.00     0.167 HD
ATOM     41  C   UNL A   1      47.735  27.045  26.710  1.00  0.00     0.037 A 
ATOM     42  H   UNL A   1      47.902  24.332  25.987  1.00  0.00     0.065 H 
ATOM     43  H   UNL A   1      39.652  26.123  28.902  1.00  0.00     0.065 H 
ATOM     44  C   UNL A   1      41.279  28.453  29.026  1.00  0.00     0.037 A 
ATOM     45  C   UNL A   1      47.515  28.407  27.123  1.00  0.00     0.049 A 
ATOM     46  C   UNL A   1      42.343  29.509  28.978  1.00  0.00     0.074 A 
ATOM     47  C   UNL A   1      48.405  29.468  27.106  1.00  0.00    -0.036 A 
ATOM     48  N   UNL A   1      46.319  28.899  27.624  1.00  0.00    -0.354 N 
ATOM     49  N   UNL A   1      43.583  29.410  28.565  1.00  0.00    -0.248 NA
ATOM     50  C   UNL A   1      41.971  30.848  29.454  1.00  0.00    -0.034 C 
ATOM     51  C   UNL A   1      47.759  30.591  27.632  1.00  0.00    -0.036 A 
ATOM     52  H   UNL A   1      49.378  29.435  26.765  1.00  0.00     0.065 H 
ATOM     53  C   UNL A   1      46.452  30.244  27.933  1.00  0.00     0.049 A 
ATOM     54  H   UNL A   1      45.496  28.372  27.744  1.00  0.00     0.167 HD
ATOM     55  C   UNL A   1      44.138  30.670  28.725  1.00  0.00     0.074 A 
ATOM     56  C   UNL A   1      43.093  31.524  29.252  1.00  0.00    -0.034 C 
ATOM     57  H   UNL A   1      41.072  31.175  29.843  1.00  0.00     0.065 H 
ATOM     58  H   UNL A   1      48.184  31.522  27.771  1.00  0.00     0.065 H 
ATOM     59  C   UNL A   1      45.403  31.079  28.462  1.00  0.00     0.037 A 
ATOM     60  H   UNL A   1      43.208  32.532  29.446  1.00  0.00     0.065 H 
BRANCH  41  61
ATOM     61  C   UNL A   1      49.099  26.674  26.208  1.00  0.00     0.064 A 
ATOM     62  C   UNL A   1      50.062  26.150  27.085  1.00  0.00     0.173 A 
ATOM     63  C   UNL A   1      49.478  26.897  24.877  1.00  0.00     0.173 A 
ATOM     64  F   UNL A   1      49.753  25.925  28.372  1.00  0.00    -0.203 F 
ATOM     65  C   UNL A   1      51.354  25.869  26.648  1.00  0.00     0.198 A 
ATOM     66  C   UNL A   1      50.764  26.592  24.437  1.00  0.00     0.198 A 
ATOM     67  F   UNL A   1      48.592  27.385  23.995  1.00  0.00    -0.203 F 
ATOM     68  F   UNL A   1      52.264  25.394  27.510  1.00  0.00    -0.200 F 
ATOM     69  C   UNL A   1      51.703  26.086  25.324  1.00  0.00     0.200 A 
ATOM     70  F   UNL A   1      51.093  26.780  23.151  1.00  0.00    -0.200 F 
ATOM     71  F   UNL A   1      52.944  25.805  24.901  1.00  0.00    -0.200 F 
ENDBRANCH  41  61
BRANCH  44  72
ATOM     72  C   UNL A   1      39.898  28.759  29.476  1.00  0.00     0.064 A 
ATOM     73  C   UNL A   1      39.475  28.464  30.780  1.00  0.00     0.173 A 
ATOM     74  C   UNL A   1      38.956  29.289  28.584  1.00  0.00     0.173 A 
ATOM     75  F   UNL A   1      40.340  27.946  31.664  1.00  0.00    -0.203 F 
ATOM     76  C   UNL A   1      38.151  28.659  31.167  1.00  0.00     0.198 A 
ATOM     77  C   UNL A   1      37.638  29.507  28.982  1.00  0.00     0.198 A 
ATOM     78  F   UNL A   1      39.320  29.601  27.332  1.00  0.00    -0.203 F 
ATOM     79  F   UNL A   1      37.761  28.324  32.404  1.00  0.00    -0.200 F 
ATOM     80  C   UNL A   1      37.235  29.182  30.268  1.00  0.00     0.200 A 
ATOM     81  F   UNL A   1      36.759  30.029  28.115  1.00  0.00    -0.200 F 
ATOM     82  F   UNL A   1      35.962  29.369  30.640  1.00  0.00    -0.200 F 
ENDBRANCH  44  72
BRANCH  59  83
ATOM     83  C   UNL A   1      45.730  32.517  28.731  1.00  0.00     0.064 A 
ATOM     84  C   UNL A   1      45.547  33.487  27.734  1.00  0.00     0.173 A 
ATOM     85  C   UNL A   1      46.276  32.925  29.956  1.00  0.00     0.173 A 
ATOM     86  F   UNL A   1      45.033  33.144  26.544  1.00  0.00    -0.203 F 
ATOM     87  C   UNL A   1      45.909  34.813  27.952  1.00  0.00     0.198 A 
ATOM     88  C   UNL A   1      46.614  34.258  30.179  1.00  0.00     0.198 A 
ATOM     89  F   UNL A   1      46.456  32.036  30.945  1.00  0.00    -0.203 F 
ATOM     90  F   UNL A   1      45.747  35.719  26.977  1.00  0.00    -0.200 F 
ATOM     91  C   UNL A   1      46.438  35.198  29.175  1.00  0.00     0.200 A 
ATOM     92  F   UNL A   1      47.103  34.633  31.369  1.00  0.00    -0.200 F 
ATOM     93  F   UNL A   1      46.773  36.478  29.388  1.00  0.00    -0.200 F 
ENDBRANCH  59  83
ENDBRANCH  24  27
ENDBRANCH  15  17
ENDBRANCH  10  13
ENDBRANCH   7  10
ENDBRANCH   4   7
ENDBRANCH   1   4
BRANCH   1  94
ATOM     94  C   UNL A   1      35.800  22.938  24.397  1.00  0.00    -0.036 C 
ATOM     95  H   UNL A   1      36.190  23.863  24.027  1.00  0.00     0.028 H 
ATOM     96  H   UNL A   1      35.685  22.914  25.461  1.00  0.00     0.028 H 
BRANCH  94  97
ATOM     97  C   UNL A   1      34.404  22.752  23.820  1.00  0.00     0.017 C 
ATOM     98  H   UNL A   1      34.472  22.742  22.752  1.00  0.00     0.049 H 
ATOM     99  H   UNL A   1      33.797  23.563  24.165  1.00  0.00     0.049 H 
BRANCH  97 100
ATOM    100  N   UNL A   1      33.787  21.520  24.257  1.00  0.00    -0.354 N 
ATOM    101  C   UNL A   1      33.058  21.238  25.369  1.00  0.00     0.244 C 
ATOM    102  H   UNL A   1      33.917  20.758  23.648  1.00  0.00     0.163 HD
ATOM    103  O   UNL A   1      32.696  20.067  25.509  1.00  0.00    -0.273 OA
BRANCH 101 104
ATOM    104  C   UNL A   1      32.765  22.286  26.455  1.00  0.00     0.131 C 
ATOM    105  H   UNL A   1      33.055  23.233  26.051  1.00  0.00     0.066 H 
BRANCH 104 106
ATOM    106  N   UNL A   1      31.331  22.297  26.751  1.00  0.00    -0.340 N 
ATOM    107  C   UNL A   1      30.331  23.170  26.452  1.00  0.00     0.243 C 
ATOM    108  H   UNL A   1      31.031  21.517  27.272  1.00  0.00     0.164 HD
ATOM    109  O   UNL A   1      29.229  22.850  26.916  1.00  0.00    -0.273 OA
BRANCH 107 110
ATOM    110  C   UNL A   1      30.556  24.563  25.802  1.00  0.00     0.112 C 
ATOM    111  H   UNL A   1      31.298  24.360  25.058  1.00  0.00     0.064 H 
BRANCH 110 112
ATOM    112  N   UNL A   1      29.469  25.136  25.010  1.00  0.00    -0.340 N 
ATOM    113  C   UNL A   1      29.374  26.205  24.157  1.00  0.00     0.251 C 
ATOM    114  H   UNL A   1      28.620  24.647  25.110  1.00  0.00     0.164 HD
ATOM    115  O   UNL A   1      28.238  26.587  23.870  1.00  0.00    -0.269 OA
BRANCH 113 116
ATOM    116  C   UNL A   1      30.532  26.900  23.515  1.00  0.00     0.040 A 
ATOM    117  C   UNL A   1      30.817  28.265  23.637  1.00  0.00    -0.047 A 
ATOM    118  C   UNL A   1      31.479  26.084  22.867  1.00  0.00    -0.047 A 
ATOM    119  C   UNL A   1      32.006  28.801  23.129  1.00  0.00    -0.026 A 
ATOM    120  H   UNL A   1      30.140  28.886  24.108  1.00  0.00     0.063 H 
ATOM    121  C   UNL A   1      32.669  26.615  22.362  1.00  0.00    -0.026 A 
ATOM    122  H   UNL A   1      31.292  25.074  22.764  1.00  0.00     0.063 H 
ATOM    123  C   UNL A   1      32.923  27.972  22.501  1.00  0.00     0.123 A 
ATOM    124  H   UNL A   1      32.199  29.810  23.221  1.00  0.00     0.065 H 
ATOM    125  H   UNL A   1      33.354  26.003  21.889  1.00  0.00     0.065 H 
ATOM    126  F   UNL A   1      34.072  28.483  22.043  1.00  0.00    -0.207 F 
ENDBRANCH 113 116
ENDBRANCH 110 112
BRANCH 110 127
ATOM    127  C   UNL A   1      31.084  25.574  26.843  1.00  0.00     0.004 C 
ATOM    128  H   UNL A   1      31.346  25.009  27.714  1.00  0.00     0.034 H 
ATOM    129  H   UNL A   1      30.281  26.275  26.931  1.00  0.00     0.034 H 
BRANCH 127 130
ATOM    130  C   UNL A   1      32.271  26.451  26.522  1.00  0.00    -0.020 A 
ATOM    131  C   UNL A   1      33.433  25.930  25.973  1.00  0.00     0.005 A 
ATOM    132  C   UNL A   1      32.515  27.861  26.707  1.00  0.00     0.003 A 
ATOM    133  N   UNL A   1      34.341  26.933  25.812  1.00  0.00    -0.361 N 
ATOM    134  H   UNL A   1      33.586  24.939  25.727  1.00  0.00     0.082 H 
ATOM    135  C   UNL A   1      33.812  28.122  26.248  1.00  0.00     0.046 A 
ATOM    136  C   UNL A   1      31.784  28.960  27.209  1.00  0.00    -0.053 A 
ATOM    137  H   UNL A   1      35.244  26.821  25.437  1.00  0.00     0.166 HD
ATOM    138  C   UNL A   1      34.396  29.396  26.263  1.00  0.00    -0.038 A 
ATOM    139  C   UNL A   1      32.347  30.243  27.225  1.00  0.00    -0.062 A 
ATOM    140  H   UNL A   1      30.827  28.817  27.568  1.00  0.00     0.063 H 
ATOM    141  C   UNL A   1      33.638  30.456  26.758  1.00  0.00    -0.060 A 
ATOM    142  H   UNL A   1      35.358  29.544  25.919  1.00  0.00     0.064 H 
ATOM    143  H   UNL A   1      31.798  31.038  27.586  1.00  0.00     0.062 H 
ATOM    144  H   UNL A   1      34.039  31.406  26.778  1.00  0.00     0.062 H 
ENDBRANCH 127 130
ENDBRANCH 110 127
ENDBRANCH 107 110
ENDBRANCH 104 106
BRANCH 104 145
ATOM    145  C   UNL A   1      33.621  22.158  27.725  1.00  0.00     0.072 C 
ATOM    146  H   UNL A   1      33.040  21.673  28.482  1.00  0.00     0.059 H 
ATOM    147  H   UNL A   1      33.911  23.144  28.023  1.00  0.00     0.059 H 
BRANCH 145 148
ATOM    148  O   UNL A   1      34.808  21.403  27.507  1.00  0.00    -0.394 OA
ATOM    149  H   UNL A   1      35.457  21.950  27.038  1.00  0.00     0.210 HD
ENDBRANCH 145 148
ENDBRANCH 104 145
ENDBRANCH 101 104
ENDBRANCH  97 100
ENDBRANCH  94  97
ENDBRANCH   1  94
TORSDOF 21
ENDMDL
MODEL 3
REMARK VINA RESULT:     -12.3      1.313      2.845
REMARK SMILES O=C(NCCCCCCNC(=O)[C@H](CO)NC(=O)[C@H](Cc1c[nH]c2ccccc12)NC(=O)c1ccc(F)cc1)c1ccc(-c2c3nc(c(-c4c(F)c(F)c(F)c(F)c4F)c4ccc([nH]4)c(-c4c(F)c(F)c(F)c(F)c4F)c4nc(c(-c5c(F)c(F)c(F)c(F)c5F)c5ccc2[nH]5)C=C4)C=C3)cc1
REMARK SMILES IDX 7 1 6 4 5 7 4 10 3 13 1 14 2 15 40 17 41 18 102 19 42 20
REMARK SMILES IDX 101 22 43 24 44 27 45 28 95 29 46 30 100 31 94 32 96 33
REMARK SMILES IDX 47 34 99 35 93 37 92 39 48 41 80 44 60 45 79 46 61 47 64 48
REMARK SMILES IDX 78 49 97 50 62 51 63 53 77 55 98 56 65 59 49 61 50 62 58 63
REMARK SMILES IDX 51 64 52 65 56 66 59 67 53 68 54 69 57 70 55 71 81 72 82 73
REMARK SMILES IDX 90 74 83 75 84 76 88 77 91 78 85 79 86 80 89 81 87 82 66 83
REMARK SMILES IDX 67 84 75 85 68 86 69 87 73 88 76 89 70 90 71 91 74 92 72 93
REMARK SMILES IDX 8 94 9 97 10 100 11 101 12 103 13 104 16 106 17 107 18 109
REMARK SMILES IDX 19 110 30 112 31 113 32 115 33 116 34 117 39 118 35 119
REMARK SMILES IDX 38 121 36 123 37 126 20 127 21 130 22 131 29 132 23 133
REMARK SMILES IDX 24 135 28 136 25 138 27 139 26 141 14 145 15 148
REMARK H PARENT 7 2 7 3 6 5 6 6 5 8 5 9 4 11 4 12 3 16 41 21 102 23 42 25
REMARK H PARENT 101 26 100 36 94 38 96 40 99 42 93 43 61 52 64 54 97 57 62 58
REMARK H PARENT 98 60 8 95 8 96 9 98 9 99 10 102 13 105 16 108 19 111 30 114
REMARK H PARENT 34 120 39 122 35 124 38 125 20 128 20 129 22 134 23 137 28 140
REMARK H PARENT 25 142 27 143 26 144 14 146 14 147 15 149
REMARK Flexibility Score: inf
ROOT
ATOM      1  C   UNL A   1      32.913  29.940  26.645  1.00  0.00    -0.052 C 
ATOM      2  H   UNL A   1      33.097  30.249  27.653  1.00  0.00     0.027 H 
ATOM      3  H   UNL A   1      33.723  30.122  25.970  1.00  0.00     0.027 H 
ENDROOT
BRANCH   1   4
ATOM      4  C   UNL A   1      31.746  30.774  26.109  1.00  0.00    -0.052 C 
ATOM      5  H   UNL A   1      31.957  31.013  25.087  1.00  0.00     0.027 H 
ATOM      6  H   UNL A   1      30.874  30.169  26.249  1.00  0.00     0.027 H 
BRANCH   4   7
ATOM      7  C   UNL A   1      31.457  32.082  26.843  1.00  0.00    -0.036 C 
ATOM      8  H   UNL A   1      30.914  32.719  26.177  1.00  0.00     0.028 H 
ATOM      9  H   UNL A   1      30.913  31.807  27.722  1.00  0.00     0.028 H 
BRANCH   7  10
ATOM     10  C   UNL A   1      32.675  32.851  27.334  1.00  0.00     0.018 C 
ATOM     11  H   UNL A   1      33.081  32.336  28.179  1.00  0.00     0.049 H 
ATOM     12  H   UNL A   1      33.362  32.902  26.516  1.00  0.00     0.049 H 
BRANCH  10  13
ATOM     13  N   UNL A   1      32.384  34.217  27.728  1.00  0.00    -0.352 N 
ATOM     14  O   UNL A   1      32.611  36.120  28.927  1.00  0.00    -0.269 OA
ATOM     15  C   UNL A   1      33.031  34.999  28.654  1.00  0.00     0.251 C 
ATOM     16  H   UNL A   1      31.621  34.639  27.271  1.00  0.00     0.163 HD
BRANCH  15  17
ATOM     17  C   UNL A   1      34.216  34.463  29.358  1.00  0.00     0.039 A 
ATOM     18  C   UNL A   1      35.499  34.636  28.834  1.00  0.00    -0.049 A 
ATOM     19  C   UNL A   1      34.031  33.747  30.545  1.00  0.00    -0.049 A 
ATOM     20  C   UNL A   1      36.572  33.964  29.409  1.00  0.00    -0.053 A 
ATOM     21  H   UNL A   1      35.650  35.259  28.026  1.00  0.00     0.063 H 
ATOM     22  C   UNL A   1      35.126  33.145  31.170  1.00  0.00    -0.053 A 
ATOM     23  H   UNL A   1      33.088  33.665  30.957  1.00  0.00     0.063 H 
ATOM     24  C   UNL A   1      36.398  33.215  30.585  1.00  0.00    -0.014 A 
ATOM     25  H   UNL A   1      37.503  34.015  28.967  1.00  0.00     0.063 H 
ATOM     26  H   UNL A   1      34.997  32.646  32.064  1.00  0.00     0.063 H 
BRANCH  24  27
ATOM     27  C   UNL A   1      37.576  32.552  31.202  1.00  0.00     0.031 A 
ATOM     28  C   UNL A   1      38.027  32.900  32.592  1.00  0.00     0.074 A 
ATOM     29  C   UNL A   1      38.211  31.590  30.506  1.00  0.00     0.049 A 
ATOM     30  N   UNL A   1      39.009  32.387  33.291  1.00  0.00    -0.248 NA
ATOM     31  C   UNL A   1      37.289  33.965  33.288  1.00  0.00    -0.034 C 
ATOM     32  C   UNL A   1      37.866  31.175  29.145  1.00  0.00    -0.036 A 
ATOM     33  N   UNL A   1      39.253  30.768  30.851  1.00  0.00    -0.354 N 
ATOM     34  C   UNL A   1      39.018  33.074  34.498  1.00  0.00     0.074 A 
ATOM     35  C   UNL A   1      37.959  34.059  34.429  1.00  0.00    -0.034 C 
ATOM     36  H   UNL A   1      36.465  34.498  32.972  1.00  0.00     0.065 H 
ATOM     37  C   UNL A   1      38.637  30.137  28.794  1.00  0.00    -0.036 A 
ATOM     38  H   UNL A   1      37.144  31.612  28.551  1.00  0.00     0.065 H 
ATOM     39  C   UNL A   1      39.569  29.852  29.880  1.00  0.00     0.049 A 
ATOM     40  H   UNL A   1      39.727  30.830  31.712  1.00  0.00     0.167 HD
ATOM     41  C   UNL A   1      39.830  32.889  35.567  1.00  0.00     0.037 A 
ATOM     42  H   UNL A   1      37.754  34.746  35.171  1.00  0.00     0.065 H 
ATOM     43  H   UNL A   1      38.582  29.623  27.902  1.00  0.00     0.065 H 
ATOM     44  C   UNL A   1      40.508  28.888  29.862  1.00  0.00     0.037 A 
ATOM     45  C   UNL A   1      40.871  31.896  35.635  1.00  0.00     0.049 A 
ATOM     46  C   UNL A   1      41.398  28.709  31.055  1.00  0.00     0.074 A 
ATOM     47  C   UNL A   1      41.736  31.623  36.681  1.00  0.00    -0.036 A 
ATOM     48  N   UNL A   1      41.185  31.008  34.617  1.00  0.00    -0.354 N 
ATOM     49  N   UNL A   1      41.392  29.362  32.192  1.00  0.00    -0.248 NA
ATOM     50  C   UNL A   1      42.428  27.666  30.965  1.00  0.00    -0.034 C 
ATOM     51  C   UNL A   1      42.598  30.597  36.282  1.00  0.00    -0.036 A 
ATOM     52  H   UNL A   1      41.744  32.097  37.598  1.00  0.00     0.065 H 
ATOM     53  C   UNL A   1      42.241  30.197  35.004  1.00  0.00     0.049 A 
ATOM     54  H   UNL A   1      40.727  30.961  33.746  1.00  0.00     0.167 HD
ATOM     55  C   UNL A   1      42.409  28.808  32.954  1.00  0.00     0.074 A 
ATOM     56  C   UNL A   1      42.998  27.749  32.160  1.00  0.00    -0.034 C 
ATOM     57  H   UNL A   1      42.649  27.035  30.179  1.00  0.00     0.065 H 
ATOM     58  H   UNL A   1      43.369  30.203  36.844  1.00  0.00     0.065 H 
ATOM     59  C   UNL A   1      42.819  29.151  34.199  1.00  0.00     0.037 A 
ATOM     60  H   UNL A   1      43.764  27.138  32.482  1.00  0.00     0.065 H 
BRANCH  41  61
ATOM     61  C   UNL A   1      39.635  33.785  36.755  1.00  0.00     0.064 A 
ATOM     62  C   UNL A   1      38.822  33.382  37.826  1.00  0.00     0.173 A 
ATOM     63  C   UNL A   1      40.199  35.068  36.807  1.00  0.00     0.173 A 
ATOM     64  F   UNL A   1      38.252  32.167  37.821  1.00  0.00    -0.203 F 
ATOM     65  C   UNL A   1      38.575  34.233  38.900  1.00  0.00     0.198 A 
ATOM     66  C   UNL A   1      39.971  35.908  37.896  1.00  0.00     0.198 A 
ATOM     67  F   UNL A   1      40.994  35.498  35.816  1.00  0.00    -0.203 F 
ATOM     68  F   UNL A   1      37.774  33.835  39.898  1.00  0.00    -0.200 F 
ATOM     69  C   UNL A   1      39.153  35.492  38.937  1.00  0.00     0.200 A 
ATOM     70  F   UNL A   1      40.548  37.116  37.941  1.00  0.00    -0.200 F 
ATOM     71  F   UNL A   1      38.924  36.307  39.977  1.00  0.00    -0.200 F 
ENDBRANCH  41  61
BRANCH  44  72
ATOM     72  C   UNL A   1      40.621  28.013  28.668  1.00  0.00     0.064 A 
ATOM     73  C   UNL A   1      41.382  28.396  27.554  1.00  0.00     0.173 A 
ATOM     74  C   UNL A   1      39.912  26.807  28.595  1.00  0.00     0.173 A 
ATOM     75  F   UNL A   1      42.070  29.547  27.575  1.00  0.00    -0.203 F 
ATOM     76  C   UNL A   1      41.403  27.620  26.398  1.00  0.00     0.198 A 
ATOM     77  C   UNL A   1      39.955  26.019  27.446  1.00  0.00     0.198 A 
ATOM     78  F   UNL A   1      39.183  26.393  29.642  1.00  0.00    -0.203 F 
ATOM     79  F   UNL A   1      42.099  28.032  25.330  1.00  0.00    -0.200 F 
ATOM     80  C   UNL A   1      40.692  26.432  26.346  1.00  0.00     0.200 A 
ATOM     81  F   UNL A   1      39.280  24.862  27.406  1.00  0.00    -0.200 F 
ATOM     82  F   UNL A   1      40.712  25.685  25.234  1.00  0.00    -0.200 F 
ENDBRANCH  44  72
BRANCH  59  83
ATOM     83  C   UNL A   1      43.955  28.370  34.788  1.00  0.00     0.064 A 
ATOM     84  C   UNL A   1      43.706  27.250  35.595  1.00  0.00     0.173 A 
ATOM     85  C   UNL A   1      45.287  28.763  34.598  1.00  0.00     0.173 A 
ATOM     86  F   UNL A   1      42.447  26.838  35.809  1.00  0.00    -0.203 F 
ATOM     87  C   UNL A   1      44.751  26.557  36.199  1.00  0.00     0.198 A 
ATOM     88  C   UNL A   1      46.332  28.053  35.184  1.00  0.00     0.198 A 
ATOM     89  F   UNL A   1      45.576  29.820  33.823  1.00  0.00    -0.203 F 
ATOM     90  F   UNL A   1      44.488  25.504  36.985  1.00  0.00    -0.200 F 
ATOM     91  C   UNL A   1      46.062  26.957  35.991  1.00  0.00     0.200 A 
ATOM     92  F   UNL A   1      47.600  28.426  34.964  1.00  0.00    -0.200 F 
ATOM     93  F   UNL A   1      47.068  26.281  36.562  1.00  0.00    -0.200 F 
ENDBRANCH  59  83
ENDBRANCH  24  27
ENDBRANCH  15  17
ENDBRANCH  10  13
ENDBRANCH   7  10
ENDBRANCH   4   7
ENDBRANCH   1   4
BRANCH   1  94
ATOM     94  C   UNL A   1      32.722  28.420  26.650  1.00  0.00    -0.036 C 
ATOM     95  H   UNL A   1      32.643  28.101  27.669  1.00  0.00     0.028 H 
ATOM     96  H   UNL A   1      33.570  28.016  26.137  1.00  0.00     0.028 H 
BRANCH  94  97
ATOM     97  C   UNL A   1      31.498  27.910  25.902  1.00  0.00     0.017 C 
ATOM     98  H   UNL A   1      30.677  28.569  26.097  1.00  0.00     0.049 H 
ATOM     99  H   UNL A   1      31.293  26.919  26.248  1.00  0.00     0.049 H 
BRANCH  97 100
ATOM    100  N   UNL A   1      31.713  27.846  24.474  1.00  0.00    -0.354 N 
ATOM    101  C   UNL A   1      31.061  27.147  23.508  1.00  0.00     0.244 C 
ATOM    102  H   UNL A   1      32.457  28.401  24.147  1.00  0.00     0.163 HD
ATOM    103  O   UNL A   1      31.503  27.247  22.361  1.00  0.00    -0.273 OA
BRANCH 101 104
ATOM    104  C   UNL A   1      29.887  26.204  23.819  1.00  0.00     0.131 C 
ATOM    105  H   UNL A   1      29.751  25.589  22.954  1.00  0.00     0.066 H 
BRANCH 104 106
ATOM    106  N   UNL A   1      30.224  25.364  24.970  1.00  0.00    -0.340 N 
ATOM    107  C   UNL A   1      31.000  24.254  25.110  1.00  0.00     0.243 C 
ATOM    108  H   UNL A   1      29.806  25.661  25.810  1.00  0.00     0.164 HD
ATOM    109  O   UNL A   1      31.014  23.793  26.258  1.00  0.00    -0.273 OA
BRANCH 107 110
ATOM    110  C   UNL A   1      31.625  23.473  23.921  1.00  0.00     0.112 C 
ATOM    111  H   UNL A   1      30.771  23.220  23.329  1.00  0.00     0.064 H 
BRANCH 110 112
ATOM    112  N   UNL A   1      32.455  24.215  22.972  1.00  0.00    -0.340 N 
ATOM    113  C   UNL A   1      33.784  24.543  22.923  1.00  0.00     0.251 C 
ATOM    114  H   UNL A   1      31.947  24.550  22.197  1.00  0.00     0.164 HD
ATOM    115  O   UNL A   1      34.110  25.422  22.123  1.00  0.00    -0.269 OA
BRANCH 113 116
ATOM    116  C   UNL A   1      34.863  23.885  23.722  1.00  0.00     0.040 A 
ATOM    117  C   UNL A   1      35.725  22.892  23.242  1.00  0.00    -0.047 A 
ATOM    118  C   UNL A   1      35.117  24.418  25.001  1.00  0.00    -0.047 A 
ATOM    119  C   UNL A   1      36.806  22.442  24.011  1.00  0.00    -0.026 A 
ATOM    120  H   UNL A   1      35.563  22.485  22.308  1.00  0.00     0.063 H 
ATOM    121  C   UNL A   1      36.197  23.973  25.770  1.00  0.00    -0.026 A 
ATOM    122  H   UNL A   1      34.495  25.150  25.377  1.00  0.00     0.063 H 
ATOM    123  C   UNL A   1      37.035  22.990  25.265  1.00  0.00     0.123 A 
ATOM    124  H   UNL A   1      37.429  21.705  23.646  1.00  0.00     0.065 H 
ATOM    125  H   UNL A   1      36.370  24.373  26.706  1.00  0.00     0.065 H 
ATOM    126  F   UNL A   1      38.085  22.578  25.984  1.00  0.00    -0.207 F 
ENDBRANCH 113 116
ENDBRANCH 110 112
BRANCH 110 127
ATOM    127  C   UNL A   1      32.346  22.202  24.420  1.00  0.00     0.004 C 
ATOM    128  H   UNL A   1      31.899  21.943  25.357  1.00  0.00     0.034 H 
ATOM    129  H   UNL A   1      33.376  22.492  24.426  1.00  0.00     0.034 H 
BRANCH 127 130
ATOM    130  C   UNL A   1      32.349  20.946  23.580  1.00  0.00    -0.020 A 
ATOM    131  C   UNL A   1      31.855  20.938  22.284  1.00  0.00     0.005 A 
ATOM    132  C   UNL A   1      32.761  19.592  23.858  1.00  0.00     0.003 A 
ATOM    133  N   UNL A   1      31.957  19.678  21.775  1.00  0.00    -0.361 N 
ATOM    134  H   UNL A   1      31.471  21.757  21.785  1.00  0.00     0.082 H 
ATOM    135  C   UNL A   1      32.506  18.836  22.708  1.00  0.00     0.046 A 
ATOM    136  C   UNL A   1      33.331  18.910  24.956  1.00  0.00    -0.053 A 
ATOM    137  H   UNL A   1      31.677  19.412  20.869  1.00  0.00     0.166 HD
ATOM    138  C   UNL A   1      32.788  17.467  22.604  1.00  0.00    -0.038 A 
ATOM    139  C   UNL A   1      33.628  17.544  24.869  1.00  0.00    -0.062 A 
ATOM    140  H   UNL A   1      33.528  19.422  25.830  1.00  0.00     0.063 H 
ATOM    141  C   UNL A   1      33.359  16.832  23.707  1.00  0.00    -0.060 A 
ATOM    142  H   UNL A   1      32.580  16.945  21.738  1.00  0.00     0.064 H 
ATOM    143  H   UNL A   1      34.052  17.060  25.676  1.00  0.00     0.062 H 
ATOM    144  H   UNL A   1      33.581  15.826  23.659  1.00  0.00     0.062 H 
ENDBRANCH 127 130
ENDBRANCH 110 127
ENDBRANCH 107 110
ENDBRANCH 104 106
BRANCH 104 145
ATOM    145  C   UNL A   1      28.526  26.899  23.985  1.00  0.00     0.072 C 
ATOM    146  H   UNL A   1      28.410  27.619  23.202  1.00  0.00     0.059 H 
ATOM    147  H   UNL A   1      28.512  27.360  24.950  1.00  0.00     0.059 H 
BRANCH 145 148
ATOM    148  O   UNL A   1      27.438  25.983  23.927  1.00  0.00    -0.394 OA
ATOM    149  H   UNL A   1      27.051  25.996  23.038  1.00  0.00     0.210 HD
ENDBRANCH 145 148
ENDBRANCH 104 145
ENDBRANCH 101 104
ENDBRANCH  97 100
ENDBRANCH  94  97
ENDBRANCH   1  94
TORSDOF 21
ENDMDL
MODEL 4
REMARK VINA RESULT:     -12.2      5.029     10.871
REMARK SMILES O=C(NCCCCCCNC(=O)[C@H](CO)NC(=O)[C@H](Cc1c[nH]c2ccccc12)NC(=O)c1ccc(F)cc1)c1ccc(-c2c3nc(c(-c4c(F)c(F)c(F)c(F)c4F)c4ccc([nH]4)c(-c4c(F)c(F)c(F)c(F)c4F)c4nc(c(-c5c(F)c(F)c(F)c(F)c5F)c5ccc2[nH]5)C=C4)C=C3)cc1
REMARK SMILES IDX 7 1 6 4 5 7 4 10 3 13 1 14 2 15 40 17 41 18 102 19 42 20
REMARK SMILES IDX 101 22 43 24 44 27 45 28 95 29 46 30 100 31 94 32 96 33
REMARK SMILES IDX 47 34 99 35 93 37 92 39 48 41 80 44 60 45 79 46 61 47 64 48
REMARK SMILES IDX 78 49 97 50 62 51 63 53 77 55 98 56 65 59 49 61 50 62 58 63
REMARK SMILES IDX 51 64 52 65 56 66 59 67 53 68 54 69 57 70 55 71 81 72 82 73
REMARK SMILES IDX 90 74 83 75 84 76 88 77 91 78 85 79 86 80 89 81 87 82 66 83
REMARK SMILES IDX 67 84 75 85 68 86 69 87 73 88 76 89 70 90 71 91 74 92 72 93
REMARK SMILES IDX 8 94 9 97 10 100 11 101 12 103 13 104 16 106 17 107 18 109
REMARK SMILES IDX 19 110 30 112 31 113 32 115 33 116 34 117 39 118 35 119
REMARK SMILES IDX 38 121 36 123 37 126 20 127 21 130 22 131 29 132 23 133
REMARK SMILES IDX 24 135 28 136 25 138 27 139 26 141 14 145 15 148
REMARK H PARENT 7 2 7 3 6 5 6 6 5 8 5 9 4 11 4 12 3 16 41 21 102 23 42 25
REMARK H PARENT 101 26 100 36 94 38 96 40 99 42 93 43 61 52 64 54 97 57 62 58
REMARK H PARENT 98 60 8 95 8 96 9 98 9 99 10 102 13 105 16 108 19 111 30 114
REMARK H PARENT 34 120 39 122 35 124 38 125 20 128 20 129 22 134 23 137 28 140
REMARK H PARENT 25 142 27 143 26 144 14 146 14 147 15 149
REMARK Flexibility Score: inf
ROOT
ATOM      1  C   UNL A   1      36.549  22.057  24.282  1.00  0.00    -0.052 C 
ATOM      2  H   UNL A   1      36.416  21.827  23.245  1.00  0.00     0.027 H 
ATOM      3  H   UNL A   1      37.441  22.603  24.506  1.00  0.00     0.027 H 
ENDROOT
BRANCH   1   4
ATOM      4  C   UNL A   1      36.686  20.731  25.037  1.00  0.00    -0.052 C 
ATOM      5  H   UNL A   1      36.614  20.942  26.083  1.00  0.00     0.027 H 
ATOM      6  H   UNL A   1      35.905  20.105  24.658  1.00  0.00     0.027 H 
BRANCH   4   7
ATOM      7  C   UNL A   1      37.979  19.954  24.806  1.00  0.00    -0.036 C 
ATOM      8  H   UNL A   1      37.748  18.910  24.853  1.00  0.00     0.028 H 
ATOM      9  H   UNL A   1      38.346  20.275  23.854  1.00  0.00     0.028 H 
BRANCH   7  10
ATOM     10  C   UNL A   1      39.104  20.227  25.795  1.00  0.00     0.018 C 
ATOM     11  H   UNL A   1      39.575  21.149  25.525  1.00  0.00     0.049 H 
ATOM     12  H   UNL A   1      38.661  20.263  26.767  1.00  0.00     0.049 H 
BRANCH  10  13
ATOM     13  N   UNL A   1      40.118  19.189  25.829  1.00  0.00    -0.352 N 
ATOM     14  O   UNL A   1      42.204  18.337  26.006  1.00  0.00    -0.269 OA
ATOM     15  C   UNL A   1      41.462  19.311  26.090  1.00  0.00     0.251 C 
ATOM     16  H   UNL A   1      39.801  18.276  25.639  1.00  0.00     0.163 HD
BRANCH  15  17
ATOM     17  C   UNL A   1      42.020  20.638  26.428  1.00  0.00     0.039 A 
ATOM     18  C   UNL A   1      42.279  20.988  27.755  1.00  0.00    -0.049 A 
ATOM     19  C   UNL A   1      42.254  21.555  25.400  1.00  0.00    -0.049 A 
ATOM     20  C   UNL A   1      42.621  22.299  28.065  1.00  0.00    -0.053 A 
ATOM     21  H   UNL A   1      42.217  20.277  28.501  1.00  0.00     0.063 H 
ATOM     22  C   UNL A   1      42.683  22.848  25.708  1.00  0.00    -0.053 A 
ATOM     23  H   UNL A   1      42.111  21.277  24.416  1.00  0.00     0.063 H 
ATOM     24  C   UNL A   1      42.831  23.243  27.045  1.00  0.00    -0.014 A 
ATOM     25  H   UNL A   1      42.720  22.581  29.053  1.00  0.00     0.063 H 
ATOM     26  H   UNL A   1      42.891  23.516  24.948  1.00  0.00     0.063 H 
BRANCH  24  27
ATOM     27  C   UNL A   1      43.247  24.621  27.409  1.00  0.00     0.031 A 
ATOM     28  C   UNL A   1      44.636  25.118  27.125  1.00  0.00     0.074 A 
ATOM     29  C   UNL A   1      42.334  25.444  27.960  1.00  0.00     0.049 A 
ATOM     30  N   UNL A   1      45.146  26.304  27.342  1.00  0.00    -0.248 NA
ATOM     31  C   UNL A   1      45.580  24.160  26.528  1.00  0.00    -0.034 C 
ATOM     32  C   UNL A   1      40.958  25.069  28.289  1.00  0.00    -0.036 A 
ATOM     33  N   UNL A   1      42.412  26.768  28.312  1.00  0.00    -0.354 N 
ATOM     34  C   UNL A   1      46.469  26.233  26.925  1.00  0.00     0.074 A 
ATOM     35  C   UNL A   1      46.693  24.879  26.464  1.00  0.00    -0.034 C 
ATOM     36  H   UNL A   1      45.417  23.185  26.234  1.00  0.00     0.065 H 
ATOM     37  C   UNL A   1      40.303  26.149  28.734  1.00  0.00    -0.036 A 
ATOM     38  H   UNL A   1      40.557  24.123  28.192  1.00  0.00     0.065 H 
ATOM     39  C   UNL A   1      41.227  27.278  28.779  1.00  0.00     0.049 A 
ATOM     40  H   UNL A   1      43.237  27.299  28.237  1.00  0.00     0.167 HD
ATOM     41  C   UNL A   1      47.405  27.213  26.919  1.00  0.00     0.037 A 
ATOM     42  H   UNL A   1      47.601  24.520  26.132  1.00  0.00     0.065 H 
ATOM     43  H   UNL A   1      39.307  26.179  29.003  1.00  0.00     0.065 H 
ATOM     44  C   UNL A   1      40.915  28.517  29.201  1.00  0.00     0.037 A 
ATOM     45  C   UNL A   1      47.171  28.563  27.363  1.00  0.00     0.049 A 
ATOM     46  C   UNL A   1      41.971  29.582  29.190  1.00  0.00     0.074 A 
ATOM     47  C   UNL A   1      48.053  29.630  27.382  1.00  0.00    -0.036 A 
ATOM     48  N   UNL A   1      45.966  29.034  27.863  1.00  0.00    -0.354 N 
ATOM     49  N   UNL A   1      43.216  29.502  28.787  1.00  0.00    -0.248 NA
ATOM     50  C   UNL A   1      41.584  30.905  29.694  1.00  0.00    -0.034 C 
ATOM     51  C   UNL A   1      47.393  30.736  27.928  1.00  0.00    -0.036 A 
ATOM     52  H   UNL A   1      49.030  29.613  27.050  1.00  0.00     0.065 H 
ATOM     53  C   UNL A   1      46.086  30.372  28.207  1.00  0.00     0.049 A 
ATOM     54  H   UNL A   1      45.146  28.498  27.961  1.00  0.00     0.167 HD
ATOM     55  C   UNL A   1      43.761  30.762  28.984  1.00  0.00     0.074 A 
ATOM     56  C   UNL A   1      42.704  31.595  29.521  1.00  0.00    -0.034 C 
ATOM     57  H   UNL A   1      40.680  31.216  30.082  1.00  0.00     0.065 H 
ATOM     58  H   UNL A   1      47.810  31.666  28.094  1.00  0.00     0.065 H 
ATOM     59  C   UNL A   1      45.025  31.186  28.745  1.00  0.00     0.037 A 
ATOM     60  H   UNL A   1      42.809  32.598  29.741  1.00  0.00     0.065 H 
BRANCH  41  61
ATOM     61  C   UNL A   1      48.778  26.865  26.423  1.00  0.00     0.064 A 
ATOM     62  C   UNL A   1      49.108  27.025  25.068  1.00  0.00     0.173 A 
ATOM     63  C   UNL A   1      49.748  26.312  27.272  1.00  0.00     0.173 A 
ATOM     64  F   UNL A   1      48.213  27.542  24.211  1.00  0.00    -0.203 F 
ATOM     65  C   UNL A   1      50.353  26.638  24.582  1.00  0.00     0.198 A 
ATOM     66  C   UNL A   1      51.002  25.950  26.788  1.00  0.00     0.198 A 
ATOM     67  F   UNL A   1      49.487  26.150  28.578  1.00  0.00    -0.203 F 
ATOM     68  F   UNL A   1      50.636  26.776  23.279  1.00  0.00    -0.200 F 
ATOM     69  C   UNL A   1      51.301  26.105  25.442  1.00  0.00     0.200 A 
ATOM     70  F   UNL A   1      51.925  25.456  27.625  1.00  0.00    -0.200 F 
ATOM     71  F   UNL A   1      52.505  25.743  24.975  1.00  0.00    -0.200 F 
ENDBRANCH  41  61
BRANCH  44  72
ATOM     72  C   UNL A   1      39.527  28.802  29.643  1.00  0.00     0.064 A 
ATOM     73  C   UNL A   1      38.591  29.380  28.773  1.00  0.00     0.173 A 
ATOM     74  C   UNL A   1      39.135  28.565  30.966  1.00  0.00     0.173 A 
ATOM     75  F   UNL A   1      38.926  29.634  27.500  1.00  0.00    -0.203 F 
ATOM     76  C   UNL A   1      37.322  29.738  29.221  1.00  0.00     0.198 A 
ATOM     77  C   UNL A   1      37.855  28.901  31.405  1.00  0.00     0.198 A 
ATOM     78  F   UNL A   1      39.993  28.000  31.829  1.00  0.00    -0.203 F 
ATOM     79  F   UNL A   1      36.462  30.333  28.382  1.00  0.00    -0.200 F 
ATOM     80  C   UNL A   1      36.955  29.497  30.535  1.00  0.00     0.200 A 
ATOM     81  F   UNL A   1      37.498  28.650  32.672  1.00  0.00    -0.200 F 
ATOM     82  F   UNL A   1      35.734  29.842  30.965  1.00  0.00    -0.200 F 
ENDBRANCH  44  72
BRANCH  59  83
ATOM     83  C   UNL A   1      45.339  32.619  29.053  1.00  0.00     0.064 A 
ATOM     84  C   UNL A   1      45.155  33.613  28.079  1.00  0.00     0.173 A 
ATOM     85  C   UNL A   1      45.873  33.001  30.291  1.00  0.00     0.173 A 
ATOM     86  F   UNL A   1      44.651  33.296  26.877  1.00  0.00    -0.203 F 
ATOM     87  C   UNL A   1      45.504  34.936  28.333  1.00  0.00     0.198 A 
ATOM     88  C   UNL A   1      46.198  34.329  30.551  1.00  0.00     0.198 A 
ATOM     89  F   UNL A   1      46.054  32.088  31.258  1.00  0.00    -0.203 F 
ATOM     90  F   UNL A   1      45.342  35.864  27.381  1.00  0.00    -0.200 F 
ATOM     91  C   UNL A   1      46.022  35.294  29.569  1.00  0.00     0.200 A 
ATOM     92  F   UNL A   1      46.677  34.678  31.753  1.00  0.00    -0.200 F 
ATOM     93  F   UNL A   1      46.345  36.570  29.817  1.00  0.00    -0.200 F 
ENDBRANCH  59  83
ENDBRANCH  24  27
ENDBRANCH  15  17
ENDBRANCH  10  13
ENDBRANCH   7  10
ENDBRANCH   4   7
ENDBRANCH   1   4
BRANCH   1  94
ATOM     94  C   UNL A   1      35.396  22.971  24.709  1.00  0.00    -0.036 C 
ATOM     95  H   UNL A   1      35.766  23.975  24.743  1.00  0.00     0.028 H 
ATOM     96  H   UNL A   1      35.064  22.602  25.657  1.00  0.00     0.028 H 
BRANCH  94  97
ATOM     97  C   UNL A   1      34.173  22.953  23.801  1.00  0.00     0.017 C 
ATOM     98  H   UNL A   1      34.494  22.774  22.796  1.00  0.00     0.049 H 
ATOM     99  H   UNL A   1      33.685  23.901  23.892  1.00  0.00     0.049 H 
BRANCH  97 100
ATOM    100  N   UNL A   1      33.226  21.929  24.176  1.00  0.00    -0.354 N 
ATOM    101  C   UNL A   1      32.472  21.783  25.299  1.00  0.00     0.244 C 
ATOM    102  H   UNL A   1      33.105  21.217  23.507  1.00  0.00     0.163 HD
ATOM    103  O   UNL A   1      31.778  20.766  25.369  1.00  0.00    -0.273 OA
BRANCH 101 104
ATOM    104  C   UNL A   1      32.535  22.775  26.472  1.00  0.00     0.131 C 
ATOM    105  H   UNL A   1      33.128  23.602  26.141  1.00  0.00     0.066 H 
BRANCH 104 106
ATOM    106  N   UNL A   1      31.184  23.238  26.795  1.00  0.00    -0.340 N 
ATOM    107  C   UNL A   1      30.462  24.327  26.412  1.00  0.00     0.243 C 
ATOM    108  H   UNL A   1      30.701  22.643  27.413  1.00  0.00     0.164 HD
ATOM    109  O   UNL A   1      29.343  24.397  26.934  1.00  0.00    -0.273 OA
BRANCH 107 110
ATOM    110  C   UNL A   1      31.043  25.512  25.592  1.00  0.00     0.112 C 
ATOM    111  H   UNL A   1      30.729  26.366  26.155  1.00  0.00     0.064 H 
BRANCH 110 112
ATOM    112  N   UNL A   1      32.496  25.678  25.558  1.00  0.00    -0.340 N 
ATOM    113  C   UNL A   1      33.331  26.762  25.629  1.00  0.00     0.251 C 
ATOM    114  H   UNL A   1      32.979  24.825  25.466  1.00  0.00     0.164 HD
ATOM    115  O   UNL A   1      34.502  26.585  25.286  1.00  0.00    -0.269 OA
BRANCH 113 116
ATOM    116  C   UNL A   1      32.945  28.115  26.137  1.00  0.00     0.040 A 
ATOM    117  C   UNL A   1      33.540  28.763  27.227  1.00  0.00    -0.047 A 
ATOM    118  C   UNL A   1      32.020  28.840  25.363  1.00  0.00    -0.047 A 
ATOM    119  C   UNL A   1      33.222  30.090  27.536  1.00  0.00    -0.026 A 
ATOM    120  H   UNL A   1      34.223  28.254  27.810  1.00  0.00     0.063 H 
ATOM    121  C   UNL A   1      31.703  30.168  25.667  1.00  0.00    -0.026 A 
ATOM    122  H   UNL A   1      31.568  28.385  24.555  1.00  0.00     0.063 H 
ATOM    123  C   UNL A   1      32.311  30.782  26.752  1.00  0.00     0.123 A 
ATOM    124  H   UNL A   1      33.664  30.553  28.346  1.00  0.00     0.065 H 
ATOM    125  H   UNL A   1      31.021  30.686  25.090  1.00  0.00     0.065 H 
ATOM    126  F   UNL A   1      32.032  32.060  27.034  1.00  0.00    -0.207 F 
ENDBRANCH 113 116
ENDBRANCH 110 112
BRANCH 110 127
ATOM    127  C   UNL A   1      30.443  25.539  24.169  1.00  0.00     0.004 C 
ATOM    128  H   UNL A   1      30.026  24.570  23.993  1.00  0.00     0.034 H 
ATOM    129  H   UNL A   1      31.271  25.840  23.561  1.00  0.00     0.034 H 
BRANCH 127 130
ATOM    130  C   UNL A   1      29.372  26.544  23.811  1.00  0.00    -0.020 A 
ATOM    131  C   UNL A   1      28.042  26.335  24.138  1.00  0.00     0.005 A 
ATOM    132  C   UNL A   1      29.416  27.796  23.096  1.00  0.00     0.003 A 
ATOM    133  N   UNL A   1      27.298  27.379  23.676  1.00  0.00    -0.361 N 
ATOM    134  H   UNL A   1      27.672  25.517  24.650  1.00  0.00     0.082 H 
ATOM    135  C   UNL A   1      28.106  28.286  23.038  1.00  0.00     0.046 A 
ATOM    136  C   UNL A   1      30.419  28.583  22.488  1.00  0.00    -0.053 A 
ATOM    137  H   UNL A   1      26.324  27.470  23.785  1.00  0.00     0.166 HD
ATOM    138  C   UNL A   1      27.759  29.496  22.421  1.00  0.00    -0.038 A 
ATOM    139  C   UNL A   1      30.094  29.800  21.874  1.00  0.00    -0.062 A 
ATOM    140  H   UNL A   1      31.399  28.259  22.496  1.00  0.00     0.063 H 
ATOM    141  C   UNL A   1      28.780  30.249  21.841  1.00  0.00    -0.060 A 
ATOM    142  H   UNL A   1      26.779  29.820  22.397  1.00  0.00     0.064 H 
ATOM    143  H   UNL A   1      30.838  30.369  21.442  1.00  0.00     0.062 H 
ATOM    144  H   UNL A   1      28.557  31.146  21.383  1.00  0.00     0.062 H 
ENDBRANCH 127 130
ENDBRANCH 110 127
ENDBRANCH 107 110
ENDBRANCH 104 106
BRANCH 104 145
ATOM    145  C   UNL A   1      33.286  22.264  27.711  1.00  0.00     0.072 C 
ATOM    146  H   UNL A   1      32.570  21.991  28.458  1.00  0.00     0.059 H 
ATOM    147  H   UNL A   1      33.928  23.050  28.050  1.00  0.00     0.059 H 
BRANCH 145 148
ATOM    148  O   UNL A   1      34.101  21.133  27.424  1.00  0.00    -0.394 OA
ATOM    149  H   UNL A   1      35.017  21.321  27.678  1.00  0.00     0.210 HD
ENDBRANCH 145 148
ENDBRANCH 104 145
ENDBRANCH 101 104
ENDBRANCH  97 100
ENDBRANCH  94  97
ENDBRANCH   1  94
TORSDOF 21
ENDMDL
MODEL 5
REMARK VINA RESULT:     -12.2      1.828      7.574
REMARK SMILES O=C(NCCCCCCNC(=O)[C@H](CO)NC(=O)[C@H](Cc1c[nH]c2ccccc12)NC(=O)c1ccc(F)cc1)c1ccc(-c2c3nc(c(-c4c(F)c(F)c(F)c(F)c4F)c4ccc([nH]4)c(-c4c(F)c(F)c(F)c(F)c4F)c4nc(c(-c5c(F)c(F)c(F)c(F)c5F)c5ccc2[nH]5)C=C4)C=C3)cc1
REMARK SMILES IDX 7 1 6 4 5 7 4 10 3 13 1 14 2 15 40 17 41 18 102 19 42 20
REMARK SMILES IDX 101 22 43 24 44 27 45 28 95 29 46 30 100 31 94 32 96 33
REMARK SMILES IDX 47 34 99 35 93 37 92 39 48 41 80 44 60 45 79 46 61 47 64 48
REMARK SMILES IDX 78 49 97 50 62 51 63 53 77 55 98 56 65 59 49 61 50 62 58 63
REMARK SMILES IDX 51 64 52 65 56 66 59 67 53 68 54 69 57 70 55 71 81 72 82 73
REMARK SMILES IDX 90 74 83 75 84 76 88 77 91 78 85 79 86 80 89 81 87 82 66 83
REMARK SMILES IDX 67 84 75 85 68 86 69 87 73 88 76 89 70 90 71 91 74 92 72 93
REMARK SMILES IDX 8 94 9 97 10 100 11 101 12 103 13 104 16 106 17 107 18 109
REMARK SMILES IDX 19 110 30 112 31 113 32 115 33 116 34 117 39 118 35 119
REMARK SMILES IDX 38 121 36 123 37 126 20 127 21 130 22 131 29 132 23 133
REMARK SMILES IDX 24 135 28 136 25 138 27 139 26 141 14 145 15 148
REMARK H PARENT 7 2 7 3 6 5 6 6 5 8 5 9 4 11 4 12 3 16 41 21 102 23 42 25
REMARK H PARENT 101 26 100 36 94 38 96 40 99 42 93 43 61 52 64 54 97 57 62 58
REMARK H PARENT 98 60 8 95 8 96 9 98 9 99 10 102 13 105 16 108 19 111 30 114
REMARK H PARENT 34 120 39 122 35 124 38 125 20 128 20 129 22 134 23 137 28 140
REMARK H PARENT 25 142 27 143 26 144 14 146 14 147 15 149
REMARK Flexibility Score: inf
ROOT
ATOM      1  C   UNL A   1      35.347  33.052  29.097  1.00  0.00    -0.052 C 
ATOM      2  H   UNL A   1      34.325  32.855  29.342  1.00  0.00     0.027 H 
ATOM      3  H   UNL A   1      36.036  32.898  29.901  1.00  0.00     0.027 H 
ENDROOT
BRANCH   1   4
ATOM      4  C   UNL A   1      35.462  34.539  28.746  1.00  0.00    -0.052 C 
ATOM      5  H   UNL A   1      36.193  34.973  29.397  1.00  0.00     0.027 H 
ATOM      6  H   UNL A   1      35.722  34.569  27.709  1.00  0.00     0.027 H 
BRANCH   4   7
ATOM      7  C   UNL A   1      34.182  35.362  28.870  1.00  0.00    -0.036 C 
ATOM      8  H   UNL A   1      34.428  36.280  29.363  1.00  0.00     0.028 H 
ATOM      9  H   UNL A   1      33.820  35.488  27.871  1.00  0.00     0.028 H 
BRANCH   7  10
ATOM     10  C   UNL A   1      33.044  34.709  29.642  1.00  0.00     0.018 C 
ATOM     11  H   UNL A   1      32.290  34.411  28.944  1.00  0.00     0.049 H 
ATOM     12  H   UNL A   1      33.462  33.880  30.171  1.00  0.00     0.049 H 
BRANCH  10  13
ATOM     13  N   UNL A   1      32.433  35.579  30.630  1.00  0.00    -0.352 N 
ATOM     14  O   UNL A   1      32.125  36.495  32.673  1.00  0.00    -0.269 OA
ATOM     15  C   UNL A   1      32.797  35.774  31.941  1.00  0.00     0.251 C 
ATOM     16  H   UNL A   1      31.656  36.097  30.321  1.00  0.00     0.163 HD
BRANCH  15  17
ATOM     17  C   UNL A   1      33.980  35.070  32.481  1.00  0.00     0.039 A 
ATOM     18  C   UNL A   1      35.243  35.664  32.446  1.00  0.00    -0.049 A 
ATOM     19  C   UNL A   1      33.823  33.781  32.999  1.00  0.00    -0.049 A 
ATOM     20  C   UNL A   1      36.365  34.914  32.782  1.00  0.00    -0.053 A 
ATOM     21  H   UNL A   1      35.344  36.655  32.174  1.00  0.00     0.063 H 
ATOM     22  C   UNL A   1      34.943  33.060  33.418  1.00  0.00    -0.053 A 
ATOM     23  H   UNL A   1      32.881  33.364  33.071  1.00  0.00     0.063 H 
ATOM     24  C   UNL A   1      36.227  33.605  33.275  1.00  0.00    -0.014 A 
ATOM     25  H   UNL A   1      37.306  35.322  32.666  1.00  0.00     0.063 H 
ATOM     26  H   UNL A   1      34.825  32.122  33.833  1.00  0.00     0.063 H 
BRANCH  24  27
ATOM     27  C   UNL A   1      37.442  32.850  33.674  1.00  0.00     0.031 A 
ATOM     28  C   UNL A   1      38.075  31.848  32.751  1.00  0.00     0.074 A 
ATOM     29  C   UNL A   1      38.002  33.116  34.869  1.00  0.00     0.049 A 
ATOM     30  N   UNL A   1      39.160  31.136  32.929  1.00  0.00    -0.248 NA
ATOM     31  C   UNL A   1      37.405  31.606  31.464  1.00  0.00    -0.034 C 
ATOM     32  C   UNL A   1      37.469  34.062  35.851  1.00  0.00    -0.036 A 
ATOM     33  N   UNL A   1      39.150  32.642  35.451  1.00  0.00    -0.354 N 
ATOM     34  C   UNL A   1      39.293  30.352  31.790  1.00  0.00     0.074 A 
ATOM     35  C   UNL A   1      38.166  30.657  30.935  1.00  0.00    -0.034 C 
ATOM     36  H   UNL A   1      36.564  32.059  31.074  1.00  0.00     0.065 H 
ATOM     37  C   UNL A   1      38.320  34.148  36.884  1.00  0.00    -0.036 A 
ATOM     38  H   UNL A   1      36.582  34.580  35.762  1.00  0.00     0.065 H 
ATOM     39  C   UNL A   1      39.425  33.220  36.664  1.00  0.00     0.049 A 
ATOM     40  H   UNL A   1      39.721  31.955  35.038  1.00  0.00     0.167 HD
ATOM     41  C   UNL A   1      40.274  29.468  31.485  1.00  0.00     0.037 A 
ATOM     42  H   UNL A   1      37.978  30.195  30.032  1.00  0.00     0.065 H 
ATOM     43  H   UNL A   1      38.211  34.768  37.700  1.00  0.00     0.065 H 
ATOM     44  C   UNL A   1      40.451  33.025  37.513  1.00  0.00     0.037 A 
ATOM     45  C   UNL A   1      41.403  29.182  32.333  1.00  0.00     0.049 A 
ATOM     46  C   UNL A   1      41.520  32.036  37.154  1.00  0.00     0.074 A 
ATOM     47  C   UNL A   1      42.455  28.312  32.103  1.00  0.00    -0.036 A 
ATOM     48  N   UNL A   1      41.628  29.762  33.572  1.00  0.00    -0.354 N 
ATOM     49  N   UNL A   1      41.636  31.307  36.071  1.00  0.00    -0.248 NA
ATOM     50  C   UNL A   1      42.596  31.838  38.133  1.00  0.00    -0.034 C 
ATOM     51  C   UNL A   1      43.297  28.338  33.219  1.00  0.00    -0.036 A 
ATOM     52  H   UNL A   1      42.595  27.742  31.254  1.00  0.00     0.065 H 
ATOM     53  C   UNL A   1      42.795  29.258  34.126  1.00  0.00     0.049 A 
ATOM     54  H   UNL A   1      41.045  30.431  33.998  1.00  0.00     0.167 HD
ATOM     55  C   UNL A   1      42.798  30.568  36.234  1.00  0.00     0.074 A 
ATOM     56  C   UNL A   1      43.364  30.954  37.510  1.00  0.00    -0.034 C 
ATOM     57  H   UNL A   1      42.722  32.273  39.060  1.00  0.00     0.065 H 
ATOM     58  H   UNL A   1      44.149  27.768  33.346  1.00  0.00     0.065 H 
ATOM     59  C   UNL A   1      43.343  29.649  35.400  1.00  0.00     0.037 A 
ATOM     60  H   UNL A   1      44.251  30.586  37.888  1.00  0.00     0.065 H 
BRANCH  41  61
ATOM     61  C   UNL A   1      40.172  28.735  30.179  1.00  0.00     0.064 A 
ATOM     62  C   UNL A   1      39.529  27.488  30.111  1.00  0.00     0.173 A 
ATOM     63  C   UNL A   1      40.764  29.231  29.009  1.00  0.00     0.173 A 
ATOM     64  F   UNL A   1      38.953  26.965  31.204  1.00  0.00    -0.203 F 
ATOM     65  C   UNL A   1      39.491  26.765  28.922  1.00  0.00     0.198 A 
ATOM     66  C   UNL A   1      40.702  28.516  27.815  1.00  0.00     0.198 A 
ATOM     67  F   UNL A   1      41.380  30.423  29.018  1.00  0.00    -0.203 F 
ATOM     68  F   UNL A   1      38.894  25.565  28.888  1.00  0.00    -0.200 F 
ATOM     69  C   UNL A   1      40.073  27.281  27.774  1.00  0.00     0.200 A 
ATOM     70  F   UNL A   1      41.245  29.027  26.702  1.00  0.00    -0.200 F 
ATOM     71  F   UNL A   1      40.026  26.589  26.627  1.00  0.00    -0.200 F 
ENDBRANCH  41  61
BRANCH  44  72
ATOM     72  C   UNL A   1      40.509  33.812  38.770  1.00  0.00     0.064 A 
ATOM     73  C   UNL A   1      39.797  33.414  39.910  1.00  0.00     0.173 A 
ATOM     74  C   UNL A   1      41.224  35.015  38.829  1.00  0.00     0.173 A 
ATOM     75  F   UNL A   1      39.090  32.275  39.897  1.00  0.00    -0.203 F 
ATOM     76  C   UNL A   1      39.773  34.208  41.055  1.00  0.00     0.198 A 
ATOM     77  C   UNL A   1      41.219  35.796  39.984  1.00  0.00     0.198 A 
ATOM     78  F   UNL A   1      41.932  35.427  37.766  1.00  0.00    -0.203 F 
ATOM     79  F   UNL A   1      39.045  33.830  42.114  1.00  0.00    -0.200 F 
ATOM     80  C   UNL A   1      40.485  35.397  41.090  1.00  0.00     0.200 A 
ATOM     81  F   UNL A   1      41.923  36.935  40.021  1.00  0.00    -0.200 F 
ATOM     82  F   UNL A   1      40.461  36.160  42.191  1.00  0.00    -0.200 F 
ENDBRANCH  44  72
BRANCH  59  83
ATOM     83  C   UNL A   1      44.622  28.999  35.835  1.00  0.00     0.064 A 
ATOM     84  C   UNL A   1      45.859  29.572  35.504  1.00  0.00     0.173 A 
ATOM     85  C   UNL A   1      44.623  27.782  36.530  1.00  0.00     0.173 A 
ATOM     86  F   UNL A   1      45.909  30.734  34.835  1.00  0.00    -0.203 F 
ATOM     87  C   UNL A   1      47.052  28.943  35.847  1.00  0.00     0.198 A 
ATOM     88  C   UNL A   1      45.819  27.168  36.893  1.00  0.00     0.198 A 
ATOM     89  F   UNL A   1      43.465  27.203  36.881  1.00  0.00    -0.203 F 
ATOM     90  F   UNL A   1      48.222  29.497  35.500  1.00  0.00    -0.200 F 
ATOM     91  C   UNL A   1      47.032  27.744  36.544  1.00  0.00     0.200 A 
ATOM     92  F   UNL A   1      45.798  26.021  37.586  1.00  0.00    -0.200 F 
ATOM     93  F   UNL A   1      48.182  27.147  36.884  1.00  0.00    -0.200 F 
ENDBRANCH  59  83
ENDBRANCH  24  27
ENDBRANCH  15  17
ENDBRANCH  10  13
ENDBRANCH   7  10
ENDBRANCH   4   7
ENDBRANCH   1   4
BRANCH   1  94
ATOM     94  C   UNL A   1      35.766  32.059  28.008  1.00  0.00    -0.036 C 
ATOM     95  H   UNL A   1      36.662  31.571  28.333  1.00  0.00     0.028 H 
ATOM     96  H   UNL A   1      35.890  32.636  27.116  1.00  0.00     0.028 H 
BRANCH  94  97
ATOM     97  C   UNL A   1      34.741  30.984  27.671  1.00  0.00     0.017 C 
ATOM     98  H   UNL A   1      34.686  30.294  28.488  1.00  0.00     0.049 H 
ATOM     99  H   UNL A   1      35.059  30.500  26.772  1.00  0.00     0.049 H 
BRANCH  97 100
ATOM    100  N   UNL A   1      33.425  31.533  27.438  1.00  0.00    -0.354 N 
ATOM    101  C   UNL A   1      32.349  31.016  26.788  1.00  0.00     0.244 C 
ATOM    102  H   UNL A   1      33.285  32.433  27.811  1.00  0.00     0.163 HD
ATOM    103  O   UNL A   1      31.357  31.743  26.698  1.00  0.00    -0.273 OA
BRANCH 101 104
ATOM    104  C   UNL A   1      32.375  29.634  26.114  1.00  0.00     0.131 C 
ATOM    105  H   UNL A   1      31.355  29.342  25.978  1.00  0.00     0.066 H 
BRANCH 104 106
ATOM    106  N   UNL A   1      33.035  29.736  24.811  1.00  0.00    -0.340 N 
ATOM    107  C   UNL A   1      33.085  28.909  23.731  1.00  0.00     0.243 C 
ATOM    108  H   UNL A   1      33.545  30.570  24.692  1.00  0.00     0.164 HD
ATOM    109  O   UNL A   1      33.790  29.331  22.806  1.00  0.00    -0.273 OA
BRANCH 107 110
ATOM    110  C   UNL A   1      32.525  27.460  23.719  1.00  0.00     0.112 C 
ATOM    111  H   UNL A   1      32.873  27.063  24.650  1.00  0.00     0.064 H 
BRANCH 110 112
ATOM    112  N   UNL A   1      31.077  27.281  23.825  1.00  0.00    -0.340 N 
ATOM    113  C   UNL A   1      30.272  26.235  24.193  1.00  0.00     0.251 C 
ATOM    114  H   UNL A   1      30.570  28.089  23.580  1.00  0.00     0.164 HD
ATOM    115  O   UNL A   1      29.078  26.324  23.902  1.00  0.00    -0.269 OA
BRANCH 113 116
ATOM    116  C   UNL A   1      30.720  25.031  24.959  1.00  0.00     0.040 A 
ATOM    117  C   UNL A   1      30.689  23.716  24.478  1.00  0.00    -0.047 A 
ATOM    118  C   UNL A   1      31.356  25.268  26.193  1.00  0.00    -0.047 A 
ATOM    119  C   UNL A   1      31.271  22.670  25.204  1.00  0.00    -0.026 A 
ATOM    120  H   UNL A   1      30.230  23.516  23.576  1.00  0.00     0.063 H 
ATOM    121  C   UNL A   1      31.941  24.225  26.918  1.00  0.00    -0.026 A 
ATOM    122  H   UNL A   1      31.392  26.228  26.569  1.00  0.00     0.063 H 
ATOM    123  C   UNL A   1      31.896  22.934  26.414  1.00  0.00     0.123 A 
ATOM    124  H   UNL A   1      31.235  21.705  24.840  1.00  0.00     0.065 H 
ATOM    125  H   UNL A   1      32.403  24.415  27.822  1.00  0.00     0.065 H 
ATOM    126  F   UNL A   1      32.476  21.936  27.090  1.00  0.00    -0.207 F 
ENDBRANCH 113 116
ENDBRANCH 110 112
BRANCH 110 127
ATOM    127  C   UNL A   1      33.102  26.660  22.530  1.00  0.00     0.004 C 
ATOM    128  H   UNL A   1      33.983  27.177  22.211  1.00  0.00     0.034 H 
ATOM    129  H   UNL A   1      32.280  26.612  21.847  1.00  0.00     0.034 H 
BRANCH 127 130
ATOM    130  C   UNL A   1      33.490  25.210  22.702  1.00  0.00    -0.020 A 
ATOM    131  C   UNL A   1      33.112  24.243  21.784  1.00  0.00     0.005 A 
ATOM    132  C   UNL A   1      34.215  24.515  23.738  1.00  0.00     0.003 A 
ATOM    133  N   UNL A   1      33.571  23.028  22.198  1.00  0.00    -0.361 N 
ATOM    134  H   UNL A   1      32.569  24.415  20.923  1.00  0.00     0.082 H 
ATOM    135  C   UNL A   1      34.248  23.161  23.384  1.00  0.00     0.046 A 
ATOM    136  C   UNL A   1      34.858  24.875  24.943  1.00  0.00    -0.053 A 
ATOM    137  H   UNL A   1      33.438  22.180  21.717  1.00  0.00     0.166 HD
ATOM    138  C   UNL A   1      34.880  22.175  24.155  1.00  0.00    -0.038 A 
ATOM    139  C   UNL A   1      35.502  23.906  25.724  1.00  0.00    -0.062 A 
ATOM    140  H   UNL A   1      34.852  25.860  25.252  1.00  0.00     0.063 H 
ATOM    141  C   UNL A   1      35.511  22.573  25.333  1.00  0.00    -0.060 A 
ATOM    142  H   UNL A   1      34.878  21.186  23.860  1.00  0.00     0.064 H 
ATOM    143  H   UNL A   1      35.975  24.185  26.597  1.00  0.00     0.062 H 
ATOM    144  H   UNL A   1      35.988  21.871  25.920  1.00  0.00     0.062 H 
ENDBRANCH 127 130
ENDBRANCH 110 127
ENDBRANCH 107 110
ENDBRANCH 104 106
BRANCH 104 145
ATOM    145  C   UNL A   1      32.963  28.506  26.976  1.00  0.00     0.072 C 
ATOM    146  H   UNL A   1      33.918  28.818  27.346  1.00  0.00     0.059 H 
ATOM    147  H   UNL A   1      33.045  27.634  26.361  1.00  0.00     0.059 H 
BRANCH 145 148
ATOM    148  O   UNL A   1      32.130  28.178  28.083  1.00  0.00    -0.394 OA
ATOM    149  H   UNL A   1      31.523  28.912  28.260  1.00  0.00     0.210 HD
ENDBRANCH 145 148
ENDBRANCH 104 145
ENDBRANCH 101 104
ENDBRANCH  97 100
ENDBRANCH  94  97
ENDBRANCH   1  94
TORSDOF 21
ENDMDL
MODEL 6
REMARK VINA RESULT:     -12.2      1.782      2.948
REMARK SMILES O=C(NCCCCCCNC(=O)[C@H](CO)NC(=O)[C@H](Cc1c[nH]c2ccccc12)NC(=O)c1ccc(F)cc1)c1ccc(-c2c3nc(c(-c4c(F)c(F)c(F)c(F)c4F)c4ccc([nH]4)c(-c4c(F)c(F)c(F)c(F)c4F)c4nc(c(-c5c(F)c(F)c(F)c(F)c5F)c5ccc2[nH]5)C=C4)C=C3)cc1
REMARK SMILES IDX 7 1 6 4 5 7 4 10 3 13 1 14 2 15 40 17 41 18 102 19 42 20
REMARK SMILES IDX 101 22 43 24 44 27 45 28 95 29 46 30 100 31 94 32 96 33
REMARK SMILES IDX 47 34 99 35 93 37 92 39 48 41 80 44 60 45 79 46 61 47 64 48
REMARK SMILES IDX 78 49 97 50 62 51 63 53 77 55 98 56 65 59 49 61 50 62 58 63
REMARK SMILES IDX 51 64 52 65 56 66 59 67 53 68 54 69 57 70 55 71 81 72 82 73
REMARK SMILES IDX 90 74 83 75 84 76 88 77 91 78 85 79 86 80 89 81 87 82 66 83
REMARK SMILES IDX 67 84 75 85 68 86 69 87 73 88 76 89 70 90 71 91 74 92 72 93
REMARK SMILES IDX 8 94 9 97 10 100 11 101 12 103 13 104 16 106 17 107 18 109
REMARK SMILES IDX 19 110 30 112 31 113 32 115 33 116 34 117 39 118 35 119
REMARK SMILES IDX 38 121 36 123 37 126 20 127 21 130 22 131 29 132 23 133
REMARK SMILES IDX 24 135 28 136 25 138 27 139 26 141 14 145 15 148
REMARK H PARENT 7 2 7 3 6 5 6 6 5 8 5 9 4 11 4 12 3 16 41 21 102 23 42 25
REMARK H PARENT 101 26 100 36 94 38 96 40 99 42 93 43 61 52 64 54 97 57 62 58
REMARK H PARENT 98 60 8 95 8 96 9 98 9 99 10 102 13 105 16 108 19 111 30 114
REMARK H PARENT 34 120 39 122 35 124 38 125 20 128 20 129 22 134 23 137 28 140
REMARK H PARENT 25 142 27 143 26 144 14 146 14 147 15 149
REMARK Flexibility Score: inf
ROOT
ATOM      1  C   UNL A   1      35.617  33.101  28.003  1.00  0.00    -0.052 C 
ATOM      2  H   UNL A   1      36.651  33.363  27.915  1.00  0.00     0.027 H 
ATOM      3  H   UNL A   1      35.008  33.414  27.182  1.00  0.00     0.027 H 
ENDROOT
BRANCH   1   4
ATOM      4  C   UNL A   1      35.055  33.833  29.226  1.00  0.00    -0.052 C 
ATOM      5  H   UNL A   1      35.025  33.136  30.038  1.00  0.00     0.027 H 
ATOM      6  H   UNL A   1      35.707  34.667  29.384  1.00  0.00     0.027 H 
BRANCH   4   7
ATOM      7  C   UNL A   1      33.658  34.429  29.072  1.00  0.00    -0.036 C 
ATOM      8  H   UNL A   1      33.423  34.450  28.028  1.00  0.00     0.028 H 
ATOM      9  H   UNL A   1      33.010  33.805  29.651  1.00  0.00     0.028 H 
BRANCH   7  10
ATOM     10  C   UNL A   1      33.472  35.837  29.620  1.00  0.00     0.018 C 
ATOM     11  H   UNL A   1      34.410  36.175  30.008  1.00  0.00     0.049 H 
ATOM     12  H   UNL A   1      33.121  36.442  28.811  1.00  0.00     0.049 H 
BRANCH  10  13
ATOM     13  N   UNL A   1      32.481  35.927  30.677  1.00  0.00    -0.352 N 
ATOM     14  O   UNL A   1      31.604  35.569  32.729  1.00  0.00    -0.269 OA
ATOM     15  C   UNL A   1      32.569  35.482  31.974  1.00  0.00     0.251 C 
ATOM     16  H   UNL A   1      31.634  36.364  30.431  1.00  0.00     0.163 HD
BRANCH  15  17
ATOM     17  C   UNL A   1      33.820  34.851  32.444  1.00  0.00     0.039 A 
ATOM     18  C   UNL A   1      35.015  35.573  32.483  1.00  0.00    -0.049 A 
ATOM     19  C   UNL A   1      33.800  33.504  32.820  1.00  0.00    -0.049 A 
ATOM     20  C   UNL A   1      36.210  34.912  32.745  1.00  0.00    -0.053 A 
ATOM     21  H   UNL A   1      35.011  36.592  32.319  1.00  0.00     0.063 H 
ATOM     22  C   UNL A   1      34.991  32.863  33.168  1.00  0.00    -0.053 A 
ATOM     23  H   UNL A   1      32.907  32.987  32.840  1.00  0.00     0.063 H 
ATOM     24  C   UNL A   1      36.211  33.551  33.094  1.00  0.00    -0.014 A 
ATOM     25  H   UNL A   1      37.103  35.425  32.681  1.00  0.00     0.063 H 
ATOM     26  H   UNL A   1      34.973  31.879  33.480  1.00  0.00     0.063 H 
BRANCH  24  27
ATOM     27  C   UNL A   1      37.499  32.888  33.419  1.00  0.00     0.031 A 
ATOM     28  C   UNL A   1      38.200  33.142  34.723  1.00  0.00     0.074 A 
ATOM     29  C   UNL A   1      38.011  32.009  32.537  1.00  0.00     0.049 A 
ATOM     30  N   UNL A   1      39.309  32.613  35.178  1.00  0.00    -0.248 NA
ATOM     31  C   UNL A   1      37.586  34.119  35.635  1.00  0.00    -0.034 C 
ATOM     32  C   UNL A   1      37.422  31.690  31.235  1.00  0.00    -0.036 A 
ATOM     33  N   UNL A   1      39.118  31.203  32.608  1.00  0.00    -0.354 N 
ATOM     34  C   UNL A   1      39.533  33.203  36.415  1.00  0.00     0.074 A 
ATOM     35  C   UNL A   1      38.459  34.148  36.632  1.00  0.00    -0.034 C 
ATOM     36  H   UNL A   1      36.703  34.643  35.527  1.00  0.00     0.065 H 
ATOM     37  C   UNL A   1      38.135  30.713  30.658  1.00  0.00    -0.036 A 
ATOM     38  H   UNL A   1      36.590  32.144  30.828  1.00  0.00     0.065 H 
ATOM     39  C   UNL A   1      39.264  30.379  31.521  1.00  0.00     0.049 A 
ATOM     40  H   UNL A   1      39.747  31.215  33.365  1.00  0.00     0.167 HD
ATOM     41  C   UNL A   1      40.539  32.966  37.292  1.00  0.00     0.037 A 
ATOM     42  H   UNL A   1      38.384  34.765  37.455  1.00  0.00     0.065 H 
ATOM     43  H   UNL A   1      37.921  30.269  29.752  1.00  0.00     0.065 H 
ATOM     44  C   UNL A   1      40.204  29.457  31.243  1.00  0.00     0.037 A 
ATOM     45  C   UNL A   1      41.596  32.011  37.078  1.00  0.00     0.049 A 
ATOM     46  C   UNL A   1      41.310  29.219  32.227  1.00  0.00     0.074 A 
ATOM     47  C   UNL A   1      42.652  31.690  37.915  1.00  0.00    -0.036 A 
ATOM     48  N   UNL A   1      41.730  31.219  35.947  1.00  0.00    -0.354 N 
ATOM     49  N   UNL A   1      41.506  29.779  33.396  1.00  0.00    -0.248 NA
ATOM     50  C   UNL A   1      42.327  28.226  31.855  1.00  0.00    -0.034 C 
ATOM     51  C   UNL A   1      43.444  30.732  37.274  1.00  0.00    -0.036 A 
ATOM     52  H   UNL A   1      42.824  32.089  38.850  1.00  0.00     0.065 H 
ATOM     53  C   UNL A   1      42.858  30.421  36.058  1.00  0.00     0.049 A 
ATOM     54  H   UNL A   1      41.115  31.223  35.178  1.00  0.00     0.167 HD
ATOM     55  C   UNL A   1      42.662  29.206  33.902  1.00  0.00     0.074 A 
ATOM     56  C   UNL A   1      43.113  28.237  32.924  1.00  0.00    -0.034 C 
ATOM     57  H   UNL A   1      42.407  27.669  30.991  1.00  0.00     0.065 H 
ATOM     58  H   UNL A   1      44.318  30.326  37.645  1.00  0.00     0.065 H 
ATOM     59  C   UNL A   1      43.295  29.465  35.072  1.00  0.00     0.037 A 
ATOM     60  H   UNL A   1      43.940  27.632  33.042  1.00  0.00     0.065 H 
BRANCH  41  61
ATOM     61  C   UNL A   1      40.555  33.757  38.567  1.00  0.00     0.064 A 
ATOM     62  C   UNL A   1      41.389  34.878  38.700  1.00  0.00     0.173 A 
ATOM     63  C   UNL A   1      39.795  33.370  39.681  1.00  0.00     0.173 A 
ATOM     64  F   UNL A   1      42.143  35.285  37.667  1.00  0.00    -0.203 F 
ATOM     65  C   UNL A   1      41.467  35.577  39.901  1.00  0.00     0.198 A 
ATOM     66  C   UNL A   1      39.856  34.087  40.874  1.00  0.00     0.198 A 
ATOM     67  F   UNL A   1      38.973  32.313  39.604  1.00  0.00    -0.203 F 
ATOM     68  F   UNL A   1      42.290  36.629  40.011  1.00  0.00    -0.200 F 
ATOM     69  C   UNL A   1      40.698  35.184  40.986  1.00  0.00     0.200 A 
ATOM     70  F   UNL A   1      39.095  33.721  41.914  1.00  0.00    -0.200 F 
ATOM     71  F   UNL A   1      40.765  35.865  42.139  1.00  0.00    -0.200 F 
ENDBRANCH  41  61
BRANCH  44  72
ATOM     72  C   UNL A   1      40.106  28.683  29.979  1.00  0.00     0.064 A 
ATOM     73  C   UNL A   1      39.486  27.426  29.943  1.00  0.00     0.173 A 
ATOM     74  C   UNL A   1      40.695  29.160  28.801  1.00  0.00     0.173 A 
ATOM     75  F   UNL A   1      38.918  26.925  31.049  1.00  0.00    -0.203 F 
ATOM     76  C   UNL A   1      39.485  26.660  28.779  1.00  0.00     0.198 A 
ATOM     77  C   UNL A   1      40.670  28.403  27.631  1.00  0.00     0.198 A 
ATOM     78  F   UNL A   1      41.285  30.364  28.787  1.00  0.00    -0.203 F 
ATOM     79  F   UNL A   1      38.928  25.441  28.783  1.00  0.00    -0.200 F 
ATOM     80  C   UNL A   1      40.076  27.150  27.625  1.00  0.00     0.200 A 
ATOM     81  F   UNL A   1      41.227  28.887  26.512  1.00  0.00    -0.200 F 
ATOM     82  F   UNL A   1      40.076  26.413  26.506  1.00  0.00    -0.200 F 
ENDBRANCH  44  72
BRANCH  59  83
ATOM     83  C   UNL A   1      44.541  28.685  35.367  1.00  0.00     0.064 A 
ATOM     84  C   UNL A   1      44.471  27.470  36.066  1.00  0.00     0.173 A 
ATOM     85  C   UNL A   1      45.807  29.166  35.006  1.00  0.00     0.173 A 
ATOM     86  F   UNL A   1      43.282  26.971  36.437  1.00  0.00    -0.203 F 
ATOM     87  C   UNL A   1      45.626  26.771  36.401  1.00  0.00     0.198 A 
ATOM     88  C   UNL A   1      46.960  28.451  35.322  1.00  0.00     0.198 A 
ATOM     89  F   UNL A   1      45.924  30.316  34.324  1.00  0.00    -0.203 F 
ATOM     90  F   UNL A   1      45.537  25.624  37.090  1.00  0.00    -0.200 F 
ATOM     91  C   UNL A   1      46.869  27.259  36.026  1.00  0.00     0.200 A 
ATOM     92  F   UNL A   1      48.158  28.912  34.939  1.00  0.00    -0.200 F 
ATOM     93  F   UNL A   1      47.979  26.578  36.338  1.00  0.00    -0.200 F 
ENDBRANCH  59  83
ENDBRANCH  24  27
ENDBRANCH  15  17
ENDBRANCH  10  13
ENDBRANCH   7  10
ENDBRANCH   4   7
ENDBRANCH   1   4
BRANCH   1  94
ATOM     94  C   UNL A   1      35.523  31.571  28.019  1.00  0.00    -0.036 C 
ATOM     95  H   UNL A   1      35.659  31.243  29.028  1.00  0.00     0.028 H 
ATOM     96  H   UNL A   1      36.280  31.224  27.347  1.00  0.00     0.028 H 
BRANCH  94  97
ATOM     97  C   UNL A   1      34.211  30.990  27.508  1.00  0.00     0.017 C 
ATOM     98  H   UNL A   1      33.902  31.544  26.646  1.00  0.00     0.049 H 
ATOM     99  H   UNL A   1      33.493  31.064  28.298  1.00  0.00     0.049 H 
BRANCH  97 100
ATOM    100  N   UNL A   1      34.331  29.597  27.146  1.00  0.00    -0.354 N 
ATOM    101  C   UNL A   1      33.854  28.914  26.071  1.00  0.00     0.244 C 
ATOM    102  H   UNL A   1      34.843  29.050  27.784  1.00  0.00     0.163 HD
ATOM    103  O   UNL A   1      34.070  27.699  26.050  1.00  0.00    -0.273 OA
BRANCH 101 104
ATOM    104  C   UNL A   1      33.010  29.582  24.975  1.00  0.00     0.131 C 
ATOM    105  H   UNL A   1      33.030  30.633  25.171  1.00  0.00     0.066 H 
BRANCH 104 106
ATOM    106  N   UNL A   1      33.608  29.316  23.665  1.00  0.00    -0.340 N 
ATOM    107  C   UNL A   1      33.533  28.258  22.812  1.00  0.00     0.243 C 
ATOM    108  H   UNL A   1      34.177  30.048  23.336  1.00  0.00     0.164 HD
ATOM    109  O   UNL A   1      34.222  28.386  21.792  1.00  0.00    -0.273 OA
BRANCH 107 110
ATOM    110  C   UNL A   1      32.856  26.904  23.160  1.00  0.00     0.112 C 
ATOM    111  H   UNL A   1      33.172  26.734  24.168  1.00  0.00     0.064 H 
BRANCH 110 112
ATOM    112  N   UNL A   1      31.399  26.875  23.281  1.00  0.00    -0.340 N 
ATOM    113  C   UNL A   1      30.510  26.020  23.878  1.00  0.00     0.251 C 
ATOM    114  H   UNL A   1      30.960  27.637  22.837  1.00  0.00     0.164 HD
ATOM    115  O   UNL A   1      29.327  26.132  23.553  1.00  0.00    -0.269 OA
BRANCH 113 116
ATOM    116  C   UNL A   1      30.859  25.008  24.923  1.00  0.00     0.040 A 
ATOM    117  C   UNL A   1      30.652  23.628  24.804  1.00  0.00    -0.047 A 
ATOM    118  C   UNL A   1      31.581  25.473  26.038  1.00  0.00    -0.047 A 
ATOM    119  C   UNL A   1      31.149  22.740  25.766  1.00  0.00    -0.026 A 
ATOM    120  H   UNL A   1      30.126  23.260  23.996  1.00  0.00     0.063 H 
ATOM    121  C   UNL A   1      32.082  24.589  26.998  1.00  0.00    -0.026 A 
ATOM    122  H   UNL A   1      31.746  26.486  26.148  1.00  0.00     0.063 H 
ATOM    123  C   UNL A   1      31.863  23.227  26.851  1.00  0.00     0.123 A 
ATOM    124  H   UNL A   1      30.984  21.726  25.668  1.00  0.00     0.065 H 
ATOM    125  H   UNL A   1      32.609  24.946  27.811  1.00  0.00     0.065 H 
ATOM    126  F   UNL A   1      32.361  22.372  27.752  1.00  0.00    -0.207 F 
ENDBRANCH 113 116
ENDBRANCH 110 112
BRANCH 110 127
ATOM    127  C   UNL A   1      33.363  25.782  22.228  1.00  0.00     0.004 C 
ATOM    128  H   UNL A   1      34.294  26.118  21.821  1.00  0.00     0.034 H 
ATOM    129  H   UNL A   1      32.548  25.642  21.550  1.00  0.00     0.034 H 
BRANCH 127 130
ATOM    130  C   UNL A   1      33.603  24.391  22.768  1.00  0.00    -0.020 A 
ATOM    131  C   UNL A   1      33.065  23.271  22.153  1.00  0.00     0.005 A 
ATOM    132  C   UNL A   1      34.313  23.909  23.927  1.00  0.00     0.003 A 
ATOM    133  N   UNL A   1      33.417  22.160  22.861  1.00  0.00    -0.361 N 
ATOM    134  H   UNL A   1      32.490  23.277  21.296  1.00  0.00     0.082 H 
ATOM    135  C   UNL A   1      34.178  22.515  23.946  1.00  0.00     0.046 A 
ATOM    136  C   UNL A   1      35.067  24.491  24.970  1.00  0.00    -0.053 A 
ATOM    137  H   UNL A   1      33.162  21.239  22.628  1.00  0.00     0.166 HD
ATOM    138  C   UNL A   1      34.748  21.696  24.931  1.00  0.00    -0.038 A 
ATOM    139  C   UNL A   1      35.651  23.688  25.960  1.00  0.00    -0.062 A 
ATOM    140  H   UNL A   1      35.186  25.515  25.006  1.00  0.00     0.063 H 
ATOM    141  C   UNL A   1      35.492  22.308  25.939  1.00  0.00    -0.060 A 
ATOM    142  H   UNL A   1      34.620  20.672  24.910  1.00  0.00     0.064 H 
ATOM    143  H   UNL A   1      36.206  24.126  26.711  1.00  0.00     0.062 H 
ATOM    144  H   UNL A   1      35.927  21.732  26.675  1.00  0.00     0.062 H 
ENDBRANCH 127 130
ENDBRANCH 110 127
ENDBRANCH 107 110
ENDBRANCH 104 106
BRANCH 104 145
ATOM    145  C   UNL A   1      31.512  29.237  25.011  1.00  0.00     0.072 C 
ATOM    146  H   UNL A   1      31.131  29.465  25.985  1.00  0.00     0.059 H 
ATOM    147  H   UNL A   1      31.412  28.197  24.783  1.00  0.00     0.059 H 
BRANCH 145 148
ATOM    148  O   UNL A   1      30.763  29.967  24.046  1.00  0.00    -0.394 OA
ATOM    149  H   UNL A   1      30.827  30.916  24.236  1.00  0.00     0.210 HD
ENDBRANCH 145 148
ENDBRANCH 104 145
ENDBRANCH 101 104
ENDBRANCH  97 100
ENDBRANCH  94  97
ENDBRANCH   1  94
TORSDOF 21
ENDMDL
MODEL 7
REMARK VINA RESULT:     -12.1      1.312      7.314
REMARK SMILES O=C(NCCCCCCNC(=O)[C@H](CO)NC(=O)[C@H](Cc1c[nH]c2ccccc12)NC(=O)c1ccc(F)cc1)c1ccc(-c2c3nc(c(-c4c(F)c(F)c(F)c(F)c4F)c4ccc([nH]4)c(-c4c(F)c(F)c(F)c(F)c4F)c4nc(c(-c5c(F)c(F)c(F)c(F)c5F)c5ccc2[nH]5)C=C4)C=C3)cc1
REMARK SMILES IDX 7 1 6 4 5 7 4 10 3 13 1 14 2 15 40 17 41 18 102 19 42 20
REMARK SMILES IDX 101 22 43 24 44 27 45 28 95 29 46 30 100 31 94 32 96 33
REMARK SMILES IDX 47 34 99 35 93 37 92 39 48 41 80 44 60 45 79 46 61 47 64 48
REMARK SMILES IDX 78 49 97 50 62 51 63 53 77 55 98 56 65 59 49 61 50 62 58 63
REMARK SMILES IDX 51 64 52 65 56 66 59 67 53 68 54 69 57 70 55 71 81 72 82 73
REMARK SMILES IDX 90 74 83 75 84 76 88 77 91 78 85 79 86 80 89 81 87 82 66 83
REMARK SMILES IDX 67 84 75 85 68 86 69 87 73 88 76 89 70 90 71 91 74 92 72 93
REMARK SMILES IDX 8 94 9 97 10 100 11 101 12 103 13 104 16 106 17 107 18 109
REMARK SMILES IDX 19 110 30 112 31 113 32 115 33 116 34 117 39 118 35 119
REMARK SMILES IDX 38 121 36 123 37 126 20 127 21 130 22 131 29 132 23 133
REMARK SMILES IDX 24 135 28 136 25 138 27 139 26 141 14 145 15 148
REMARK H PARENT 7 2 7 3 6 5 6 6 5 8 5 9 4 11 4 12 3 16 41 21 102 23 42 25
REMARK H PARENT 101 26 100 36 94 38 96 40 99 42 93 43 61 52 64 54 97 57 62 58
REMARK H PARENT 98 60 8 95 8 96 9 98 9 99 10 102 13 105 16 108 19 111 30 114
REMARK H PARENT 34 120 39 122 35 124 38 125 20 128 20 129 22 134 23 137 28 140
REMARK H PARENT 25 142 27 143 26 144 14 146 14 147 15 149
REMARK Flexibility Score: inf
ROOT
ATOM      1  C   UNL A   1      32.877  30.064  26.378  1.00  0.00    -0.052 C 
ATOM      2  H   UNL A   1      33.205  30.470  27.312  1.00  0.00     0.027 H 
ATOM      3  H   UNL A   1      33.555  30.215  25.565  1.00  0.00     0.027 H 
ENDROOT
BRANCH   1   4
ATOM      4  C   UNL A   1      31.594  30.798  25.977  1.00  0.00    -0.052 C 
ATOM      5  H   UNL A   1      31.636  30.976  24.923  1.00  0.00     0.027 H 
ATOM      6  H   UNL A   1      30.792  30.162  26.287  1.00  0.00     0.027 H 
BRANCH   4   7
ATOM      7  C   UNL A   1      31.341  32.138  26.665  1.00  0.00    -0.036 C 
ATOM      8  H   UNL A   1      30.973  32.821  25.928  1.00  0.00     0.028 H 
ATOM      9  H   UNL A   1      30.646  31.933  27.453  1.00  0.00     0.028 H 
BRANCH   7  10
ATOM     10  C   UNL A   1      32.547  32.780  27.335  1.00  0.00     0.018 C 
ATOM     11  H   UNL A   1      32.752  32.250  28.241  1.00  0.00     0.049 H 
ATOM     12  H   UNL A   1      33.355  32.727  26.637  1.00  0.00     0.049 H 
BRANCH  10  13
ATOM     13  N   UNL A   1      32.358  34.183  27.659  1.00  0.00    -0.352 N 
ATOM     14  O   UNL A   1      32.715  36.117  28.772  1.00  0.00    -0.269 OA
ATOM     15  C   UNL A   1      33.050  34.955  28.560  1.00  0.00     0.251 C 
ATOM     16  H   UNL A   1      31.639  34.641  27.167  1.00  0.00     0.163 HD
BRANCH  15  17
ATOM     17  C   UNL A   1      34.177  34.362  29.313  1.00  0.00     0.039 A 
ATOM     18  C   UNL A   1      35.492  34.511  28.867  1.00  0.00    -0.049 A 
ATOM     19  C   UNL A   1      33.904  33.618  30.464  1.00  0.00    -0.049 A 
ATOM     20  C   UNL A   1      36.511  33.789  29.479  1.00  0.00    -0.053 A 
ATOM     21  H   UNL A   1      35.706  35.153  28.087  1.00  0.00     0.063 H 
ATOM     22  C   UNL A   1      34.944  32.964  31.130  1.00  0.00    -0.053 A 
ATOM     23  H   UNL A   1      32.938  33.552  30.820  1.00  0.00     0.063 H 
ATOM     24  C   UNL A   1      36.249  33.012  30.620  1.00  0.00    -0.014 A 
ATOM     25  H   UNL A   1      37.467  33.825  29.091  1.00  0.00     0.063 H 
ATOM     26  H   UNL A   1      34.750  32.443  32.000  1.00  0.00     0.063 H 
BRANCH  24  27
ATOM     27  C   UNL A   1      37.370  32.296  31.280  1.00  0.00     0.031 A 
ATOM     28  C   UNL A   1      38.141  31.224  30.564  1.00  0.00     0.074 A 
ATOM     29  C   UNL A   1      37.719  32.659  32.529  1.00  0.00     0.049 A 
ATOM     30  N   UNL A   1      39.172  30.532  30.982  1.00  0.00    -0.248 NA
ATOM     31  C   UNL A   1      37.699  30.876  29.204  1.00  0.00    -0.034 C 
ATOM     32  C   UNL A   1      37.036  33.680  33.326  1.00  0.00    -0.036 A 
ATOM     33  N   UNL A   1      38.745  32.238  33.335  1.00  0.00    -0.354 N 
ATOM     34  C   UNL A   1      39.490  29.659  29.950  1.00  0.00     0.074 A 
ATOM     35  C   UNL A   1      38.529  29.890  28.892  1.00  0.00    -0.034 C 
ATOM     36  H   UNL A   1      36.942  31.293  28.641  1.00  0.00     0.065 H 
ATOM     37  C   UNL A   1      37.697  33.852  34.478  1.00  0.00    -0.036 A 
ATOM     38  H   UNL A   1      36.183  34.186  33.044  1.00  0.00     0.065 H 
ATOM     39  C   UNL A   1      38.814  32.914  34.528  1.00  0.00     0.049 A 
ATOM     40  H   UNL A   1      39.371  31.521  33.083  1.00  0.00     0.167 HD
ATOM     41  C   UNL A   1      40.499  28.756  29.890  1.00  0.00     0.037 A 
ATOM     42  H   UNL A   1      38.494  29.355  28.011  1.00  0.00     0.065 H 
ATOM     43  H   UNL A   1      37.457  34.536  35.212  1.00  0.00     0.065 H 
ATOM     44  C   UNL A   1      39.678  32.791  35.553  1.00  0.00     0.037 A 
ATOM     45  C   UNL A   1      41.462  28.544  30.939  1.00  0.00     0.049 A 
ATOM     46  C   UNL A   1      40.781  31.780  35.464  1.00  0.00     0.074 A 
ATOM     47  C   UNL A   1      42.530  27.662  30.965  1.00  0.00    -0.036 A 
ATOM     48  N   UNL A   1      41.478  29.223  32.148  1.00  0.00    -0.354 N 
ATOM     49  N   UNL A   1      41.074  30.966  34.479  1.00  0.00    -0.248 NA
ATOM     50  C   UNL A   1      41.672  31.666  36.626  1.00  0.00    -0.034 C 
ATOM     51  C   UNL A   1      43.168  27.781  32.203  1.00  0.00    -0.036 A 
ATOM     52  H   UNL A   1      42.806  27.025  30.201  1.00  0.00     0.065 H 
ATOM     53  C   UNL A   1      42.528  28.770  32.933  1.00  0.00     0.049 A 
ATOM     54  H   UNL A   1      40.838  29.923  32.412  1.00  0.00     0.167 HD
ATOM     55  C   UNL A   1      42.183  30.247  34.898  1.00  0.00     0.074 A 
ATOM     56  C   UNL A   1      42.525  30.736  36.218  1.00  0.00    -0.034 C 
ATOM     57  H   UNL A   1      41.641  32.175  37.523  1.00  0.00     0.065 H 
ATOM     58  H   UNL A   1      43.979  27.226  32.520  1.00  0.00     0.065 H 
ATOM     59  C   UNL A   1      42.852  29.265  34.247  1.00  0.00     0.037 A 
ATOM     60  H   UNL A   1      43.331  30.404  36.771  1.00  0.00     0.065 H 
BRANCH  41  61
ATOM     61  C   UNL A   1      40.615  27.919  28.650  1.00  0.00     0.064 A 
ATOM     62  C   UNL A   1      41.363  28.372  27.552  1.00  0.00     0.173 A 
ATOM     63  C   UNL A   1      39.934  26.700  28.521  1.00  0.00     0.173 A 
ATOM     64  F   UNL A   1      42.027  29.536  27.621  1.00  0.00    -0.203 F 
ATOM     65  C   UNL A   1      41.419  27.638  26.370  1.00  0.00     0.198 A 
ATOM     66  C   UNL A   1      40.012  25.956  27.345  1.00  0.00     0.198 A 
ATOM     67  F   UNL A   1      39.215  26.217  29.545  1.00  0.00    -0.203 F 
ATOM     68  F   UNL A   1      42.119  28.104  25.326  1.00  0.00    -0.200 F 
ATOM     69  C   UNL A   1      40.748  26.429  26.269  1.00  0.00     0.200 A 
ATOM     70  F   UNL A   1      39.382  24.777  27.257  1.00  0.00    -0.200 F 
ATOM     71  F   UNL A   1      40.811  25.718  25.134  1.00  0.00    -0.200 F 
ENDBRANCH  41  61
BRANCH  44  72
ATOM     72  C   UNL A   1      39.527  33.678  36.734  1.00  0.00     0.064 A 
ATOM     73  C   UNL A   1      38.751  33.295  37.836  1.00  0.00     0.173 A 
ATOM     74  C   UNL A   1      40.103  34.955  36.747  1.00  0.00     0.173 A 
ATOM     75  F   UNL A   1      38.172  32.086  37.862  1.00  0.00    -0.203 F 
ATOM     76  C   UNL A   1      38.530  34.170  38.897  1.00  0.00     0.198 A 
ATOM     77  C   UNL A   1      39.902  35.819  37.822  1.00  0.00     0.198 A 
ATOM     78  F   UNL A   1      40.866  35.357  35.721  1.00  0.00    -0.203 F 
ATOM     79  F   UNL A   1      37.744  33.798  39.917  1.00  0.00    -0.200 F 
ATOM     80  C   UNL A   1      39.107  35.430  38.890  1.00  0.00     0.200 A 
ATOM     81  F   UNL A   1      40.475  37.031  37.819  1.00  0.00    -0.200 F 
ATOM     82  F   UNL A   1      38.894  36.272  39.910  1.00  0.00    -0.200 F 
ENDBRANCH  44  72
BRANCH  59  83
ATOM     83  C   UNL A   1      44.031  28.657  34.946  1.00  0.00     0.064 A 
ATOM     84  C   UNL A   1      43.866  27.537  35.776  1.00  0.00     0.173 A 
ATOM     85  C   UNL A   1      45.312  29.214  34.838  1.00  0.00     0.173 A 
ATOM     86  F   UNL A   1      42.658  26.972  35.915  1.00  0.00    -0.203 F 
ATOM     87  C   UNL A   1      44.942  27.005  36.480  1.00  0.00     0.198 A 
ATOM     88  C   UNL A   1      46.391  28.664  35.525  1.00  0.00     0.198 A 
ATOM     89  F   UNL A   1      45.522  30.276  34.045  1.00  0.00    -0.203 F 
ATOM     90  F   UNL A   1      44.756  25.950  37.286  1.00  0.00    -0.200 F 
ATOM     91  C   UNL A   1      46.203  27.566  36.352  1.00  0.00     0.200 A 
ATOM     92  F   UNL A   1      47.614  29.192  35.382  1.00  0.00    -0.200 F 
ATOM     93  F   UNL A   1      47.241  27.044  37.020  1.00  0.00    -0.200 F 
ENDBRANCH  59  83
ENDBRANCH  24  27
ENDBRANCH  15  17
ENDBRANCH  10  13
ENDBRANCH   7  10
ENDBRANCH   4   7
ENDBRANCH   1   4
BRANCH   1  94
ATOM     94  C   UNL A   1      32.772  28.544  26.542  1.00  0.00    -0.036 C 
ATOM     95  H   UNL A   1      32.673  28.331  27.586  1.00  0.00     0.028 H 
ATOM     96  H   UNL A   1      33.660  28.140  26.102  1.00  0.00     0.028 H 
BRANCH  94  97
ATOM     97  C   UNL A   1      31.608  27.885  25.815  1.00  0.00     0.017 C 
ATOM     98  H   UNL A   1      30.715  28.437  26.026  1.00  0.00     0.049 H 
ATOM     99  H   UNL A   1      31.534  26.876  26.163  1.00  0.00     0.049 H 
BRANCH  97 100
ATOM    100  N   UNL A   1      31.803  27.847  24.384  1.00  0.00    -0.354 N 
ATOM    101  C   UNL A   1      31.111  27.199  23.410  1.00  0.00     0.244 C 
ATOM    102  H   UNL A   1      32.566  28.379  24.060  1.00  0.00     0.163 HD
ATOM    103  O   UNL A   1      31.544  27.309  22.259  1.00  0.00    -0.273 OA
BRANCH 101 104
ATOM    104  C   UNL A   1      29.903  26.298  23.712  1.00  0.00     0.131 C 
ATOM    105  H   UNL A   1      29.760  25.679  22.852  1.00  0.00     0.066 H 
BRANCH 104 106
ATOM    106  N   UNL A   1      30.196  25.460  24.877  1.00  0.00    -0.340 N 
ATOM    107  C   UNL A   1      30.945  24.337  25.044  1.00  0.00     0.243 C 
ATOM    108  H   UNL A   1      29.763  25.772  25.704  1.00  0.00     0.164 HD
ATOM    109  O   UNL A   1      30.923  23.884  26.195  1.00  0.00    -0.273 OA
BRANCH 107 110
ATOM    110  C   UNL A   1      31.583  23.535  23.876  1.00  0.00     0.112 C 
ATOM    111  H   UNL A   1      30.737  23.286  23.270  1.00  0.00     0.064 H 
BRANCH 110 112
ATOM    112  N   UNL A   1      32.440  24.255  22.934  1.00  0.00    -0.340 N 
ATOM    113  C   UNL A   1      33.775  24.563  22.907  1.00  0.00     0.251 C 
ATOM    114  H   UNL A   1      31.951  24.589  22.147  1.00  0.00     0.164 HD
ATOM    115  O   UNL A   1      34.128  25.429  22.104  1.00  0.00    -0.269 OA
BRANCH 113 116
ATOM    116  C   UNL A   1      34.830  23.898  23.732  1.00  0.00     0.040 A 
ATOM    117  C   UNL A   1      35.685  22.886  23.278  1.00  0.00    -0.047 A 
ATOM    118  C   UNL A   1      35.069  24.440  25.009  1.00  0.00    -0.047 A 
ATOM    119  C   UNL A   1      36.744  22.429  24.071  1.00  0.00    -0.026 A 
ATOM    120  H   UNL A   1      35.532  22.472  22.345  1.00  0.00     0.063 H 
ATOM    121  C   UNL A   1      36.128  23.988  25.802  1.00  0.00    -0.026 A 
ATOM    122  H   UNL A   1      34.452  25.186  25.367  1.00  0.00     0.063 H 
ATOM    123  C   UNL A   1      36.959  22.986  25.322  1.00  0.00     0.123 A 
ATOM    124  H   UNL A   1      37.363  21.679  23.725  1.00  0.00     0.065 H 
ATOM    125  H   UNL A   1      36.290  24.395  26.737  1.00  0.00     0.065 H 
ATOM    126  F   UNL A   1      37.991  22.566  26.064  1.00  0.00    -0.207 F 
ENDBRANCH 113 116
ENDBRANCH 110 112
BRANCH 110 127
ATOM    127  C   UNL A   1      32.277  22.259  24.402  1.00  0.00     0.004 C 
ATOM    128  H   UNL A   1      31.796  22.006  25.324  1.00  0.00     0.034 H 
ATOM    129  H   UNL A   1      33.308  22.542  24.443  1.00  0.00     0.034 H 
BRANCH 127 130
ATOM    130  C   UNL A   1      32.299  21.001  23.565  1.00  0.00    -0.020 A 
ATOM    131  C   UNL A   1      31.835  20.989  22.259  1.00  0.00     0.005 A 
ATOM    132  C   UNL A   1      32.706  19.649  23.857  1.00  0.00     0.003 A 
ATOM    133  N   UNL A   1      31.948  19.728  21.756  1.00  0.00    -0.361 N 
ATOM    134  H   UNL A   1      31.461  21.806  21.749  1.00  0.00     0.082 H 
ATOM    135  C   UNL A   1      32.477  18.889  22.703  1.00  0.00     0.046 A 
ATOM    136  C   UNL A   1      33.252  18.970  24.969  1.00  0.00    -0.053 A 
ATOM    137  H   UNL A   1      31.689  19.459  20.845  1.00  0.00     0.166 HD
ATOM    138  C   UNL A   1      32.763  17.520  22.610  1.00  0.00    -0.038 A 
ATOM    139  C   UNL A   1      33.553  17.604  24.892  1.00  0.00    -0.062 A 
ATOM    140  H   UNL A   1      33.430  19.485  25.846  1.00  0.00     0.063 H 
ATOM    141  C   UNL A   1      33.310  16.889  23.727  1.00  0.00    -0.060 A 
ATOM    142  H   UNL A   1      32.574  16.995  21.741  1.00  0.00     0.064 H 
ATOM    143  H   UNL A   1      33.959  17.123  25.710  1.00  0.00     0.062 H 
ATOM    144  H   UNL A   1      33.534  15.883  23.687  1.00  0.00     0.062 H 
ENDBRANCH 127 130
ENDBRANCH 110 127
ENDBRANCH 107 110
ENDBRANCH 104 106
BRANCH 104 145
ATOM    145  C   UNL A   1      28.563  27.039  23.851  1.00  0.00     0.072 C 
ATOM    146  H   UNL A   1      28.341  27.524  22.923  1.00  0.00     0.059 H 
ATOM    147  H   UNL A   1      28.661  27.743  24.650  1.00  0.00     0.059 H 
BRANCH 145 148
ATOM    148  O   UNL A   1      27.489  26.162  24.175  1.00  0.00    -0.394 OA
ATOM    149  H   UNL A   1      27.841  25.355  24.580  1.00  0.00     0.210 HD
ENDBRANCH 145 148
ENDBRANCH 104 145
ENDBRANCH 101 104
ENDBRANCH  97 100
ENDBRANCH  94  97
ENDBRANCH   1  94
TORSDOF 21
ENDMDL
MODEL 8
REMARK VINA RESULT:     -12.0      5.048      9.498
REMARK SMILES O=C(NCCCCCCNC(=O)[C@H](CO)NC(=O)[C@H](Cc1c[nH]c2ccccc12)NC(=O)c1ccc(F)cc1)c1ccc(-c2c3nc(c(-c4c(F)c(F)c(F)c(F)c4F)c4ccc([nH]4)c(-c4c(F)c(F)c(F)c(F)c4F)c4nc(c(-c5c(F)c(F)c(F)c(F)c5F)c5ccc2[nH]5)C=C4)C=C3)cc1
REMARK SMILES IDX 7 1 6 4 5 7 4 10 3 13 1 14 2 15 40 17 41 18 102 19 42 20
REMARK SMILES IDX 101 22 43 24 44 27 45 28 95 29 46 30 100 31 94 32 96 33
REMARK SMILES IDX 47 34 99 35 93 37 92 39 48 41 80 44 60 45 79 46 61 47 64 48
REMARK SMILES IDX 78 49 97 50 62 51 63 53 77 55 98 56 65 59 49 61 50 62 58 63
REMARK SMILES IDX 51 64 52 65 56 66 59 67 53 68 54 69 57 70 55 71 81 72 82 73
REMARK SMILES IDX 90 74 83 75 84 76 88 77 91 78 85 79 86 80 89 81 87 82 66 83
REMARK SMILES IDX 67 84 75 85 68 86 69 87 73 88 76 89 70 90 71 91 74 92 72 93
REMARK SMILES IDX 8 94 9 97 10 100 11 101 12 103 13 104 16 106 17 107 18 109
REMARK SMILES IDX 19 110 30 112 31 113 32 115 33 116 34 117 39 118 35 119
REMARK SMILES IDX 38 121 36 123 37 126 20 127 21 130 22 131 29 132 23 133
REMARK SMILES IDX 24 135 28 136 25 138 27 139 26 141 14 145 15 148
REMARK H PARENT 7 2 7 3 6 5 6 6 5 8 5 9 4 11 4 12 3 16 41 21 102 23 42 25
REMARK H PARENT 101 26 100 36 94 38 96 40 99 42 93 43 61 52 64 54 97 57 62 58
REMARK H PARENT 98 60 8 95 8 96 9 98 9 99 10 102 13 105 16 108 19 111 30 114
REMARK H PARENT 34 120 39 122 35 124 38 125 20 128 20 129 22 134 23 137 28 140
REMARK H PARENT 25 142 27 143 26 144 14 146 14 147 15 149
REMARK Flexibility Score: inf
ROOT
ATOM      1  C   UNL A   1      36.025  21.088  25.745  1.00  0.00    -0.052 C 
ATOM      2  H   UNL A   1      36.246  20.403  26.536  1.00  0.00     0.027 H 
ATOM      3  H   UNL A   1      35.315  20.728  25.030  1.00  0.00     0.027 H 
ENDROOT
BRANCH   1   4
ATOM      4  C   UNL A   1      37.316  21.317  24.953  1.00  0.00    -0.052 C 
ATOM      5  H   UNL A   1      37.046  21.500  23.934  1.00  0.00     0.027 H 
ATOM      6  H   UNL A   1      37.805  22.137  25.435  1.00  0.00     0.027 H 
BRANCH   4   7
ATOM      7  C   UNL A   1      38.328  20.173  24.968  1.00  0.00    -0.036 C 
ATOM      8  H   UNL A   1      37.784  19.254  25.034  1.00  0.00     0.028 H 
ATOM      9  H   UNL A   1      38.898  20.278  24.068  1.00  0.00     0.028 H 
BRANCH   7  10
ATOM     10  C   UNL A   1      39.341  20.197  26.104  1.00  0.00     0.018 C 
ATOM     11  H   UNL A   1      39.790  21.167  26.136  1.00  0.00     0.049 H 
ATOM     12  H   UNL A   1      38.808  19.962  27.001  1.00  0.00     0.049 H 
BRANCH  10  13
ATOM     13  N   UNL A   1      40.396  19.209  25.967  1.00  0.00    -0.352 N 
ATOM     14  O   UNL A   1      42.522  18.450  25.875  1.00  0.00    -0.269 OA
ATOM     15  C   UNL A   1      41.753  19.380  26.097  1.00  0.00     0.251 C 
ATOM     16  H   UNL A   1      40.099  18.295  25.752  1.00  0.00     0.163 HD
BRANCH  15  17
ATOM     17  C   UNL A   1      42.287  20.710  26.462  1.00  0.00     0.039 A 
ATOM     18  C   UNL A   1      42.341  21.117  27.797  1.00  0.00    -0.049 A 
ATOM     19  C   UNL A   1      42.708  21.572  25.445  1.00  0.00    -0.049 A 
ATOM     20  C   UNL A   1      42.666  22.435  28.100  1.00  0.00    -0.053 A 
ATOM     21  H   UNL A   1      42.142  20.444  28.553  1.00  0.00     0.063 H 
ATOM     22  C   UNL A   1      43.118  22.869  25.761  1.00  0.00    -0.053 A 
ATOM     23  H   UNL A   1      42.715  21.250  24.464  1.00  0.00     0.063 H 
ATOM     24  C   UNL A   1      43.062  23.324  27.087  1.00  0.00    -0.014 A 
ATOM     25  H   UNL A   1      42.615  22.762  29.078  1.00  0.00     0.063 H 
ATOM     26  H   UNL A   1      43.462  23.495  25.016  1.00  0.00     0.063 H 
BRANCH  24  27
ATOM     27  C   UNL A   1      43.453  24.709  27.451  1.00  0.00     0.031 A 
ATOM     28  C   UNL A   1      42.424  25.735  27.835  1.00  0.00     0.074 A 
ATOM     29  C   UNL A   1      44.762  25.023  27.479  1.00  0.00     0.049 A 
ATOM     30  N   UNL A   1      42.601  26.974  28.220  1.00  0.00    -0.248 NA
ATOM     31  C   UNL A   1      41.014  25.323  27.776  1.00  0.00    -0.034 C 
ATOM     32  C   UNL A   1      45.850  24.111  27.118  1.00  0.00    -0.036 A 
ATOM     33  N   UNL A   1      45.405  26.176  27.853  1.00  0.00    -0.354 N 
ATOM     34  C   UNL A   1      41.331  27.494  28.430  1.00  0.00     0.074 A 
ATOM     35  C   UNL A   1      40.388  26.444  28.109  1.00  0.00    -0.034 C 
ATOM     36  H   UNL A   1      40.615  24.401  27.539  1.00  0.00     0.065 H 
ATOM     37  C   UNL A   1      47.023  24.715  27.347  1.00  0.00    -0.036 A 
ATOM     38  H   UNL A   1      45.730  23.156  26.747  1.00  0.00     0.065 H 
ATOM     39  C   UNL A   1      46.772  26.075  27.814  1.00  0.00     0.049 A 
ATOM     40  H   UNL A   1      44.930  26.995  28.123  1.00  0.00     0.167 HD
ATOM     41  C   UNL A   1      40.987  28.731  28.863  1.00  0.00     0.037 A 
ATOM     42  H   UNL A   1      39.363  26.554  28.134  1.00  0.00     0.065 H 
ATOM     43  H   UNL A   1      47.953  24.289  27.215  1.00  0.00     0.065 H 
ATOM     44  C   UNL A   1      47.724  26.977  28.117  1.00  0.00     0.037 A 
ATOM     45  C   UNL A   1      41.931  29.766  29.198  1.00  0.00     0.049 A 
ATOM     46  C   UNL A   1      47.316  28.341  28.588  1.00  0.00     0.074 A 
ATOM     47  C   UNL A   1      41.679  31.048  29.659  1.00  0.00    -0.036 A 
ATOM     48  N   UNL A   1      43.309  29.638  29.112  1.00  0.00    -0.354 N 
ATOM     49  N   UNL A   1      46.111  28.817  28.788  1.00  0.00    -0.248 NA
ATOM     50  C   UNL A   1      48.396  29.296  28.870  1.00  0.00    -0.034 C 
ATOM     51  C   UNL A   1      42.902  31.706  29.816  1.00  0.00    -0.036 A 
ATOM     52  H   UNL A   1      40.747  31.448  29.853  1.00  0.00     0.065 H 
ATOM     53  C   UNL A   1      43.920  30.822  29.497  1.00  0.00     0.049 A 
ATOM     54  H   UNL A   1      43.784  28.828  28.819  1.00  0.00     0.167 HD
ATOM     55  C   UNL A   1      46.285  30.121  29.224  1.00  0.00     0.074 A 
ATOM     56  C   UNL A   1      47.714  30.356  29.281  1.00  0.00    -0.034 C 
ATOM     57  H   UNL A   1      49.416  29.173  28.773  1.00  0.00     0.065 H 
ATOM     58  H   UNL A   1      43.026  32.686  30.118  1.00  0.00     0.065 H 
ATOM     59  C   UNL A   1      45.343  31.041  29.543  1.00  0.00     0.037 A 
ATOM     60  H   UNL A   1      48.146  31.238  29.600  1.00  0.00     0.065 H 
BRANCH  41  61
ATOM     61  C   UNL A   1      39.525  29.044  28.995  1.00  0.00     0.064 A 
ATOM     62  C   UNL A   1      38.880  28.923  30.236  1.00  0.00     0.173 A 
ATOM     63  C   UNL A   1      38.747  29.400  27.884  1.00  0.00     0.173 A 
ATOM     64  F   UNL A   1      39.577  28.578  31.330  1.00  0.00    -0.203 F 
ATOM     65  C   UNL A   1      37.510  29.141  30.357  1.00  0.00     0.198 A 
ATOM     66  C   UNL A   1      37.381  29.641  28.014  1.00  0.00     0.198 A 
ATOM     67  F   UNL A   1      39.317  29.540  26.678  1.00  0.00    -0.203 F 
ATOM     68  F   UNL A   1      36.912  28.994  31.548  1.00  0.00    -0.200 F 
ATOM     69  C   UNL A   1      36.762  29.503  29.248  1.00  0.00     0.200 A 
ATOM     70  F   UNL A   1      36.664  30.014  26.945  1.00  0.00    -0.200 F 
ATOM     71  F   UNL A   1      35.445  29.723  29.367  1.00  0.00    -0.200 F 
ENDBRANCH  41  61
BRANCH  44  72
ATOM     72  C   UNL A   1      49.152  26.588  28.000  1.00  0.00     0.064 A 
ATOM     73  C   UNL A   1      49.917  26.279  29.133  1.00  0.00     0.173 A 
ATOM     74  C   UNL A   1      49.793  26.588  26.754  1.00  0.00     0.173 A 
ATOM     75  F   UNL A   1      49.347  26.277  30.347  1.00  0.00    -0.203 F 
ATOM     76  C   UNL A   1      51.280  26.014  29.028  1.00  0.00     0.198 A 
ATOM     77  C   UNL A   1      51.152  26.297  26.649  1.00  0.00     0.198 A 
ATOM     78  F   UNL A   1      49.097  26.863  25.642  1.00  0.00    -0.203 F 
ATOM     79  F   UNL A   1      51.999  25.769  30.132  1.00  0.00    -0.200 F 
ATOM     80  C   UNL A   1      51.896  26.021  27.787  1.00  0.00     0.200 A 
ATOM     81  F   UNL A   1      51.740  26.288  25.445  1.00  0.00    -0.200 F 
ATOM     82  F   UNL A   1      53.207  25.766  27.686  1.00  0.00    -0.200 F 
ENDBRANCH  44  72
BRANCH  59  83
ATOM     83  C   UNL A   1      45.824  32.389  29.992  1.00  0.00     0.064 A 
ATOM     84  C   UNL A   1      46.053  32.646  31.353  1.00  0.00     0.173 A 
ATOM     85  C   UNL A   1      46.003  33.441  29.083  1.00  0.00     0.173 A 
ATOM     86  F   UNL A   1      45.889  31.672  32.261  1.00  0.00    -0.203 F 
ATOM     87  C   UNL A   1      46.436  33.911  31.786  1.00  0.00     0.198 A 
ATOM     88  C   UNL A   1      46.410  34.699  29.518  1.00  0.00     0.198 A 
ATOM     89  F   UNL A   1      45.810  33.239  27.771  1.00  0.00    -0.203 F 
ATOM     90  F   UNL A   1      46.627  34.140  33.093  1.00  0.00    -0.200 F 
ATOM     91  C   UNL A   1      46.618  34.936  30.869  1.00  0.00     0.200 A 
ATOM     92  F   UNL A   1      46.608  35.682  28.629  1.00  0.00    -0.200 F 
ATOM     93  F   UNL A   1      47.000  36.150  31.287  1.00  0.00    -0.200 F 
ENDBRANCH  59  83
ENDBRANCH  24  27
ENDBRANCH  15  17
ENDBRANCH  10  13
ENDBRANCH   7  10
ENDBRANCH   4   7
ENDBRANCH   1   4
BRANCH   1  94
ATOM     94  C   UNL A   1      35.377  22.329  26.370  1.00  0.00    -0.036 C 
ATOM     95  H   UNL A   1      35.709  23.186  25.821  1.00  0.00     0.028 H 
ATOM     96  H   UNL A   1      35.677  22.330  27.396  1.00  0.00     0.028 H 
BRANCH  94  97
ATOM     97  C   UNL A   1      33.854  22.338  26.379  1.00  0.00     0.017 C 
ATOM     98  H   UNL A   1      33.510  22.988  25.602  1.00  0.00     0.049 H 
ATOM     99  H   UNL A   1      33.536  22.679  27.342  1.00  0.00     0.049 H 
BRANCH  97 100
ATOM    100  N   UNL A   1      33.295  21.023  26.167  1.00  0.00    -0.354 N 
ATOM    101  C   UNL A   1      32.726  20.467  25.064  1.00  0.00     0.244 C 
ATOM    102  H   UNL A   1      33.331  20.431  26.952  1.00  0.00     0.163 HD
ATOM    103  O   UNL A   1      32.282  19.322  25.191  1.00  0.00    -0.273 OA
BRANCH 101 104
ATOM    104  C   UNL A   1      32.554  21.236  23.745  1.00  0.00     0.131 C 
ATOM    105  H   UNL A   1      31.816  21.989  23.924  1.00  0.00     0.066 H 
BRANCH 104 106
ATOM    106  N   UNL A   1      33.822  21.869  23.377  1.00  0.00    -0.340 N 
ATOM    107  C   UNL A   1      34.179  23.163  23.155  1.00  0.00     0.243 C 
ATOM    108  H   UNL A   1      34.563  21.231  23.268  1.00  0.00     0.164 HD
ATOM    109  O   UNL A   1      35.362  23.308  22.820  1.00  0.00    -0.273 OA
BRANCH 107 110
ATOM    110  C   UNL A   1      33.173  24.344  23.080  1.00  0.00     0.112 C 
ATOM    111  H   UNL A   1      33.751  25.171  23.436  1.00  0.00     0.064 H 
BRANCH 110 112
ATOM    112  N   UNL A   1      32.750  24.806  21.758  1.00  0.00    -0.340 N 
ATOM    113  C   UNL A   1      31.965  25.839  21.317  1.00  0.00     0.251 C 
ATOM    114  H   UNL A   1      33.109  24.255  21.025  1.00  0.00     0.164 HD
ATOM    115  O   UNL A   1      31.577  25.781  20.149  1.00  0.00    -0.269 OA
BRANCH 113 116
ATOM    116  C   UNL A   1      31.592  27.042  22.123  1.00  0.00     0.040 A 
ATOM    117  C   UNL A   1      30.339  27.260  22.707  1.00  0.00    -0.047 A 
ATOM    118  C   UNL A   1      32.630  27.941  22.433  1.00  0.00    -0.047 A 
ATOM    119  C   UNL A   1      30.125  28.340  23.572  1.00  0.00    -0.026 A 
ATOM    120  H   UNL A   1      29.561  26.615  22.497  1.00  0.00     0.063 H 
ATOM    121  C   UNL A   1      32.421  29.018  23.300  1.00  0.00    -0.026 A 
ATOM    122  H   UNL A   1      33.563  27.802  22.014  1.00  0.00     0.063 H 
ATOM    123  C   UNL A   1      31.168  29.206  23.865  1.00  0.00     0.123 A 
ATOM    124  H   UNL A   1      29.194  28.491  23.991  1.00  0.00     0.065 H 
ATOM    125  H   UNL A   1      33.193  29.670  23.517  1.00  0.00     0.065 H 
ATOM    126  F   UNL A   1      30.968  30.219  24.715  1.00  0.00    -0.207 F 
ENDBRANCH 113 116
ENDBRANCH 110 112
BRANCH 110 127
ATOM    127  C   UNL A   1      31.958  24.087  23.998  1.00  0.00     0.004 C 
ATOM    128  H   UNL A   1      32.132  23.148  24.482  1.00  0.00     0.034 H 
ATOM    129  H   UNL A   1      31.127  24.153  23.327  1.00  0.00     0.034 H 
BRANCH 127 130
ATOM    130  C   UNL A   1      31.599  25.074  25.085  1.00  0.00    -0.020 A 
ATOM    131  C   UNL A   1      30.344  25.084  25.672  1.00  0.00     0.005 A 
ATOM    132  C   UNL A   1      32.335  26.154  25.697  1.00  0.00     0.003 A 
ATOM    133  N   UNL A   1      30.289  26.086  26.594  1.00  0.00    -0.361 N 
ATOM    134  H   UNL A   1      29.572  24.436  25.446  1.00  0.00     0.082 H 
ATOM    135  C   UNL A   1      31.486  26.755  26.634  1.00  0.00     0.046 A 
ATOM    136  C   UNL A   1      33.633  26.697  25.571  1.00  0.00    -0.053 A 
ATOM    137  H   UNL A   1      29.505  26.298  27.151  1.00  0.00     0.166 HD
ATOM    138  C   UNL A   1      31.864  27.842  27.434  1.00  0.00    -0.038 A 
ATOM    139  C   UNL A   1      34.032  27.778  26.368  1.00  0.00    -0.062 A 
ATOM    140  H   UNL A   1      34.292  26.294  24.886  1.00  0.00     0.063 H 
ATOM    141  C   UNL A   1      33.157  28.343  27.287  1.00  0.00    -0.060 A 
ATOM    142  H   UNL A   1      31.205  28.259  28.110  1.00  0.00     0.064 H 
ATOM    143  H   UNL A   1      34.986  28.159  26.272  1.00  0.00     0.062 H 
ATOM    144  H   UNL A   1      33.465  29.140  27.864  1.00  0.00     0.062 H 
ENDBRANCH 127 130
ENDBRANCH 110 127
ENDBRANCH 107 110
ENDBRANCH 104 106
BRANCH 104 145
ATOM    145  C   UNL A   1      31.958  20.414  22.590  1.00  0.00     0.072 C 
ATOM    146  H   UNL A   1      31.182  19.788  22.979  1.00  0.00     0.059 H 
ATOM    147  H   UNL A   1      32.749  19.838  22.159  1.00  0.00     0.059 H 
BRANCH 145 148
ATOM    148  O   UNL A   1      31.410  21.235  21.565  1.00  0.00    -0.394 OA
ATOM    149  H   UNL A   1      30.629  20.803  21.187  1.00  0.00     0.210 HD
ENDBRANCH 145 148
ENDBRANCH 104 145
ENDBRANCH 101 104
ENDBRANCH  97 100
ENDBRANCH  94  97
ENDBRANCH   1  94
TORSDOF 21
ENDMDL
MODEL 9
REMARK VINA RESULT:     -11.9      1.458      2.782
REMARK SMILES O=C(NCCCCCCNC(=O)[C@H](CO)NC(=O)[C@H](Cc1c[nH]c2ccccc12)NC(=O)c1ccc(F)cc1)c1ccc(-c2c3nc(c(-c4c(F)c(F)c(F)c(F)c4F)c4ccc([nH]4)c(-c4c(F)c(F)c(F)c(F)c4F)c4nc(c(-c5c(F)c(F)c(F)c(F)c5F)c5ccc2[nH]5)C=C4)C=C3)cc1
REMARK SMILES IDX 7 1 6 4 5 7 4 10 3 13 1 14 2 15 40 17 41 18 102 19 42 20
REMARK SMILES IDX 101 22 43 24 44 27 45 28 95 29 46 30 100 31 94 32 96 33
REMARK SMILES IDX 47 34 99 35 93 37 92 39 48 41 80 44 60 45 79 46 61 47 64 48
REMARK SMILES IDX 78 49 97 50 62 51 63 53 77 55 98 56 65 59 49 61 50 62 58 63
REMARK SMILES IDX 51 64 52 65 56 66 59 67 53 68 54 69 57 70 55 71 81 72 82 73
REMARK SMILES IDX 90 74 83 75 84 76 88 77 91 78 85 79 86 80 89 81 87 82 66 83
REMARK SMILES IDX 67 84 75 85 68 86 69 87 73 88 76 89 70 90 71 91 74 92 72 93
REMARK SMILES IDX 8 94 9 97 10 100 11 101 12 103 13 104 16 106 17 107 18 109
REMARK SMILES IDX 19 110 30 112 31 113 32 115 33 116 34 117 39 118 35 119
REMARK SMILES IDX 38 121 36 123 37 126 20 127 21 130 22 131 29 132 23 133
REMARK SMILES IDX 24 135 28 136 25 138 27 139 26 141 14 145 15 148
REMARK H PARENT 7 2 7 3 6 5 6 6 5 8 5 9 4 11 4 12 3 16 41 21 102 23 42 25
REMARK H PARENT 101 26 100 36 94 38 96 40 99 42 93 43 61 52 64 54 97 57 62 58
REMARK H PARENT 98 60 8 95 8 96 9 98 9 99 10 102 13 105 16 108 19 111 30 114
REMARK H PARENT 34 120 39 122 35 124 38 125 20 128 20 129 22 134 23 137 28 140
REMARK H PARENT 25 142 27 143 26 144 14 146 14 147 15 149
REMARK Flexibility Score: inf
ROOT
ATOM      1  C   UNL A   1      31.819  29.605  27.077  1.00  0.00    -0.052 C 
ATOM      2  H   UNL A   1      30.850  29.158  27.144  1.00  0.00     0.027 H 
ATOM      3  H   UNL A   1      32.170  30.045  27.986  1.00  0.00     0.027 H 
ENDROOT
BRANCH   1   4
ATOM      4  C   UNL A   1      31.729  30.762  26.077  1.00  0.00    -0.052 C 
ATOM      5  H   UNL A   1      32.662  30.816  25.555  1.00  0.00     0.027 H 
ATOM      6  H   UNL A   1      30.888  30.536  25.454  1.00  0.00     0.027 H 
BRANCH   4   7
ATOM      7  C   UNL A   1      31.443  32.142  26.665  1.00  0.00    -0.036 C 
ATOM      8  H   UNL A   1      31.031  32.751  25.888  1.00  0.00     0.028 H 
ATOM      9  H   UNL A   1      30.778  31.975  27.486  1.00  0.00     0.028 H 
BRANCH   7  10
ATOM     10  C   UNL A   1      32.641  32.878  27.247  1.00  0.00     0.018 C 
ATOM     11  H   UNL A   1      32.996  32.329  28.093  1.00  0.00     0.049 H 
ATOM     12  H   UNL A   1      33.371  32.948  26.469  1.00  0.00     0.049 H 
BRANCH  10  13
ATOM     13  N   UNL A   1      32.345  34.233  27.672  1.00  0.00    -0.352 N 
ATOM     14  O   UNL A   1      32.570  36.110  28.910  1.00  0.00    -0.269 OA
ATOM     15  C   UNL A   1      32.995  34.999  28.610  1.00  0.00     0.251 C 
ATOM     16  H   UNL A   1      31.575  34.660  27.231  1.00  0.00     0.163 HD
BRANCH  15  17
ATOM     17  C   UNL A   1      34.189  34.455  29.293  1.00  0.00     0.039 A 
ATOM     18  C   UNL A   1      35.464  34.624  28.747  1.00  0.00    -0.049 A 
ATOM     19  C   UNL A   1      34.021  33.737  30.480  1.00  0.00    -0.049 A 
ATOM     20  C   UNL A   1      36.543  33.945  29.302  1.00  0.00    -0.053 A 
ATOM     21  H   UNL A   1      35.604  35.249  27.938  1.00  0.00     0.063 H 
ATOM     22  C   UNL A   1      35.123  33.129  31.085  1.00  0.00    -0.053 A 
ATOM     23  H   UNL A   1      33.085  33.658  30.908  1.00  0.00     0.063 H 
ATOM     24  C   UNL A   1      36.386  33.194  30.479  1.00  0.00    -0.014 A 
ATOM     25  H   UNL A   1      37.467  33.994  28.844  1.00  0.00     0.063 H 
ATOM     26  H   UNL A   1      35.007  32.628  31.980  1.00  0.00     0.063 H 
BRANCH  24  27
ATOM     27  C   UNL A   1      37.571  32.525  31.074  1.00  0.00     0.031 A 
ATOM     28  C   UNL A   1      38.041  32.859  32.461  1.00  0.00     0.074 A 
ATOM     29  C   UNL A   1      38.195  31.568  30.361  1.00  0.00     0.049 A 
ATOM     30  N   UNL A   1      39.031  32.339  33.142  1.00  0.00    -0.248 NA
ATOM     31  C   UNL A   1      37.314  33.919  33.177  1.00  0.00    -0.034 C 
ATOM     32  C   UNL A   1      37.832  31.165  29.001  1.00  0.00    -0.036 A 
ATOM     33  N   UNL A   1      39.240  30.741  30.685  1.00  0.00    -0.354 N 
ATOM     34  C   UNL A   1      39.057  33.015  34.355  1.00  0.00     0.074 A 
ATOM     35  C   UNL A   1      37.999  34.002  34.309  1.00  0.00    -0.034 C 
ATOM     36  H   UNL A   1      36.486  34.456  32.876  1.00  0.00     0.065 H 
ATOM     37  C   UNL A   1      38.597  30.130  28.631  1.00  0.00    -0.036 A 
ATOM     38  H   UNL A   1      37.103  31.609  28.421  1.00  0.00     0.065 H 
ATOM     39  C   UNL A   1      39.543  29.833  29.702  1.00  0.00     0.049 A 
ATOM     40  H   UNL A   1      39.726  30.795  31.539  1.00  0.00     0.167 HD
ATOM     41  C   UNL A   1      39.884  32.820  35.411  1.00  0.00     0.037 A 
ATOM     42  H   UNL A   1      37.805  34.682  35.060  1.00  0.00     0.065 H 
ATOM     43  H   UNL A   1      38.528  29.624  27.734  1.00  0.00     0.065 H 
ATOM     44  C   UNL A   1      40.480  28.869  29.662  1.00  0.00     0.037 A 
ATOM     45  C   UNL A   1      40.924  31.824  35.456  1.00  0.00     0.049 A 
ATOM     46  C   UNL A   1      41.386  28.678  30.842  1.00  0.00     0.074 A 
ATOM     47  C   UNL A   1      41.803  31.541  36.488  1.00  0.00    -0.036 A 
ATOM     48  N   UNL A   1      41.223  30.945  34.426  1.00  0.00    -0.354 N 
ATOM     49  N   UNL A   1      41.395  29.320  31.984  1.00  0.00    -0.248 NA
ATOM     50  C   UNL A   1      42.413  27.634  30.728  1.00  0.00    -0.034 C 
ATOM     51  C   UNL A   1      42.657  30.517  36.068  1.00  0.00    -0.036 A 
ATOM     52  H   UNL A   1      41.824  32.006  37.409  1.00  0.00     0.065 H 
ATOM     53  C   UNL A   1      42.283  30.129  34.792  1.00  0.00     0.049 A 
ATOM     54  H   UNL A   1      40.754  30.907  33.561  1.00  0.00     0.167 HD
ATOM     55  C   UNL A   1      42.421  28.758  32.728  1.00  0.00     0.074 A 
ATOM     56  C   UNL A   1      42.999  27.706  31.916  1.00  0.00    -0.034 C 
ATOM     57  H   UNL A   1      42.622  27.010  29.933  1.00  0.00     0.065 H 
ATOM     58  H   UNL A   1      43.436  30.118  36.617  1.00  0.00     0.065 H 
ATOM     59  C   UNL A   1      42.849  29.090  33.970  1.00  0.00     0.037 A 
ATOM     60  H   UNL A   1      43.769  27.091  32.222  1.00  0.00     0.065 H 
BRANCH  41  61
ATOM     61  C   UNL A   1      39.706  33.705  36.610  1.00  0.00     0.064 A 
ATOM     62  C   UNL A   1      38.882  33.307  37.674  1.00  0.00     0.173 A 
ATOM     63  C   UNL A   1      40.298  34.975  36.679  1.00  0.00     0.173 A 
ATOM     64  F   UNL A   1      38.286  32.104  37.653  1.00  0.00    -0.203 F 
ATOM     65  C   UNL A   1      38.652  34.149  38.758  1.00  0.00     0.198 A 
ATOM     66  C   UNL A   1      40.085  35.805  37.777  1.00  0.00     0.198 A 
ATOM     67  F   UNL A   1      41.104  35.399  35.694  1.00  0.00    -0.203 F 
ATOM     68  F   UNL A   1      37.840  33.757  39.750  1.00  0.00    -0.200 F 
ATOM     69  C   UNL A   1      39.257  35.396  38.811  1.00  0.00     0.200 A 
ATOM     70  F   UNL A   1      40.689  37.000  37.838  1.00  0.00    -0.200 F 
ATOM     71  F   UNL A   1      39.043  36.202  39.861  1.00  0.00    -0.200 F 
ENDBRANCH  41  61
BRANCH  44  72
ATOM     72  C   UNL A   1      40.576  28.004  28.459  1.00  0.00     0.064 A 
ATOM     73  C   UNL A   1      39.934  26.758  28.407  1.00  0.00     0.173 A 
ATOM     74  C   UNL A   1      41.370  28.380  27.368  1.00  0.00     0.173 A 
ATOM     75  F   UNL A   1      39.172  26.352  29.432  1.00  0.00    -0.203 F 
ATOM     76  C   UNL A   1      40.109  25.907  27.318  1.00  0.00     0.198 A 
ATOM     77  C   UNL A   1      41.522  27.537  26.269  1.00  0.00     0.198 A 
ATOM     78  F   UNL A   1      41.989  29.570  27.369  1.00  0.00    -0.203 F 
ATOM     79  F   UNL A   1      39.524  24.701  27.313  1.00  0.00    -0.200 F 
ATOM     80  C   UNL A   1      40.901  26.298  26.250  1.00  0.00     0.200 A 
ATOM     81  F   UNL A   1      42.275  27.926  25.230  1.00  0.00    -0.200 F 
ATOM     82  F   UNL A   1      41.070  25.478  25.204  1.00  0.00    -0.200 F 
ENDBRANCH  44  72
BRANCH  59  83
ATOM     83  C   UNL A   1      43.992  28.302  34.536  1.00  0.00     0.064 A 
ATOM     84  C   UNL A   1      45.315  28.721  34.330  1.00  0.00     0.173 A 
ATOM     85  C   UNL A   1      43.780  27.106  35.235  1.00  0.00     0.173 A 
ATOM     86  F   UNL A   1      45.568  29.856  33.663  1.00  0.00    -0.203 F 
ATOM     87  C   UNL A   1      46.385  27.962  34.796  1.00  0.00     0.198 A 
ATOM     88  C   UNL A   1      44.852  26.362  35.721  1.00  0.00     0.198 A 
ATOM     89  F   UNL A   1      42.531  26.672  35.469  1.00  0.00    -0.203 F 
ATOM     90  F   UNL A   1      47.641  28.369  34.566  1.00  0.00    -0.200 F 
ATOM     91  C   UNL A   1      46.153  26.787  35.493  1.00  0.00     0.200 A 
ATOM     92  F   UNL A   1      44.627  25.238  36.415  1.00  0.00    -0.200 F 
ATOM     93  F   UNL A   1      47.185  26.065  35.953  1.00  0.00    -0.200 F 
ENDBRANCH  59  83
ENDBRANCH  24  27
ENDBRANCH  15  17
ENDBRANCH  10  13
ENDBRANCH   7  10
ENDBRANCH   4   7
ENDBRANCH   1   4
BRANCH   1  94
ATOM     94  C   UNL A   1      32.824  28.495  26.750  1.00  0.00    -0.036 C 
ATOM     95  H   UNL A   1      33.384  28.285  27.637  1.00  0.00     0.028 H 
ATOM     96  H   UNL A   1      33.419  28.867  25.942  1.00  0.00     0.028 H 
BRANCH  94  97
ATOM     97  C   UNL A   1      32.219  27.188  26.256  1.00  0.00     0.017 C 
ATOM     98  H   UNL A   1      31.956  26.589  27.103  1.00  0.00     0.049 H 
ATOM     99  H   UNL A   1      32.949  26.701  25.644  1.00  0.00     0.049 H 
BRANCH  97 100
ATOM    100  N   UNL A   1      31.036  27.399  25.452  1.00  0.00    -0.354 N 
ATOM    101  C   UNL A   1      30.286  26.525  24.730  1.00  0.00     0.244 C 
ATOM    102  H   UNL A   1      30.722  28.330  25.423  1.00  0.00     0.163 HD
ATOM    103  O   UNL A   1      29.346  27.003  24.090  1.00  0.00    -0.273 OA
BRANCH 101 104
ATOM    104  C   UNL A   1      30.626  25.029  24.628  1.00  0.00     0.131 C 
ATOM    105  H   UNL A   1      31.692  24.954  24.676  1.00  0.00     0.066 H 
BRANCH 104 106
ATOM    106  N   UNL A   1      30.032  24.313  25.759  1.00  0.00    -0.340 N 
ATOM    107  C   UNL A   1      30.382  23.177  26.422  1.00  0.00     0.243 C 
ATOM    108  H   UNL A   1      29.217  24.739  26.110  1.00  0.00     0.164 HD
ATOM    109  O   UNL A   1      29.597  22.859  27.323  1.00  0.00    -0.273 OA
BRANCH 107 110
ATOM    110  C   UNL A   1      31.514  22.216  25.965  1.00  0.00     0.112 C 
ATOM    111  H   UNL A   1      31.071  21.251  26.092  1.00  0.00     0.064 H 
BRANCH 110 112
ATOM    112  N   UNL A   1      31.878  22.207  24.548  1.00  0.00    -0.340 N 
ATOM    113  C   UNL A   1      32.409  21.263  23.708  1.00  0.00     0.251 C 
ATOM    114  H   UNL A   1      31.702  23.066  24.100  1.00  0.00     0.164 HD
ATOM    115  O   UNL A   1      32.858  21.666  22.634  1.00  0.00    -0.269 OA
BRANCH 113 116
ATOM    116  C   UNL A   1      32.435  19.791  23.973  1.00  0.00     0.040 A 
ATOM    117  C   UNL A   1      32.467  18.799  22.986  1.00  0.00    -0.047 A 
ATOM    118  C   UNL A   1      32.589  19.393  25.315  1.00  0.00    -0.047 A 
ATOM    119  C   UNL A   1      32.645  17.452  23.324  1.00  0.00    -0.026 A 
ATOM    120  H   UNL A   1      32.358  19.064  21.995  1.00  0.00     0.063 H 
ATOM    121  C   UNL A   1      32.771  18.050  25.655  1.00  0.00    -0.026 A 
ATOM    122  H   UNL A   1      32.568  20.106  26.060  1.00  0.00     0.063 H 
ATOM    123  C   UNL A   1      32.801  17.090  24.654  1.00  0.00     0.123 A 
ATOM    124  H   UNL A   1      32.661  16.731  22.586  1.00  0.00     0.065 H 
ATOM    125  H   UNL A   1      32.881  17.773  26.644  1.00  0.00     0.065 H 
ATOM    126  F   UNL A   1      33.000  15.805  24.971  1.00  0.00    -0.207 F 
ENDBRANCH 113 116
ENDBRANCH 110 112
BRANCH 110 127
ATOM    127  C   UNL A   1      32.761  22.372  26.862  1.00  0.00     0.004 C 
ATOM    128  H   UNL A   1      32.995  21.397  27.236  1.00  0.00     0.034 H 
ATOM    129  H   UNL A   1      32.460  23.115  27.571  1.00  0.00     0.034 H 
BRANCH 127 130
ATOM    130  C   UNL A   1      34.043  22.939  26.297  1.00  0.00    -0.020 A 
ATOM    131  C   UNL A   1      34.238  24.305  26.165  1.00  0.00     0.005 A 
ATOM    132  C   UNL A   1      35.231  22.313  25.770  1.00  0.00     0.003 A 
ATOM    133  N   UNL A   1      35.461  24.530  25.607  1.00  0.00    -0.361 N 
ATOM    134  H   UNL A   1      33.563  25.035  26.444  1.00  0.00     0.082 H 
ATOM    135  C   UNL A   1      36.091  23.338  25.357  1.00  0.00     0.046 A 
ATOM    136  C   UNL A   1      35.689  20.988  25.596  1.00  0.00    -0.053 A 
ATOM    137  H   UNL A   1      35.837  25.419  25.413  1.00  0.00     0.166 HD
ATOM    138  C   UNL A   1      37.355  23.108  24.796  1.00  0.00    -0.038 A 
ATOM    139  C   UNL A   1      36.953  20.738  25.045  1.00  0.00    -0.062 A 
ATOM    140  H   UNL A   1      35.087  20.198  25.876  1.00  0.00     0.063 H 
ATOM    141  C   UNL A   1      37.774  21.786  24.650  1.00  0.00    -0.060 A 
ATOM    142  H   UNL A   1      37.957  23.892  24.500  1.00  0.00     0.064 H 
ATOM    143  H   UNL A   1      37.278  19.765  24.933  1.00  0.00     0.062 H 
ATOM    144  H   UNL A   1      38.701  21.585  24.244  1.00  0.00     0.062 H 
ENDBRANCH 127 130
ENDBRANCH 110 127
ENDBRANCH 107 110
ENDBRANCH 104 106
BRANCH 104 145
ATOM    145  C   UNL A   1      30.278  24.377  23.280  1.00  0.00     0.072 C 
ATOM    146  H   UNL A   1      29.493  24.940  22.819  1.00  0.00     0.059 H 
ATOM    147  H   UNL A   1      29.978  23.369  23.474  1.00  0.00     0.059 H 
BRANCH 145 148
ATOM    148  O   UNL A   1      31.391  24.336  22.394  1.00  0.00    -0.394 OA
ATOM    149  H   UNL A   1      31.790  23.453  22.416  1.00  0.00     0.210 HD
ENDBRANCH 145 148
ENDBRANCH 104 145
ENDBRANCH 101 104
ENDBRANCH  97 100
ENDBRANCH  94  97
ENDBRANCH   1  94
TORSDOF 21
ENDMDL
MODEL 10
REMARK VINA RESULT:     -11.8      5.084      9.437
REMARK SMILES O=C(NCCCCCCNC(=O)[C@H](CO)NC(=O)[C@H](Cc1c[nH]c2ccccc12)NC(=O)c1ccc(F)cc1)c1ccc(-c2c3nc(c(-c4c(F)c(F)c(F)c(F)c4F)c4ccc([nH]4)c(-c4c(F)c(F)c(F)c(F)c4F)c4nc(c(-c5c(F)c(F)c(F)c(F)c5F)c5ccc2[nH]5)C=C4)C=C3)cc1
REMARK SMILES IDX 7 1 6 4 5 7 4 10 3 13 1 14 2 15 40 17 41 18 102 19 42 20
REMARK SMILES IDX 101 22 43 24 44 27 45 28 95 29 46 30 100 31 94 32 96 33
REMARK SMILES IDX 47 34 99 35 93 37 92 39 48 41 80 44 60 45 79 46 61 47 64 48
REMARK SMILES IDX 78 49 97 50 62 51 63 53 77 55 98 56 65 59 49 61 50 62 58 63
REMARK SMILES IDX 51 64 52 65 56 66 59 67 53 68 54 69 57 70 55 71 81 72 82 73
REMARK SMILES IDX 90 74 83 75 84 76 88 77 91 78 85 79 86 80 89 81 87 82 66 83
REMARK SMILES IDX 67 84 75 85 68 86 69 87 73 88 76 89 70 90 71 91 74 92 72 93
REMARK SMILES IDX 8 94 9 97 10 100 11 101 12 103 13 104 16 106 17 107 18 109
REMARK SMILES IDX 19 110 30 112 31 113 32 115 33 116 34 117 39 118 35 119
REMARK SMILES IDX 38 121 36 123 37 126 20 127 21 130 22 131 29 132 23 133
REMARK SMILES IDX 24 135 28 136 25 138 27 139 26 141 14 145 15 148
REMARK H PARENT 7 2 7 3 6 5 6 6 5 8 5 9 4 11 4 12 3 16 41 21 102 23 42 25
REMARK H PARENT 101 26 100 36 94 38 96 40 99 42 93 43 61 52 64 54 97 57 62 58
REMARK H PARENT 98 60 8 95 8 96 9 98 9 99 10 102 13 105 16 108 19 111 30 114
REMARK H PARENT 34 120 39 122 35 124 38 125 20 128 20 129 22 134 23 137 28 140
REMARK H PARENT 25 142 27 143 26 144 14 146 14 147 15 149
REMARK Flexibility Score: inf
ROOT
ATOM      1  C   UNL A   1      36.148  21.257  25.717  1.00  0.00    -0.052 C 
ATOM      2  H   UNL A   1      36.314  20.529  26.483  1.00  0.00     0.027 H 
ATOM      3  H   UNL A   1      35.483  20.941  24.940  1.00  0.00     0.027 H 
ENDROOT
BRANCH   1   4
ATOM      4  C   UNL A   1      37.488  21.513  25.021  1.00  0.00    -0.052 C 
ATOM      5  H   UNL A   1      37.282  21.815  24.016  1.00  0.00     0.027 H 
ATOM      6  H   UNL A   1      37.980  22.255  25.614  1.00  0.00     0.027 H 
BRANCH   4   7
ATOM      7  C   UNL A   1      38.455  20.332  24.963  1.00  0.00    -0.036 C 
ATOM      8  H   UNL A   1      37.882  19.448  24.775  1.00  0.00     0.028 H 
ATOM      9  H   UNL A   1      39.157  20.568  24.190  1.00  0.00     0.028 H 
BRANCH   7  10
ATOM     10  C   UNL A   1      39.286  20.090  26.215  1.00  0.00     0.018 C 
ATOM     11  H   UNL A   1      39.719  21.020  26.518  1.00  0.00     0.049 H 
ATOM     12  H   UNL A   1      38.626  19.687  26.953  1.00  0.00     0.049 H 
BRANCH  10  13
ATOM     13  N   UNL A   1      40.355  19.127  26.031  1.00  0.00    -0.352 N 
ATOM     14  O   UNL A   1      42.490  18.422  25.799  1.00  0.00    -0.269 OA
ATOM     15  C   UNL A   1      41.713  19.339  26.048  1.00  0.00     0.251 C 
ATOM     16  H   UNL A   1      40.070  18.198  25.870  1.00  0.00     0.163 HD
BRANCH  15  17
ATOM     17  C   UNL A   1      42.234  20.694  26.325  1.00  0.00     0.039 A 
ATOM     18  C   UNL A   1      42.458  21.121  27.636  1.00  0.00    -0.049 A 
ATOM     19  C   UNL A   1      42.469  21.560  25.253  1.00  0.00    -0.049 A 
ATOM     20  C   UNL A   1      42.764  22.455  27.881  1.00  0.00    -0.053 A 
ATOM     21  H   UNL A   1      42.397  20.450  28.418  1.00  0.00     0.063 H 
ATOM     22  C   UNL A   1      42.863  22.878  25.499  1.00  0.00    -0.053 A 
ATOM     23  H   UNL A   1      42.353  21.226  24.283  1.00  0.00     0.063 H 
ATOM     24  C   UNL A   1      42.975  23.347  26.816  1.00  0.00    -0.014 A 
ATOM     25  H   UNL A   1      42.837  22.792  28.854  1.00  0.00     0.063 H 
ATOM     26  H   UNL A   1      43.071  23.508  24.709  1.00  0.00     0.063 H 
BRANCH  24  27
ATOM     27  C   UNL A   1      43.352  24.752  27.112  1.00  0.00     0.031 A 
ATOM     28  C   UNL A   1      42.374  25.708  27.734  1.00  0.00     0.074 A 
ATOM     29  C   UNL A   1      44.613  25.148  26.856  1.00  0.00     0.049 A 
ATOM     30  N   UNL A   1      42.556  26.954  28.094  1.00  0.00    -0.248 NA
ATOM     31  C   UNL A   1      41.012  25.207  27.980  1.00  0.00    -0.034 C 
ATOM     32  C   UNL A   1      45.646  24.309  26.245  1.00  0.00    -0.036 A 
ATOM     33  N   UNL A   1      45.251  26.337  27.101  1.00  0.00    -0.354 N 
ATOM     34  C   UNL A   1      41.334  27.390  28.591  1.00  0.00     0.074 A 
ATOM     35  C   UNL A   1      40.409  26.284  28.465  1.00  0.00    -0.034 C 
ATOM     36  H   UNL A   1      40.628  24.263  27.819  1.00  0.00     0.065 H 
ATOM     37  C   UNL A   1      46.802  24.986  26.220  1.00  0.00    -0.036 A 
ATOM     38  H   UNL A   1      45.506  23.351  25.891  1.00  0.00     0.065 H 
ATOM     39  C   UNL A   1      46.579  26.324  26.758  1.00  0.00     0.049 A 
ATOM     40  H   UNL A   1      44.799  27.123  27.485  1.00  0.00     0.167 HD
ATOM     41  C   UNL A   1      41.021  28.601  29.113  1.00  0.00     0.037 A 
ATOM     42  H   UNL A   1      39.411  26.329  28.719  1.00  0.00     0.065 H 
ATOM     43  H   UNL A   1      47.704  24.620  25.877  1.00  0.00     0.065 H 
ATOM     44  C   UNL A   1      47.518  27.283  26.861  1.00  0.00     0.037 A 
ATOM     45  C   UNL A   1      41.951  29.692  29.251  1.00  0.00     0.049 A 
ATOM     46  C   UNL A   1      47.143  28.616  27.437  1.00  0.00     0.074 A 
ATOM     47  C   UNL A   1      41.730  30.952  29.781  1.00  0.00    -0.036 A 
ATOM     48  N   UNL A   1      43.281  29.653  28.860  1.00  0.00    -0.354 N 
ATOM     49  N   UNL A   1      45.986  29.013  27.908  1.00  0.00    -0.248 NA
ATOM     50  C   UNL A   1      48.198  29.636  27.491  1.00  0.00    -0.034 C 
ATOM     51  C   UNL A   1      42.915  31.687  29.676  1.00  0.00    -0.036 A 
ATOM     52  H   UNL A   1      40.843  31.291  30.185  1.00  0.00     0.065 H 
ATOM     53  C   UNL A   1      43.889  30.871  29.123  1.00  0.00     0.049 A 
ATOM     54  H   UNL A   1      43.728  28.876  28.453  1.00  0.00     0.167 HD
ATOM     55  C   UNL A   1      46.173  30.323  28.320  1.00  0.00     0.074 A 
ATOM     56  C   UNL A   1      47.561  30.648  28.064  1.00  0.00    -0.034 C 
ATOM     57  H   UNL A   1      49.177  29.579  27.169  1.00  0.00     0.065 H 
ATOM     58  H   UNL A   1      43.043  32.671  29.963  1.00  0.00     0.065 H 
ATOM     59  C   UNL A   1      45.271  31.180  28.858  1.00  0.00     0.037 A 
ATOM     60  H   UNL A   1      47.999  31.553  28.297  1.00  0.00     0.065 H 
BRANCH  41  61
ATOM     61  C   UNL A   1      39.609  28.819  29.572  1.00  0.00     0.064 A 
ATOM     62  C   UNL A   1      38.654  29.370  28.701  1.00  0.00     0.173 A 
ATOM     63  C   UNL A   1      39.213  28.545  30.889  1.00  0.00     0.173 A 
ATOM     64  F   UNL A   1      38.984  29.658  27.432  1.00  0.00    -0.203 F 
ATOM     65  C   UNL A   1      37.361  29.644  29.136  1.00  0.00     0.198 A 
ATOM     66  C   UNL A   1      37.910  28.798  31.313  1.00  0.00     0.198 A 
ATOM     67  F   UNL A   1      40.083  28.008  31.757  1.00  0.00    -0.203 F 
ATOM     68  F   UNL A   1      36.474  30.194  28.294  1.00  0.00    -0.200 F 
ATOM     69  C   UNL A   1      36.988  29.354  30.439  1.00  0.00     0.200 A 
ATOM     70  F   UNL A   1      37.545  28.495  32.566  1.00  0.00    -0.200 F 
ATOM     71  F   UNL A   1      35.738  29.608  30.854  1.00  0.00    -0.200 F 
ENDBRANCH  41  61
BRANCH  44  72
ATOM     72  C   UNL A   1      48.905  26.987  26.423  1.00  0.00     0.064 A 
ATOM     73  C   UNL A   1      49.292  27.139  25.084  1.00  0.00     0.173 A 
ATOM     74  C   UNL A   1      49.847  26.478  27.326  1.00  0.00     0.173 A 
ATOM     75  F   UNL A   1      48.421  27.613  24.182  1.00  0.00    -0.203 F 
ATOM     76  C   UNL A   1      50.565  26.764  24.658  1.00  0.00     0.198 A 
ATOM     77  C   UNL A   1      51.128  26.128  26.902  1.00  0.00     0.198 A 
ATOM     78  F   UNL A   1      49.525  26.331  28.619  1.00  0.00    -0.203 F 
ATOM     79  F   UNL A   1      50.895  26.874  23.364  1.00  0.00    -0.200 F 
ATOM     80  C   UNL A   1      51.481  26.260  25.568  1.00  0.00     0.200 A 
ATOM     81  F   UNL A   1      52.017  25.658  27.788  1.00  0.00    -0.200 F 
ATOM     82  F   UNL A   1      52.704  25.899  25.158  1.00  0.00    -0.200 F 
ENDBRANCH  44  72
BRANCH  59  83
ATOM     83  C   UNL A   1      45.756  32.553  29.216  1.00  0.00     0.064 A 
ATOM     84  C   UNL A   1      45.696  33.595  28.278  1.00  0.00     0.173 A 
ATOM     85  C   UNL A   1      46.331  32.822  30.465  1.00  0.00     0.173 A 
ATOM     86  F   UNL A   1      45.159  33.385  27.067  1.00  0.00    -0.203 F 
ATOM     87  C   UNL A   1      46.202  34.856  28.578  1.00  0.00     0.198 A 
ATOM     88  C   UNL A   1      46.815  34.091  30.770  1.00  0.00     0.198 A 
ATOM     89  F   UNL A   1      46.398  31.860  31.399  1.00  0.00    -0.203 F 
ATOM     90  F   UNL A   1      46.156  35.830  27.659  1.00  0.00    -0.200 F 
ATOM     91  C   UNL A   1      46.758  35.104  29.824  1.00  0.00     0.200 A 
ATOM     92  F   UNL A   1      47.331  34.336  31.983  1.00  0.00    -0.200 F 
ATOM     93  F   UNL A   1      47.234  36.322  30.116  1.00  0.00    -0.200 F 
ENDBRANCH  59  83
ENDBRANCH  24  27
ENDBRANCH  15  17
ENDBRANCH  10  13
ENDBRANCH   7  10
ENDBRANCH   4   7
ENDBRANCH   1   4
BRANCH   1  94
ATOM     94  C   UNL A   1      35.470  22.470  26.363  1.00  0.00    -0.036 C 
ATOM     95  H   UNL A   1      35.783  23.344  25.831  1.00  0.00     0.028 H 
ATOM     96  H   UNL A   1      35.770  22.460  27.390  1.00  0.00     0.028 H 
BRANCH  94  97
ATOM     97  C   UNL A   1      33.948  22.443  26.371  1.00  0.00     0.017 C 
ATOM     98  H   UNL A   1      33.589  23.076  25.586  1.00  0.00     0.049 H 
ATOM     99  H   UNL A   1      33.620  22.787  27.329  1.00  0.00     0.049 H 
BRANCH  97 100
ATOM    100  N   UNL A   1      33.420  21.112  26.173  1.00  0.00    -0.354 N 
ATOM    101  C   UNL A   1      32.845  20.538  25.083  1.00  0.00     0.244 C 
ATOM    102  H   UNL A   1      33.488  20.524  26.958  1.00  0.00     0.163 HD
ATOM    103  O   UNL A   1      32.435  19.382  25.220  1.00  0.00    -0.273 OA
BRANCH 101 104
ATOM    104  C   UNL A   1      32.626  21.298  23.765  1.00  0.00     0.131 C 
ATOM    105  H   UNL A   1      31.891  22.049  23.964  1.00  0.00     0.066 H 
BRANCH 104 106
ATOM    106  N   UNL A   1      33.879  21.935  23.352  1.00  0.00    -0.340 N 
ATOM    107  C   UNL A   1      34.222  23.229  23.107  1.00  0.00     0.243 C 
ATOM    108  H   UNL A   1      34.620  21.300  23.227  1.00  0.00     0.164 HD
ATOM    109  O   UNL A   1      35.392  23.377  22.735  1.00  0.00    -0.273 OA
BRANCH 107 110
ATOM    110  C   UNL A   1      33.206  24.404  23.052  1.00  0.00     0.112 C 
ATOM    111  H   UNL A   1      33.785  25.233  23.401  1.00  0.00     0.064 H 
BRANCH 110 112
ATOM    112  N   UNL A   1      32.759  24.866  21.738  1.00  0.00    -0.340 N 
ATOM    113  C   UNL A   1      31.952  25.889  21.314  1.00  0.00     0.251 C 
ATOM    114  H   UNL A   1      33.117  24.325  20.997  1.00  0.00     0.164 HD
ATOM    115  O   UNL A   1      31.550  25.832  20.150  1.00  0.00    -0.269 OA
BRANCH 113 116
ATOM    116  C   UNL A   1      31.572  27.082  22.131  1.00  0.00     0.040 A 
ATOM    117  C   UNL A   1      30.305  27.304  22.686  1.00  0.00    -0.047 A 
ATOM    118  C   UNL A   1      32.611  27.963  22.486  1.00  0.00    -0.047 A 
ATOM    119  C   UNL A   1      30.081  28.370  23.565  1.00  0.00    -0.026 A 
ATOM    120  H   UNL A   1      29.526  26.672  22.443  1.00  0.00     0.063 H 
ATOM    121  C   UNL A   1      32.391  29.027  23.366  1.00  0.00    -0.026 A 
ATOM    122  H   UNL A   1      33.553  27.821  22.089  1.00  0.00     0.063 H 
ATOM    123  C   UNL A   1      31.126  29.218  23.901  1.00  0.00     0.123 A 
ATOM    124  H   UNL A   1      29.141  28.524  23.961  1.00  0.00     0.065 H 
ATOM    125  H   UNL A   1      33.164  29.665  23.616  1.00  0.00     0.065 H 
ATOM    126  F   UNL A   1      30.913  30.219  24.764  1.00  0.00    -0.207 F 
ENDBRANCH 113 116
ENDBRANCH 110 112
BRANCH 110 127
ATOM    127  C   UNL A   1      32.008  24.135  23.989  1.00  0.00     0.004 C 
ATOM    128  H   UNL A   1      32.202  23.203  24.477  1.00  0.00     0.034 H 
ATOM    129  H   UNL A   1      31.167  24.183  23.329  1.00  0.00     0.034 H 
BRANCH 127 130
ATOM    130  C   UNL A   1      31.649  25.125  25.072  1.00  0.00    -0.020 A 
ATOM    131  C   UNL A   1      30.389  25.147  25.649  1.00  0.00     0.005 A 
ATOM    132  C   UNL A   1      32.390  26.198  25.691  1.00  0.00     0.003 A 
ATOM    133  N   UNL A   1      30.336  26.150  26.571  1.00  0.00    -0.361 N 
ATOM    134  H   UNL A   1      29.613  24.507  25.416  1.00  0.00     0.082 H 
ATOM    135  C   UNL A   1      31.539  26.807  26.622  1.00  0.00     0.046 A 
ATOM    136  C   UNL A   1      33.694  26.728  25.577  1.00  0.00    -0.053 A 
ATOM    137  H   UNL A   1      29.549  26.369  27.121  1.00  0.00     0.166 HD
ATOM    138  C   UNL A   1      31.920  27.890  27.425  1.00  0.00    -0.038 A 
ATOM    139  C   UNL A   1      34.097  27.806  26.378  1.00  0.00    -0.062 A 
ATOM    140  H   UNL A   1      34.356  26.320  24.898  1.00  0.00     0.063 H 
ATOM    141  C   UNL A   1      33.219  28.379  27.289  1.00  0.00    -0.060 A 
ATOM    142  H   UNL A   1      31.260  28.313  28.096  1.00  0.00     0.064 H 
ATOM    143  H   UNL A   1      35.055  28.177  26.291  1.00  0.00     0.062 H 
ATOM    144  H   UNL A   1      33.530  29.172  27.870  1.00  0.00     0.062 H 
ENDBRANCH 127 130
ENDBRANCH 110 127
ENDBRANCH 107 110
ENDBRANCH 104 106
BRANCH 104 145
ATOM    145  C   UNL A   1      31.998  20.467  22.635  1.00  0.00     0.072 C 
ATOM    146  H   UNL A   1      31.223  19.855  23.050  1.00  0.00     0.059 H 
ATOM    147  H   UNL A   1      32.773  19.875  22.196  1.00  0.00     0.059 H 
BRANCH 145 148
ATOM    148  O   UNL A   1      31.438  21.279  21.610  1.00  0.00    -0.394 OA
ATOM    149  H   UNL A   1      31.109  20.715  20.893  1.00  0.00     0.210 HD
ENDBRANCH 145 148
ENDBRANCH 104 145
ENDBRANCH 101 104
ENDBRANCH  97 100
ENDBRANCH  94  97
ENDBRANCH   1  94
TORSDOF 21
ENDMDL
