MODEL 1
REMARK VINA RESULT:     -11.6      0.000      0.000
REMARK SMILES COc1ccc(C(=O)c2ccccc2)cc1[C@@H](C)C(=O)NCCCCCCNC(=O)c1ccc(-c2c3nc(c(-c4c(F)c(F)c(F)c(F)c4F)c4ccc([nH]4)c(-c4c(F)c(F)c(F)c(F)c4F)c4nc(c(-c5c(F)c(F)c(F)c(F)c5F)c5ccc2[nH]5)C=C4)C=C3)cc1
REMARK SMILES IDX 24 1 23 4 22 7 21 10 19 11 20 12 17 14 16 16 3 17 4 18 5 19
REMARK SMILES IDX 15 21 6 22 2 25 1 26 7 30 8 31 9 32 10 33 14 34 11 35 13 37
REMARK SMILES IDX 12 39 18 43 25 47 26 50 27 53 28 56 29 57 30 59 31 60 32 61
REMARK SMILES IDX 93 62 33 63 92 65 34 67 35 70 36 71 86 72 37 73 91 74 85 75
REMARK SMILES IDX 87 76 38 77 90 78 84 80 83 82 39 84 71 87 51 88 70 89 52 90
REMARK SMILES IDX 55 91 69 92 88 93 53 94 54 96 68 98 89 99 56 102 40 104
REMARK SMILES IDX 41 105 49 106 42 107 43 108 47 109 50 110 44 111 45 112
REMARK SMILES IDX 48 113 46 114 72 115 73 116 81 117 74 118 75 119 79 120
REMARK SMILES IDX 82 121 76 122 77 123 80 124 78 125 57 126 58 127 66 128
REMARK SMILES IDX 59 129 60 130 64 131 67 132 61 133 62 134 65 135 63 136
REMARK H PARENT 24 2 24 3 23 5 23 6 22 8 22 9 21 13 17 15 4 20 5 23 15 24 1 27
REMARK H PARENT 1 28 1 29 10 36 14 38 11 40 13 41 12 42 18 44 18 45 18 46
REMARK H PARENT 25 48 25 49 26 51 26 52 27 54 27 55 28 58 32 64 93 66 33 68
REMARK H PARENT 92 69 91 79 85 81 87 83 90 85 84 86 52 95 55 97 88 100 53 101
REMARK H PARENT 89 103
REMARK Flexibility Score: inf
ROOT
ATOM      1  C   UNL A   1      34.000  26.230  25.007  1.00  0.00    -0.052 C 
ATOM      2  H   UNL A   1      33.152  25.868  24.465  1.00  0.00     0.027 H 
ATOM      3  H   UNL A   1      34.623  26.900  24.452  1.00  0.00     0.027 H 
ENDROOT
BRANCH   1   4
ATOM      4  C   UNL A   1      34.888  25.028  25.345  1.00  0.00    -0.036 C 
ATOM      5  H   UNL A   1      35.909  25.338  25.257  1.00  0.00     0.028 H 
ATOM      6  H   UNL A   1      34.610  24.729  26.335  1.00  0.00     0.028 H 
BRANCH   4   7
ATOM      7  C   UNL A   1      34.694  23.790  24.464  1.00  0.00     0.017 C 
ATOM      8  H   UNL A   1      33.980  24.017  23.700  1.00  0.00     0.049 H 
ATOM      9  H   UNL A   1      35.642  23.532  24.041  1.00  0.00     0.049 H 
BRANCH   7  10
ATOM     10  N   UNL A   1      34.218  22.649  25.227  1.00  0.00    -0.356 N 
ATOM     11  C   UNL A   1      33.028  21.995  25.293  1.00  0.00     0.227 C 
ATOM     12  O   UNL A   1      32.966  21.086  26.133  1.00  0.00    -0.274 OA
ATOM     13  H   UNL A   1      34.903  22.270  25.823  1.00  0.00     0.163 HD
BRANCH  11  14
ATOM     14  C   UNL A   1      31.787  22.315  24.439  1.00  0.00     0.064 C 
ATOM     15  H   UNL A   1      31.085  21.572  24.752  1.00  0.00     0.045 H 
BRANCH  14  16
ATOM     16  C   UNL A   1      31.160  23.663  24.771  1.00  0.00     0.007 A 
ATOM     17  C   UNL A   1      30.662  23.979  26.046  1.00  0.00     0.122 A 
ATOM     18  C   UNL A   1      30.113  25.239  26.310  1.00  0.00    -0.019 A 
ATOM     19  C   UNL A   1      30.033  26.202  25.301  1.00  0.00    -0.047 A 
ATOM     20  H   UNL A   1      29.763  25.458  27.255  1.00  0.00     0.066 H 
ATOM     21  C   UNL A   1      31.044  24.645  23.770  1.00  0.00    -0.043 A 
ATOM     22  C   UNL A   1      30.469  25.899  24.011  1.00  0.00     0.023 A 
ATOM     23  H   UNL A   1      29.652  27.139  25.511  1.00  0.00     0.063 H 
ATOM     24  H   UNL A   1      31.395  24.433  22.822  1.00  0.00     0.064 H 
BRANCH  17  25
ATOM     25  O   UNL A   1      30.518  23.044  27.035  1.00  0.00    -0.496 OA
BRANCH  25  26
ATOM     26  C   UNL A   1      29.182  22.564  27.182  1.00  0.00     0.078 C 
ATOM     27  H   UNL A   1      28.890  22.044  26.293  1.00  0.00     0.067 H 
ATOM     28  H   UNL A   1      28.521  23.390  27.344  1.00  0.00     0.067 H 
ATOM     29  H   UNL A   1      29.131  21.897  28.017  1.00  0.00     0.067 H 
ENDBRANCH  25  26
ENDBRANCH  17  25
BRANCH  22  30
ATOM     30  C   UNL A   1      30.341  26.938  22.951  1.00  0.00     0.193 C 
ATOM     31  O   UNL A   1      30.965  26.801  21.900  1.00  0.00    -0.289 OA
BRANCH  30  32
ATOM     32  C   UNL A   1      29.460  28.127  23.082  1.00  0.00     0.022 A 
ATOM     33  C   UNL A   1      30.075  29.361  23.312  1.00  0.00    -0.051 A 
ATOM     34  C   UNL A   1      28.061  28.049  23.039  1.00  0.00    -0.051 A 
ATOM     35  C   UNL A   1      29.300  30.508  23.473  1.00  0.00    -0.062 A 
ATOM     36  H   UNL A   1      31.103  29.423  23.363  1.00  0.00     0.063 H 
ATOM     37  C   UNL A   1      27.291  29.210  23.171  1.00  0.00    -0.062 A 
ATOM     38  H   UNL A   1      27.599  27.135  22.911  1.00  0.00     0.063 H 
ATOM     39  C   UNL A   1      27.912  30.439  23.388  1.00  0.00    -0.062 A 
ATOM     40  H   UNL A   1      29.758  31.414  23.657  1.00  0.00     0.062 H 
ATOM     41  H   UNL A   1      26.263  29.155  23.108  1.00  0.00     0.062 H 
ATOM     42  H   UNL A   1      27.344  31.295  23.484  1.00  0.00     0.062 H 
ENDBRANCH  30  32
ENDBRANCH  22  30
ENDBRANCH  14  16
BRANCH  14  43
ATOM     43  C   UNL A   1      31.896  22.033  22.943  1.00  0.00    -0.049 C 
ATOM     44  H   UNL A   1      31.002  21.552  22.604  1.00  0.00     0.024 H 
ATOM     45  H   UNL A   1      32.736  21.395  22.762  1.00  0.00     0.024 H 
ATOM     46  H   UNL A   1      32.028  22.954  22.415  1.00  0.00     0.024 H 
ENDBRANCH  14  43
ENDBRANCH  11  14
ENDBRANCH   7  10
ENDBRANCH   4   7
ENDBRANCH   1   4
BRANCH   1  47
ATOM     47  C   UNL A   1      33.481  27.046  26.199  1.00  0.00    -0.052 C 
ATOM     48  H   UNL A   1      34.331  27.428  26.727  1.00  0.00     0.027 H 
ATOM     49  H   UNL A   1      32.876  26.368  26.764  1.00  0.00     0.027 H 
BRANCH  47  50
ATOM     50  C   UNL A   1      32.565  28.232  25.872  1.00  0.00    -0.036 C 
ATOM     51  H   UNL A   1      32.051  28.507  26.769  1.00  0.00     0.028 H 
ATOM     52  H   UNL A   1      31.922  27.894  25.087  1.00  0.00     0.028 H 
BRANCH  50  53
ATOM     53  C   UNL A   1      33.259  29.484  25.327  1.00  0.00     0.018 C 
ATOM     54  H   UNL A   1      33.154  29.496  24.262  1.00  0.00     0.049 H 
ATOM     55  H   UNL A   1      34.285  29.437  25.624  1.00  0.00     0.049 H 
BRANCH  53  56
ATOM     56  N   UNL A   1      32.702  30.714  25.862  1.00  0.00    -0.352 N 
ATOM     57  C   UNL A   1      33.111  31.480  26.930  1.00  0.00     0.251 C 
ATOM     58  H   UNL A   1      31.910  31.054  25.386  1.00  0.00     0.163 HD
ATOM     59  O   UNL A   1      32.408  32.412  27.309  1.00  0.00    -0.269 OA
BRANCH  57  60
ATOM     60  C   UNL A   1      34.378  31.194  27.652  1.00  0.00     0.039 A 
ATOM     61  C   UNL A   1      34.530  29.952  28.275  1.00  0.00    -0.049 A 
ATOM     62  C   UNL A   1      35.381  32.154  27.795  1.00  0.00    -0.049 A 
ATOM     63  C   UNL A   1      35.699  29.662  28.993  1.00  0.00    -0.053 A 
ATOM     64  H   UNL A   1      33.781  29.247  28.207  1.00  0.00     0.063 H 
ATOM     65  C   UNL A   1      36.579  31.839  28.456  1.00  0.00    -0.053 A 
ATOM     66  H   UNL A   1      35.242  33.101  27.412  1.00  0.00     0.063 H 
ATOM     67  C   UNL A   1      36.751  30.591  29.073  1.00  0.00    -0.014 A 
ATOM     68  H   UNL A   1      35.787  28.752  29.472  1.00  0.00     0.063 H 
ATOM     69  H   UNL A   1      37.341  32.535  28.487  1.00  0.00     0.063 H 
BRANCH  67  70
ATOM     70  C   UNL A   1      38.009  30.238  29.800  1.00  0.00     0.031 A 
ATOM     71  C   UNL A   1      38.265  30.704  31.212  1.00  0.00     0.074 A 
ATOM     72  C   UNL A   1      38.944  29.480  29.192  1.00  0.00     0.049 A 
ATOM     73  N   UNL A   1      39.261  30.407  32.014  1.00  0.00    -0.248 NA
ATOM     74  C   UNL A   1      37.294  31.641  31.794  1.00  0.00    -0.034 C 
ATOM     75  C   UNL A   1      38.880  29.009  27.808  1.00  0.00    -0.036 A 
ATOM     76  N   UNL A   1      40.129  28.962  29.662  1.00  0.00    -0.354 N 
ATOM     77  C   UNL A   1      39.038  31.120  33.185  1.00  0.00     0.074 A 
ATOM     78  C   UNL A   1      37.842  31.908  32.971  1.00  0.00    -0.034 C 
ATOM     79  H   UNL A   1      36.414  31.999  31.390  1.00  0.00     0.065 H 
ATOM     80  C   UNL A   1      39.952  28.242  27.554  1.00  0.00    -0.036 A 
ATOM     81  H   UNL A   1      38.130  29.232  27.135  1.00  0.00     0.065 H 
ATOM     82  C   UNL A   1      40.791  28.179  28.749  1.00  0.00     0.049 A 
ATOM     83  H   UNL A   1      40.470  29.137  30.570  1.00  0.00     0.167 HD
ATOM     84  C   UNL A   1      39.744  31.104  34.343  1.00  0.00     0.037 A 
ATOM     85  H   UNL A   1      37.465  32.589  33.647  1.00  0.00     0.065 H 
ATOM     86  H   UNL A   1      40.152  27.771  26.658  1.00  0.00     0.065 H 
ATOM     87  C   UNL A   1      41.934  27.473  28.856  1.00  0.00     0.037 A 
ATOM     88  C   UNL A   1      40.918  30.304  34.585  1.00  0.00     0.049 A 
ATOM     89  C   UNL A   1      42.681  27.444  30.163  1.00  0.00     0.074 A 
ATOM     90  C   UNL A   1      41.640  30.164  35.759  1.00  0.00    -0.036 A 
ATOM     91  N   UNL A   1      41.547  29.514  33.637  1.00  0.00    -0.354 N 
ATOM     92  N   UNL A   1      42.395  28.039  31.294  1.00  0.00    -0.248 NA
ATOM     93  C   UNL A   1      43.905  26.627  30.207  1.00  0.00    -0.034 C 
ATOM     94  C   UNL A   1      42.731  29.324  35.510  1.00  0.00    -0.036 A 
ATOM     95  H   UNL A   1      41.411  30.605  36.665  1.00  0.00     0.065 H 
ATOM     96  C   UNL A   1      42.663  28.903  34.193  1.00  0.00     0.049 A 
ATOM     97  H   UNL A   1      41.248  29.402  32.706  1.00  0.00     0.167 HD
ATOM     98  C   UNL A   1      43.385  27.652  32.189  1.00  0.00     0.074 A 
ATOM     99  C   UNL A   1      44.269  26.755  31.476  1.00  0.00    -0.034 C 
ATOM    100  H   UNL A   1      44.359  26.095  29.451  1.00  0.00     0.065 H 
ATOM    101  H   UNL A   1      43.461  29.063  36.192  1.00  0.00     0.065 H 
ATOM    102  C   UNL A   1      43.543  28.011  33.485  1.00  0.00     0.037 A 
ATOM    103  H   UNL A   1      45.079  26.276  31.899  1.00  0.00     0.065 H 
BRANCH  84 104
ATOM    104  C   UNL A   1      39.256  31.977  35.465  1.00  0.00     0.064 A 
ATOM    105  C   UNL A   1      38.435  31.470  36.484  1.00  0.00     0.173 A 
ATOM    106  C   UNL A   1      39.663  33.317  35.554  1.00  0.00     0.173 A 
ATOM    107  F   UNL A   1      38.017  30.197  36.441  1.00  0.00    -0.203 F 
ATOM    108  C   UNL A   1      38.016  32.280  37.535  1.00  0.00     0.198 A 
ATOM    109  C   UNL A   1      39.264  34.117  36.623  1.00  0.00     0.198 A 
ATOM    110  F   UNL A   1      40.458  33.848  34.613  1.00  0.00    -0.203 F 
ATOM    111  F   UNL A   1      37.199  31.785  38.475  1.00  0.00    -0.200 F 
ATOM    112  C   UNL A   1      38.436  33.600  37.608  1.00  0.00     0.200 A 
ATOM    113  F   UNL A   1      39.682  35.388  36.701  1.00  0.00    -0.200 F 
ATOM    114  F   UNL A   1      38.039  34.375  38.627  1.00  0.00    -0.200 F 
ENDBRANCH  84 104
BRANCH  87 115
ATOM    115  C   UNL A   1      42.429  26.691  27.695  1.00  0.00     0.064 A 
ATOM    116  C   UNL A   1      41.994  25.377  27.474  1.00  0.00     0.173 A 
ATOM    117  C   UNL A   1      43.352  27.236  26.792  1.00  0.00     0.173 A 
ATOM    118  F   UNL A   1      41.129  24.806  28.326  1.00  0.00    -0.203 F 
ATOM    119  C   UNL A   1      42.480  24.630  26.403  1.00  0.00     0.198 A 
ATOM    120  C   UNL A   1      43.816  26.497  25.706  1.00  0.00     0.198 A 
ATOM    121  F   UNL A   1      43.795  28.491  26.959  1.00  0.00    -0.203 F 
ATOM    122  F   UNL A   1      42.082  23.361  26.239  1.00  0.00    -0.200 F 
ATOM    123  C   UNL A   1      43.385  25.192  25.517  1.00  0.00     0.200 A 
ATOM    124  F   UNL A   1      44.682  27.048  24.845  1.00  0.00    -0.200 F 
ATOM    125  F   UNL A   1      43.849  24.475  24.485  1.00  0.00    -0.200 F 
ENDBRANCH  87 115
BRANCH 102 126
ATOM    126  C   UNL A   1      44.705  27.417  34.231  1.00  0.00     0.064 A 
ATOM    127  C   UNL A   1      44.601  26.188  34.898  1.00  0.00     0.173 A 
ATOM    128  C   UNL A   1      45.944  28.076  34.260  1.00  0.00     0.173 A 
ATOM    129  F   UNL A   1      43.435  25.525  34.914  1.00  0.00    -0.203 F 
ATOM    130  C   UNL A   1      45.684  25.655  35.593  1.00  0.00     0.198 A 
ATOM    131  C   UNL A   1      47.034  27.526  34.932  1.00  0.00     0.198 A 
ATOM    132  F   UNL A   1      46.101  29.252  33.633  1.00  0.00    -0.203 F 
ATOM    133  F   UNL A   1      45.546  24.504  36.267  1.00  0.00    -0.200 F 
ATOM    134  C   UNL A   1      46.901  26.322  35.606  1.00  0.00     0.200 A 
ATOM    135  F   UNL A   1      48.211  28.167  34.935  1.00  0.00    -0.200 F 
ATOM    136  F   UNL A   1      47.941  25.807  36.275  1.00  0.00    -0.200 F 
ENDBRANCH 102 126
ENDBRANCH  67  70
ENDBRANCH  57  60
ENDBRANCH  53  56
ENDBRANCH  50  53
ENDBRANCH  47  50
ENDBRANCH   1  47
TORSDOF 19
ENDMDL
MODEL 2
REMARK VINA RESULT:     -11.6      1.261      2.682
REMARK SMILES COc1ccc(C(=O)c2ccccc2)cc1[C@@H](C)C(=O)NCCCCCCNC(=O)c1ccc(-c2c3nc(c(-c4c(F)c(F)c(F)c(F)c4F)c4ccc([nH]4)c(-c4c(F)c(F)c(F)c(F)c4F)c4nc(c(-c5c(F)c(F)c(F)c(F)c5F)c5ccc2[nH]5)C=C4)C=C3)cc1
REMARK SMILES IDX 24 1 23 4 22 7 21 10 19 11 20 12 17 14 16 16 3 17 4 18 5 19
REMARK SMILES IDX 15 21 6 22 2 25 1 26 7 30 8 31 9 32 10 33 14 34 11 35 13 37
REMARK SMILES IDX 12 39 18 43 25 47 26 50 27 53 28 56 29 57 30 59 31 60 32 61
REMARK SMILES IDX 93 62 33 63 92 65 34 67 35 70 36 71 86 72 37 73 91 74 85 75
REMARK SMILES IDX 87 76 38 77 90 78 84 80 83 82 39 84 71 87 51 88 70 89 52 90
REMARK SMILES IDX 55 91 69 92 88 93 53 94 54 96 68 98 89 99 56 102 40 104
REMARK SMILES IDX 41 105 49 106 42 107 43 108 47 109 50 110 44 111 45 112
REMARK SMILES IDX 48 113 46 114 72 115 73 116 81 117 74 118 75 119 79 120
REMARK SMILES IDX 82 121 76 122 77 123 80 124 78 125 57 126 58 127 66 128
REMARK SMILES IDX 59 129 60 130 64 131 67 132 61 133 62 134 65 135 63 136
REMARK H PARENT 24 2 24 3 23 5 23 6 22 8 22 9 21 13 17 15 4 20 5 23 15 24 1 27
REMARK H PARENT 1 28 1 29 10 36 14 38 11 40 13 41 12 42 18 44 18 45 18 46
REMARK H PARENT 25 48 25 49 26 51 26 52 27 54 27 55 28 58 32 64 93 66 33 68
REMARK H PARENT 92 69 91 79 85 81 87 83 90 85 84 86 52 95 55 97 88 100 53 101
REMARK H PARENT 89 103
REMARK Flexibility Score: inf
ROOT
ATOM      1  C   UNL A   1      34.359  25.367  25.552  1.00  0.00    -0.052 C 
ATOM      2  H   UNL A   1      34.605  25.771  26.512  1.00  0.00     0.027 H 
ATOM      3  H   UNL A   1      33.531  24.690  25.560  1.00  0.00     0.027 H 
ENDROOT
BRANCH   1   4
ATOM      4  C   UNL A   1      35.559  24.545  25.070  1.00  0.00    -0.036 C 
ATOM      5  H   UNL A   1      35.224  23.913  24.273  1.00  0.00     0.028 H 
ATOM      6  H   UNL A   1      36.302  25.257  24.776  1.00  0.00     0.028 H 
BRANCH   4   7
ATOM      7  C   UNL A   1      36.224  23.657  26.127  1.00  0.00     0.017 C 
ATOM      8  H   UNL A   1      36.884  22.971  25.638  1.00  0.00     0.049 H 
ATOM      9  H   UNL A   1      36.759  24.291  26.802  1.00  0.00     0.049 H 
BRANCH   7  10
ATOM     10  N   UNL A   1      35.250  22.904  26.896  1.00  0.00    -0.356 N 
ATOM     11  C   UNL A   1      34.609  21.721  26.698  1.00  0.00     0.227 C 
ATOM     12  O   UNL A   1      33.768  21.420  27.558  1.00  0.00    -0.274 OA
ATOM     13  H   UNL A   1      34.998  23.345  27.739  1.00  0.00     0.163 HD
BRANCH  11  14
ATOM     14  C   UNL A   1      34.837  20.774  25.505  1.00  0.00     0.064 C 
ATOM     15  H   UNL A   1      34.632  19.811  25.924  1.00  0.00     0.045 H 
BRANCH  14  16
ATOM     16  C   UNL A   1      33.831  20.973  24.379  1.00  0.00     0.007 A 
ATOM     17  C   UNL A   1      33.040  19.930  23.870  1.00  0.00     0.122 A 
ATOM     18  C   UNL A   1      32.113  20.166  22.847  1.00  0.00    -0.019 A 
ATOM     19  C   UNL A   1      31.972  21.444  22.301  1.00  0.00    -0.047 A 
ATOM     20  H   UNL A   1      31.532  19.391  22.494  1.00  0.00     0.066 H 
ATOM     21  C   UNL A   1      33.683  22.243  23.792  1.00  0.00    -0.043 A 
ATOM     22  C   UNL A   1      32.783  22.487  22.747  1.00  0.00     0.023 A 
ATOM     23  H   UNL A   1      31.267  21.615  21.566  1.00  0.00     0.063 H 
ATOM     24  H   UNL A   1      34.260  23.025  24.143  1.00  0.00     0.064 H 
BRANCH  17  25
ATOM     25  O   UNL A   1      33.244  18.618  24.202  1.00  0.00    -0.496 OA
BRANCH  25  26
ATOM     26  C   UNL A   1      32.904  17.703  23.161  1.00  0.00     0.078 C 
ATOM     27  H   UNL A   1      33.306  18.052  22.233  1.00  0.00     0.067 H 
ATOM     28  H   UNL A   1      31.840  17.629  23.083  1.00  0.00     0.067 H 
ATOM     29  H   UNL A   1      33.312  16.739  23.385  1.00  0.00     0.067 H 
ENDBRANCH  25  26
ENDBRANCH  17  25
BRANCH  22  30
ATOM     30  C   UNL A   1      32.628  23.831  22.122  1.00  0.00     0.193 C 
ATOM     31  O   UNL A   1      33.277  24.100  21.112  1.00  0.00    -0.289 OA
BRANCH  30  32
ATOM     32  C   UNL A   1      31.691  24.862  22.637  1.00  0.00     0.022 A 
ATOM     33  C   UNL A   1      31.694  26.108  22.004  1.00  0.00    -0.051 A 
ATOM     34  C   UNL A   1      30.860  24.653  23.746  1.00  0.00    -0.051 A 
ATOM     35  C   UNL A   1      30.858  27.126  22.459  1.00  0.00    -0.062 A 
ATOM     36  H   UNL A   1      32.317  26.275  21.198  1.00  0.00     0.063 H 
ATOM     37  C   UNL A   1      30.001  25.669  24.179  1.00  0.00    -0.062 A 
ATOM     38  H   UNL A   1      30.882  23.749  24.244  1.00  0.00     0.063 H 
ATOM     39  C   UNL A   1      30.001  26.906  23.535  1.00  0.00    -0.062 A 
ATOM     40  H   UNL A   1      30.875  28.048  21.997  1.00  0.00     0.062 H 
ATOM     41  H   UNL A   1      29.367  25.503  24.976  1.00  0.00     0.062 H 
ATOM     42  H   UNL A   1      29.367  27.654  23.853  1.00  0.00     0.062 H 
ENDBRANCH  30  32
ENDBRANCH  22  30
ENDBRANCH  14  16
BRANCH  14  43
ATOM     43  C   UNL A   1      36.277  20.609  25.029  1.00  0.00    -0.049 C 
ATOM     44  H   UNL A   1      36.864  20.171  25.809  1.00  0.00     0.024 H 
ATOM     45  H   UNL A   1      36.680  21.568  24.776  1.00  0.00     0.024 H 
ATOM     46  H   UNL A   1      36.298  19.975  24.167  1.00  0.00     0.024 H 
ENDBRANCH  14  43
ENDBRANCH  11  14
ENDBRANCH   7  10
ENDBRANCH   4   7
ENDBRANCH   1   4
BRANCH   1  47
ATOM     47  C   UNL A   1      33.930  26.532  24.650  1.00  0.00    -0.052 C 
ATOM     48  H   UNL A   1      33.253  26.144  23.917  1.00  0.00     0.027 H 
ATOM     49  H   UNL A   1      34.839  26.929  24.249  1.00  0.00     0.027 H 
BRANCH  47  50
ATOM     50  C   UNL A   1      33.239  27.716  25.340  1.00  0.00    -0.036 C 
ATOM     51  H   UNL A   1      33.460  27.660  26.385  1.00  0.00     0.028 H 
ATOM     52  H   UNL A   1      32.200  27.621  25.107  1.00  0.00     0.028 H 
BRANCH  50  53
ATOM     53  C   UNL A   1      33.648  29.108  24.850  1.00  0.00     0.018 C 
ATOM     54  H   UNL A   1      33.459  29.168  23.798  1.00  0.00     0.049 H 
ATOM     55  H   UNL A   1      34.686  29.236  25.075  1.00  0.00     0.049 H 
BRANCH  53  56
ATOM     56  N   UNL A   1      32.920  30.175  25.514  1.00  0.00    -0.352 N 
ATOM     57  C   UNL A   1      33.191  30.831  26.693  1.00  0.00     0.251 C 
ATOM     58  H   UNL A   1      32.107  30.477  25.048  1.00  0.00     0.163 HD
ATOM     59  O   UNL A   1      32.360  31.609  27.156  1.00  0.00    -0.269 OA
BRANCH  57  60
ATOM     60  C   UNL A   1      34.458  30.607  27.434  1.00  0.00     0.039 A 
ATOM     61  C   UNL A   1      34.678  29.360  28.028  1.00  0.00    -0.049 A 
ATOM     62  C   UNL A   1      35.394  31.624  27.625  1.00  0.00    -0.049 A 
ATOM     63  C   UNL A   1      35.848  29.126  28.763  1.00  0.00    -0.053 A 
ATOM     64  H   UNL A   1      33.977  28.611  27.924  1.00  0.00     0.063 H 
ATOM     65  C   UNL A   1      36.597  31.369  28.303  1.00  0.00    -0.053 A 
ATOM     66  H   UNL A   1      35.202  32.571  27.264  1.00  0.00     0.063 H 
ATOM     67  C   UNL A   1      36.837  30.117  28.890  1.00  0.00    -0.014 A 
ATOM     68  H   UNL A   1      35.986  28.209  29.218  1.00  0.00     0.063 H 
ATOM     69  H   UNL A   1      37.311  32.110  28.370  1.00  0.00     0.063 H 
BRANCH  67  70
ATOM     70  C   UNL A   1      38.100  29.825  29.635  1.00  0.00     0.031 A 
ATOM     71  C   UNL A   1      38.345  30.366  31.021  1.00  0.00     0.074 A 
ATOM     72  C   UNL A   1      39.051  29.056  29.065  1.00  0.00     0.049 A 
ATOM     73  N   UNL A   1      39.345  30.128  31.838  1.00  0.00    -0.248 NA
ATOM     74  C   UNL A   1      37.356  31.312  31.555  1.00  0.00    -0.034 C 
ATOM     75  C   UNL A   1      38.997  28.515  27.707  1.00  0.00    -0.036 A 
ATOM     76  N   UNL A   1      40.244  28.585  29.562  1.00  0.00    -0.354 N 
ATOM     77  C   UNL A   1      39.107  30.895  32.971  1.00  0.00     0.074 A 
ATOM     78  C   UNL A   1      37.897  31.648  32.718  1.00  0.00    -0.034 C 
ATOM     79  H   UNL A   1      36.469  31.633  31.134  1.00  0.00     0.065 H 
ATOM     80  C   UNL A   1      40.084  27.756  27.492  1.00  0.00    -0.036 A 
ATOM     81  H   UNL A   1      38.245  28.690  27.023  1.00  0.00     0.065 H 
ATOM     82  C   UNL A   1      40.923  27.769  28.689  1.00  0.00     0.049 A 
ATOM     83  H   UNL A   1      40.580  28.811  30.459  1.00  0.00     0.167 HD
ATOM     84  C   UNL A   1      39.812  30.951  34.129  1.00  0.00     0.037 A 
ATOM     85  H   UNL A   1      37.506  32.355  33.359  1.00  0.00     0.065 H 
ATOM     86  H   UNL A   1      40.294  27.246  26.620  1.00  0.00     0.065 H 
ATOM     87  C   UNL A   1      42.079  27.092  28.832  1.00  0.00     0.037 A 
ATOM     88  C   UNL A   1      41.000  30.186  34.411  1.00  0.00     0.049 A 
ATOM     89  C   UNL A   1      42.824  27.143  30.139  1.00  0.00     0.074 A 
ATOM     90  C   UNL A   1      41.723  30.119  35.592  1.00  0.00    -0.036 A 
ATOM     91  N   UNL A   1      41.645  29.362  33.505  1.00  0.00    -0.354 N 
ATOM     92  N   UNL A   1      42.525  27.787  31.239  1.00  0.00    -0.248 NA
ATOM     93  C   UNL A   1      44.063  26.353  30.225  1.00  0.00    -0.034 C 
ATOM     94  C   UNL A   1      42.830  29.288  35.386  1.00  0.00    -0.036 A 
ATOM     95  H   UNL A   1      41.485  30.600  36.474  1.00  0.00     0.065 H 
ATOM     96  C   UNL A   1      42.772  28.801  34.091  1.00  0.00     0.049 A 
ATOM     97  H   UNL A   1      41.350  29.198  32.580  1.00  0.00     0.167 HD
ATOM     98  C   UNL A   1      43.521  27.465  32.152  1.00  0.00     0.074 A 
ATOM     99  C   UNL A   1      44.423  26.551  31.486  1.00  0.00    -0.034 C 
ATOM    100  H   UNL A   1      44.529  25.792  29.496  1.00  0.00     0.065 H 
ATOM    101  H   UNL A   1      43.564  29.076  36.080  1.00  0.00     0.065 H 
ATOM    102  C   UNL A   1      43.670  27.892  33.430  1.00  0.00     0.037 A 
ATOM    103  H   UNL A   1      45.241  26.109  31.933  1.00  0.00     0.065 H 
BRANCH  84 104
ATOM    104  C   UNL A   1      39.305  31.869  35.206  1.00  0.00     0.064 A 
ATOM    105  C   UNL A   1      39.595  33.242  35.193  1.00  0.00     0.173 A 
ATOM    106  C   UNL A   1      38.473  31.382  36.225  1.00  0.00     0.173 A 
ATOM    107  F   UNL A   1      40.388  33.755  34.242  1.00  0.00    -0.203 F 
ATOM    108  C   UNL A   1      39.093  34.088  36.178  1.00  0.00     0.198 A 
ATOM    109  C   UNL A   1      37.950  32.237  37.193  1.00  0.00     0.198 A 
ATOM    110  F   UNL A   1      38.155  30.079  36.276  1.00  0.00    -0.203 F 
ATOM    111  F   UNL A   1      39.416  35.389  36.169  1.00  0.00    -0.200 F 
ATOM    112  C   UNL A   1      38.266  33.587  37.172  1.00  0.00     0.200 A 
ATOM    113  F   UNL A   1      37.139  31.755  38.144  1.00  0.00    -0.200 F 
ATOM    114  F   UNL A   1      37.775  34.406  38.113  1.00  0.00    -0.200 F 
ENDBRANCH  84 104
BRANCH  87 115
ATOM    115  C   UNL A   1      42.590  26.262  27.712  1.00  0.00     0.064 A 
ATOM    116  C   UNL A   1      42.147  24.945  27.531  1.00  0.00     0.173 A 
ATOM    117  C   UNL A   1      43.537  26.765  26.808  1.00  0.00     0.173 A 
ATOM    118  F   UNL A   1      41.260  24.414  28.385  1.00  0.00    -0.203 F 
ATOM    119  C   UNL A   1      42.648  24.153  26.500  1.00  0.00     0.198 A 
ATOM    120  C   UNL A   1      44.016  25.982  25.761  1.00  0.00     0.198 A 
ATOM    121  F   UNL A   1      43.987  28.021  26.937  1.00  0.00    -0.203 F 
ATOM    122  F   UNL A   1      42.242  22.883  26.375  1.00  0.00    -0.200 F 
ATOM    123  C   UNL A   1      43.577  24.674  25.612  1.00  0.00     0.200 A 
ATOM    124  F   UNL A   1      44.905  26.492  24.898  1.00  0.00    -0.200 F 
ATOM    125  F   UNL A   1      44.055  23.914  24.618  1.00  0.00    -0.200 F 
ENDBRANCH  87 115
BRANCH 102 126
ATOM    126  C   UNL A   1      44.842  27.358  34.204  1.00  0.00     0.064 A 
ATOM    127  C   UNL A   1      46.074  28.030  34.232  1.00  0.00     0.173 A 
ATOM    128  C   UNL A   1      44.726  26.171  34.944  1.00  0.00     0.173 A 
ATOM    129  F   UNL A   1      46.242  29.160  33.530  1.00  0.00    -0.203 F 
ATOM    130  C   UNL A   1      47.154  27.517  34.947  1.00  0.00     0.198 A 
ATOM    131  C   UNL A   1      45.801  25.676  35.680  1.00  0.00     0.198 A 
ATOM    132  F   UNL A   1      43.570  25.491  34.956  1.00  0.00    -0.203 F 
ATOM    133  F   UNL A   1      48.336  28.149  34.916  1.00  0.00    -0.200 F 
ATOM    134  C   UNL A   1      47.016  26.344  35.673  1.00  0.00     0.200 A 
ATOM    135  F   UNL A   1      45.662  24.548  36.390  1.00  0.00    -0.200 F 
ATOM    136  F   UNL A   1      48.057  25.852  36.360  1.00  0.00    -0.200 F 
ENDBRANCH 102 126
ENDBRANCH  67  70
ENDBRANCH  57  60
ENDBRANCH  53  56
ENDBRANCH  50  53
ENDBRANCH  47  50
ENDBRANCH   1  47
TORSDOF 19
ENDMDL
MODEL 3
REMARK VINA RESULT:     -11.6      1.750      3.040
REMARK SMILES COc1ccc(C(=O)c2ccccc2)cc1[C@@H](C)C(=O)NCCCCCCNC(=O)c1ccc(-c2c3nc(c(-c4c(F)c(F)c(F)c(F)c4F)c4ccc([nH]4)c(-c4c(F)c(F)c(F)c(F)c4F)c4nc(c(-c5c(F)c(F)c(F)c(F)c5F)c5ccc2[nH]5)C=C4)C=C3)cc1
REMARK SMILES IDX 24 1 23 4 22 7 21 10 19 11 20 12 17 14 16 16 3 17 4 18 5 19
REMARK SMILES IDX 15 21 6 22 2 25 1 26 7 30 8 31 9 32 10 33 14 34 11 35 13 37
REMARK SMILES IDX 12 39 18 43 25 47 26 50 27 53 28 56 29 57 30 59 31 60 32 61
REMARK SMILES IDX 93 62 33 63 92 65 34 67 35 70 36 71 86 72 37 73 91 74 85 75
REMARK SMILES IDX 87 76 38 77 90 78 84 80 83 82 39 84 71 87 51 88 70 89 52 90
REMARK SMILES IDX 55 91 69 92 88 93 53 94 54 96 68 98 89 99 56 102 40 104
REMARK SMILES IDX 41 105 49 106 42 107 43 108 47 109 50 110 44 111 45 112
REMARK SMILES IDX 48 113 46 114 72 115 73 116 81 117 74 118 75 119 79 120
REMARK SMILES IDX 82 121 76 122 77 123 80 124 78 125 57 126 58 127 66 128
REMARK SMILES IDX 59 129 60 130 64 131 67 132 61 133 62 134 65 135 63 136
REMARK H PARENT 24 2 24 3 23 5 23 6 22 8 22 9 21 13 17 15 4 20 5 23 15 24 1 27
REMARK H PARENT 1 28 1 29 10 36 14 38 11 40 13 41 12 42 18 44 18 45 18 46
REMARK H PARENT 25 48 25 49 26 51 26 52 27 54 27 55 28 58 32 64 93 66 33 68
REMARK H PARENT 92 69 91 79 85 81 87 83 90 85 84 86 52 95 55 97 88 100 53 101
REMARK H PARENT 89 103
REMARK Flexibility Score: inf
ROOT
ATOM      1  C   UNL A   1      32.501  29.619  26.008  1.00  0.00    -0.052 C 
ATOM      2  H   UNL A   1      32.874  29.142  25.126  1.00  0.00     0.027 H 
ATOM      3  H   UNL A   1      33.185  30.305  26.461  1.00  0.00     0.027 H 
ENDROOT
BRANCH   1   4
ATOM      4  C   UNL A   1      32.253  28.531  27.059  1.00  0.00    -0.036 C 
ATOM      5  H   UNL A   1      33.177  28.016  27.223  1.00  0.00     0.028 H 
ATOM      6  H   UNL A   1      31.880  29.040  27.924  1.00  0.00     0.028 H 
BRANCH   4   7
ATOM      7  C   UNL A   1      31.190  27.488  26.697  1.00  0.00     0.017 C 
ATOM      8  H   UNL A   1      30.319  27.659  27.294  1.00  0.00     0.049 H 
ATOM      9  H   UNL A   1      30.969  27.588  25.655  1.00  0.00     0.049 H 
BRANCH   7  10
ATOM     10  N   UNL A   1      31.658  26.133  26.928  1.00  0.00    -0.356 N 
ATOM     11  C   UNL A   1      31.465  24.951  26.284  1.00  0.00     0.227 C 
ATOM     12  O   UNL A   1      31.977  23.960  26.824  1.00  0.00    -0.274 OA
ATOM     13  H   UNL A   1      32.236  26.053  27.720  1.00  0.00     0.163 HD
BRANCH  11  14
ATOM     14  C   UNL A   1      30.661  24.766  24.983  1.00  0.00     0.064 C 
ATOM     15  H   UNL A   1      29.657  24.665  25.337  1.00  0.00     0.045 H 
BRANCH  14  16
ATOM     16  C   UNL A   1      30.677  25.997  24.087  1.00  0.00     0.007 A 
ATOM     17  C   UNL A   1      31.822  26.420  23.392  1.00  0.00     0.122 A 
ATOM     18  C   UNL A   1      31.784  27.547  22.563  1.00  0.00    -0.019 A 
ATOM     19  C   UNL A   1      30.607  28.286  22.426  1.00  0.00    -0.047 A 
ATOM     20  H   UNL A   1      32.632  27.836  22.051  1.00  0.00     0.066 H 
ATOM     21  C   UNL A   1      29.513  26.776  23.948  1.00  0.00    -0.043 A 
ATOM     22  C   UNL A   1      29.468  27.924  23.147  1.00  0.00     0.023 A 
ATOM     23  H   UNL A   1      30.579  29.100  21.792  1.00  0.00     0.063 H 
ATOM     24  H   UNL A   1      28.660  26.491  24.456  1.00  0.00     0.064 H 
BRANCH  17  25
ATOM     25  O   UNL A   1      33.061  25.881  23.614  1.00  0.00    -0.496 OA
BRANCH  25  26
ATOM     26  C   UNL A   1      33.965  26.771  24.268  1.00  0.00     0.078 C 
ATOM     27  H   UNL A   1      34.484  26.247  25.044  1.00  0.00     0.067 H 
ATOM     28  H   UNL A   1      33.419  27.587  24.693  1.00  0.00     0.067 H 
ATOM     29  H   UNL A   1      34.673  27.147  23.558  1.00  0.00     0.067 H 
ENDBRANCH  25  26
ENDBRANCH  17  25
BRANCH  22  30
ATOM     30  C   UNL A   1      28.237  28.751  23.002  1.00  0.00     0.193 C 
ATOM     31  O   UNL A   1      27.151  28.268  23.317  1.00  0.00    -0.289 OA
BRANCH  30  32
ATOM     32  C   UNL A   1      28.258  30.159  22.529  1.00  0.00     0.022 A 
ATOM     33  C   UNL A   1      28.411  31.160  23.493  1.00  0.00    -0.051 A 
ATOM     34  C   UNL A   1      28.080  30.516  21.185  1.00  0.00    -0.051 A 
ATOM     35  C   UNL A   1      28.410  32.501  23.114  1.00  0.00    -0.062 A 
ATOM     36  H   UNL A   1      28.524  30.905  24.486  1.00  0.00     0.063 H 
ATOM     37  C   UNL A   1      28.110  31.863  20.808  1.00  0.00    -0.062 A 
ATOM     38  H   UNL A   1      27.926  29.784  20.473  1.00  0.00     0.063 H 
ATOM     39  C   UNL A   1      28.275  32.855  21.774  1.00  0.00    -0.062 A 
ATOM     40  H   UNL A   1      28.508  33.236  23.831  1.00  0.00     0.062 H 
ATOM     41  H   UNL A   1      28.010  32.122  19.815  1.00  0.00     0.062 H 
ATOM     42  H   UNL A   1      28.299  33.848  21.496  1.00  0.00     0.062 H 
ENDBRANCH  30  32
ENDBRANCH  22  30
ENDBRANCH  14  16
BRANCH  14  43
ATOM     43  C   UNL A   1      30.864  23.451  24.236  1.00  0.00    -0.049 C 
ATOM     44  H   UNL A   1      31.218  22.705  24.916  1.00  0.00     0.024 H 
ATOM     45  H   UNL A   1      31.583  23.593  23.456  1.00  0.00     0.024 H 
ATOM     46  H   UNL A   1      29.934  23.135  23.811  1.00  0.00     0.024 H 
ENDBRANCH  14  43
ENDBRANCH  11  14
ENDBRANCH   7  10
ENDBRANCH   4   7
ENDBRANCH   1   4
BRANCH   1  47
ATOM     47  C   UNL A   1      31.282  30.461  25.605  1.00  0.00    -0.052 C 
ATOM     48  H   UNL A   1      30.404  29.899  25.847  1.00  0.00     0.027 H 
ATOM     49  H   UNL A   1      31.409  30.660  24.562  1.00  0.00     0.027 H 
BRANCH  47  50
ATOM     50  C   UNL A   1      31.151  31.838  26.268  1.00  0.00    -0.036 C 
ATOM     51  H   UNL A   1      30.401  31.766  27.028  1.00  0.00     0.028 H 
ATOM     52  H   UNL A   1      30.909  32.519  25.479  1.00  0.00     0.028 H 
BRANCH  50  53
ATOM     53  C   UNL A   1      32.422  32.393  26.917  1.00  0.00     0.018 C 
ATOM     54  H   UNL A   1      33.206  32.390  26.189  1.00  0.00     0.049 H 
ATOM     55  H   UNL A   1      32.655  31.769  27.754  1.00  0.00     0.049 H 
BRANCH  53  56
ATOM     56  N   UNL A   1      32.255  33.748  27.414  1.00  0.00    -0.352 N 
ATOM     57  C   UNL A   1      32.969  34.434  28.370  1.00  0.00     0.251 C 
ATOM     58  H   UNL A   1      31.518  34.254  27.003  1.00  0.00     0.163 HD
ATOM     59  O   UNL A   1      32.569  35.530  28.751  1.00  0.00    -0.269 OA
BRANCH  57  60
ATOM     60  C   UNL A   1      34.206  33.871  28.969  1.00  0.00     0.039 A 
ATOM     61  C   UNL A   1      34.092  32.824  29.888  1.00  0.00    -0.049 A 
ATOM     62  C   UNL A   1      35.467  34.409  28.707  1.00  0.00    -0.049 A 
ATOM     63  C   UNL A   1      35.236  32.292  30.498  1.00  0.00    -0.053 A 
ATOM     64  H   UNL A   1      33.162  32.441  30.118  1.00  0.00     0.063 H 
ATOM     65  C   UNL A   1      36.619  33.832  29.265  1.00  0.00    -0.053 A 
ATOM     66  H   UNL A   1      35.554  35.236  28.097  1.00  0.00     0.063 H 
ATOM     67  C   UNL A   1      36.519  32.770  30.177  1.00  0.00    -0.014 A 
ATOM     68  H   UNL A   1      35.136  31.537  31.195  1.00  0.00     0.063 H 
ATOM     69  H   UNL A   1      37.549  34.194  29.001  1.00  0.00     0.063 H 
BRANCH  67  70
ATOM     70  C   UNL A   1      37.728  32.151  30.801  1.00  0.00     0.031 A 
ATOM     71  C   UNL A   1      38.186  32.530  32.187  1.00  0.00     0.074 A 
ATOM     72  C   UNL A   1      38.434  31.225  30.120  1.00  0.00     0.049 A 
ATOM     73  N   UNL A   1      39.157  32.019  32.908  1.00  0.00    -0.248 NA
ATOM     74  C   UNL A   1      37.481  33.639  32.845  1.00  0.00    -0.034 C 
ATOM     75  C   UNL A   1      38.164  30.801  28.746  1.00  0.00    -0.036 A 
ATOM     76  N   UNL A   1      39.517  30.464  30.494  1.00  0.00    -0.354 N 
ATOM     77  C   UNL A   1      39.181  32.743  34.092  1.00  0.00     0.074 A 
ATOM     78  C   UNL A   1      38.163  33.766  33.975  1.00  0.00    -0.034 C 
ATOM     79  H   UNL A   1      36.666  34.179  32.513  1.00  0.00     0.065 H 
ATOM     80  C   UNL A   1      39.029  29.831  28.407  1.00  0.00    -0.036 A 
ATOM     81  H   UNL A   1      37.428  31.186  28.135  1.00  0.00     0.065 H 
ATOM     82  C   UNL A   1      39.927  29.575  29.531  1.00  0.00     0.049 A 
ATOM     83  H   UNL A   1      39.957  30.549  31.371  1.00  0.00     0.167 HD
ATOM     84  C   UNL A   1      39.956  32.562  35.190  1.00  0.00     0.037 A 
ATOM     85  H   UNL A   1      37.990  34.500  34.679  1.00  0.00     0.065 H 
ATOM     86  H   UNL A   1      39.055  29.344  27.498  1.00  0.00     0.065 H 
ATOM     87  C   UNL A   1      40.903  28.645  29.547  1.00  0.00     0.037 A 
ATOM     88  C   UNL A   1      40.952  31.530  35.337  1.00  0.00     0.049 A 
ATOM     89  C   UNL A   1      41.726  28.439  30.789  1.00  0.00     0.074 A 
ATOM     90  C   UNL A   1      41.718  31.224  36.451  1.00  0.00    -0.036 A 
ATOM     91  N   UNL A   1      41.325  30.643  34.343  1.00  0.00    -0.354 N 
ATOM     92  N   UNL A   1      41.661  29.061  31.939  1.00  0.00    -0.248 NA
ATOM     93  C   UNL A   1      42.752  27.385  30.736  1.00  0.00    -0.034 C 
ATOM     94  C   UNL A   1      42.586  30.179  36.115  1.00  0.00    -0.036 A 
ATOM     95  H   UNL A   1      41.658  31.688  37.371  1.00  0.00     0.065 H 
ATOM     96  C   UNL A   1      42.329  29.804  34.808  1.00  0.00     0.049 A 
ATOM     97  H   UNL A   1      40.938  30.611  33.439  1.00  0.00     0.167 HD
ATOM     98  C   UNL A   1      42.615  28.462  32.752  1.00  0.00     0.074 A 
ATOM     99  C   UNL A   1      43.233  27.413  31.972  1.00  0.00    -0.034 C 
ATOM    100  H   UNL A   1      43.025  26.782  29.945  1.00  0.00     0.065 H 
ATOM    101  H   UNL A   1      43.297  29.761  36.736  1.00  0.00     0.065 H 
ATOM    102  C   UNL A   1      42.946  28.759  34.032  1.00  0.00     0.037 A 
ATOM    103  H   UNL A   1      43.956  26.769  32.329  1.00  0.00     0.065 H 
BRANCH  84 104
ATOM    104  C   UNL A   1      39.750  33.498  36.347  1.00  0.00     0.064 A 
ATOM    105  C   UNL A   1      40.377  34.753  36.394  1.00  0.00     0.173 A 
ATOM    106  C   UNL A   1      38.871  33.163  37.388  1.00  0.00     0.173 A 
ATOM    107  F   UNL A   1      41.227  35.119  35.424  1.00  0.00    -0.203 F 
ATOM    108  C   UNL A   1      40.153  35.626  37.455  1.00  0.00     0.198 A 
ATOM    109  C   UNL A   1      38.629  34.050  38.435  1.00  0.00     0.198 A 
ATOM    110  F   UNL A   1      38.237  31.981  37.386  1.00  0.00    -0.203 F 
ATOM    111  F   UNL A   1      40.793  36.802  37.499  1.00  0.00    -0.200 F 
ATOM    112  C   UNL A   1      39.274  35.277  38.470  1.00  0.00     0.200 A 
ATOM    113  F   UNL A   1      37.768  33.720  39.407  1.00  0.00    -0.200 F 
ATOM    114  F   UNL A   1      39.053  36.124  39.486  1.00  0.00    -0.200 F 
ENDBRANCH  84 104
BRANCH  87 115
ATOM    115  C   UNL A   1      41.131  27.796  28.350  1.00  0.00     0.064 A 
ATOM    116  C   UNL A   1      42.011  28.200  27.337  1.00  0.00     0.173 A 
ATOM    117  C   UNL A   1      40.467  26.571  28.190  1.00  0.00     0.173 A 
ATOM    118  F   UNL A   1      42.650  29.376  27.436  1.00  0.00    -0.203 F 
ATOM    119  C   UNL A   1      42.204  27.421  26.199  1.00  0.00     0.198 A 
ATOM    120  C   UNL A   1      40.682  25.780  27.065  1.00  0.00     0.198 A 
ATOM    121  F   UNL A   1      39.618  26.139  29.134  1.00  0.00    -0.203 F 
ATOM    122  F   UNL A   1      43.017  27.851  25.225  1.00  0.00    -0.200 F 
ATOM    123  C   UNL A   1      41.544  26.208  26.066  1.00  0.00     0.200 A 
ATOM    124  F   UNL A   1      40.051  24.604  26.946  1.00  0.00    -0.200 F 
ATOM    125  F   UNL A   1      41.733  25.457  24.973  1.00  0.00    -0.200 F 
ENDBRANCH  87 115
BRANCH 102 126
ATOM    126  C   UNL A   1      44.012  27.924  34.682  1.00  0.00     0.064 A 
ATOM    127  C   UNL A   1      43.711  26.715  35.327  1.00  0.00     0.173 A 
ATOM    128  C   UNL A   1      45.356  28.328  34.642  1.00  0.00     0.173 A 
ATOM    129  F   UNL A   1      42.440  26.292  35.406  1.00  0.00    -0.203 F 
ATOM    130  C   UNL A   1      44.709  25.957  35.933  1.00  0.00     0.198 A 
ATOM    131  C   UNL A   1      46.356  27.553  35.225  1.00  0.00     0.198 A 
ATOM    132  F   UNL A   1      45.701  29.473  34.034  1.00  0.00    -0.203 F 
ATOM    133  F   UNL A   1      44.390  24.831  36.588  1.00  0.00    -0.200 F 
ATOM    134  C   UNL A   1      46.031  26.373  35.879  1.00  0.00     0.200 A 
ATOM    135  F   UNL A   1      47.634  27.952  35.163  1.00  0.00    -0.200 F 
ATOM    136  F   UNL A   1      46.990  25.642  36.463  1.00  0.00    -0.200 F 
ENDBRANCH 102 126
ENDBRANCH  67  70
ENDBRANCH  57  60
ENDBRANCH  53  56
ENDBRANCH  50  53
ENDBRANCH  47  50
ENDBRANCH   1  47
TORSDOF 19
ENDMDL
MODEL 4
REMARK VINA RESULT:     -11.3      4.442      9.981
REMARK SMILES COc1ccc(C(=O)c2ccccc2)cc1[C@@H](C)C(=O)NCCCCCCNC(=O)c1ccc(-c2c3nc(c(-c4c(F)c(F)c(F)c(F)c4F)c4ccc([nH]4)c(-c4c(F)c(F)c(F)c(F)c4F)c4nc(c(-c5c(F)c(F)c(F)c(F)c5F)c5ccc2[nH]5)C=C4)C=C3)cc1
REMARK SMILES IDX 24 1 23 4 22 7 21 10 19 11 20 12 17 14 16 16 3 17 4 18 5 19
REMARK SMILES IDX 15 21 6 22 2 25 1 26 7 30 8 31 9 32 10 33 14 34 11 35 13 37
REMARK SMILES IDX 12 39 18 43 25 47 26 50 27 53 28 56 29 57 30 59 31 60 32 61
REMARK SMILES IDX 93 62 33 63 92 65 34 67 35 70 36 71 86 72 37 73 91 74 85 75
REMARK SMILES IDX 87 76 38 77 90 78 84 80 83 82 39 84 71 87 51 88 70 89 52 90
REMARK SMILES IDX 55 91 69 92 88 93 53 94 54 96 68 98 89 99 56 102 40 104
REMARK SMILES IDX 41 105 49 106 42 107 43 108 47 109 50 110 44 111 45 112
REMARK SMILES IDX 48 113 46 114 72 115 73 116 81 117 74 118 75 119 79 120
REMARK SMILES IDX 82 121 76 122 77 123 80 124 78 125 57 126 58 127 66 128
REMARK SMILES IDX 59 129 60 130 64 131 67 132 61 133 62 134 65 135 63 136
REMARK H PARENT 24 2 24 3 23 5 23 6 22 8 22 9 21 13 17 15 4 20 5 23 15 24 1 27
REMARK H PARENT 1 28 1 29 10 36 14 38 11 40 13 41 12 42 18 44 18 45 18 46
REMARK H PARENT 25 48 25 49 26 51 26 52 27 54 27 55 28 58 32 64 93 66 33 68
REMARK H PARENT 92 69 91 79 85 81 87 83 90 85 84 86 52 95 55 97 88 100 53 101
REMARK H PARENT 89 103
REMARK Flexibility Score: inf
ROOT
ATOM      1  C   UNL A   1      35.350  21.837  26.112  1.00  0.00    -0.052 C 
ATOM      2  H   UNL A   1      36.229  22.029  26.691  1.00  0.00     0.027 H 
ATOM      3  H   UNL A   1      34.986  22.685  25.571  1.00  0.00     0.027 H 
ENDROOT
BRANCH   1   4
ATOM      4  C   UNL A   1      34.227  21.455  27.082  1.00  0.00    -0.036 C 
ATOM      5  H   UNL A   1      33.440  21.004  26.512  1.00  0.00     0.028 H 
ATOM      6  H   UNL A   1      34.672  20.798  27.800  1.00  0.00     0.028 H 
BRANCH   4   7
ATOM      7  C   UNL A   1      33.623  22.609  27.888  1.00  0.00     0.017 C 
ATOM      8  H   UNL A   1      33.952  22.532  28.903  1.00  0.00     0.049 H 
ATOM      9  H   UNL A   1      33.947  23.528  27.446  1.00  0.00     0.049 H 
BRANCH   7  10
ATOM     10  N   UNL A   1      32.171  22.589  27.863  1.00  0.00    -0.356 N 
ATOM     11  C   UNL A   1      31.233  23.301  27.183  1.00  0.00     0.227 C 
ATOM     12  O   UNL A   1      30.056  23.051  27.479  1.00  0.00    -0.274 OA
ATOM     13  H   UNL A   1      31.783  21.917  28.469  1.00  0.00     0.163 HD
BRANCH  11  14
ATOM     14  C   UNL A   1      31.530  24.378  26.122  1.00  0.00     0.064 C 
ATOM     15  H   UNL A   1      32.190  25.043  26.636  1.00  0.00     0.045 H 
BRANCH  14  16
ATOM     16  C   UNL A   1      32.307  23.844  24.925  1.00  0.00     0.007 A 
ATOM     17  C   UNL A   1      33.366  24.548  24.329  1.00  0.00     0.122 A 
ATOM     18  C   UNL A   1      34.065  24.008  23.243  1.00  0.00    -0.019 A 
ATOM     19  C   UNL A   1      33.708  22.764  22.719  1.00  0.00    -0.047 A 
ATOM     20  H   UNL A   1      34.848  24.533  22.825  1.00  0.00     0.066 H 
ATOM     21  C   UNL A   1      31.954  22.605  24.360  1.00  0.00    -0.043 A 
ATOM     22  C   UNL A   1      32.624  22.066  23.254  1.00  0.00     0.023 A 
ATOM     23  H   UNL A   1      34.246  22.360  21.936  1.00  0.00     0.063 H 
ATOM     24  H   UNL A   1      31.173  22.073  24.775  1.00  0.00     0.064 H 
BRANCH  17  25
ATOM     25  O   UNL A   1      33.659  25.848  24.643  1.00  0.00    -0.496 OA
BRANCH  25  26
ATOM     26  C   UNL A   1      33.349  26.774  23.603  1.00  0.00     0.078 C 
ATOM     27  H   UNL A   1      33.753  26.420  22.677  1.00  0.00     0.067 H 
ATOM     28  H   UNL A   1      33.774  27.728  23.836  1.00  0.00     0.067 H 
ATOM     29  H   UNL A   1      32.287  26.869  23.514  1.00  0.00     0.067 H 
ENDBRANCH  25  26
ENDBRANCH  17  25
BRANCH  22  30
ATOM     30  C   UNL A   1      32.249  20.756  22.652  1.00  0.00     0.193 C 
ATOM     31  O   UNL A   1      31.725  20.736  21.540  1.00  0.00    -0.289 OA
BRANCH  30  32
ATOM     32  C   UNL A   1      32.515  19.453  23.316  1.00  0.00     0.022 A 
ATOM     33  C   UNL A   1      32.468  19.422  24.712  1.00  0.00    -0.051 A 
ATOM     34  C   UNL A   1      32.856  18.292  22.610  1.00  0.00    -0.051 A 
ATOM     35  C   UNL A   1      32.735  18.237  25.394  1.00  0.00    -0.062 A 
ATOM     36  H   UNL A   1      32.235  20.278  25.239  1.00  0.00     0.063 H 
ATOM     37  C   UNL A   1      33.094  17.098  23.300  1.00  0.00    -0.062 A 
ATOM     38  H   UNL A   1      32.933  18.317  21.581  1.00  0.00     0.063 H 
ATOM     39  C   UNL A   1      33.033  17.071  24.692  1.00  0.00    -0.062 A 
ATOM     40  H   UNL A   1      32.714  18.223  26.426  1.00  0.00     0.062 H 
ATOM     41  H   UNL A   1      33.314  16.236  22.777  1.00  0.00     0.062 H 
ATOM     42  H   UNL A   1      33.207  16.191  25.201  1.00  0.00     0.062 H 
ENDBRANCH  30  32
ENDBRANCH  22  30
ENDBRANCH  14  16
BRANCH  14  43
ATOM     43  C   UNL A   1      30.376  25.305  25.749  1.00  0.00    -0.049 C 
ATOM     44  H   UNL A   1      29.695  24.787  25.106  1.00  0.00     0.024 H 
ATOM     45  H   UNL A   1      30.761  26.166  25.243  1.00  0.00     0.024 H 
ATOM     46  H   UNL A   1      29.865  25.613  26.637  1.00  0.00     0.024 H 
ENDBRANCH  14  43
ENDBRANCH  11  14
ENDBRANCH   7  10
ENDBRANCH   4   7
ENDBRANCH   1   4
BRANCH   1  47
ATOM     47  C   UNL A   1      35.709  20.793  25.046  1.00  0.00    -0.052 C 
ATOM     48  H   UNL A   1      35.048  20.933  24.217  1.00  0.00     0.027 H 
ATOM     49  H   UNL A   1      35.615  19.846  25.535  1.00  0.00     0.027 H 
BRANCH  47  50
ATOM     50  C   UNL A   1      37.145  20.830  24.507  1.00  0.00    -0.036 C 
ATOM     51  H   UNL A   1      37.127  21.325  23.559  1.00  0.00     0.028 H 
ATOM     52  H   UNL A   1      37.464  19.810  24.461  1.00  0.00     0.028 H 
BRANCH  50  53
ATOM     53  C   UNL A   1      38.173  21.545  25.388  1.00  0.00     0.018 C 
ATOM     54  H   UNL A   1      37.652  22.182  26.072  1.00  0.00     0.049 H 
ATOM     55  H   UNL A   1      38.820  22.100  24.743  1.00  0.00     0.049 H 
BRANCH  53  56
ATOM     56  N   UNL A   1      39.000  20.624  26.150  1.00  0.00    -0.352 N 
ATOM     57  C   UNL A   1      40.147  20.856  26.874  1.00  0.00     0.251 C 
ATOM     58  H   UNL A   1      38.691  19.689  26.149  1.00  0.00     0.163 HD
ATOM     59  O   UNL A   1      40.778  19.904  27.326  1.00  0.00    -0.269 OA
BRANCH  57  60
ATOM     60  C   UNL A   1      40.654  22.232  27.107  1.00  0.00     0.039 A 
ATOM     61  C   UNL A   1      41.569  22.445  28.143  1.00  0.00    -0.049 A 
ATOM     62  C   UNL A   1      40.185  23.327  26.381  1.00  0.00    -0.049 A 
ATOM     63  C   UNL A   1      42.042  23.737  28.412  1.00  0.00    -0.053 A 
ATOM     64  H   UNL A   1      41.896  21.649  28.712  1.00  0.00     0.063 H 
ATOM     65  C   UNL A   1      40.710  24.610  26.605  1.00  0.00    -0.053 A 
ATOM     66  H   UNL A   1      39.448  23.193  25.672  1.00  0.00     0.063 H 
ATOM     67  C   UNL A   1      41.640  24.834  27.631  1.00  0.00    -0.014 A 
ATOM     68  H   UNL A   1      42.696  23.884  29.197  1.00  0.00     0.063 H 
ATOM     69  H   UNL A   1      40.408  25.395  26.008  1.00  0.00     0.063 H 
BRANCH  67  70
ATOM     70  C   UNL A   1      42.199  26.194  27.905  1.00  0.00     0.031 A 
ATOM     71  C   UNL A   1      43.543  26.620  27.369  1.00  0.00     0.074 A 
ATOM     72  C   UNL A   1      41.493  27.072  28.646  1.00  0.00     0.049 A 
ATOM     73  N   UNL A   1      44.128  27.793  27.437  1.00  0.00    -0.248 NA
ATOM     74  C   UNL A   1      44.347  25.595  26.687  1.00  0.00    -0.034 C 
ATOM     75  C   UNL A   1      40.212  26.791  29.294  1.00  0.00    -0.036 A 
ATOM     76  N   UNL A   1      41.746  28.385  28.969  1.00  0.00    -0.354 N 
ATOM     77  C   UNL A   1      45.361  27.646  26.815  1.00  0.00     0.074 A 
ATOM     78  C   UNL A   1      45.466  26.256  26.423  1.00  0.00    -0.034 C 
ATOM     79  H   UNL A   1      44.103  24.616  26.470  1.00  0.00     0.065 H 
ATOM     80  C   UNL A   1      39.773  27.905  29.902  1.00  0.00    -0.036 A 
ATOM     81  H   UNL A   1      39.725  25.882  29.286  1.00  0.00     0.065 H 
ATOM     82  C   UNL A   1      40.748  28.976  29.705  1.00  0.00     0.049 A 
ATOM     83  H   UNL A   1      42.567  28.857  28.699  1.00  0.00     0.167 HD
ATOM     84  C   UNL A   1      46.311  28.582  26.566  1.00  0.00     0.037 A 
ATOM     85  H   UNL A   1      46.303  25.833  25.994  1.00  0.00     0.065 H 
ATOM     86  H   UNL A   1      38.888  27.991  30.427  1.00  0.00     0.065 H 
ATOM     87  C   UNL A   1      40.615  30.238  30.158  1.00  0.00     0.037 A 
ATOM     88  C   UNL A   1      46.211  29.975  26.921  1.00  0.00     0.049 A 
ATOM     89  C   UNL A   1      41.665  31.267  29.839  1.00  0.00     0.074 A 
ATOM     90  C   UNL A   1      47.090  31.005  26.627  1.00  0.00    -0.036 A 
ATOM     91  N   UNL A   1      45.176  30.534  27.652  1.00  0.00    -0.354 N 
ATOM     92  N   UNL A   1      42.774  31.135  29.155  1.00  0.00    -0.248 NA
ATOM     93  C   UNL A   1      41.433  32.629  30.345  1.00  0.00    -0.034 C 
ATOM     94  C   UNL A   1      46.608  32.179  27.218  1.00  0.00    -0.036 A 
ATOM     95  H   UNL A   1      47.953  30.921  26.066  1.00  0.00     0.065 H 
ATOM     96  C   UNL A   1      45.406  31.890  27.841  1.00  0.00     0.049 A 
ATOM     97  H   UNL A   1      44.393  30.043  27.990  1.00  0.00     0.167 HD
ATOM     98  C   UNL A   1      43.358  32.395  29.128  1.00  0.00     0.074 A 
ATOM     99  C   UNL A   1      42.472  33.285  29.846  1.00  0.00    -0.034 C 
ATOM    100  H   UNL A   1      40.663  32.982  30.933  1.00  0.00     0.065 H 
ATOM    101  H   UNL A   1      47.071  33.101  27.194  1.00  0.00     0.065 H 
ATOM    102  C   UNL A   1      44.526  32.776  28.556  1.00  0.00     0.037 A 
ATOM    103  H   UNL A   1      42.628  34.299  29.958  1.00  0.00     0.065 H 
BRANCH  84 104
ATOM    104  C   UNL A   1      47.555  28.135  25.853  1.00  0.00     0.064 A 
ATOM    105  C   UNL A   1      48.745  27.874  26.549  1.00  0.00     0.173 A 
ATOM    106  C   UNL A   1      47.540  27.906  24.468  1.00  0.00     0.173 A 
ATOM    107  F   UNL A   1      48.811  28.080  27.873  1.00  0.00    -0.203 F 
ATOM    108  C   UNL A   1      49.883  27.429  25.882  1.00  0.00     0.198 A 
ATOM    109  C   UNL A   1      48.673  27.434  23.808  1.00  0.00     0.198 A 
ATOM    110  F   UNL A   1      46.425  28.127  23.757  1.00  0.00    -0.203 F 
ATOM    111  F   UNL A   1      51.020  27.226  26.561  1.00  0.00    -0.200 F 
ATOM    112  C   UNL A   1      49.844  27.203  24.514  1.00  0.00     0.200 A 
ATOM    113  F   UNL A   1      48.630  27.201  22.489  1.00  0.00    -0.200 F 
ATOM    114  F   UNL A   1      50.938  26.764  23.875  1.00  0.00    -0.200 F 
ENDBRANCH  84 104
BRANCH  87 115
ATOM    115  C   UNL A   1      39.407  30.619  30.934  1.00  0.00     0.064 A 
ATOM    116  C   UNL A   1      39.364  30.452  32.325  1.00  0.00     0.173 A 
ATOM    117  C   UNL A   1      38.273  31.146  30.302  1.00  0.00     0.173 A 
ATOM    118  F   UNL A   1      40.417  29.930  32.970  1.00  0.00    -0.203 F 
ATOM    119  C   UNL A   1      38.221  30.780  33.053  1.00  0.00     0.198 A 
ATOM    120  C   UNL A   1      37.141  31.499  31.034  1.00  0.00     0.198 A 
ATOM    121  F   UNL A   1      38.268  31.328  28.973  1.00  0.00    -0.203 F 
ATOM    122  F   UNL A   1      38.189  30.570  34.376  1.00  0.00    -0.200 F 
ATOM    123  C   UNL A   1      37.114  31.308  32.407  1.00  0.00     0.200 A 
ATOM    124  F   UNL A   1      36.078  32.020  30.408  1.00  0.00    -0.200 F 
ATOM    125  F   UNL A   1      36.017  31.627  33.108  1.00  0.00    -0.200 F 
ENDBRANCH  87 115
BRANCH 102 126
ATOM    126  C   UNL A   1      44.908  34.226  28.664  1.00  0.00     0.064 A 
ATOM    127  C   UNL A   1      45.731  34.696  29.698  1.00  0.00     0.173 A 
ATOM    128  C   UNL A   1      44.461  35.152  27.709  1.00  0.00     0.173 A 
ATOM    129  F   UNL A   1      46.172  33.854  30.644  1.00  0.00    -0.203 F 
ATOM    130  C   UNL A   1      46.068  36.044  29.790  1.00  0.00     0.198 A 
ATOM    131  C   UNL A   1      44.823  36.496  27.788  1.00  0.00     0.198 A 
ATOM    132  F   UNL A   1      43.676  34.756  26.696  1.00  0.00    -0.203 F 
ATOM    133  F   UNL A   1      46.813  36.478  30.817  1.00  0.00    -0.200 F 
ATOM    134  C   UNL A   1      45.618  36.942  28.834  1.00  0.00     0.200 A 
ATOM    135  F   UNL A   1      44.395  37.360  26.857  1.00  0.00    -0.200 F 
ATOM    136  F   UNL A   1      45.943  38.239  28.924  1.00  0.00    -0.200 F 
ENDBRANCH 102 126
ENDBRANCH  67  70
ENDBRANCH  57  60
ENDBRANCH  53  56
ENDBRANCH  50  53
ENDBRANCH  47  50
ENDBRANCH   1  47
TORSDOF 19
ENDMDL
MODEL 5
REMARK VINA RESULT:     -11.3      1.687      2.991
REMARK SMILES COc1ccc(C(=O)c2ccccc2)cc1[C@@H](C)C(=O)NCCCCCCNC(=O)c1ccc(-c2c3nc(c(-c4c(F)c(F)c(F)c(F)c4F)c4ccc([nH]4)c(-c4c(F)c(F)c(F)c(F)c4F)c4nc(c(-c5c(F)c(F)c(F)c(F)c5F)c5ccc2[nH]5)C=C4)C=C3)cc1
REMARK SMILES IDX 24 1 23 4 22 7 21 10 19 11 20 12 17 14 16 16 3 17 4 18 5 19
REMARK SMILES IDX 15 21 6 22 2 25 1 26 7 30 8 31 9 32 10 33 14 34 11 35 13 37
REMARK SMILES IDX 12 39 18 43 25 47 26 50 27 53 28 56 29 57 30 59 31 60 32 61
REMARK SMILES IDX 93 62 33 63 92 65 34 67 35 70 36 71 86 72 37 73 91 74 85 75
REMARK SMILES IDX 87 76 38 77 90 78 84 80 83 82 39 84 71 87 51 88 70 89 52 90
REMARK SMILES IDX 55 91 69 92 88 93 53 94 54 96 68 98 89 99 56 102 40 104
REMARK SMILES IDX 41 105 49 106 42 107 43 108 47 109 50 110 44 111 45 112
REMARK SMILES IDX 48 113 46 114 72 115 73 116 81 117 74 118 75 119 79 120
REMARK SMILES IDX 82 121 76 122 77 123 80 124 78 125 57 126 58 127 66 128
REMARK SMILES IDX 59 129 60 130 64 131 67 132 61 133 62 134 65 135 63 136
REMARK H PARENT 24 2 24 3 23 5 23 6 22 8 22 9 21 13 17 15 4 20 5 23 15 24 1 27
REMARK H PARENT 1 28 1 29 10 36 14 38 11 40 13 41 12 42 18 44 18 45 18 46
REMARK H PARENT 25 48 25 49 26 51 26 52 27 54 27 55 28 58 32 64 93 66 33 68
REMARK H PARENT 92 69 91 79 85 81 87 83 90 85 84 86 52 95 55 97 88 100 53 101
REMARK H PARENT 89 103
REMARK Flexibility Score: inf
ROOT
ATOM      1  C   UNL A   1      32.172  29.366  26.361  1.00  0.00    -0.052 C 
ATOM      2  H   UNL A   1      32.949  29.056  25.694  1.00  0.00     0.027 H 
ATOM      3  H   UNL A   1      32.524  29.791  27.278  1.00  0.00     0.027 H 
ENDROOT
BRANCH   1   4
ATOM      4  C   UNL A   1      31.375  28.121  26.764  1.00  0.00    -0.036 C 
ATOM      5  H   UNL A   1      31.205  28.167  27.819  1.00  0.00     0.028 H 
ATOM      6  H   UNL A   1      30.479  28.147  26.178  1.00  0.00     0.028 H 
BRANCH   4   7
ATOM      7  C   UNL A   1      32.041  26.777  26.452  1.00  0.00     0.017 C 
ATOM      8  H   UNL A   1      32.168  26.690  25.393  1.00  0.00     0.049 H 
ATOM      9  H   UNL A   1      32.984  26.749  26.957  1.00  0.00     0.049 H 
BRANCH   7  10
ATOM     10  N   UNL A   1      31.248  25.655  26.923  1.00  0.00    -0.356 N 
ATOM     11  C   UNL A   1      30.551  24.670  26.296  1.00  0.00     0.227 C 
ATOM     12  O   UNL A   1      29.919  23.908  27.041  1.00  0.00    -0.274 OA
ATOM     13  H   UNL A   1      31.203  25.597  27.904  1.00  0.00     0.163 HD
BRANCH  11  14
ATOM     14  C   UNL A   1      30.481  24.460  24.771  1.00  0.00     0.064 C 
ATOM     15  H   UNL A   1      29.493  24.075  24.630  1.00  0.00     0.045 H 
BRANCH  14  16
ATOM     16  C   UNL A   1      30.552  25.761  23.982  1.00  0.00     0.007 A 
ATOM     17  C   UNL A   1      31.727  26.211  23.358  1.00  0.00     0.122 A 
ATOM     18  C   UNL A   1      31.738  27.404  22.626  1.00  0.00    -0.019 A 
ATOM     19  C   UNL A   1      30.582  28.180  22.518  1.00  0.00    -0.047 A 
ATOM     20  H   UNL A   1      32.608  27.713  22.164  1.00  0.00     0.066 H 
ATOM     21  C   UNL A   1      29.410  26.576  23.877  1.00  0.00    -0.043 A 
ATOM     22  C   UNL A   1      29.415  27.788  23.174  1.00  0.00     0.023 A 
ATOM     23  H   UNL A   1      30.592  29.044  21.953  1.00  0.00     0.063 H 
ATOM     24  H   UNL A   1      28.536  26.271  24.335  1.00  0.00     0.064 H 
BRANCH  17  25
ATOM     25  O   UNL A   1      32.946  25.626  23.569  1.00  0.00    -0.496 OA
BRANCH  25  26
ATOM     26  C   UNL A   1      33.703  25.428  22.375  1.00  0.00     0.078 C 
ATOM     27  H   UNL A   1      34.205  24.484  22.423  1.00  0.00     0.067 H 
ATOM     28  H   UNL A   1      34.425  26.211  22.277  1.00  0.00     0.067 H 
ATOM     29  H   UNL A   1      33.047  25.440  21.530  1.00  0.00     0.067 H 
ENDBRANCH  25  26
ENDBRANCH  17  25
BRANCH  22  30
ATOM     30  C   UNL A   1      28.208  28.654  23.064  1.00  0.00     0.193 C 
ATOM     31  O   UNL A   1      27.115  28.205  23.406  1.00  0.00    -0.289 OA
BRANCH  30  32
ATOM     32  C   UNL A   1      28.261  30.063  22.594  1.00  0.00     0.022 A 
ATOM     33  C   UNL A   1      28.476  31.054  23.556  1.00  0.00    -0.051 A 
ATOM     34  C   UNL A   1      28.054  30.430  21.258  1.00  0.00    -0.051 A 
ATOM     35  C   UNL A   1      28.508  32.396  23.181  1.00  0.00    -0.062 A 
ATOM     36  H   UNL A   1      28.611  30.792  24.545  1.00  0.00     0.063 H 
ATOM     37  C   UNL A   1      28.117  31.777  20.884  1.00  0.00    -0.062 A 
ATOM     38  H   UNL A   1      27.854  29.707  20.549  1.00  0.00     0.063 H 
ATOM     39  C   UNL A   1      28.344  32.759  21.847  1.00  0.00    -0.062 A 
ATOM     40  H   UNL A   1      28.652  33.124  23.898  1.00  0.00     0.062 H 
ATOM     41  H   UNL A   1      27.996  32.044  19.895  1.00  0.00     0.062 H 
ATOM     42  H   UNL A   1      28.392  33.752  21.572  1.00  0.00     0.062 H 
ENDBRANCH  30  32
ENDBRANCH  22  30
ENDBRANCH  14  16
BRANCH  14  43
ATOM     43  C   UNL A   1      31.340  23.338  24.196  1.00  0.00    -0.049 C 
ATOM     44  H   UNL A   1      30.811  22.410  24.269  1.00  0.00     0.024 H 
ATOM     45  H   UNL A   1      32.254  23.271  24.749  1.00  0.00     0.024 H 
ATOM     46  H   UNL A   1      31.558  23.545  23.170  1.00  0.00     0.024 H 
ENDBRANCH  14  43
ENDBRANCH  11  14
ENDBRANCH   7  10
ENDBRANCH   4   7
ENDBRANCH   1   4
BRANCH   1  47
ATOM     47  C   UNL A   1      31.379  30.483  25.668  1.00  0.00    -0.052 C 
ATOM     48  H   UNL A   1      30.381  30.128  25.516  1.00  0.00     0.027 H 
ATOM     49  H   UNL A   1      31.918  30.696  24.769  1.00  0.00     0.027 H 
BRANCH  47  50
ATOM     50  C   UNL A   1      31.287  31.822  26.412  1.00  0.00    -0.036 C 
ATOM     51  H   UNL A   1      30.676  31.675  27.277  1.00  0.00     0.028 H 
ATOM     52  H   UNL A   1      30.886  32.519  25.707  1.00  0.00     0.028 H 
BRANCH  50  53
ATOM     53  C   UNL A   1      32.617  32.423  26.876  1.00  0.00     0.018 C 
ATOM     54  H   UNL A   1      33.278  32.478  26.036  1.00  0.00     0.049 H 
ATOM     55  H   UNL A   1      33.005  31.789  27.646  1.00  0.00     0.049 H 
BRANCH  53  56
ATOM     56  N   UNL A   1      32.469  33.754  27.438  1.00  0.00    -0.352 N 
ATOM     57  C   UNL A   1      33.151  34.362  28.467  1.00  0.00     0.251 C 
ATOM     58  H   UNL A   1      31.772  34.308  27.018  1.00  0.00     0.163 HD
ATOM     59  O   UNL A   1      32.767  35.450  28.887  1.00  0.00    -0.269 OA
BRANCH  57  60
ATOM     60  C   UNL A   1      34.334  33.724  29.099  1.00  0.00     0.039 A 
ATOM     61  C   UNL A   1      35.610  34.181  28.752  1.00  0.00    -0.049 A 
ATOM     62  C   UNL A   1      34.215  32.633  29.961  1.00  0.00    -0.049 A 
ATOM     63  C   UNL A   1      36.749  33.579  29.304  1.00  0.00    -0.053 A 
ATOM     64  H   UNL A   1      35.712  34.963  28.088  1.00  0.00     0.063 H 
ATOM     65  C   UNL A   1      35.352  32.075  30.566  1.00  0.00    -0.053 A 
ATOM     66  H   UNL A   1      33.284  32.235  30.156  1.00  0.00     0.063 H 
ATOM     67  C   UNL A   1      36.637  32.534  30.238  1.00  0.00    -0.014 A 
ATOM     68  H   UNL A   1      37.685  33.908  29.019  1.00  0.00     0.063 H 
ATOM     69  H   UNL A   1      35.241  31.319  31.259  1.00  0.00     0.063 H 
BRANCH  67  70
ATOM     70  C   UNL A   1      37.866  31.944  30.853  1.00  0.00     0.031 A 
ATOM     71  C   UNL A   1      38.320  32.326  32.239  1.00  0.00     0.074 A 
ATOM     72  C   UNL A   1      38.593  31.042  30.161  1.00  0.00     0.049 A 
ATOM     73  N   UNL A   1      39.309  31.836  32.951  1.00  0.00    -0.248 NA
ATOM     74  C   UNL A   1      37.588  33.410  32.908  1.00  0.00    -0.034 C 
ATOM     75  C   UNL A   1      38.328  30.621  28.785  1.00  0.00    -0.036 A 
ATOM     76  N   UNL A   1      39.699  30.309  30.525  1.00  0.00    -0.354 N 
ATOM     77  C   UNL A   1      39.319  32.553  34.140  1.00  0.00     0.074 A 
ATOM     78  C   UNL A   1      38.273  33.548  34.035  1.00  0.00    -0.034 C 
ATOM     79  H   UNL A   1      36.757  33.930  32.584  1.00  0.00     0.065 H 
ATOM     80  C   UNL A   1      39.218  29.677  28.436  1.00  0.00    -0.036 A 
ATOM     81  H   UNL A   1      37.578  30.990  28.181  1.00  0.00     0.065 H 
ATOM     82  C   UNL A   1      40.129  29.438  29.553  1.00  0.00     0.049 A 
ATOM     83  H   UNL A   1      40.141  30.400  31.400  1.00  0.00     0.167 HD
ATOM     84  C   UNL A   1      40.105  32.385  35.233  1.00  0.00     0.037 A 
ATOM     85  H   UNL A   1      38.084  34.272  34.745  1.00  0.00     0.065 H 
ATOM     86  H   UNL A   1      39.253  29.198  27.522  1.00  0.00     0.065 H 
ATOM     87  C   UNL A   1      41.129  28.536  29.557  1.00  0.00     0.037 A 
ATOM     88  C   UNL A   1      41.129  31.381  35.368  1.00  0.00     0.049 A 
ATOM     89  C   UNL A   1      41.965  28.344  30.794  1.00  0.00     0.074 A 
ATOM     90  C   UNL A   1      41.910  31.088  36.475  1.00  0.00    -0.036 A 
ATOM     91  N   UNL A   1      41.522  30.510  34.365  1.00  0.00    -0.354 N 
ATOM     92  N   UNL A   1      41.888  28.956  31.949  1.00  0.00    -0.248 NA
ATOM     93  C   UNL A   1      43.019  27.319  30.728  1.00  0.00    -0.034 C 
ATOM     94  C   UNL A   1      42.805  30.069  36.128  1.00  0.00    -0.036 A 
ATOM     95  H   UNL A   1      41.842  31.543  37.399  1.00  0.00     0.065 H 
ATOM     96  C   UNL A   1      42.551  29.696  34.819  1.00  0.00     0.049 A 
ATOM     97  H   UNL A   1      41.131  30.474  33.463  1.00  0.00     0.167 HD
ATOM     98  C   UNL A   1      42.863  28.378  32.753  1.00  0.00     0.074 A 
ATOM     99  C   UNL A   1      43.506  27.351  31.961  1.00  0.00    -0.034 C 
ATOM    100  H   UNL A   1      43.304  26.729  29.932  1.00  0.00     0.065 H 
ATOM    101  H   UNL A   1      43.530  29.666  36.742  1.00  0.00     0.065 H 
ATOM    102  C   UNL A   1      43.192  28.675  34.033  1.00  0.00     0.037 A 
ATOM    103  H   UNL A   1      44.248  26.725  32.310  1.00  0.00     0.065 H 
BRANCH  84 104
ATOM    104  C   UNL A   1      39.880  33.308  36.398  1.00  0.00     0.064 A 
ATOM    105  C   UNL A   1      40.571  34.523  36.514  1.00  0.00     0.173 A 
ATOM    106  C   UNL A   1      38.919  33.002  37.374  1.00  0.00     0.173 A 
ATOM    107  F   UNL A   1      41.501  34.859  35.608  1.00  0.00    -0.203 F 
ATOM    108  C   UNL A   1      40.330  35.385  37.580  1.00  0.00     0.198 A 
ATOM    109  C   UNL A   1      38.661  33.879  38.425  1.00  0.00     0.198 A 
ATOM    110  F   UNL A   1      38.221  31.858  37.303  1.00  0.00    -0.203 F 
ATOM    111  F   UNL A   1      41.032  36.521  37.693  1.00  0.00    -0.200 F 
ATOM    112  C   UNL A   1      39.371  35.066  38.530  1.00  0.00     0.200 A 
ATOM    113  F   UNL A   1      37.724  33.579  39.334  1.00  0.00    -0.200 F 
ATOM    114  F   UNL A   1      39.134  35.903  39.551  1.00  0.00    -0.200 F 
ENDBRANCH  84 104
BRANCH  87 115
ATOM    115  C   UNL A   1      41.374  27.701  28.353  1.00  0.00     0.064 A 
ATOM    116  C   UNL A   1      40.706  26.482  28.173  1.00  0.00     0.173 A 
ATOM    117  C   UNL A   1      42.286  28.100  27.366  1.00  0.00     0.173 A 
ATOM    118  F   UNL A   1      39.843  26.049  29.104  1.00  0.00    -0.203 F 
ATOM    119  C   UNL A   1      40.957  25.683  27.060  1.00  0.00     0.198 A 
ATOM    120  C   UNL A   1      42.515  27.313  26.240  1.00  0.00     0.198 A 
ATOM    121  F   UNL A   1      42.946  29.261  27.491  1.00  0.00    -0.203 F 
ATOM    122  F   UNL A   1      40.338  24.501  26.934  1.00  0.00    -0.200 F 
ATOM    123  C   UNL A   1      41.856  26.102  26.092  1.00  0.00     0.200 A 
ATOM    124  F   UNL A   1      43.376  27.727  25.300  1.00  0.00    -0.200 F 
ATOM    125  F   UNL A   1      42.093  25.334  25.019  1.00  0.00    -0.200 F 
ENDBRANCH  87 115
BRANCH 102 126
ATOM    126  C   UNL A   1      44.285  27.865  34.672  1.00  0.00     0.064 A 
ATOM    127  C   UNL A   1      45.626  28.275  34.631  1.00  0.00     0.173 A 
ATOM    128  C   UNL A   1      43.984  26.674  35.350  1.00  0.00     0.173 A 
ATOM    129  F   UNL A   1      45.968  29.398  33.982  1.00  0.00    -0.203 F 
ATOM    130  C   UNL A   1      46.629  27.508  35.219  1.00  0.00     0.198 A 
ATOM    131  C   UNL A   1      44.987  25.923  35.962  1.00  0.00     0.198 A 
ATOM    132  F   UNL A   1      42.718  26.237  35.425  1.00  0.00    -0.203 F 
ATOM    133  F   UNL A   1      47.909  27.894  35.122  1.00  0.00    -0.200 F 
ATOM    134  C   UNL A   1      46.309  26.336  35.887  1.00  0.00     0.200 A 
ATOM    135  F   UNL A   1      44.674  24.796  36.616  1.00  0.00    -0.200 F 
ATOM    136  F   UNL A   1      47.275  25.599  36.452  1.00  0.00    -0.200 F 
ENDBRANCH 102 126
ENDBRANCH  67  70
ENDBRANCH  57  60
ENDBRANCH  53  56
ENDBRANCH  50  53
ENDBRANCH  47  50
ENDBRANCH   1  47
TORSDOF 19
ENDMDL
MODEL 6
REMARK VINA RESULT:     -11.2      7.694     16.341
REMARK SMILES COc1ccc(C(=O)c2ccccc2)cc1[C@@H](C)C(=O)NCCCCCCNC(=O)c1ccc(-c2c3nc(c(-c4c(F)c(F)c(F)c(F)c4F)c4ccc([nH]4)c(-c4c(F)c(F)c(F)c(F)c4F)c4nc(c(-c5c(F)c(F)c(F)c(F)c5F)c5ccc2[nH]5)C=C4)C=C3)cc1
REMARK SMILES IDX 24 1 23 4 22 7 21 10 19 11 20 12 17 14 16 16 3 17 4 18 5 19
REMARK SMILES IDX 15 21 6 22 2 25 1 26 7 30 8 31 9 32 10 33 14 34 11 35 13 37
REMARK SMILES IDX 12 39 18 43 25 47 26 50 27 53 28 56 29 57 30 59 31 60 32 61
REMARK SMILES IDX 93 62 33 63 92 65 34 67 35 70 36 71 86 72 37 73 91 74 85 75
REMARK SMILES IDX 87 76 38 77 90 78 84 80 83 82 39 84 71 87 51 88 70 89 52 90
REMARK SMILES IDX 55 91 69 92 88 93 53 94 54 96 68 98 89 99 56 102 40 104
REMARK SMILES IDX 41 105 49 106 42 107 43 108 47 109 50 110 44 111 45 112
REMARK SMILES IDX 48 113 46 114 72 115 73 116 81 117 74 118 75 119 79 120
REMARK SMILES IDX 82 121 76 122 77 123 80 124 78 125 57 126 58 127 66 128
REMARK SMILES IDX 59 129 60 130 64 131 67 132 61 133 62 134 65 135 63 136
REMARK H PARENT 24 2 24 3 23 5 23 6 22 8 22 9 21 13 17 15 4 20 5 23 15 24 1 27
REMARK H PARENT 1 28 1 29 10 36 14 38 11 40 13 41 12 42 18 44 18 45 18 46
REMARK H PARENT 25 48 25 49 26 51 26 52 27 54 27 55 28 58 32 64 93 66 33 68
REMARK H PARENT 92 69 91 79 85 81 87 83 90 85 84 86 52 95 55 97 88 100 53 101
REMARK H PARENT 89 103
REMARK Flexibility Score: inf
ROOT
ATOM      1  C   UNL A   1      46.185  20.769  37.757  1.00  0.00    -0.052 C 
ATOM      2  H   UNL A   1      47.103  21.251  38.020  1.00  0.00     0.027 H 
ATOM      3  H   UNL A   1      45.371  20.983  38.417  1.00  0.00     0.027 H 
ENDROOT
BRANCH   1   4
ATOM      4  C   UNL A   1      46.406  19.256  37.853  1.00  0.00    -0.036 C 
ATOM      5  H   UNL A   1      45.499  18.772  37.556  1.00  0.00     0.028 H 
ATOM      6  H   UNL A   1      47.240  19.042  37.217  1.00  0.00     0.028 H 
BRANCH   4   7
ATOM      7  C   UNL A   1      46.790  18.728  39.239  1.00  0.00     0.017 C 
ATOM      8  H   UNL A   1      46.771  17.658  39.220  1.00  0.00     0.049 H 
ATOM      9  H   UNL A   1      47.768  19.093  39.474  1.00  0.00     0.049 H 
BRANCH   7  10
ATOM     10  N   UNL A   1      45.879  19.194  40.270  1.00  0.00    -0.356 N 
ATOM     11  C   UNL A   1      45.242  18.584  41.305  1.00  0.00     0.227 C 
ATOM     12  O   UNL A   1      44.464  19.303  41.950  1.00  0.00    -0.274 OA
ATOM     13  H   UNL A   1      45.679  20.155  40.204  1.00  0.00     0.163 HD
BRANCH  11  14
ATOM     14  C   UNL A   1      45.401  17.104  41.701  1.00  0.00     0.064 C 
ATOM     15  H   UNL A   1      45.541  17.155  42.760  1.00  0.00     0.045 H 
BRANCH  14  16
ATOM     16  C   UNL A   1      44.138  16.283  41.476  1.00  0.00     0.007 A 
ATOM     17  C   UNL A   1      43.468  16.238  40.242  1.00  0.00     0.122 A 
ATOM     18  C   UNL A   1      42.322  15.453  40.076  1.00  0.00    -0.019 A 
ATOM     19  C   UNL A   1      41.811  14.711  41.143  1.00  0.00    -0.047 A 
ATOM     20  H   UNL A   1      41.849  15.423  39.159  1.00  0.00     0.066 H 
ATOM     21  C   UNL A   1      43.586  15.545  42.538  1.00  0.00    -0.043 A 
ATOM     22  C   UNL A   1      42.422  14.779  42.396  1.00  0.00     0.023 A 
ATOM     23  H   UNL A   1      40.981  14.112  41.005  1.00  0.00     0.063 H 
ATOM     24  H   UNL A   1      44.056  15.568  43.458  1.00  0.00     0.064 H 
BRANCH  17  25
ATOM     25  O   UNL A   1      43.776  17.076  39.203  1.00  0.00    -0.496 OA
BRANCH  25  26
ATOM     26  C   UNL A   1      44.100  16.394  37.992  1.00  0.00     0.078 C 
ATOM     27  H   UNL A   1      43.383  15.618  37.817  1.00  0.00     0.067 H 
ATOM     28  H   UNL A   1      45.076  15.965  38.075  1.00  0.00     0.067 H 
ATOM     29  H   UNL A   1      44.082  17.086  37.177  1.00  0.00     0.067 H 
ENDBRANCH  25  26
ENDBRANCH  17  25
BRANCH  22  30
ATOM     30  C   UNL A   1      41.834  13.999  43.521  1.00  0.00     0.193 C 
ATOM     31  O   UNL A   1      40.884  14.470  44.144  1.00  0.00    -0.289 OA
BRANCH  30  32
ATOM     32  C   UNL A   1      42.316  12.649  43.912  1.00  0.00     0.022 A 
ATOM     33  C   UNL A   1      43.354  12.582  44.845  1.00  0.00    -0.051 A 
ATOM     34  C   UNL A   1      41.815  11.467  43.350  1.00  0.00    -0.051 A 
ATOM     35  C   UNL A   1      43.869  11.346  45.230  1.00  0.00    -0.062 A 
ATOM     36  H   UNL A   1      43.741  13.449  45.249  1.00  0.00     0.063 H 
ATOM     37  C   UNL A   1      42.316  10.228  43.763  1.00  0.00    -0.062 A 
ATOM     38  H   UNL A   1      41.077  11.511  42.629  1.00  0.00     0.063 H 
ATOM     39  C   UNL A   1      43.343  10.168  44.704  1.00  0.00    -0.062 A 
ATOM     40  H   UNL A   1      44.645  11.302  45.908  1.00  0.00     0.062 H 
ATOM     41  H   UNL A   1      41.925   9.357  43.372  1.00  0.00     0.062 H 
ATOM     42  H   UNL A   1      43.712   9.255  45.010  1.00  0.00     0.062 H 
ENDBRANCH  30  32
ENDBRANCH  22  30
ENDBRANCH  14  16
BRANCH  14  43
ATOM     43  C   UNL A   1      46.682  16.410  41.249  1.00  0.00    -0.049 C 
ATOM     44  H   UNL A   1      46.842  16.598  40.207  1.00  0.00     0.024 H 
ATOM     45  H   UNL A   1      46.593  15.356  41.411  1.00  0.00     0.024 H 
ATOM     46  H   UNL A   1      47.511  16.788  41.810  1.00  0.00     0.024 H 
ENDBRANCH  14  43
ENDBRANCH  11  14
ENDBRANCH   7  10
ENDBRANCH   4   7
ENDBRANCH   1   4
BRANCH   1  47
ATOM     47  C   UNL A   1      45.751  21.304  36.384  1.00  0.00    -0.052 C 
ATOM     48  H   UNL A   1      45.201  22.208  36.546  1.00  0.00     0.027 H 
ATOM     49  H   UNL A   1      45.186  20.513  35.939  1.00  0.00     0.027 H 
BRANCH  47  50
ATOM     50  C   UNL A   1      46.872  21.615  35.384  1.00  0.00    -0.036 C 
ATOM     51  H   UNL A   1      46.560  21.266  34.423  1.00  0.00     0.028 H 
ATOM     52  H   UNL A   1      47.744  21.126  35.765  1.00  0.00     0.028 H 
BRANCH  50  53
ATOM     53  C   UNL A   1      47.255  23.091  35.245  1.00  0.00     0.018 C 
ATOM     54  H   UNL A   1      46.498  23.587  34.675  1.00  0.00     0.049 H 
ATOM     55  H   UNL A   1      48.208  23.132  34.761  1.00  0.00     0.049 H 
BRANCH  53  56
ATOM     56  N   UNL A   1      47.385  23.763  36.526  1.00  0.00    -0.352 N 
ATOM     57  C   UNL A   1      46.886  24.975  36.946  1.00  0.00     0.251 C 
ATOM     58  H   UNL A   1      47.912  23.275  37.201  1.00  0.00     0.163 HD
ATOM     59  O   UNL A   1      47.239  25.431  38.030  1.00  0.00    -0.269 OA
BRANCH  57  60
ATOM     60  C   UNL A   1      45.943  25.759  36.108  1.00  0.00     0.039 A 
ATOM     61  C   UNL A   1      44.622  25.316  35.989  1.00  0.00    -0.049 A 
ATOM     62  C   UNL A   1      46.355  26.872  35.373  1.00  0.00    -0.049 A 
ATOM     63  C   UNL A   1      43.715  26.013  35.179  1.00  0.00    -0.053 A 
ATOM     64  H   UNL A   1      44.314  24.474  36.498  1.00  0.00     0.063 H 
ATOM     65  C   UNL A   1      45.430  27.609  34.617  1.00  0.00    -0.053 A 
ATOM     66  H   UNL A   1      47.346  27.156  35.387  1.00  0.00     0.063 H 
ATOM     67  C   UNL A   1      44.097  27.184  34.502  1.00  0.00    -0.014 A 
ATOM     68  H   UNL A   1      42.750  25.660  35.078  1.00  0.00     0.063 H 
ATOM     69  H   UNL A   1      45.734  28.473  34.141  1.00  0.00     0.063 H 
BRANCH  67  70
ATOM     70  C   UNL A   1      43.097  27.939  33.686  1.00  0.00     0.031 A 
ATOM     71  C   UNL A   1      42.921  27.681  32.211  1.00  0.00     0.074 A 
ATOM     72  C   UNL A   1      42.323  28.875  34.274  1.00  0.00     0.049 A 
ATOM     73  N   UNL A   1      42.034  28.182  31.382  1.00  0.00    -0.248 NA
ATOM     74  C   UNL A   1      43.872  26.759  31.574  1.00  0.00    -0.034 C 
ATOM     75  C   UNL A   1      42.418  29.291  35.673  1.00  0.00    -0.036 A 
ATOM     76  N   UNL A   1      41.294  29.637  33.771  1.00  0.00    -0.354 N 
ATOM     77  C   UNL A   1      42.324  27.644  30.136  1.00  0.00     0.074 A 
ATOM     78  C   UNL A   1      43.502  26.818  30.303  1.00  0.00    -0.034 C 
ATOM     79  H   UNL A   1      44.632  26.209  32.005  1.00  0.00     0.065 H 
ATOM     80  C   UNL A   1      41.464  30.202  35.927  1.00  0.00    -0.036 A 
ATOM     81  H   UNL A   1      43.109  28.942  36.355  1.00  0.00     0.065 H 
ATOM     82  C   UNL A   1      40.700  30.449  34.706  1.00  0.00     0.049 A 
ATOM     83  H   UNL A   1      41.011  29.604  32.829  1.00  0.00     0.167 HD
ATOM     84  C   UNL A   1      41.660  27.796  28.963  1.00  0.00     0.037 A 
ATOM     85  H   UNL A   1      43.990  26.338  29.532  1.00  0.00     0.065 H 
ATOM     86  H   UNL A   1      41.298  30.655  36.839  1.00  0.00     0.065 H 
ATOM     87  C   UNL A   1      39.649  31.287  34.607  1.00  0.00     0.037 A 
ATOM     88  C   UNL A   1      40.469  28.588  28.784  1.00  0.00     0.049 A 
ATOM     89  C   UNL A   1      38.907  31.412  33.303  1.00  0.00     0.074 A 
ATOM     90  C   UNL A   1      39.686  28.724  27.649  1.00  0.00    -0.036 A 
ATOM     91  N   UNL A   1      39.893  29.382  29.760  1.00  0.00    -0.354 N 
ATOM     92  N   UNL A   1      39.130  30.810  32.162  1.00  0.00    -0.248 NA
ATOM     93  C   UNL A   1      37.753  32.326  33.284  1.00  0.00    -0.034 C 
ATOM     94  C   UNL A   1      38.660  29.635  27.927  1.00  0.00    -0.036 A 
ATOM     95  H   UNL A   1      39.833  28.235  26.751  1.00  0.00     0.065 H 
ATOM     96  C   UNL A   1      38.777  30.031  29.248  1.00  0.00     0.049 A 
ATOM     97  H   UNL A   1      40.224  29.475  30.683  1.00  0.00     0.167 HD
ATOM     98  C   UNL A   1      38.135  31.252  31.298  1.00  0.00     0.074 A 
ATOM     99  C   UNL A   1      37.295  32.157  32.051  1.00  0.00    -0.034 C 
ATOM    100  H   UNL A   1      37.395  32.938  34.033  1.00  0.00     0.065 H 
ATOM    101  H   UNL A   1      37.941  29.956  27.260  1.00  0.00     0.065 H 
ATOM    102  C   UNL A   1      37.940  30.932  29.996  1.00  0.00     0.037 A 
ATOM    103  H   UNL A   1      36.448  32.613  31.678  1.00  0.00     0.065 H 
BRANCH  84 104
ATOM    104  C   UNL A   1      42.199  27.072  27.761  1.00  0.00     0.064 A 
ATOM    105  C   UNL A   1      43.125  27.675  26.897  1.00  0.00     0.173 A 
ATOM    106  C   UNL A   1      41.831  25.741  27.507  1.00  0.00     0.173 A 
ATOM    107  F   UNL A   1      43.504  28.945  27.095  1.00  0.00    -0.203 F 
ATOM    108  C   UNL A   1      43.641  26.982  25.805  1.00  0.00     0.198 A 
ATOM    109  C   UNL A   1      42.372  25.042  26.430  1.00  0.00     0.198 A 
ATOM    110  F   UNL A   1      40.959  25.114  28.310  1.00  0.00    -0.203 F 
ATOM    111  F   UNL A   1      44.493  27.592  24.970  1.00  0.00    -0.200 F 
ATOM    112  C   UNL A   1      43.270  25.665  25.577  1.00  0.00     0.200 A 
ATOM    113  F   UNL A   1      42.025  23.766  26.218  1.00  0.00    -0.200 F 
ATOM    114  F   UNL A   1      43.778  24.997  24.531  1.00  0.00    -0.200 F 
ENDBRANCH  84 104
BRANCH  87 115
ATOM    115  C   UNL A   1      39.200  32.051  35.799  1.00  0.00     0.064 A 
ATOM    116  C   UNL A   1      38.318  31.483  36.728  1.00  0.00     0.173 A 
ATOM    117  C   UNL A   1      39.635  33.364  36.026  1.00  0.00     0.173 A 
ATOM    118  F   UNL A   1      37.856  30.238  36.538  1.00  0.00    -0.203 F 
ATOM    119  C   UNL A   1      37.871  32.208  37.830  1.00  0.00     0.198 A 
ATOM    120  C   UNL A   1      39.209  34.078  37.144  1.00  0.00     0.198 A 
ATOM    121  F   UNL A   1      40.484  33.949  35.168  1.00  0.00    -0.203 F 
ATOM    122  F   UNL A   1      36.992  31.658  38.680  1.00  0.00    -0.200 F 
ATOM    123  C   UNL A   1      38.322  33.502  38.041  1.00  0.00     0.200 A 
ATOM    124  F   UNL A   1      39.656  35.324  37.350  1.00  0.00    -0.200 F 
ATOM    125  F   UNL A   1      37.895  34.197  39.103  1.00  0.00    -0.200 F 
ENDBRANCH  87 115
BRANCH 102 126
ATOM    126  C   UNL A   1      36.758  31.548  29.302  1.00  0.00     0.064 A 
ATOM    127  C   UNL A   1      35.633  30.787  28.950  1.00  0.00     0.173 A 
ATOM    128  C   UNL A   1      36.741  32.919  29.006  1.00  0.00     0.173 A 
ATOM    129  F   UNL A   1      35.605  29.469  29.197  1.00  0.00    -0.203 F 
ATOM    130  C   UNL A   1      34.548  31.370  28.298  1.00  0.00     0.198 A 
ATOM    131  C   UNL A   1      35.642  33.505  28.379  1.00  0.00     0.198 A 
ATOM    132  F   UNL A   1      37.788  33.694  29.325  1.00  0.00    -0.203 F 
ATOM    133  F   UNL A   1      33.507  30.613  27.924  1.00  0.00    -0.200 F 
ATOM    134  C   UNL A   1      34.552  32.728  28.017  1.00  0.00     0.200 A 
ATOM    135  F   UNL A   1      35.643  34.819  28.118  1.00  0.00    -0.200 F 
ATOM    136  F   UNL A   1      33.507  33.287  27.391  1.00  0.00    -0.200 F 
ENDBRANCH 102 126
ENDBRANCH  67  70
ENDBRANCH  57  60
ENDBRANCH  53  56
ENDBRANCH  50  53
ENDBRANCH  47  50
ENDBRANCH   1  47
TORSDOF 19
ENDMDL
MODEL 7
REMARK VINA RESULT:     -11.1      2.743      8.843
REMARK SMILES COc1ccc(C(=O)c2ccccc2)cc1[C@@H](C)C(=O)NCCCCCCNC(=O)c1ccc(-c2c3nc(c(-c4c(F)c(F)c(F)c(F)c4F)c4ccc([nH]4)c(-c4c(F)c(F)c(F)c(F)c4F)c4nc(c(-c5c(F)c(F)c(F)c(F)c5F)c5ccc2[nH]5)C=C4)C=C3)cc1
REMARK SMILES IDX 24 1 23 4 22 7 21 10 19 11 20 12 17 14 16 16 3 17 4 18 5 19
REMARK SMILES IDX 15 21 6 22 2 25 1 26 7 30 8 31 9 32 10 33 14 34 11 35 13 37
REMARK SMILES IDX 12 39 18 43 25 47 26 50 27 53 28 56 29 57 30 59 31 60 32 61
REMARK SMILES IDX 93 62 33 63 92 65 34 67 35 70 36 71 86 72 37 73 91 74 85 75
REMARK SMILES IDX 87 76 38 77 90 78 84 80 83 82 39 84 71 87 51 88 70 89 52 90
REMARK SMILES IDX 55 91 69 92 88 93 53 94 54 96 68 98 89 99 56 102 40 104
REMARK SMILES IDX 41 105 49 106 42 107 43 108 47 109 50 110 44 111 45 112
REMARK SMILES IDX 48 113 46 114 72 115 73 116 81 117 74 118 75 119 79 120
REMARK SMILES IDX 82 121 76 122 77 123 80 124 78 125 57 126 58 127 66 128
REMARK SMILES IDX 59 129 60 130 64 131 67 132 61 133 62 134 65 135 63 136
REMARK H PARENT 24 2 24 3 23 5 23 6 22 8 22 9 21 13 17 15 4 20 5 23 15 24 1 27
REMARK H PARENT 1 28 1 29 10 36 14 38 11 40 13 41 12 42 18 44 18 45 18 46
REMARK H PARENT 25 48 25 49 26 51 26 52 27 54 27 55 28 58 32 64 93 66 33 68
REMARK H PARENT 92 69 91 79 85 81 87 83 90 85 84 86 52 95 55 97 88 100 53 101
REMARK H PARENT 89 103
REMARK Flexibility Score: inf
ROOT
ATOM      1  C   UNL A   1      34.494  32.444  29.089  1.00  0.00    -0.052 C 
ATOM      2  H   UNL A   1      34.820  32.070  30.037  1.00  0.00     0.027 H 
ATOM      3  H   UNL A   1      33.479  32.205  28.849  1.00  0.00     0.027 H 
ENDROOT
BRANCH   1   4
ATOM      4  C   UNL A   1      35.343  31.774  28.004  1.00  0.00    -0.036 C 
ATOM      5  H   UNL A   1      35.219  32.332  27.099  1.00  0.00     0.028 H 
ATOM      6  H   UNL A   1      36.346  31.772  28.378  1.00  0.00     0.028 H 
BRANCH   4   7
ATOM      7  C   UNL A   1      35.005  30.310  27.705  1.00  0.00     0.017 C 
ATOM      8  H   UNL A   1      35.327  30.075  26.712  1.00  0.00     0.049 H 
ATOM      9  H   UNL A   1      35.506  29.700  28.428  1.00  0.00     0.049 H 
BRANCH   7  10
ATOM     10  N   UNL A   1      33.580  30.049  27.809  1.00  0.00    -0.356 N 
ATOM     11  C   UNL A   1      32.725  29.229  27.142  1.00  0.00     0.227 C 
ATOM     12  O   UNL A   1      31.532  29.328  27.464  1.00  0.00    -0.274 OA
ATOM     13  H   UNL A   1      33.140  30.580  28.511  1.00  0.00     0.163 HD
BRANCH  11  14
ATOM     14  C   UNL A   1      33.125  28.236  26.035  1.00  0.00     0.064 C 
ATOM     15  H   UNL A   1      33.882  27.646  26.507  1.00  0.00     0.045 H 
BRANCH  14  16
ATOM     16  C   UNL A   1      32.006  27.274  25.657  1.00  0.00     0.007 A 
ATOM     17  C   UNL A   1      31.017  27.589  24.711  1.00  0.00     0.122 A 
ATOM     18  C   UNL A   1      30.019  26.665  24.381  1.00  0.00    -0.019 A 
ATOM     19  C   UNL A   1      29.978  25.415  25.002  1.00  0.00    -0.047 A 
ATOM     20  H   UNL A   1      29.308  26.910  23.674  1.00  0.00     0.066 H 
ATOM     21  C   UNL A   1      31.924  26.017  26.284  1.00  0.00    -0.043 A 
ATOM     22  C   UNL A   1      30.913  25.095  25.987  1.00  0.00     0.023 A 
ATOM     23  H   UNL A   1      29.254  24.729  24.733  1.00  0.00     0.063 H 
ATOM     24  H   UNL A   1      32.634  25.766  26.990  1.00  0.00     0.064 H 
BRANCH  17  25
ATOM     25  O   UNL A   1      30.860  28.849  24.198  1.00  0.00    -0.496 OA
BRANCH  25  26
ATOM     26  C   UNL A   1      30.798  28.885  22.773  1.00  0.00     0.078 C 
ATOM     27  H   UNL A   1      31.368  28.073  22.370  1.00  0.00     0.067 H 
ATOM     28  H   UNL A   1      31.201  29.812  22.421  1.00  0.00     0.067 H 
ATOM     29  H   UNL A   1      29.780  28.796  22.457  1.00  0.00     0.067 H 
ENDBRANCH  25  26
ENDBRANCH  17  25
BRANCH  22  30
ATOM     30  C   UNL A   1      30.822  23.765  26.653  1.00  0.00     0.193 C 
ATOM     31  O   UNL A   1      29.843  23.511  27.352  1.00  0.00    -0.289 OA
BRANCH  30  32
ATOM     32  C   UNL A   1      31.846  22.702  26.484  1.00  0.00     0.022 A 
ATOM     33  C   UNL A   1      31.671  21.802  25.428  1.00  0.00    -0.051 A 
ATOM     34  C   UNL A   1      32.929  22.538  27.358  1.00  0.00    -0.051 A 
ATOM     35  C   UNL A   1      32.583  20.766  25.234  1.00  0.00    -0.062 A 
ATOM     36  H   UNL A   1      30.866  21.906  24.791  1.00  0.00     0.063 H 
ATOM     37  C   UNL A   1      33.857  21.514  27.139  1.00  0.00    -0.062 A 
ATOM     38  H   UNL A   1      33.042  23.174  28.164  1.00  0.00     0.063 H 
ATOM     39  C   UNL A   1      33.683  20.629  26.077  1.00  0.00    -0.062 A 
ATOM     40  H   UNL A   1      32.441  20.097  24.462  1.00  0.00     0.062 H 
ATOM     41  H   UNL A   1      34.671  21.415  27.766  1.00  0.00     0.062 H 
ATOM     42  H   UNL A   1      34.368  19.874  25.916  1.00  0.00     0.062 H 
ENDBRANCH  30  32
ENDBRANCH  22  30
ENDBRANCH  14  16
BRANCH  14  43
ATOM     43  C   UNL A   1      33.878  28.813  24.839  1.00  0.00    -0.049 C 
ATOM     44  H   UNL A   1      33.396  28.508  23.933  1.00  0.00     0.024 H 
ATOM     45  H   UNL A   1      34.886  28.454  24.846  1.00  0.00     0.024 H 
ATOM     46  H   UNL A   1      33.879  29.881  24.901  1.00  0.00     0.024 H 
ENDBRANCH  14  43
ENDBRANCH  11  14
ENDBRANCH   7  10
ENDBRANCH   4   7
ENDBRANCH   1   4
BRANCH   1  47
ATOM     47  C   UNL A   1      34.553  33.977  29.146  1.00  0.00    -0.052 C 
ATOM     48  H   UNL A   1      35.139  34.311  28.315  1.00  0.00     0.027 H 
ATOM     49  H   UNL A   1      34.968  34.209  30.104  1.00  0.00     0.027 H 
BRANCH  47  50
ATOM     50  C   UNL A   1      33.210  34.717  29.095  1.00  0.00    -0.036 C 
ATOM     51  H   UNL A   1      32.521  34.189  29.719  1.00  0.00     0.028 H 
ATOM     52  H   UNL A   1      32.932  34.743  28.062  1.00  0.00     0.028 H 
BRANCH  50  53
ATOM     53  C   UNL A   1      33.233  36.178  29.553  1.00  0.00     0.018 C 
ATOM     54  H   UNL A   1      32.892  36.794  28.747  1.00  0.00     0.049 H 
ATOM     55  H   UNL A   1      34.238  36.412  29.833  1.00  0.00     0.049 H 
BRANCH  53  56
ATOM     56  N   UNL A   1      32.388  36.419  30.710  1.00  0.00    -0.352 N 
ATOM     57  C   UNL A   1      32.488  35.936  31.995  1.00  0.00     0.251 C 
ATOM     58  H   UNL A   1      31.627  37.022  30.551  1.00  0.00     0.163 HD
ATOM     59  O   UNL A   1      31.578  36.147  32.791  1.00  0.00    -0.269 OA
BRANCH  57  60
ATOM     60  C   UNL A   1      33.664  35.145  32.439  1.00  0.00     0.039 A 
ATOM     61  C   UNL A   1      34.931  35.731  32.375  1.00  0.00    -0.049 A 
ATOM     62  C   UNL A   1      33.552  33.812  32.838  1.00  0.00    -0.049 A 
ATOM     63  C   UNL A   1      36.066  35.001  32.755  1.00  0.00    -0.053 A 
ATOM     64  H   UNL A   1      35.032  36.704  32.048  1.00  0.00     0.063 H 
ATOM     65  C   UNL A   1      34.679  33.104  33.282  1.00  0.00    -0.053 A 
ATOM     66  H   UNL A   1      32.633  33.344  32.807  1.00  0.00     0.063 H 
ATOM     67  C   UNL A   1      35.955  33.686  33.238  1.00  0.00    -0.014 A 
ATOM     68  H   UNL A   1      36.999  35.437  32.677  1.00  0.00     0.063 H 
ATOM     69  H   UNL A   1      34.567  32.144  33.645  1.00  0.00     0.063 H 
BRANCH  67  70
ATOM     70  C   UNL A   1      37.175  32.946  33.686  1.00  0.00     0.031 A 
ATOM     71  C   UNL A   1      37.862  31.939  32.798  1.00  0.00     0.074 A 
ATOM     72  C   UNL A   1      37.687  33.180  34.912  1.00  0.00     0.049 A 
ATOM     73  N   UNL A   1      38.981  31.283  33.001  1.00  0.00    -0.248 NA
ATOM     74  C   UNL A   1      37.200  31.606  31.529  1.00  0.00    -0.034 C 
ATOM     75  C   UNL A   1      37.102  34.069  35.916  1.00  0.00    -0.036 A 
ATOM     76  N   UNL A   1      38.823  32.698  35.520  1.00  0.00    -0.354 N 
ATOM     77  C   UNL A   1      39.152  30.463  31.894  1.00  0.00     0.074 A 
ATOM     78  C   UNL A   1      37.995  30.661  31.045  1.00  0.00    -0.034 C 
ATOM     79  H   UNL A   1      36.341  32.004  31.119  1.00  0.00     0.065 H 
ATOM     80  C   UNL A   1      37.900  34.100  36.995  1.00  0.00    -0.036 A 
ATOM     81  H   UNL A   1      36.217  34.588  35.811  1.00  0.00     0.065 H 
ATOM     82  C   UNL A   1      39.045  33.220  36.771  1.00  0.00     0.049 A 
ATOM     83  H   UNL A   1      39.421  32.039  35.097  1.00  0.00     0.167 HD
ATOM     84  C   UNL A   1      40.187  29.639  31.592  1.00  0.00     0.037 A 
ATOM     85  H   UNL A   1      37.813  30.135  30.178  1.00  0.00     0.065 H 
ATOM     86  H   UNL A   1      37.732  34.656  37.848  1.00  0.00     0.065 H 
ATOM     87  C   UNL A   1      40.059  33.031  37.638  1.00  0.00     0.037 A 
ATOM     88  C   UNL A   1      41.360  29.452  32.408  1.00  0.00     0.049 A 
ATOM     89  C   UNL A   1      41.212  32.139  37.266  1.00  0.00     0.074 A 
ATOM     90  C   UNL A   1      42.492  28.703  32.132  1.00  0.00    -0.036 A 
ATOM     91  N   UNL A   1      41.550  30.011  33.660  1.00  0.00    -0.354 N 
ATOM     92  N   UNL A   1      41.410  31.456  36.166  1.00  0.00    -0.248 NA
ATOM     93  C   UNL A   1      42.294  32.008  38.255  1.00  0.00    -0.034 C 
ATOM     94  C   UNL A   1      43.349  28.775  33.236  1.00  0.00    -0.036 A 
ATOM     95  H   UNL A   1      42.673  28.182  31.259  1.00  0.00     0.065 H 
ATOM     96  C   UNL A   1      42.772  29.605  34.181  1.00  0.00     0.049 A 
ATOM     97  H   UNL A   1      40.914  30.608  34.116  1.00  0.00     0.167 HD
ATOM     98  C   UNL A   1      42.643  30.834  36.320  1.00  0.00     0.074 A 
ATOM     99  C   UNL A   1      43.159  31.237  37.610  1.00  0.00    -0.034 C 
ATOM    100  H   UNL A   1      42.362  32.411  39.202  1.00  0.00     0.065 H 
ATOM    101  H   UNL A   1      44.256  28.290  33.329  1.00  0.00     0.065 H 
ATOM    102  C   UNL A   1      43.286  30.004  35.464  1.00  0.00     0.037 A 
ATOM    103  H   UNL A   1      44.081  30.960  37.982  1.00  0.00     0.065 H 
BRANCH  84 104
ATOM    104  C   UNL A   1      40.110  28.874  30.301  1.00  0.00     0.064 A 
ATOM    105  C   UNL A   1      40.698  29.362  29.124  1.00  0.00     0.173 A 
ATOM    106  C   UNL A   1      39.497  27.612  30.255  1.00  0.00     0.173 A 
ATOM    107  F   UNL A   1      41.293  30.564  29.116  1.00  0.00    -0.203 F 
ATOM    108  C   UNL A   1      40.649  28.629  27.942  1.00  0.00     0.198 A 
ATOM    109  C   UNL A   1      39.474  26.869  29.076  1.00  0.00     0.198 A 
ATOM    110  F   UNL A   1      38.931  27.093  31.355  1.00  0.00    -0.203 F 
ATOM    111  F   UNL A   1      41.181  29.134  26.820  1.00  0.00    -0.200 F 
ATOM    112  C   UNL A   1      40.044  27.381  27.920  1.00  0.00     0.200 A 
ATOM    113  F   UNL A   1      38.903  25.657  29.060  1.00  0.00    -0.200 F 
ATOM    114  F   UNL A   1      40.007  26.673  26.783  1.00  0.00    -0.200 F 
ENDBRANCH  84 104
BRANCH  87 115
ATOM    115  C   UNL A   1      40.054  33.741  38.943  1.00  0.00     0.064 A 
ATOM    116  C   UNL A   1      40.786  34.924  39.122  1.00  0.00     0.173 A 
ATOM    117  C   UNL A   1      39.329  33.248  40.036  1.00  0.00     0.173 A 
ATOM    118  F   UNL A   1      41.514  35.420  38.110  1.00  0.00    -0.203 F 
ATOM    119  C   UNL A   1      40.809  35.575  40.353  1.00  0.00     0.198 A 
ATOM    120  C   UNL A   1      39.330  33.916  41.259  1.00  0.00     0.198 A 
ATOM    121  F   UNL A   1      38.610  32.123  39.912  1.00  0.00    -0.203 F 
ATOM    122  F   UNL A   1      41.551  36.679  40.510  1.00  0.00    -0.200 F 
ATOM    123  C   UNL A   1      40.076  35.074  41.418  1.00  0.00     0.200 A 
ATOM    124  F   UNL A   1      38.612  33.435  42.282  1.00  0.00    -0.200 F 
ATOM    125  F   UNL A   1      40.095  35.704  42.600  1.00  0.00    -0.200 F 
ENDBRANCH  87 115
BRANCH 102 126
ATOM    126  C   UNL A   1      44.634  29.489  35.883  1.00  0.00     0.064 A 
ATOM    127  C   UNL A   1      45.816  30.178  35.571  1.00  0.00     0.173 A 
ATOM    128  C   UNL A   1      44.744  28.302  36.625  1.00  0.00     0.173 A 
ATOM    129  F   UNL A   1      45.767  31.308  34.851  1.00  0.00    -0.203 F 
ATOM    130  C   UNL A   1      47.059  29.682  35.958  1.00  0.00     0.198 A 
ATOM    131  C   UNL A   1      45.987  27.824  37.034  1.00  0.00     0.198 A 
ATOM    132  F   UNL A   1      43.646  27.606  36.956  1.00  0.00    -0.203 F 
ATOM    133  F   UNL A   1      48.177  30.330  35.602  1.00  0.00    -0.200 F 
ATOM    134  C   UNL A   1      47.144  28.509  36.692  1.00  0.00     0.200 A 
ATOM    135  F   UNL A   1      46.066  26.696  37.753  1.00  0.00    -0.200 F 
ATOM    136  F   UNL A   1      48.340  28.034  37.064  1.00  0.00    -0.200 F 
ENDBRANCH 102 126
ENDBRANCH  67  70
ENDBRANCH  57  60
ENDBRANCH  53  56
ENDBRANCH  50  53
ENDBRANCH  47  50
ENDBRANCH   1  47
TORSDOF 19
ENDMDL
MODEL 8
REMARK VINA RESULT:     -11.1      4.000      8.941
REMARK SMILES COc1ccc(C(=O)c2ccccc2)cc1[C@@H](C)C(=O)NCCCCCCNC(=O)c1ccc(-c2c3nc(c(-c4c(F)c(F)c(F)c(F)c4F)c4ccc([nH]4)c(-c4c(F)c(F)c(F)c(F)c4F)c4nc(c(-c5c(F)c(F)c(F)c(F)c5F)c5ccc2[nH]5)C=C4)C=C3)cc1
REMARK SMILES IDX 24 1 23 4 22 7 21 10 19 11 20 12 17 14 16 16 3 17 4 18 5 19
REMARK SMILES IDX 15 21 6 22 2 25 1 26 7 30 8 31 9 32 10 33 14 34 11 35 13 37
REMARK SMILES IDX 12 39 18 43 25 47 26 50 27 53 28 56 29 57 30 59 31 60 32 61
REMARK SMILES IDX 93 62 33 63 92 65 34 67 35 70 36 71 86 72 37 73 91 74 85 75
REMARK SMILES IDX 87 76 38 77 90 78 84 80 83 82 39 84 71 87 51 88 70 89 52 90
REMARK SMILES IDX 55 91 69 92 88 93 53 94 54 96 68 98 89 99 56 102 40 104
REMARK SMILES IDX 41 105 49 106 42 107 43 108 47 109 50 110 44 111 45 112
REMARK SMILES IDX 48 113 46 114 72 115 73 116 81 117 74 118 75 119 79 120
REMARK SMILES IDX 82 121 76 122 77 123 80 124 78 125 57 126 58 127 66 128
REMARK SMILES IDX 59 129 60 130 64 131 67 132 61 133 62 134 65 135 63 136
REMARK H PARENT 24 2 24 3 23 5 23 6 22 8 22 9 21 13 17 15 4 20 5 23 15 24 1 27
REMARK H PARENT 1 28 1 29 10 36 14 38 11 40 13 41 12 42 18 44 18 45 18 46
REMARK H PARENT 25 48 25 49 26 51 26 52 27 54 27 55 28 58 32 64 93 66 33 68
REMARK H PARENT 92 69 91 79 85 81 87 83 90 85 84 86 52 95 55 97 88 100 53 101
REMARK H PARENT 89 103
REMARK Flexibility Score: inf
ROOT
ATOM      1  C   UNL A   1      34.098  25.299  23.419  1.00  0.00    -0.052 C 
ATOM      2  H   UNL A   1      33.605  26.213  23.677  1.00  0.00     0.027 H 
ATOM      3  H   UNL A   1      35.042  25.432  22.932  1.00  0.00     0.027 H 
ENDROOT
BRANCH   1   4
ATOM      4  C   UNL A   1      33.215  24.559  22.409  1.00  0.00    -0.036 C 
ATOM      5  H   UNL A   1      33.832  23.859  21.884  1.00  0.00     0.028 H 
ATOM      6  H   UNL A   1      32.435  24.103  22.983  1.00  0.00     0.028 H 
BRANCH   4   7
ATOM      7  C   UNL A   1      32.512  25.439  21.371  1.00  0.00     0.017 C 
ATOM      8  H   UNL A   1      32.900  25.208  20.401  1.00  0.00     0.049 H 
ATOM      9  H   UNL A   1      31.462  25.239  21.423  1.00  0.00     0.049 H 
BRANCH   7  10
ATOM     10  N   UNL A   1      32.712  26.853  21.632  1.00  0.00    -0.356 N 
ATOM     11  C   UNL A   1      32.002  27.792  22.314  1.00  0.00     0.227 C 
ATOM     12  O   UNL A   1      32.455  28.945  22.260  1.00  0.00    -0.274 OA
ATOM     13  H   UNL A   1      33.536  27.208  21.227  1.00  0.00     0.163 HD
BRANCH  11  14
ATOM     14  C   UNL A   1      30.705  27.529  23.102  1.00  0.00     0.064 C 
ATOM     15  H   UNL A   1      30.297  26.673  22.607  1.00  0.00     0.045 H 
BRANCH  14  16
ATOM     16  C   UNL A   1      30.953  27.112  24.545  1.00  0.00     0.007 A 
ATOM     17  C   UNL A   1      31.400  28.007  25.531  1.00  0.00     0.122 A 
ATOM     18  C   UNL A   1      31.595  27.582  26.851  1.00  0.00    -0.019 A 
ATOM     19  C   UNL A   1      31.366  26.252  27.208  1.00  0.00    -0.047 A 
ATOM     20  H   UNL A   1      31.912  28.257  27.564  1.00  0.00     0.066 H 
ATOM     21  C   UNL A   1      30.755  25.773  24.930  1.00  0.00    -0.043 A 
ATOM     22  C   UNL A   1      30.976  25.327  26.239  1.00  0.00     0.023 A 
ATOM     23  H   UNL A   1      31.486  25.953  28.189  1.00  0.00     0.063 H 
ATOM     24  H   UNL A   1      30.435  25.094  24.220  1.00  0.00     0.064 H 
BRANCH  17  25
ATOM     25  O   UNL A   1      31.836  29.271  25.238  1.00  0.00    -0.496 OA
BRANCH  25  26
ATOM     26  C   UNL A   1      33.068  29.615  25.871  1.00  0.00     0.078 C 
ATOM     27  H   UNL A   1      33.439  30.530  25.457  1.00  0.00     0.067 H 
ATOM     28  H   UNL A   1      33.783  28.835  25.710  1.00  0.00     0.067 H 
ATOM     29  H   UNL A   1      32.908  29.741  26.922  1.00  0.00     0.067 H 
ENDBRANCH  25  26
ENDBRANCH  17  25
BRANCH  22  30
ATOM     30  C   UNL A   1      30.769  23.909  26.646  1.00  0.00     0.193 C 
ATOM     31  O   UNL A   1      29.743  23.602  27.250  1.00  0.00    -0.289 OA
BRANCH  30  32
ATOM     32  C   UNL A   1      31.732  22.824  26.324  1.00  0.00     0.022 A 
ATOM     33  C   UNL A   1      32.695  22.511  27.288  1.00  0.00    -0.051 A 
ATOM     34  C   UNL A   1      31.745  22.155  25.093  1.00  0.00    -0.051 A 
ATOM     35  C   UNL A   1      33.643  21.523  27.033  1.00  0.00    -0.062 A 
ATOM     36  H   UNL A   1      32.703  23.012  28.190  1.00  0.00     0.063 H 
ATOM     37  C   UNL A   1      32.682  21.143  24.855  1.00  0.00    -0.062 A 
ATOM     38  H   UNL A   1      31.064  22.410  24.360  1.00  0.00     0.063 H 
ATOM     39  C   UNL A   1      33.631  20.828  25.826  1.00  0.00    -0.062 A 
ATOM     40  H   UNL A   1      34.360  21.306  27.743  1.00  0.00     0.062 H 
ATOM     41  H   UNL A   1      32.670  20.630  23.960  1.00  0.00     0.062 H 
ATOM     42  H   UNL A   1      34.321  20.081  25.652  1.00  0.00     0.062 H 
ENDBRANCH  30  32
ENDBRANCH  22  30
ENDBRANCH  14  16
BRANCH  14  43
ATOM     43  C   UNL A   1      29.586  28.552  22.935  1.00  0.00    -0.049 C 
ATOM     44  H   UNL A   1      29.924  29.510  23.274  1.00  0.00     0.024 H 
ATOM     45  H   UNL A   1      28.737  28.249  23.512  1.00  0.00     0.024 H 
ATOM     46  H   UNL A   1      29.311  28.616  21.903  1.00  0.00     0.024 H 
ENDBRANCH  14  43
ENDBRANCH  11  14
ENDBRANCH   7  10
ENDBRANCH   4   7
ENDBRANCH   1   4
BRANCH   1  47
ATOM     47  C   UNL A   1      34.410  24.551  24.723  1.00  0.00    -0.052 C 
ATOM     48  H   UNL A   1      33.590  23.893  24.924  1.00  0.00     0.027 H 
ATOM     49  H   UNL A   1      34.558  25.314  25.458  1.00  0.00     0.027 H 
BRANCH  47  50
ATOM     50  C   UNL A   1      35.695  23.713  24.742  1.00  0.00    -0.036 C 
ATOM     51  H   UNL A   1      36.393  24.167  24.070  1.00  0.00     0.028 H 
ATOM     52  H   UNL A   1      35.400  22.724  24.464  1.00  0.00     0.028 H 
BRANCH  50  53
ATOM     53  C   UNL A   1      36.381  23.572  26.104  1.00  0.00     0.018 C 
ATOM     54  H   UNL A   1      35.664  23.212  26.812  1.00  0.00     0.049 H 
ATOM     55  H   UNL A   1      36.758  24.536  26.376  1.00  0.00     0.049 H 
BRANCH  53  56
ATOM     56  N   UNL A   1      37.506  22.654  26.075  1.00  0.00    -0.352 N 
ATOM     57  C   UNL A   1      38.838  22.876  26.343  1.00  0.00     0.251 C 
ATOM     58  H   UNL A   1      37.282  21.728  25.827  1.00  0.00     0.163 HD
ATOM     59  O   UNL A   1      39.656  21.989  26.115  1.00  0.00    -0.269 OA
BRANCH  57  60
ATOM     60  C   UNL A   1      39.316  24.174  26.884  1.00  0.00     0.039 A 
ATOM     61  C   UNL A   1      39.060  24.479  28.224  1.00  0.00    -0.049 A 
ATOM     62  C   UNL A   1      39.937  25.129  26.077  1.00  0.00    -0.049 A 
ATOM     63  C   UNL A   1      39.467  25.710  28.758  1.00  0.00    -0.053 A 
ATOM     64  H   UNL A   1      38.570  23.797  28.822  1.00  0.00     0.063 H 
ATOM     65  C   UNL A   1      40.405  26.333  26.628  1.00  0.00    -0.053 A 
ATOM     66  H   UNL A   1      40.053  24.949  25.068  1.00  0.00     0.063 H 
ATOM     67  C   UNL A   1      40.168  26.644  27.975  1.00  0.00    -0.014 A 
ATOM     68  H   UNL A   1      39.248  25.933  29.741  1.00  0.00     0.063 H 
ATOM     69  H   UNL A   1      40.929  26.995  26.034  1.00  0.00     0.063 H 
BRANCH  67  70
ATOM     70  C   UNL A   1      40.638  27.927  28.582  1.00  0.00     0.031 A 
ATOM     71  C   UNL A   1      42.099  28.186  28.856  1.00  0.00     0.074 A 
ATOM     72  C   UNL A   1      39.744  28.888  28.894  1.00  0.00     0.049 A 
ATOM     73  N   UNL A   1      42.679  29.281  29.290  1.00  0.00    -0.248 NA
ATOM     74  C   UNL A   1      43.029  27.069  28.636  1.00  0.00    -0.034 C 
ATOM     75  C   UNL A   1      38.292  28.766  28.757  1.00  0.00    -0.036 A 
ATOM     76  N   UNL A   1      39.924  30.162  29.380  1.00  0.00    -0.354 N 
ATOM     77  C   UNL A   1      44.031  28.983  29.399  1.00  0.00     0.074 A 
ATOM     78  C   UNL A   1      44.181  27.589  29.037  1.00  0.00    -0.034 C 
ATOM     79  H   UNL A   1      42.835  26.126  28.266  1.00  0.00     0.065 H 
ATOM     80  C   UNL A   1      37.718  29.927  29.111  1.00  0.00    -0.036 A 
ATOM     81  H   UNL A   1      37.791  27.922  28.441  1.00  0.00     0.065 H 
ATOM     82  C   UNL A   1      38.756  30.872  29.518  1.00  0.00     0.049 A 
ATOM     83  H   UNL A   1      40.809  30.530  29.609  1.00  0.00     0.167 HD
ATOM     84  C   UNL A   1      45.061  29.797  29.741  1.00  0.00     0.037 A 
ATOM     85  H   UNL A   1      45.069  27.067  29.086  1.00  0.00     0.065 H 
ATOM     86  H   UNL A   1      36.705  30.121  29.098  1.00  0.00     0.065 H 
ATOM     87  C   UNL A   1      38.537  32.143  29.909  1.00  0.00     0.037 A 
ATOM     88  C   UNL A   1      44.935  31.194  30.073  1.00  0.00     0.049 A 
ATOM     89  C   UNL A   1      39.699  33.036  30.249  1.00  0.00     0.074 A 
ATOM     90  C   UNL A   1      45.939  32.109  30.345  1.00  0.00    -0.036 A 
ATOM     91  N   UNL A   1      43.736  31.876  30.186  1.00  0.00    -0.354 N 
ATOM     92  N   UNL A   1      40.981  32.768  30.241  1.00  0.00    -0.248 NA
ATOM     93  C   UNL A   1      39.379  34.419  30.639  1.00  0.00    -0.034 C 
ATOM     94  C   UNL A   1      45.344  33.335  30.666  1.00  0.00    -0.036 A 
ATOM     95  H   UNL A   1      46.954  31.919  30.316  1.00  0.00     0.065 H 
ATOM     96  C   UNL A   1      43.972  33.195  30.548  1.00  0.00     0.049 A 
ATOM     97  H   UNL A   1      42.846  31.484  30.034  1.00  0.00     0.167 HD
ATOM     98  C   UNL A   1      41.619  33.949  30.600  1.00  0.00     0.074 A 
ATOM     99  C   UNL A   1      40.587  34.942  30.799  1.00  0.00    -0.034 C 
ATOM    100  H   UNL A   1      38.456  34.864  30.757  1.00  0.00     0.065 H 
ATOM    101  H   UNL A   1      45.844  34.195  30.943  1.00  0.00     0.065 H 
ATOM    102  C   UNL A   1      42.946  34.184  30.748  1.00  0.00     0.037 A 
ATOM    103  H   UNL A   1      40.766  35.930  31.036  1.00  0.00     0.065 H 
BRANCH  84 104
ATOM    104  C   UNL A   1      46.440  29.200  29.760  1.00  0.00     0.064 A 
ATOM    105  C   UNL A   1      47.247  29.185  28.613  1.00  0.00     0.173 A 
ATOM    106  C   UNL A   1      46.981  28.694  30.952  1.00  0.00     0.173 A 
ATOM    107  F   UNL A   1      46.774  29.655  27.449  1.00  0.00    -0.203 F 
ATOM    108  C   UNL A   1      48.535  28.659  28.651  1.00  0.00     0.198 A 
ATOM    109  C   UNL A   1      48.281  28.194  30.992  1.00  0.00     0.198 A 
ATOM    110  F   UNL A   1      46.256  28.696  32.080  1.00  0.00    -0.203 F 
ATOM    111  F   UNL A   1      49.274  28.618  27.533  1.00  0.00    -0.200 F 
ATOM    112  C   UNL A   1      49.053  28.171  29.841  1.00  0.00     0.200 A 
ATOM    113  F   UNL A   1      48.786  27.736  32.145  1.00  0.00    -0.200 F 
ATOM    114  F   UNL A   1      50.298  27.674  29.877  1.00  0.00    -0.200 F 
ENDBRANCH  84 104
BRANCH  87 115
ATOM    115  C   UNL A   1      37.149  32.670  29.959  1.00  0.00     0.064 A 
ATOM    116  C   UNL A   1      36.595  33.344  28.862  1.00  0.00     0.173 A 
ATOM    117  C   UNL A   1      36.355  32.518  31.104  1.00  0.00     0.173 A 
ATOM    118  F   UNL A   1      37.326  33.534  27.753  1.00  0.00    -0.203 F 
ATOM    119  C   UNL A   1      35.305  33.867  28.917  1.00  0.00     0.198 A 
ATOM    120  C   UNL A   1      35.056  33.017  31.147  1.00  0.00     0.198 A 
ATOM    121  F   UNL A   1      36.840  31.876  32.177  1.00  0.00    -0.203 F 
ATOM    122  F   UNL A   1      34.815  34.546  27.871  1.00  0.00    -0.200 F 
ATOM    123  C   UNL A   1      34.534  33.697  30.057  1.00  0.00     0.200 A 
ATOM    124  F   UNL A   1      34.310  32.840  32.246  1.00  0.00    -0.200 F 
ATOM    125  F   UNL A   1      33.292  34.196  30.108  1.00  0.00    -0.200 F 
ENDBRANCH  87 115
BRANCH 102 126
ATOM    126  C   UNL A   1      43.362  35.578  31.126  1.00  0.00     0.064 A 
ATOM    127  C   UNL A   1      43.677  36.541  30.156  1.00  0.00     0.173 A 
ATOM    128  C   UNL A   1      43.428  35.960  32.475  1.00  0.00     0.173 A 
ATOM    129  F   UNL A   1      43.644  36.223  28.854  1.00  0.00    -0.203 F 
ATOM    130  C   UNL A   1      44.071  37.826  30.523  1.00  0.00     0.198 A 
ATOM    131  C   UNL A   1      43.796  37.254  32.838  1.00  0.00     0.198 A 
ATOM    132  F   UNL A   1      43.133  35.080  33.444  1.00  0.00    -0.203 F 
ATOM    133  F   UNL A   1      44.417  38.714  29.580  1.00  0.00    -0.200 F 
ATOM    134  C   UNL A   1      44.126  38.183  31.862  1.00  0.00     0.200 A 
ATOM    135  F   UNL A   1      43.839  37.600  34.132  1.00  0.00    -0.200 F 
ATOM    136  F   UNL A   1      44.506  39.420  32.212  1.00  0.00    -0.200 F 
ENDBRANCH 102 126
ENDBRANCH  67  70
ENDBRANCH  57  60
ENDBRANCH  53  56
ENDBRANCH  50  53
ENDBRANCH  47  50
ENDBRANCH   1  47
TORSDOF 19
ENDMDL
MODEL 9
REMARK VINA RESULT:     -11.1      1.999      3.197
REMARK SMILES COc1ccc(C(=O)c2ccccc2)cc1[C@@H](C)C(=O)NCCCCCCNC(=O)c1ccc(-c2c3nc(c(-c4c(F)c(F)c(F)c(F)c4F)c4ccc([nH]4)c(-c4c(F)c(F)c(F)c(F)c4F)c4nc(c(-c5c(F)c(F)c(F)c(F)c5F)c5ccc2[nH]5)C=C4)C=C3)cc1
REMARK SMILES IDX 24 1 23 4 22 7 21 10 19 11 20 12 17 14 16 16 3 17 4 18 5 19
REMARK SMILES IDX 15 21 6 22 2 25 1 26 7 30 8 31 9 32 10 33 14 34 11 35 13 37
REMARK SMILES IDX 12 39 18 43 25 47 26 50 27 53 28 56 29 57 30 59 31 60 32 61
REMARK SMILES IDX 93 62 33 63 92 65 34 67 35 70 36 71 86 72 37 73 91 74 85 75
REMARK SMILES IDX 87 76 38 77 90 78 84 80 83 82 39 84 71 87 51 88 70 89 52 90
REMARK SMILES IDX 55 91 69 92 88 93 53 94 54 96 68 98 89 99 56 102 40 104
REMARK SMILES IDX 41 105 49 106 42 107 43 108 47 109 50 110 44 111 45 112
REMARK SMILES IDX 48 113 46 114 72 115 73 116 81 117 74 118 75 119 79 120
REMARK SMILES IDX 82 121 76 122 77 123 80 124 78 125 57 126 58 127 66 128
REMARK SMILES IDX 59 129 60 130 64 131 67 132 61 133 62 134 65 135 63 136
REMARK H PARENT 24 2 24 3 23 5 23 6 22 8 22 9 21 13 17 15 4 20 5 23 15 24 1 27
REMARK H PARENT 1 28 1 29 10 36 14 38 11 40 13 41 12 42 18 44 18 45 18 46
REMARK H PARENT 25 48 25 49 26 51 26 52 27 54 27 55 28 58 32 64 93 66 33 68
REMARK H PARENT 92 69 91 79 85 81 87 83 90 85 84 86 52 95 55 97 88 100 53 101
REMARK H PARENT 89 103
REMARK Flexibility Score: inf
ROOT
ATOM      1  C   UNL A   1      33.919  25.210  25.897  1.00  0.00    -0.052 C 
ATOM      2  H   UNL A   1      34.025  25.297  26.958  1.00  0.00     0.027 H 
ATOM      3  H   UNL A   1      33.233  24.452  25.584  1.00  0.00     0.027 H 
ENDROOT
BRANCH   1   4
ATOM      4  C   UNL A   1      35.278  24.799  25.322  1.00  0.00    -0.036 C 
ATOM      5  H   UNL A   1      35.117  24.423  24.333  1.00  0.00     0.028 H 
ATOM      6  H   UNL A   1      35.888  25.678  25.357  1.00  0.00     0.028 H 
BRANCH   4   7
ATOM      7  C   UNL A   1      36.039  23.731  26.115  1.00  0.00     0.017 C 
ATOM      8  H   UNL A   1      36.562  23.097  25.429  1.00  0.00     0.049 H 
ATOM      9  H   UNL A   1      36.718  24.229  26.775  1.00  0.00     0.049 H 
BRANCH   7  10
ATOM     10  N   UNL A   1      35.148  22.915  26.920  1.00  0.00    -0.356 N 
ATOM     11  C   UNL A   1      34.591  21.685  26.752  1.00  0.00     0.227 C 
ATOM     12  O   UNL A   1      33.803  21.331  27.640  1.00  0.00    -0.274 OA
ATOM     13  H   UNL A   1      34.891  23.343  27.768  1.00  0.00     0.163 HD
BRANCH  11  14
ATOM     14  C   UNL A   1      34.851  20.747  25.558  1.00  0.00     0.064 C 
ATOM     15  H   UNL A   1      34.669  19.778  25.974  1.00  0.00     0.045 H 
BRANCH  14  16
ATOM     16  C   UNL A   1      33.846  20.922  24.427  1.00  0.00     0.007 A 
ATOM     17  C   UNL A   1      33.002  19.888  23.990  1.00  0.00     0.122 A 
ATOM     18  C   UNL A   1      32.079  20.102  22.959  1.00  0.00    -0.019 A 
ATOM     19  C   UNL A   1      31.996  21.347  22.331  1.00  0.00    -0.047 A 
ATOM     20  H   UNL A   1      31.458  19.335  22.659  1.00  0.00     0.066 H 
ATOM     21  C   UNL A   1      33.756  22.157  23.758  1.00  0.00    -0.043 A 
ATOM     22  C   UNL A   1      32.860  22.376  22.705  1.00  0.00     0.023 A 
ATOM     23  H   UNL A   1      31.294  21.505  21.590  1.00  0.00     0.063 H 
ATOM     24  H   UNL A   1      34.373  22.930  24.056  1.00  0.00     0.064 H 
BRANCH  17  25
ATOM     25  O   UNL A   1      33.145  18.592  24.406  1.00  0.00    -0.496 OA
BRANCH  25  26
ATOM     26  C   UNL A   1      33.175  17.646  23.338  1.00  0.00     0.078 C 
ATOM     27  H   UNL A   1      32.650  18.044  22.494  1.00  0.00     0.067 H 
ATOM     28  H   UNL A   1      32.707  16.737  23.652  1.00  0.00     0.067 H 
ATOM     29  H   UNL A   1      34.190  17.448  23.064  1.00  0.00     0.067 H 
ENDBRANCH  25  26
ENDBRANCH  17  25
BRANCH  22  30
ATOM     30  C   UNL A   1      32.765  23.683  21.993  1.00  0.00     0.193 C 
ATOM     31  O   UNL A   1      33.407  23.848  20.958  1.00  0.00    -0.289 OA
BRANCH  30  32
ATOM     32  C   UNL A   1      31.896  24.796  22.455  1.00  0.00     0.022 A 
ATOM     33  C   UNL A   1      30.941  24.503  23.432  1.00  0.00    -0.051 A 
ATOM     34  C   UNL A   1      31.962  26.089  21.919  1.00  0.00    -0.051 A 
ATOM     35  C   UNL A   1      30.077  25.498  23.885  1.00  0.00    -0.062 A 
ATOM     36  H   UNL A   1      30.874  23.548  23.818  1.00  0.00     0.063 H 
ATOM     37  C   UNL A   1      31.112  27.090  22.400  1.00  0.00    -0.062 A 
ATOM     38  H   UNL A   1      32.637  26.302  21.168  1.00  0.00     0.063 H 
ATOM     39  C   UNL A   1      30.169  26.794  23.383  1.00  0.00    -0.062 A 
ATOM     40  H   UNL A   1      29.364  25.273  24.596  1.00  0.00     0.062 H 
ATOM     41  H   UNL A   1      31.183  28.049  22.026  1.00  0.00     0.062 H 
ATOM     42  H   UNL A   1      29.543  27.533  23.739  1.00  0.00     0.062 H 
ENDBRANCH  30  32
ENDBRANCH  22  30
ENDBRANCH  14  16
BRANCH  14  43
ATOM     43  C   UNL A   1      36.298  20.621  25.090  1.00  0.00    -0.049 C 
ATOM     44  H   UNL A   1      36.580  19.588  25.075  1.00  0.00     0.024 H 
ATOM     45  H   UNL A   1      36.937  21.155  25.762  1.00  0.00     0.024 H 
ATOM     46  H   UNL A   1      36.391  21.031  24.107  1.00  0.00     0.024 H 
ENDBRANCH  14  43
ENDBRANCH  11  14
ENDBRANCH   7  10
ENDBRANCH   4   7
ENDBRANCH   1   4
BRANCH   1  47
ATOM     47  C   UNL A   1      33.335  26.532  25.376  1.00  0.00    -0.052 C 
ATOM     48  H   UNL A   1      32.323  26.346  25.080  1.00  0.00     0.027 H 
ATOM     49  H   UNL A   1      33.983  26.833  24.580  1.00  0.00     0.027 H 
BRANCH  47  50
ATOM     50  C   UNL A   1      33.323  27.710  26.359  1.00  0.00    -0.036 C 
ATOM     51  H   UNL A   1      33.617  27.340  27.318  1.00  0.00     0.028 H 
ATOM     52  H   UNL A   1      32.329  28.104  26.327  1.00  0.00     0.028 H 
BRANCH  50  53
ATOM     53  C   UNL A   1      34.243  28.883  26.008  1.00  0.00     0.018 C 
ATOM     54  H   UNL A   1      34.228  29.024  24.947  1.00  0.00     0.049 H 
ATOM     55  H   UNL A   1      35.223  28.640  26.362  1.00  0.00     0.049 H 
BRANCH  53  56
ATOM     56  N   UNL A   1      33.842  30.124  26.647  1.00  0.00    -0.352 N 
ATOM     57  C   UNL A   1      34.432  30.822  27.675  1.00  0.00     0.251 C 
ATOM     58  H   UNL A   1      33.020  30.531  26.287  1.00  0.00     0.163 HD
ATOM     59  O   UNL A   1      33.846  31.781  28.169  1.00  0.00    -0.269 OA
BRANCH  57  60
ATOM     60  C   UNL A   1      35.758  30.431  28.220  1.00  0.00     0.039 A 
ATOM     61  C   UNL A   1      35.805  29.607  29.348  1.00  0.00    -0.049 A 
ATOM     62  C   UNL A   1      36.951  30.927  27.691  1.00  0.00    -0.049 A 
ATOM     63  C   UNL A   1      37.038  29.246  29.907  1.00  0.00    -0.053 A 
ATOM     64  H   UNL A   1      34.929  29.263  29.770  1.00  0.00     0.063 H 
ATOM     65  C   UNL A   1      38.187  30.511  28.209  1.00  0.00    -0.053 A 
ATOM     66  H   UNL A   1      36.924  31.603  26.913  1.00  0.00     0.063 H 
ATOM     67  C   UNL A   1      38.248  29.671  29.332  1.00  0.00    -0.014 A 
ATOM     68  H   UNL A   1      37.058  28.659  30.756  1.00  0.00     0.063 H 
ATOM     69  H   UNL A   1      39.060  30.827  27.759  1.00  0.00     0.063 H 
BRANCH  67  70
ATOM     70  C   UNL A   1      39.552  29.230  29.917  1.00  0.00     0.031 A 
ATOM     71  C   UNL A   1      40.122  29.872  31.156  1.00  0.00     0.074 A 
ATOM     72  C   UNL A   1      40.243  28.230  29.332  1.00  0.00     0.049 A 
ATOM     73  N   UNL A   1      41.192  29.543  31.842  1.00  0.00    -0.248 NA
ATOM     74  C   UNL A   1      39.417  31.048  31.685  1.00  0.00    -0.034 C 
ATOM     75  C   UNL A   1      39.864  27.554  28.091  1.00  0.00    -0.036 A 
ATOM     76  N   UNL A   1      41.406  27.599  29.710  1.00  0.00    -0.354 N 
ATOM     77  C   UNL A   1      41.289  30.469  32.873  1.00  0.00     0.074 A 
ATOM     78  C   UNL A   1      40.200  31.407  32.693  1.00  0.00    -0.034 C 
ATOM     79  H   UNL A   1      38.540  31.482  31.358  1.00  0.00     0.065 H 
ATOM     80  C   UNL A   1      40.751  26.580  27.832  1.00  0.00    -0.036 A 
ATOM     81  H   UNL A   1      39.046  27.790  27.508  1.00  0.00     0.065 H 
ATOM     82  C   UNL A   1      41.773  26.571  28.876  1.00  0.00     0.049 A 
ATOM     83  H   UNL A   1      41.926  27.860  30.505  1.00  0.00     0.167 HD
ATOM     84  C   UNL A   1      42.181  30.523  33.893  1.00  0.00     0.037 A 
ATOM     85  H   UNL A   1      40.053  32.246  33.274  1.00  0.00     0.065 H 
ATOM     86  H   UNL A   1      40.717  25.939  27.024  1.00  0.00     0.065 H 
ATOM     87  C   UNL A   1      42.803  25.704  28.945  1.00  0.00     0.037 A 
ATOM     88  C   UNL A   1      43.252  29.582  34.105  1.00  0.00     0.049 A 
ATOM     89  C   UNL A   1      43.760  25.763  30.105  1.00  0.00     0.074 A 
ATOM     90  C   UNL A   1      44.145  29.515  35.163  1.00  0.00    -0.036 A 
ATOM     91  N   UNL A   1      43.579  28.548  33.245  1.00  0.00    -0.354 N 
ATOM     92  N   UNL A   1      43.771  26.578  31.130  1.00  0.00    -0.248 NA
ATOM     93  C   UNL A   1      44.841  24.764  30.122  1.00  0.00    -0.034 C 
ATOM     94  C   UNL A   1      45.040  28.467  34.919  1.00  0.00    -0.036 A 
ATOM     95  H   UNL A   1      44.148  30.133  35.990  1.00  0.00     0.065 H 
ATOM     96  C   UNL A   1      44.677  27.852  33.734  1.00  0.00     0.049 A 
ATOM     97  H   UNL A   1      43.105  28.336  32.408  1.00  0.00     0.167 HD
ATOM     98  C   UNL A   1      44.839  26.178  31.923  1.00  0.00     0.074 A 
ATOM     99  C   UNL A   1      45.442  25.035  31.273  1.00  0.00    -0.034 C 
ATOM    100  H   UNL A   1      45.071  24.042  29.423  1.00  0.00     0.065 H 
ATOM    101  H   UNL A   1      45.835  28.201  35.521  1.00  0.00     0.065 H 
ATOM    102  C   UNL A   1      45.278  26.715  33.088  1.00  0.00     0.037 A 
ATOM    103  H   UNL A   1      46.237  24.500  31.654  1.00  0.00     0.065 H 
BRANCH  84 104
ATOM    104  C   UNL A   1      42.034  31.642  34.885  1.00  0.00     0.064 A 
ATOM    105  C   UNL A   1      42.768  32.831  34.763  1.00  0.00     0.173 A 
ATOM    106  C   UNL A   1      41.105  31.548  35.933  1.00  0.00     0.173 A 
ATOM    107  F   UNL A   1      43.670  32.969  33.780  1.00  0.00    -0.203 F 
ATOM    108  C   UNL A   1      42.599  33.874  35.670  1.00  0.00     0.198 A 
ATOM    109  C   UNL A   1      40.918  32.604  36.822  1.00  0.00     0.198 A 
ATOM    110  F   UNL A   1      40.368  30.437  36.087  1.00  0.00    -0.203 F 
ATOM    111  F   UNL A   1      43.341  34.984  35.557  1.00  0.00    -0.200 F 
ATOM    112  C   UNL A   1      41.670  33.762  36.694  1.00  0.00     0.200 A 
ATOM    113  F   UNL A   1      40.010  32.502  37.802  1.00  0.00    -0.200 F 
ATOM    114  F   UNL A   1      41.501  34.772  37.559  1.00  0.00    -0.200 F 
ENDBRANCH  84 104
BRANCH  87 115
ATOM    115  C   UNL A   1      42.963  24.665  27.896  1.00  0.00     0.064 A 
ATOM    116  C   UNL A   1      42.533  23.349  28.114  1.00  0.00     0.173 A 
ATOM    117  C   UNL A   1      43.557  24.964  26.662  1.00  0.00     0.173 A 
ATOM    118  F   UNL A   1      41.981  23.012  29.289  1.00  0.00    -0.203 F 
ATOM    119  C   UNL A   1      42.710  22.365  27.144  1.00  0.00     0.198 A 
ATOM    120  C   UNL A   1      43.708  23.986  25.682  1.00  0.00     0.198 A 
ATOM    121  F   UNL A   1      43.980  26.211  26.404  1.00  0.00    -0.203 F 
ATOM    122  F   UNL A   1      42.330  21.105  27.394  1.00  0.00    -0.200 F 
ATOM    123  C   UNL A   1      43.291  22.686  25.927  1.00  0.00     0.200 A 
ATOM    124  F   UNL A   1      44.260  24.302  24.503  1.00  0.00    -0.200 F 
ATOM    125  F   UNL A   1      43.457  21.740  24.992  1.00  0.00    -0.200 F 
ENDBRANCH  87 115
BRANCH 102 126
ATOM    126  C   UNL A   1      46.457  26.060  33.750  1.00  0.00     0.064 A 
ATOM    127  C   UNL A   1      46.296  25.018  34.676  1.00  0.00     0.173 A 
ATOM    128  C   UNL A   1      47.764  26.464  33.440  1.00  0.00     0.173 A 
ATOM    129  F   UNL A   1      45.067  24.604  35.019  1.00  0.00    -0.203 F 
ATOM    130  C   UNL A   1      47.398  24.427  35.289  1.00  0.00     0.198 A 
ATOM    131  C   UNL A   1      48.866  25.852  34.034  1.00  0.00     0.198 A 
ATOM    132  F   UNL A   1      47.976  27.452  32.557  1.00  0.00    -0.203 F 
ATOM    133  F   UNL A   1      47.217  23.469  36.210  1.00  0.00    -0.200 F 
ATOM    134  C   UNL A   1      48.682  24.841  34.965  1.00  0.00     0.200 A 
ATOM    135  F   UNL A   1      50.105  26.247  33.711  1.00  0.00    -0.200 F 
ATOM    136  F   UNL A   1      49.741  24.271  35.556  1.00  0.00    -0.200 F 
ENDBRANCH 102 126
ENDBRANCH  67  70
ENDBRANCH  57  60
ENDBRANCH  53  56
ENDBRANCH  50  53
ENDBRANCH  47  50
ENDBRANCH   1  47
TORSDOF 19
ENDMDL
MODEL 10
REMARK VINA RESULT:     -11.1      4.378      9.605
REMARK SMILES COc1ccc(C(=O)c2ccccc2)cc1[C@@H](C)C(=O)NCCCCCCNC(=O)c1ccc(-c2c3nc(c(-c4c(F)c(F)c(F)c(F)c4F)c4ccc([nH]4)c(-c4c(F)c(F)c(F)c(F)c4F)c4nc(c(-c5c(F)c(F)c(F)c(F)c5F)c5ccc2[nH]5)C=C4)C=C3)cc1
REMARK SMILES IDX 24 1 23 4 22 7 21 10 19 11 20 12 17 14 16 16 3 17 4 18 5 19
REMARK SMILES IDX 15 21 6 22 2 25 1 26 7 30 8 31 9 32 10 33 14 34 11 35 13 37
REMARK SMILES IDX 12 39 18 43 25 47 26 50 27 53 28 56 29 57 30 59 31 60 32 61
REMARK SMILES IDX 93 62 33 63 92 65 34 67 35 70 36 71 86 72 37 73 91 74 85 75
REMARK SMILES IDX 87 76 38 77 90 78 84 80 83 82 39 84 71 87 51 88 70 89 52 90
REMARK SMILES IDX 55 91 69 92 88 93 53 94 54 96 68 98 89 99 56 102 40 104
REMARK SMILES IDX 41 105 49 106 42 107 43 108 47 109 50 110 44 111 45 112
REMARK SMILES IDX 48 113 46 114 72 115 73 116 81 117 74 118 75 119 79 120
REMARK SMILES IDX 82 121 76 122 77 123 80 124 78 125 57 126 58 127 66 128
REMARK SMILES IDX 59 129 60 130 64 131 67 132 61 133 62 134 65 135 63 136
REMARK H PARENT 24 2 24 3 23 5 23 6 22 8 22 9 21 13 17 15 4 20 5 23 15 24 1 27
REMARK H PARENT 1 28 1 29 10 36 14 38 11 40 13 41 12 42 18 44 18 45 18 46
REMARK H PARENT 25 48 25 49 26 51 26 52 27 54 27 55 28 58 32 64 93 66 33 68
REMARK H PARENT 92 69 91 79 85 81 87 83 90 85 84 86 52 95 55 97 88 100 53 101
REMARK H PARENT 89 103
REMARK Flexibility Score: inf
ROOT
ATOM      1  C   UNL A   1      35.205  21.948  26.082  1.00  0.00    -0.052 C 
ATOM      2  H   UNL A   1      36.035  22.399  26.586  1.00  0.00     0.027 H 
ATOM      3  H   UNL A   1      34.653  22.619  25.459  1.00  0.00     0.027 H 
ENDROOT
BRANCH   1   4
ATOM      4  C   UNL A   1      34.215  21.466  27.147  1.00  0.00    -0.036 C 
ATOM      5  H   UNL A   1      33.430  20.936  26.649  1.00  0.00     0.028 H 
ATOM      6  H   UNL A   1      34.785  20.863  27.823  1.00  0.00     0.028 H 
BRANCH   4   7
ATOM      7  C   UNL A   1      33.574  22.563  28.003  1.00  0.00     0.017 C 
ATOM      8  H   UNL A   1      33.836  22.401  29.028  1.00  0.00     0.049 H 
ATOM      9  H   UNL A   1      33.937  23.508  27.657  1.00  0.00     0.049 H 
BRANCH   7  10
ATOM     10  N   UNL A   1      32.126  22.569  27.885  1.00  0.00    -0.356 N 
ATOM     11  C   UNL A   1      31.245  23.323  27.175  1.00  0.00     0.227 C 
ATOM     12  O   UNL A   1      30.048  23.083  27.386  1.00  0.00    -0.274 OA
ATOM     13  H   UNL A   1      31.691  21.881  28.437  1.00  0.00     0.163 HD
BRANCH  11  14
ATOM     14  C   UNL A   1      31.625  24.435  26.179  1.00  0.00     0.064 C 
ATOM     15  H   UNL A   1      32.344  25.008  26.725  1.00  0.00     0.045 H 
BRANCH  14  16
ATOM     16  C   UNL A   1      32.345  23.913  24.942  1.00  0.00     0.007 A 
ATOM     17  C   UNL A   1      33.335  24.647  24.269  1.00  0.00     0.122 A 
ATOM     18  C   UNL A   1      33.984  24.118  23.148  1.00  0.00    -0.019 A 
ATOM     19  C   UNL A   1      33.644  22.852  22.665  1.00  0.00    -0.047 A 
ATOM     20  H   UNL A   1      34.718  24.666  22.673  1.00  0.00     0.066 H 
ATOM     21  C   UNL A   1      32.006  22.652  24.417  1.00  0.00    -0.043 A 
ATOM     22  C   UNL A   1      32.625  22.122  23.278  1.00  0.00     0.023 A 
ATOM     23  H   UNL A   1      34.146  22.458  21.854  1.00  0.00     0.063 H 
ATOM     24  H   UNL A   1      31.275  22.097  24.889  1.00  0.00     0.064 H 
BRANCH  17  25
ATOM     25  O   UNL A   1      33.596  25.962  24.547  1.00  0.00    -0.496 OA
BRANCH  25  26
ATOM     26  C   UNL A   1      33.154  26.862  23.531  1.00  0.00     0.078 C 
ATOM     27  H   UNL A   1      32.178  26.573  23.199  1.00  0.00     0.067 H 
ATOM     28  H   UNL A   1      33.835  26.833  22.707  1.00  0.00     0.067 H 
ATOM     29  H   UNL A   1      33.114  27.856  23.927  1.00  0.00     0.067 H 
ENDBRANCH  25  26
ENDBRANCH  17  25
BRANCH  22  30
ATOM     30  C   UNL A   1      32.265  20.789  22.719  1.00  0.00     0.193 C 
ATOM     31  O   UNL A   1      31.761  20.725  21.599  1.00  0.00    -0.289 OA
BRANCH  30  32
ATOM     32  C   UNL A   1      32.522  19.513  23.435  1.00  0.00     0.022 A 
ATOM     33  C   UNL A   1      32.751  18.374  22.659  1.00  0.00    -0.051 A 
ATOM     34  C   UNL A   1      32.489  19.402  24.832  1.00  0.00    -0.051 A 
ATOM     35  C   UNL A   1      32.970  17.142  23.272  1.00  0.00    -0.062 A 
ATOM     36  H   UNL A   1      32.759  18.445  21.629  1.00  0.00     0.063 H 
ATOM     37  C   UNL A   1      32.740  18.168  25.442  1.00  0.00    -0.062 A 
ATOM     38  H   UNL A   1      32.279  20.230  25.411  1.00  0.00     0.063 H 
ATOM     39  C   UNL A   1      32.980  17.038  24.661  1.00  0.00    -0.062 A 
ATOM     40  H   UNL A   1      33.125  16.302  22.694  1.00  0.00     0.062 H 
ATOM     41  H   UNL A   1      32.746  18.094  26.471  1.00  0.00     0.062 H 
ATOM     42  H   UNL A   1      33.166  16.129  25.111  1.00  0.00     0.062 H 
ENDBRANCH  30  32
ENDBRANCH  22  30
ENDBRANCH  14  16
BRANCH  14  43
ATOM     43  C   UNL A   1      30.553  25.479  25.879  1.00  0.00    -0.049 C 
ATOM     44  H   UNL A   1      30.758  25.939  24.935  1.00  0.00     0.024 H 
ATOM     45  H   UNL A   1      30.557  26.224  26.647  1.00  0.00     0.024 H 
ATOM     46  H   UNL A   1      29.594  25.006  25.846  1.00  0.00     0.024 H 
ENDBRANCH  14  43
ENDBRANCH  11  14
ENDBRANCH   7  10
ENDBRANCH   4   7
ENDBRANCH   1   4
BRANCH   1  47
ATOM     47  C   UNL A   1      35.760  20.873  25.137  1.00  0.00    -0.052 C 
ATOM     48  H   UNL A   1      35.054  20.741  24.343  1.00  0.00     0.027 H 
ATOM     49  H   UNL A   1      35.908  20.008  25.749  1.00  0.00     0.027 H 
BRANCH  47  50
ATOM     50  C   UNL A   1      37.127  21.159  24.500  1.00  0.00    -0.036 C 
ATOM     51  H   UNL A   1      36.966  21.778  23.643  1.00  0.00     0.028 H 
ATOM     52  H   UNL A   1      37.548  20.202  24.276  1.00  0.00     0.028 H 
BRANCH  50  53
ATOM     53  C   UNL A   1      38.150  21.860  25.398  1.00  0.00     0.018 C 
ATOM     54  H   UNL A   1      37.624  22.420  26.143  1.00  0.00     0.049 H 
ATOM     55  H   UNL A   1      38.746  22.492  24.774  1.00  0.00     0.049 H 
BRANCH  53  56
ATOM     56  N   UNL A   1      39.047  20.931  26.064  1.00  0.00    -0.352 N 
ATOM     57  C   UNL A   1      40.184  21.172  26.800  1.00  0.00     0.251 C 
ATOM     58  H   UNL A   1      38.803  19.981  25.974  1.00  0.00     0.163 HD
ATOM     59  O   UNL A   1      40.884  20.228  27.155  1.00  0.00    -0.269 OA
BRANCH  57  60
ATOM     60  C   UNL A   1      40.598  22.551  27.161  1.00  0.00     0.039 A 
ATOM     61  C   UNL A   1      41.502  22.728  28.214  1.00  0.00    -0.049 A 
ATOM     62  C   UNL A   1      40.053  23.675  26.539  1.00  0.00    -0.049 A 
ATOM     63  C   UNL A   1      41.888  24.018  28.603  1.00  0.00    -0.053 A 
ATOM     64  H   UNL A   1      41.885  21.907  28.706  1.00  0.00     0.063 H 
ATOM     65  C   UNL A   1      40.492  24.964  26.883  1.00  0.00    -0.053 A 
ATOM     66  H   UNL A   1      39.323  23.558  25.820  1.00  0.00     0.063 H 
ATOM     67  C   UNL A   1      41.409  25.154  27.927  1.00  0.00    -0.014 A 
ATOM     68  H   UNL A   1      42.535  24.136  29.399  1.00  0.00     0.063 H 
ATOM     69  H   UNL A   1      40.134  25.779  26.361  1.00  0.00     0.063 H 
BRANCH  67  70
ATOM     70  C   UNL A   1      41.877  26.517  28.327  1.00  0.00     0.031 A 
ATOM     71  C   UNL A   1      43.310  26.949  28.138  1.00  0.00     0.074 A 
ATOM     72  C   UNL A   1      41.005  27.392  28.868  1.00  0.00     0.049 A 
ATOM     73  N   UNL A   1      43.854  28.126  28.346  1.00  0.00    -0.248 NA
ATOM     74  C   UNL A   1      44.262  25.928  27.679  1.00  0.00    -0.034 C 
ATOM     75  C   UNL A   1      39.605  27.105  29.181  1.00  0.00    -0.036 A 
ATOM     76  N   UNL A   1      41.164  28.707  29.241  1.00  0.00    -0.354 N 
ATOM     77  C   UNL A   1      45.203  27.984  28.048  1.00  0.00     0.074 A 
ATOM     78  C   UNL A   1      45.408  26.594  27.698  1.00  0.00    -0.034 C 
ATOM     79  H   UNL A   1      44.084  24.947  27.411  1.00  0.00     0.065 H 
ATOM     80  C   UNL A   1      39.025  28.218  29.659  1.00  0.00    -0.036 A 
ATOM     81  H   UNL A   1      39.140  26.194  29.055  1.00  0.00     0.065 H 
ATOM     82  C   UNL A   1      40.012  29.293  29.706  1.00  0.00     0.049 A 
ATOM     83  H   UNL A   1      42.025  29.183  29.180  1.00  0.00     0.167 HD
ATOM     84  C   UNL A   1      46.180  28.925  28.040  1.00  0.00     0.037 A 
ATOM     85  H   UNL A   1      46.328  26.176  27.490  1.00  0.00     0.065 H 
ATOM     86  H   UNL A   1      38.037  28.300  29.949  1.00  0.00     0.065 H 
ATOM     87  C   UNL A   1      39.766  30.555  30.109  1.00  0.00     0.037 A 
ATOM     88  C   UNL A   1      45.989  30.318  28.355  1.00  0.00     0.049 A 
ATOM     89  C   UNL A   1      40.858  31.589  30.057  1.00  0.00     0.074 A 
ATOM     90  C   UNL A   1      46.908  31.352  28.285  1.00  0.00    -0.036 A 
ATOM     91  N   UNL A   1      44.803  30.872  28.807  1.00  0.00    -0.354 N 
ATOM     92  N   UNL A   1      42.101  31.462  29.668  1.00  0.00    -0.248 NA
ATOM     93  C   UNL A   1      40.501  32.951  30.486  1.00  0.00    -0.034 C 
ATOM     94  C   UNL A   1      46.290  32.524  28.735  1.00  0.00    -0.036 A 
ATOM     95  H   UNL A   1      47.883  31.272  27.955  1.00  0.00     0.065 H 
ATOM     96  C   UNL A   1      44.973  32.230  29.043  1.00  0.00     0.049 A 
ATOM     97  H   UNL A   1      43.963  30.377  28.942  1.00  0.00     0.167 HD
ATOM     98  C   UNL A   1      42.668  32.726  29.783  1.00  0.00     0.074 A 
ATOM     99  C   UNL A   1      41.628  33.611  30.258  1.00  0.00    -0.034 C 
ATOM    100  H   UNL A   1      39.607  33.301  30.865  1.00  0.00     0.065 H 
ATOM    101  H   UNL A   1      46.740  33.449  28.824  1.00  0.00     0.065 H 
ATOM    102  C   UNL A   1      43.939  33.112  29.516  1.00  0.00     0.037 A 
ATOM    103  H   UNL A   1      41.747  34.626  30.402  1.00  0.00     0.065 H 
BRANCH  84 104
ATOM    104  C   UNL A   1      47.565  28.483  27.657  1.00  0.00     0.064 A 
ATOM    105  C   UNL A   1      47.965  28.409  26.314  1.00  0.00     0.173 A 
ATOM    106  C   UNL A   1      48.518  28.191  28.644  1.00  0.00     0.173 A 
ATOM    107  F   UNL A   1      47.090  28.676  25.334  1.00  0.00    -0.203 F 
ATOM    108  C   UNL A   1      49.260  28.031  25.973  1.00  0.00     0.198 A 
ATOM    109  C   UNL A   1      49.821  27.839  28.299  1.00  0.00     0.198 A 
ATOM    110  F   UNL A   1      48.191  28.260  29.943  1.00  0.00    -0.203 F 
ATOM    111  F   UNL A   1      49.608  27.927  24.683  1.00  0.00    -0.200 F 
ATOM    112  C   UNL A   1      50.189  27.753  26.965  1.00  0.00     0.200 A 
ATOM    113  F   UNL A   1      50.722  27.586  29.258  1.00  0.00    -0.200 F 
ATOM    114  F   UNL A   1      51.439  27.399  26.634  1.00  0.00    -0.200 F 
ENDBRANCH  84 104
BRANCH  87 115
ATOM    115  C   UNL A   1      38.402  30.931  30.562  1.00  0.00     0.064 A 
ATOM    116  C   UNL A   1      37.395  31.240  29.636  1.00  0.00     0.173 A 
ATOM    117  C   UNL A   1      38.081  30.997  31.925  1.00  0.00     0.173 A 
ATOM    118  F   UNL A   1      37.663  31.214  28.322  1.00  0.00    -0.203 F 
ATOM    119  C   UNL A   1      36.124  31.623  30.059  1.00  0.00     0.198 A 
ATOM    120  C   UNL A   1      36.802  31.352  32.345  1.00  0.00     0.198 A 
ATOM    121  F   UNL A   1      39.010  30.705  32.848  1.00  0.00    -0.203 F 
ATOM    122  F   UNL A   1      35.193  31.957  29.155  1.00  0.00    -0.200 F 
ATOM    123  C   UNL A   1      35.827  31.672  31.412  1.00  0.00     0.200 A 
ATOM    124  F   UNL A   1      36.515  31.387  33.653  1.00  0.00    -0.200 F 
ATOM    125  F   UNL A   1      34.603  32.036  31.818  1.00  0.00    -0.200 F 
ENDBRANCH  87 115
BRANCH 102 126
ATOM    126  C   UNL A   1      44.275  34.564  29.711  1.00  0.00     0.064 A 
ATOM    127  C   UNL A   1      44.100  35.505  28.685  1.00  0.00     0.173 A 
ATOM    128  C   UNL A   1      44.759  35.023  30.946  1.00  0.00     0.173 A 
ATOM    129  F   UNL A   1      43.654  35.115  27.482  1.00  0.00    -0.203 F 
ATOM    130  C   UNL A   1      44.425  36.845  28.878  1.00  0.00     0.198 A 
ATOM    131  C   UNL A   1      45.058  36.370  31.144  1.00  0.00     0.198 A 
ATOM    132  F   UNL A   1      44.941  34.167  31.963  1.00  0.00    -0.203 F 
ATOM    133  F   UNL A   1      44.299  37.716  27.867  1.00  0.00    -0.200 F 
ATOM    134  C   UNL A   1      44.900  37.278  30.108  1.00  0.00     0.200 A 
ATOM    135  F   UNL A   1      45.506  36.787  32.336  1.00  0.00    -0.200 F 
ATOM    136  F   UNL A   1      45.212  38.568  30.291  1.00  0.00    -0.200 F 
ENDBRANCH 102 126
ENDBRANCH  67  70
ENDBRANCH  57  60
ENDBRANCH  53  56
ENDBRANCH  50  53
ENDBRANCH  47  50
ENDBRANCH   1  47
TORSDOF 19
ENDMDL
