MODEL 1
REMARK VINA RESULT:     -11.6      0.000      0.000
REMARK SMILES C=C[C@@H]1[C@@H](O)C[C@H]2[C@]3(CC[C@]4(C)[C@@H]([C@H](C)CCC=C(C)C)CC[C@]24C)C[C@]13CCC(=O)NCCCCCCNC(=O)c1ccc(-c2c3nc(c(-c4c(F)c(F)c(F)c(F)c4F)c4ccc([nH]4)c(-c4c(F)c(F)c(F)c(F)c4F)c4nc(c(-c5c(F)c(F)c(F)c(F)c5F)c5ccc2[nH]5)C=C4)C=C3)cc1
REMARK SMILES IDX 33 1 32 4 30 5 31 6 29 8 28 11 27 14 3 15 4 16 6 18 8 20
REMARK SMILES IDX 26 21 7 22 9 25 24 28 10 30 11 33 23 34 13 37 22 38 2 44
REMARK SMILES IDX 1 45 5 49 25 51 12 55 14 59 16 61 17 64 18 67 19 68 20 70
REMARK SMILES IDX 21 74 15 78 34 82 35 85 36 88 37 91 38 94 39 97 40 98 41 100
REMARK SMILES IDX 42 101 43 102 104 103 44 104 103 106 45 108 46 111 47 112
REMARK SMILES IDX 97 113 48 114 102 115 96 116 98 117 49 118 101 119 95 121
REMARK SMILES IDX 94 123 50 125 82 128 62 129 81 130 63 131 66 132 80 133
REMARK SMILES IDX 99 134 64 135 65 137 79 139 100 140 67 143 51 145 52 146
REMARK SMILES IDX 60 147 53 148 54 149 58 150 61 151 55 152 56 153 59 154
REMARK SMILES IDX 57 155 83 156 84 157 92 158 85 159 86 160 90 161 93 162
REMARK SMILES IDX 87 163 88 164 91 165 89 166 68 167 69 168 77 169 70 170
REMARK SMILES IDX 71 171 75 172 78 173 72 174 73 175 76 176 74 177
REMARK H PARENT 33 2 33 3 32 7 29 9 29 10 28 12 28 13 3 17 4 19 6 23 6 24
REMARK H PARENT 26 26 26 27 7 29 9 31 9 32 10 35 10 36 23 39 23 40 13 41 22 42
REMARK H PARENT 22 43 1 46 1 47 2 48 5 50 25 52 25 53 25 54 12 56 12 57 12 58
REMARK H PARENT 14 60 16 62 16 63 17 65 17 66 18 69 20 71 20 72 20 73 21 75
REMARK H PARENT 21 76 21 77 15 79 15 80 15 81 34 83 34 84 35 86 35 87 36 89
REMARK H PARENT 36 90 37 92 37 93 38 95 38 96 39 99 43 105 104 107 44 109
REMARK H PARENT 103 110 102 120 96 122 98 124 101 126 95 127 63 136 66 138
REMARK H PARENT 99 141 64 142 100 144
REMARK Flexibility Score: inf
ROOT
ATOM      1  C   UNL A   1      34.068  31.183  27.736  1.00  0.00     0.017 C 
ATOM      2  H   UNL A   1      34.748  30.440  27.376  1.00  0.00     0.049 H 
ATOM      3  H   UNL A   1      33.462  31.219  28.618  1.00  0.00     0.049 H 
ENDROOT
BRANCH   1   4
ATOM      4  N   UNL A   1      32.903  31.070  26.775  1.00  0.00    -0.356 N 
ATOM      5  C   UNL A   1      32.550  30.014  25.988  1.00  0.00     0.220 C 
ATOM      6  O   UNL A   1      31.428  29.958  25.491  1.00  0.00    -0.275 OA
ATOM      7  H   UNL A   1      32.325  31.863  26.708  1.00  0.00     0.163 HD
BRANCH   5   8
ATOM      8  C   UNL A   1      33.589  28.947  25.780  1.00  0.00     0.027 C 
ATOM      9  H   UNL A   1      34.552  29.359  25.999  1.00  0.00     0.037 H 
ATOM     10  H   UNL A   1      33.353  28.131  26.430  1.00  0.00     0.037 H 
BRANCH   8  11
ATOM     11  C   UNL A   1      33.598  28.414  24.349  1.00  0.00    -0.038 C 
ATOM     12  H   UNL A   1      33.241  29.187  23.701  1.00  0.00     0.028 H 
ATOM     13  H   UNL A   1      34.606  28.125  24.134  1.00  0.00     0.028 H 
BRANCH  11  14
ATOM     14  C   UNL A   1      32.724  27.165  24.138  1.00  0.00    -0.014 C 
ATOM     15  C   UNL A   1      31.912  27.265  22.362  1.00  0.00     0.009 C 
ATOM     16  C   UNL A   1      32.149  25.688  21.168  1.00  0.00     0.061 C 
ATOM     17  H   UNL A   1      32.533  27.957  21.833  1.00  0.00     0.038 H 
ATOM     18  C   UNL A   1      32.771  23.981  21.972  1.00  0.00    -0.022 C 
ATOM     19  H   UNL A   1      31.132  25.509  20.890  1.00  0.00     0.061 H 
ATOM     20  C   UNL A   1      33.300  25.532  24.905  1.00  0.00    -0.019 C 
ATOM     21  C   UNL A   1      32.176  26.447  25.431  1.00  0.00    -0.040 C 
ATOM     22  C   UNL A   1      33.404  23.979  23.817  1.00  0.00    -0.027 C 
ATOM     23  H   UNL A   1      33.576  23.624  21.364  1.00  0.00     0.030 H 
ATOM     24  H   UNL A   1      31.890  23.376  22.002  1.00  0.00     0.030 H 
ATOM     25  C   UNL A   1      34.498  25.420  25.865  1.00  0.00    -0.046 C 
ATOM     26  H   UNL A   1      32.339  26.935  26.369  1.00  0.00     0.028 H 
ATOM     27  H   UNL A   1      31.165  26.187  25.664  1.00  0.00     0.028 H 
ATOM     28  C   UNL A   1      33.410  22.698  24.742  1.00  0.00    -0.023 C 
ATOM     29  H   UNL A   1      34.334  23.958  23.289  1.00  0.00     0.032 H 
ATOM     30  C   UNL A   1      34.513  24.081  26.614  1.00  0.00    -0.046 C 
ATOM     31  H   UNL A   1      34.442  26.214  26.580  1.00  0.00     0.027 H 
ATOM     32  H   UNL A   1      35.395  25.485  25.284  1.00  0.00     0.027 H 
ATOM     33  C   UNL A   1      34.660  22.780  25.755  1.00  0.00    -0.024 C 
ATOM     34  C   UNL A   1      33.797  21.497  23.885  1.00  0.00    -0.047 C 
ATOM     35  H   UNL A   1      33.593  24.006  27.156  1.00  0.00     0.027 H 
ATOM     36  H   UNL A   1      35.396  24.113  27.216  1.00  0.00     0.027 H 
ATOM     37  C   UNL A   1      35.861  22.651  24.736  1.00  0.00    -0.033 C 
ATOM     38  C   UNL A   1      35.309  21.672  23.640  1.00  0.00    -0.049 C 
ATOM     39  H   UNL A   1      33.601  20.582  24.404  1.00  0.00     0.027 H 
ATOM     40  H   UNL A   1      33.239  21.449  22.973  1.00  0.00     0.027 H 
ATOM     41  H   UNL A   1      36.086  23.665  24.480  1.00  0.00     0.031 H 
ATOM     42  H   UNL A   1      35.802  20.725  23.716  1.00  0.00     0.027 H 
ATOM     43  H   UNL A   1      35.487  22.067  22.662  1.00  0.00     0.027 H 
BRANCH  15  44
ATOM     44  C   UNL A   1      30.522  27.938  22.366  1.00  0.00    -0.085 C 
ATOM     45  C   UNL A   1      30.235  29.249  22.332  1.00  0.00    -0.103 C 
ATOM     46  H   UNL A   1      29.253  29.563  22.339  1.00  0.00     0.053 H 
ATOM     47  H   UNL A   1      30.999  29.943  22.299  1.00  0.00     0.053 H 
ATOM     48  H   UNL A   1      29.711  27.300  22.397  1.00  0.00     0.057 H 
ENDBRANCH  15  44
BRANCH  16  49
ATOM     49  O   UNL A   1      32.983  25.983  20.016  1.00  0.00    -0.392 OA
ATOM     50  H   UNL A   1      33.086  25.183  19.477  1.00  0.00     0.210 HD
ENDBRANCH  16  49
BRANCH  28  51
ATOM     51  C   UNL A   1      32.081  22.505  25.486  1.00  0.00    -0.059 C 
ATOM     52  H   UNL A   1      31.754  23.443  25.882  1.00  0.00     0.024 H 
ATOM     53  H   UNL A   1      32.219  21.809  26.287  1.00  0.00     0.024 H 
ATOM     54  H   UNL A   1      31.345  22.127  24.808  1.00  0.00     0.024 H 
ENDBRANCH  28  51
BRANCH  33  55
ATOM     55  C   UNL A   1      34.752  21.596  26.750  1.00  0.00    -0.059 C 
ATOM     56  H   UNL A   1      34.394  21.908  27.709  1.00  0.00     0.024 H 
ATOM     57  H   UNL A   1      35.770  21.280  26.833  1.00  0.00     0.024 H 
ATOM     58  H   UNL A   1      34.154  20.783  26.393  1.00  0.00     0.024 H 
ENDBRANCH  33  55
BRANCH  37  59
ATOM     59  C   UNL A   1      37.376  22.533  25.062  1.00  0.00    -0.041 C 
ATOM     60  H   UNL A   1      37.792  22.813  24.116  1.00  0.00     0.030 H 
BRANCH  59  61
ATOM     61  C   UNL A   1      37.865  23.536  26.127  1.00  0.00    -0.047 C 
ATOM     62  H   UNL A   1      37.074  23.683  26.832  1.00  0.00     0.027 H 
ATOM     63  H   UNL A   1      38.133  24.428  25.600  1.00  0.00     0.027 H 
BRANCH  61  64
ATOM     64  C   UNL A   1      39.115  23.101  26.898  1.00  0.00    -0.035 C 
ATOM     65  H   UNL A   1      39.160  22.031  26.906  1.00  0.00     0.031 H 
ATOM     66  H   UNL A   1      39.045  23.494  27.890  1.00  0.00     0.031 H 
BRANCH  64  67
ATOM     67  C   UNL A   1      40.385  23.636  26.274  1.00  0.00    -0.086 C 
ATOM     68  C   UNL A   1      41.537  23.915  26.919  1.00  0.00    -0.080 C 
ATOM     69  H   UNL A   1      40.369  23.805  25.257  1.00  0.00     0.058 H 
BRANCH  68  70
ATOM     70  C   UNL A   1      42.756  24.401  26.183  1.00  0.00    -0.044 C 
ATOM     71  H   UNL A   1      43.140  23.613  25.569  1.00  0.00     0.028 H 
ATOM     72  H   UNL A   1      43.504  24.699  26.889  1.00  0.00     0.028 H 
ATOM     73  H   UNL A   1      42.493  25.236  25.569  1.00  0.00     0.028 H 
ENDBRANCH  68  70
BRANCH  68  74
ATOM     74  C   UNL A   1      41.709  23.778  28.407  1.00  0.00    -0.044 C 
ATOM     75  H   UNL A   1      42.667  24.159  28.692  1.00  0.00     0.028 H 
ATOM     76  H   UNL A   1      41.643  22.745  28.681  1.00  0.00     0.028 H 
ATOM     77  H   UNL A   1      40.942  24.330  28.908  1.00  0.00     0.028 H 
ENDBRANCH  68  74
ENDBRANCH  64  67
ENDBRANCH  61  64
ENDBRANCH  59  61
BRANCH  59  78
ATOM     78  C   UNL A   1      37.959  21.135  25.291  1.00  0.00    -0.062 C 
ATOM     79  H   UNL A   1      38.989  21.126  25.002  1.00  0.00     0.023 H 
ATOM     80  H   UNL A   1      37.417  20.422  24.705  1.00  0.00     0.023 H 
ATOM     81  H   UNL A   1      37.877  20.880  26.327  1.00  0.00     0.023 H 
ENDBRANCH  59  78
ENDBRANCH  37  59
ENDBRANCH  11  14
ENDBRANCH   8  11
ENDBRANCH   5   8
ENDBRANCH   1   4
BRANCH   1  82
ATOM     82  C   UNL A   1      35.348  32.745  28.323  1.00  0.00    -0.036 C 
ATOM     83  H   UNL A   1      35.854  32.966  27.407  1.00  0.00     0.028 H 
ATOM     84  H   UNL A   1      35.593  32.269  29.249  1.00  0.00     0.028 H 
BRANCH  82  85
ATOM     85  C   UNL A   1      35.252  34.321  29.058  1.00  0.00    -0.052 C 
ATOM     86  H   UNL A   1      36.259  34.559  29.328  1.00  0.00     0.027 H 
ATOM     87  H   UNL A   1      34.470  34.130  29.762  1.00  0.00     0.027 H 
BRANCH  85  88
ATOM     88  C   UNL A   1      34.697  35.620  28.428  1.00  0.00    -0.052 C 
ATOM     89  H   UNL A   1      34.714  35.514  27.363  1.00  0.00     0.027 H 
ATOM     90  H   UNL A   1      35.317  36.422  28.771  1.00  0.00     0.027 H 
BRANCH  88  91
ATOM     91  C   UNL A   1      33.270  35.950  28.855  1.00  0.00    -0.036 C 
ATOM     92  H   UNL A   1      32.620  35.827  28.015  1.00  0.00     0.028 H 
ATOM     93  H   UNL A   1      33.251  36.959  29.208  1.00  0.00     0.028 H 
BRANCH  91  94
ATOM     94  C   UNL A   1      32.805  35.043  29.975  1.00  0.00     0.018 C 
ATOM     95  H   UNL A   1      33.607  34.399  30.268  1.00  0.00     0.049 H 
ATOM     96  H   UNL A   1      31.977  34.456  29.633  1.00  0.00     0.049 H 
BRANCH  94  97
ATOM     97  N   UNL A   1      32.386  35.846  31.117  1.00  0.00    -0.352 N 
ATOM     98  C   UNL A   1      32.835  35.728  32.404  1.00  0.00     0.251 C 
ATOM     99  H   UNL A   1      31.714  36.543  30.944  1.00  0.00     0.163 HD
ATOM    100  O   UNL A   1      32.244  36.217  33.350  1.00  0.00    -0.269 OA
BRANCH  98 101
ATOM    101  C   UNL A   1      34.083  34.977  32.579  1.00  0.00     0.039 A 
ATOM    102  C   UNL A   1      35.305  35.621  32.403  1.00  0.00    -0.049 A 
ATOM    103  C   UNL A   1      33.999  33.664  33.057  1.00  0.00    -0.049 A 
ATOM    104  C   UNL A   1      36.469  34.933  32.720  1.00  0.00    -0.053 A 
ATOM    105  H   UNL A   1      35.343  36.588  32.046  1.00  0.00     0.063 H 
ATOM    106  C   UNL A   1      35.153  33.019  33.456  1.00  0.00    -0.053 A 
ATOM    107  H   UNL A   1      33.087  33.185  33.110  1.00  0.00     0.063 H 
ATOM    108  C   UNL A   1      36.397  33.636  33.259  1.00  0.00    -0.014 A 
ATOM    109  H   UNL A   1      37.389  35.374  32.561  1.00  0.00     0.063 H 
ATOM    110  H   UNL A   1      35.101  32.088  33.897  1.00  0.00     0.063 H 
BRANCH 108 111
ATOM    111  C   UNL A   1      37.619  32.867  33.561  1.00  0.00     0.031 A 
ATOM    112  C   UNL A   1      38.338  33.132  34.853  1.00  0.00     0.074 A 
ATOM    113  C   UNL A   1      38.100  31.995  32.657  1.00  0.00     0.049 A 
ATOM    114  N   UNL A   1      39.464  32.635  35.289  1.00  0.00    -0.248 NA
ATOM    115  C   UNL A   1      37.729  34.121  35.761  1.00  0.00    -0.034 C 
ATOM    116  C   UNL A   1      37.501  31.714  31.351  1.00  0.00    -0.036 A 
ATOM    117  N   UNL A   1      39.209  31.194  32.697  1.00  0.00    -0.354 N 
ATOM    118  C   UNL A   1      39.704  33.263  36.504  1.00  0.00     0.074 A 
ATOM    119  C   UNL A   1      38.647  34.225  36.708  1.00  0.00    -0.034 C 
ATOM    120  H   UNL A   1      36.822  34.607  35.678  1.00  0.00     0.065 H 
ATOM    121  C   UNL A   1      38.240  30.785  30.722  1.00  0.00    -0.036 A 
ATOM    122  H   UNL A   1      36.649  32.158  30.974  1.00  0.00     0.065 H 
ATOM    123  C   UNL A   1      39.381  30.439  31.563  1.00  0.00     0.049 A 
ATOM    124  H   UNL A   1      39.825  31.162  33.464  1.00  0.00     0.167 HD
ATOM    125  C   UNL A   1      40.704  33.031  37.382  1.00  0.00     0.037 A 
ATOM    126  H   UNL A   1      38.612  34.902  37.486  1.00  0.00     0.065 H 
ATOM    127  H   UNL A   1      38.034  30.383  29.794  1.00  0.00     0.065 H 
ATOM    128  C   UNL A   1      40.361  29.573  31.245  1.00  0.00     0.037 A 
ATOM    129  C   UNL A   1      41.725  32.041  37.179  1.00  0.00     0.049 A 
ATOM    130  C   UNL A   1      41.457  29.328  32.248  1.00  0.00     0.074 A 
ATOM    131  C   UNL A   1      42.743  31.663  38.035  1.00  0.00    -0.036 A 
ATOM    132  N   UNL A   1      41.854  31.270  36.032  1.00  0.00    -0.354 N 
ATOM    133  N   UNL A   1      41.631  29.864  33.434  1.00  0.00    -0.248 NA
ATOM    134  C   UNL A   1      42.489  28.354  31.874  1.00  0.00    -0.034 C 
ATOM    135  C   UNL A   1      43.524  30.706  37.381  1.00  0.00    -0.036 A 
ATOM    136  H   UNL A   1      42.898  32.025  38.988  1.00  0.00     0.065 H 
ATOM    137  C   UNL A   1      42.956  30.440  36.144  1.00  0.00     0.049 A 
ATOM    138  H   UNL A   1      41.252  31.309  35.253  1.00  0.00     0.167 HD
ATOM    139  C   UNL A   1      42.773  29.274  33.956  1.00  0.00     0.074 A 
ATOM    140  C   UNL A   1      43.238  28.323  32.968  1.00  0.00    -0.034 C 
ATOM    141  H   UNL A   1      42.602  27.829  30.993  1.00  0.00     0.065 H 
ATOM    142  H   UNL A   1      44.380  30.270  37.756  1.00  0.00     0.065 H 
ATOM    143  C   UNL A   1      43.389  29.499  35.143  1.00  0.00     0.037 A 
ATOM    144  H   UNL A   1      44.050  27.699  33.099  1.00  0.00     0.065 H 
BRANCH 125 145
ATOM    145  C   UNL A   1      40.740  33.854  38.638  1.00  0.00     0.064 A 
ATOM    146  C   UNL A   1      40.013  33.490  39.781  1.00  0.00     0.173 A 
ATOM    147  C   UNL A   1      41.544  35.000  38.709  1.00  0.00     0.173 A 
ATOM    148  F   UNL A   1      39.213  32.413  39.761  1.00  0.00    -0.203 F 
ATOM    149  C   UNL A   1      40.074  34.256  40.943  1.00  0.00     0.198 A 
ATOM    150  C   UNL A   1      41.629  35.745  39.882  1.00  0.00     0.198 A 
ATOM    151  F   UNL A   1      42.258  35.395  37.643  1.00  0.00    -0.203 F 
ATOM    152  F   UNL A   1      39.334  33.916  42.007  1.00  0.00    -0.200 F 
ATOM    153  C   UNL A   1      40.889  35.376  40.995  1.00  0.00     0.200 A 
ATOM    154  F   UNL A   1      42.426  36.821  39.935  1.00  0.00    -0.200 F 
ATOM    155  F   UNL A   1      40.959  36.104  42.119  1.00  0.00    -0.200 F 
ENDBRANCH 125 145
BRANCH 128 156
ATOM    156  C   UNL A   1      40.347  28.873  29.934  1.00  0.00     0.064 A 
ATOM    157  C   UNL A   1      39.634  27.679  29.758  1.00  0.00     0.173 A 
ATOM    158  C   UNL A   1      41.059  29.373  28.832  1.00  0.00     0.173 A 
ATOM    159  F   UNL A   1      38.948  27.151  30.782  1.00  0.00    -0.203 F 
ATOM    160  C   UNL A   1      39.661  26.994  28.544  1.00  0.00     0.198 A 
ATOM    161  C   UNL A   1      41.057  28.706  27.609  1.00  0.00     0.198 A 
ATOM    162  F   UNL A   1      41.749  30.518  28.942  1.00  0.00    -0.203 F 
ATOM    163  F   UNL A   1      39.019  25.824  28.422  1.00  0.00    -0.200 F 
ATOM    164  C   UNL A   1      40.370  27.510  27.469  1.00  0.00     0.200 A 
ATOM    165  F   UNL A   1      41.728  29.219  26.568  1.00  0.00    -0.200 F 
ATOM    166  F   UNL A   1      40.397  26.852  26.303  1.00  0.00    -0.200 F 
ENDBRANCH 128 156
BRANCH 143 167
ATOM    167  C   UNL A   1      44.610  28.682  35.447  1.00  0.00     0.064 A 
ATOM    168  C   UNL A   1      45.896  29.131  35.115  1.00  0.00     0.173 A 
ATOM    169  C   UNL A   1      44.493  27.457  36.121  1.00  0.00     0.173 A 
ATOM    170  F   UNL A   1      46.059  30.289  34.459  1.00  0.00    -0.203 F 
ATOM    171  C   UNL A   1      47.020  28.367  35.420  1.00  0.00     0.198 A 
ATOM    172  C   UNL A   1      45.620  26.713  36.457  1.00  0.00     0.198 A 
ATOM    173  F   UNL A   1      43.285  26.989  36.471  1.00  0.00    -0.203 F 
ATOM    174  F   UNL A   1      48.235  28.789  35.044  1.00  0.00    -0.200 F 
ATOM    175  C   UNL A   1      46.881  27.164  36.098  1.00  0.00     0.200 A 
ATOM    176  F   UNL A   1      45.486  25.562  37.129  1.00  0.00    -0.200 F 
ATOM    177  F   UNL A   1      47.964  26.437  36.399  1.00  0.00    -0.200 F 
ENDBRANCH 143 167
ENDBRANCH 108 111
ENDBRANCH  98 101
ENDBRANCH  94  97
ENDBRANCH  91  94
ENDBRANCH  88  91
ENDBRANCH  85  88
ENDBRANCH  82  85
ENDBRANCH   1  82
TORSDOF 26
ENDMDL
MODEL 2
REMARK VINA RESULT:     -11.4      6.004     12.064
REMARK SMILES C=C[C@@H]1[C@@H](O)C[C@H]2[C@]3(CC[C@]4(C)[C@@H]([C@H](C)CCC=C(C)C)CC[C@]24C)C[C@]13CCC(=O)NCCCCCCNC(=O)c1ccc(-c2c3nc(c(-c4c(F)c(F)c(F)c(F)c4F)c4ccc([nH]4)c(-c4c(F)c(F)c(F)c(F)c4F)c4nc(c(-c5c(F)c(F)c(F)c(F)c5F)c5ccc2[nH]5)C=C4)C=C3)cc1
REMARK SMILES IDX 33 1 32 4 30 5 31 6 29 8 28 11 27 14 3 15 4 16 6 18 8 20
REMARK SMILES IDX 26 21 7 22 9 25 24 28 10 30 11 33 23 34 13 37 22 38 2 44
REMARK SMILES IDX 1 45 5 49 25 51 12 55 14 59 16 61 17 64 18 67 19 68 20 70
REMARK SMILES IDX 21 74 15 78 34 82 35 85 36 88 37 91 38 94 39 97 40 98 41 100
REMARK SMILES IDX 42 101 43 102 104 103 44 104 103 106 45 108 46 111 47 112
REMARK SMILES IDX 97 113 48 114 102 115 96 116 98 117 49 118 101 119 95 121
REMARK SMILES IDX 94 123 50 125 82 128 62 129 81 130 63 131 66 132 80 133
REMARK SMILES IDX 99 134 64 135 65 137 79 139 100 140 67 143 51 145 52 146
REMARK SMILES IDX 60 147 53 148 54 149 58 150 61 151 55 152 56 153 59 154
REMARK SMILES IDX 57 155 83 156 84 157 92 158 85 159 86 160 90 161 93 162
REMARK SMILES IDX 87 163 88 164 91 165 89 166 68 167 69 168 77 169 70 170
REMARK SMILES IDX 71 171 75 172 78 173 72 174 73 175 76 176 74 177
REMARK H PARENT 33 2 33 3 32 7 29 9 29 10 28 12 28 13 3 17 4 19 6 23 6 24
REMARK H PARENT 26 26 26 27 7 29 9 31 9 32 10 35 10 36 23 39 23 40 13 41 22 42
REMARK H PARENT 22 43 1 46 1 47 2 48 5 50 25 52 25 53 25 54 12 56 12 57 12 58
REMARK H PARENT 14 60 16 62 16 63 17 65 17 66 18 69 20 71 20 72 20 73 21 75
REMARK H PARENT 21 76 21 77 15 79 15 80 15 81 34 83 34 84 35 86 35 87 36 89
REMARK H PARENT 36 90 37 92 37 93 38 95 38 96 39 99 43 105 104 107 44 109
REMARK H PARENT 103 110 102 120 96 122 98 124 101 126 95 127 63 136 66 138
REMARK H PARENT 99 141 64 142 100 144
REMARK Flexibility Score: inf
ROOT
ATOM      1  C   UNL A   1      38.984  23.064  26.448  1.00  0.00     0.017 C 
ATOM      2  H   UNL A   1      38.860  22.950  27.504  1.00  0.00     0.049 H 
ATOM      3  H   UNL A   1      39.732  23.573  25.876  1.00  0.00     0.049 H 
ENDROOT
BRANCH   1   4
ATOM      4  N   UNL A   1      37.861  24.009  26.075  1.00  0.00    -0.356 N 
ATOM      5  C   UNL A   1      36.561  23.714  25.795  1.00  0.00     0.220 C 
ATOM      6  O   UNL A   1      35.708  24.599  25.800  1.00  0.00    -0.275 OA
ATOM      7  H   UNL A   1      38.102  24.962  26.029  1.00  0.00     0.163 HD
BRANCH   5   8
ATOM      8  C   UNL A   1      36.242  22.277  25.493  1.00  0.00     0.027 C 
ATOM      9  H   UNL A   1      37.154  21.718  25.483  1.00  0.00     0.037 H 
ATOM     10  H   UNL A   1      35.573  21.926  26.251  1.00  0.00     0.037 H 
BRANCH   8  11
ATOM     11  C   UNL A   1      35.547  22.103  24.144  1.00  0.00    -0.038 C 
ATOM     12  H   UNL A   1      35.872  22.891  23.496  1.00  0.00     0.028 H 
ATOM     13  H   UNL A   1      35.815  21.133  23.782  1.00  0.00     0.028 H 
BRANCH  11  14
ATOM     14  C   UNL A   1      34.011  22.142  24.219  1.00  0.00    -0.014 C 
ATOM     15  C   UNL A   1      33.434  21.064  25.746  1.00  0.00     0.009 C 
ATOM     16  C   UNL A   1      32.208  21.933  27.054  1.00  0.00     0.061 C 
ATOM     17  H   UNL A   1      34.306  21.005  26.363  1.00  0.00     0.038 H 
ATOM     18  C   UNL A   1      31.302  23.618  26.523  1.00  0.00    -0.022 C 
ATOM     19  H   UNL A   1      31.430  21.200  27.097  1.00  0.00     0.061 H 
ATOM     20  C   UNL A   1      33.131  23.740  23.708  1.00  0.00    -0.019 C 
ATOM     21  C   UNL A   1      33.235  22.443  22.880  1.00  0.00    -0.040 C 
ATOM     22  C   UNL A   1      31.855  24.514  24.882  1.00  0.00    -0.027 C 
ATOM     23  H   UNL A   1      31.442  24.314  27.323  1.00  0.00     0.030 H 
ATOM     24  H   UNL A   1      30.295  23.315  26.324  1.00  0.00     0.030 H 
ATOM     25  C   UNL A   1      33.851  24.937  23.064  1.00  0.00    -0.046 C 
ATOM     26  H   UNL A   1      33.810  22.482  21.977  1.00  0.00     0.028 H 
ATOM     27  H   UNL A   1      32.444  21.878  22.432  1.00  0.00     0.028 H 
ATOM     28  C   UNL A   1      30.929  25.499  24.063  1.00  0.00    -0.023 C 
ATOM     29  H   UNL A   1      32.345  25.122  25.614  1.00  0.00     0.032 H 
ATOM     30  C   UNL A   1      32.868  25.924  22.422  1.00  0.00    -0.046 C 
ATOM     31  H   UNL A   1      34.518  24.574  22.309  1.00  0.00     0.027 H 
ATOM     32  H   UNL A   1      34.385  25.455  23.834  1.00  0.00     0.027 H 
ATOM     33  C   UNL A   1      31.840  26.631  23.368  1.00  0.00    -0.024 C 
ATOM     34  C   UNL A   1      30.124  26.329  25.057  1.00  0.00    -0.047 C 
ATOM     35  H   UNL A   1      32.309  25.386  21.685  1.00  0.00     0.027 H 
ATOM     36  H   UNL A   1      33.480  26.714  22.043  1.00  0.00     0.027 H 
ATOM     37  C   UNL A   1      32.359  27.402  24.646  1.00  0.00    -0.033 C 
ATOM     38  C   UNL A   1      31.146  27.327  25.639  1.00  0.00    -0.049 C 
ATOM     39  H   UNL A   1      29.329  26.847  24.563  1.00  0.00     0.027 H 
ATOM     40  H   UNL A   1      29.665  25.728  25.814  1.00  0.00     0.027 H 
ATOM     41  H   UNL A   1      33.276  26.904  24.886  1.00  0.00     0.031 H 
ATOM     42  H   UNL A   1      30.696  28.292  25.738  1.00  0.00     0.027 H 
ATOM     43  H   UNL A   1      31.473  27.006  26.606  1.00  0.00     0.027 H 
BRANCH  15  44
ATOM     44  C   UNL A   1      33.136  19.595  25.375  1.00  0.00    -0.085 C 
ATOM     45  C   UNL A   1      33.888  18.755  24.646  1.00  0.00    -0.103 C 
ATOM     46  H   UNL A   1      33.565  17.790  24.475  1.00  0.00     0.053 H 
ATOM     47  H   UNL A   1      34.789  19.075  24.257  1.00  0.00     0.053 H 
ATOM     48  H   UNL A   1      32.248  19.209  25.734  1.00  0.00     0.057 H 
ENDBRANCH  15  44
BRANCH  16  49
ATOM     49  O   UNL A   1      32.832  22.136  28.350  1.00  0.00    -0.392 OA
ATOM     50  H   UNL A   1      32.176  22.480  28.976  1.00  0.00     0.210 HD
ENDBRANCH  16  49
BRANCH  28  51
ATOM     51  C   UNL A   1      30.050  24.763  23.041  1.00  0.00    -0.059 C 
ATOM     52  H   UNL A   1      30.631  24.527  22.175  1.00  0.00     0.024 H 
ATOM     53  H   UNL A   1      29.230  25.391  22.759  1.00  0.00     0.024 H 
ATOM     54  H   UNL A   1      29.675  23.861  23.477  1.00  0.00     0.024 H 
ENDBRANCH  28  51
BRANCH  33  55
ATOM     55  C   UNL A   1      31.049  27.638  22.496  1.00  0.00    -0.059 C 
ATOM     56  H   UNL A   1      31.346  27.534  21.473  1.00  0.00     0.024 H 
ATOM     57  H   UNL A   1      31.253  28.634  22.828  1.00  0.00     0.024 H 
ATOM     58  H   UNL A   1      30.000  27.439  22.584  1.00  0.00     0.024 H 
ENDBRANCH  33  55
BRANCH  37  59
ATOM     59  C   UNL A   1      33.205  28.705  24.693  1.00  0.00    -0.041 C 
ATOM     60  H   UNL A   1      32.431  29.422  24.876  1.00  0.00     0.030 H 
BRANCH  59  61
ATOM     61  C   UNL A   1      34.207  28.757  25.865  1.00  0.00    -0.047 C 
ATOM     62  H   UNL A   1      35.133  29.143  25.493  1.00  0.00     0.027 H 
ATOM     63  H   UNL A   1      34.284  27.758  26.239  1.00  0.00     0.027 H 
BRANCH  61  64
ATOM     64  C   UNL A   1      33.770  29.627  27.048  1.00  0.00    -0.035 C 
ATOM     65  H   UNL A   1      33.202  29.025  27.727  1.00  0.00     0.031 H 
ATOM     66  H   UNL A   1      33.184  30.436  26.665  1.00  0.00     0.031 H 
BRANCH  64  67
ATOM     67  C   UNL A   1      34.949  30.216  27.789  1.00  0.00    -0.086 C 
ATOM     68  C   UNL A   1      35.071  31.491  28.214  1.00  0.00    -0.080 C 
ATOM     69  H   UNL A   1      35.738  29.582  27.988  1.00  0.00     0.058 H 
BRANCH  68  70
ATOM     70  C   UNL A   1      36.277  31.954  28.986  1.00  0.00    -0.044 C 
ATOM     71  H   UNL A   1      37.089  32.126  28.310  1.00  0.00     0.028 H 
ATOM     72  H   UNL A   1      36.557  31.202  29.694  1.00  0.00     0.028 H 
ATOM     73  H   UNL A   1      36.044  32.862  29.502  1.00  0.00     0.028 H 
ENDBRANCH  68  70
BRANCH  68  74
ATOM     74  C   UNL A   1      34.038  32.554  27.956  1.00  0.00    -0.044 C 
ATOM     75  H   UNL A   1      33.061  32.125  28.023  1.00  0.00     0.028 H 
ATOM     76  H   UNL A   1      34.181  32.961  26.977  1.00  0.00     0.028 H 
ATOM     77  H   UNL A   1      34.137  33.332  28.684  1.00  0.00     0.028 H 
ENDBRANCH  68  74
ENDBRANCH  64  67
ENDBRANCH  61  64
ENDBRANCH  59  61
BRANCH  59  78
ATOM     78  C   UNL A   1      33.833  29.206  23.389  1.00  0.00    -0.062 C 
ATOM     79  H   UNL A   1      33.233  29.993  22.983  1.00  0.00     0.023 H 
ATOM     80  H   UNL A   1      33.887  28.400  22.687  1.00  0.00     0.023 H 
ATOM     81  H   UNL A   1      34.819  29.573  23.586  1.00  0.00     0.023 H 
ENDBRANCH  59  78
ENDBRANCH  37  59
ENDBRANCH  11  14
ENDBRANCH   8  11
ENDBRANCH   5   8
ENDBRANCH   1   4
BRANCH   1  82
ATOM     82  C   UNL A   1      39.555  21.136  25.832  1.00  0.00    -0.036 C 
ATOM     83  H   UNL A   1      40.182  21.355  24.993  1.00  0.00     0.028 H 
ATOM     84  H   UNL A   1      38.574  20.738  25.983  1.00  0.00     0.028 H 
BRANCH  82  85
ATOM     85  C   UNL A   1      40.327  19.718  26.484  1.00  0.00    -0.052 C 
ATOM     86  H   UNL A   1      40.564  19.119  25.631  1.00  0.00     0.027 H 
ATOM     87  H   UNL A   1      39.597  19.455  27.220  1.00  0.00     0.027 H 
BRANCH  85  88
ATOM     88  C   UNL A   1      41.594  19.661  27.370  1.00  0.00    -0.052 C 
ATOM     89  H   UNL A   1      41.366  19.097  28.250  1.00  0.00     0.027 H 
ATOM     90  H   UNL A   1      41.865  20.673  27.590  1.00  0.00     0.027 H 
BRANCH  88  91
ATOM     91  C   UNL A   1      42.795  19.019  26.684  1.00  0.00    -0.036 C 
ATOM     92  H   UNL A   1      42.699  17.956  26.740  1.00  0.00     0.028 H 
ATOM     93  H   UNL A   1      43.682  19.347  27.184  1.00  0.00     0.028 H 
BRANCH  91  94
ATOM     94  C   UNL A   1      42.887  19.431  25.230  1.00  0.00     0.018 C 
ATOM     95  H   UNL A   1      42.831  20.497  25.157  1.00  0.00     0.049 H 
ATOM     96  H   UNL A   1      42.077  18.989  24.686  1.00  0.00     0.049 H 
BRANCH  94  97
ATOM     97  N   UNL A   1      44.151  18.973  24.667  1.00  0.00    -0.352 N 
ATOM     98  C   UNL A   1      45.205  19.758  24.285  1.00  0.00     0.251 C 
ATOM     99  H   UNL A   1      44.257  18.002  24.551  1.00  0.00     0.163 HD
ATOM    100  O   UNL A   1      46.096  19.350  23.562  1.00  0.00    -0.269 OA
BRANCH  98 101
ATOM    101  C   UNL A   1      45.201  21.130  24.805  1.00  0.00     0.039 A 
ATOM    102  C   UNL A   1      45.553  21.364  26.132  1.00  0.00    -0.049 A 
ATOM    103  C   UNL A   1      44.977  22.175  23.902  1.00  0.00    -0.049 A 
ATOM    104  C   UNL A   1      45.689  22.678  26.560  1.00  0.00    -0.053 A 
ATOM    105  H   UNL A   1      45.710  20.577  26.781  1.00  0.00     0.063 H 
ATOM    106  C   UNL A   1      45.202  23.475  24.310  1.00  0.00    -0.053 A 
ATOM    107  H   UNL A   1      44.648  21.977  22.945  1.00  0.00     0.063 H 
ATOM    108  C   UNL A   1      45.526  23.736  25.649  1.00  0.00    -0.014 A 
ATOM    109  H   UNL A   1      45.910  22.879  27.549  1.00  0.00     0.063 H 
ATOM    110  H   UNL A   1      45.133  24.251  23.632  1.00  0.00     0.063 H 
BRANCH 108 111
ATOM    111  C   UNL A   1      45.620  25.142  26.087  1.00  0.00     0.031 A 
ATOM    112  C   UNL A   1      46.957  25.826  26.037  1.00  0.00     0.074 A 
ATOM    113  C   UNL A   1      44.533  25.761  26.580  1.00  0.00     0.049 A 
ATOM    114  N   UNL A   1      47.288  27.023  26.442  1.00  0.00    -0.248 NA
ATOM    115  C   UNL A   1      48.083  25.045  25.494  1.00  0.00    -0.034 C 
ATOM    116  C   UNL A   1      43.206  25.158  26.721  1.00  0.00    -0.036 A 
ATOM    117  N   UNL A   1      44.376  27.032  27.063  1.00  0.00    -0.354 N 
ATOM    118  C   UNL A   1      48.654  27.127  26.222  1.00  0.00     0.074 A 
ATOM    119  C   UNL A   1      49.106  25.854  25.712  1.00  0.00    -0.034 C 
ATOM    120  H   UNL A   1      48.074  24.109  25.058  1.00  0.00     0.065 H 
ATOM    121  C   UNL A   1      42.364  26.069  27.236  1.00  0.00    -0.036 A 
ATOM    122  H   UNL A   1      42.958  24.189  26.467  1.00  0.00     0.065 H 
ATOM    123  C   UNL A   1      43.101  27.302  27.496  1.00  0.00     0.049 A 
ATOM    124  H   UNL A   1      45.107  27.691  27.097  1.00  0.00     0.167 HD
ATOM    125  C   UNL A   1      49.452  28.203  26.403  1.00  0.00     0.037 A 
ATOM    126  H   UNL A   1      50.094  25.609  25.541  1.00  0.00     0.065 H 
ATOM    127  H   UNL A   1      41.359  25.921  27.418  1.00  0.00     0.065 H 
ATOM    128  C   UNL A   1      42.596  28.420  28.048  1.00  0.00     0.037 A 
ATOM    129  C   UNL A   1      48.975  29.474  26.874  1.00  0.00     0.049 A 
ATOM    130  C   UNL A   1      43.507  29.606  28.228  1.00  0.00     0.074 A 
ATOM    131  C   UNL A   1      49.674  30.657  27.022  1.00  0.00    -0.036 A 
ATOM    132  N   UNL A   1      47.670  29.722  27.276  1.00  0.00    -0.354 N 
ATOM    133  N   UNL A   1      44.781  29.725  27.937  1.00  0.00    -0.248 NA
ATOM    134  C   UNL A   1      42.909  30.816  28.805  1.00  0.00    -0.034 C 
ATOM    135  C   UNL A   1      48.807  31.606  27.569  1.00  0.00    -0.036 A 
ATOM    136  H   UNL A   1      50.663  30.811  26.772  1.00  0.00     0.065 H 
ATOM    137  C   UNL A   1      47.550  31.034  27.702  1.00  0.00     0.049 A 
ATOM    138  H   UNL A   1      46.937  29.064  27.260  1.00  0.00     0.167 HD
ATOM    139  C   UNL A   1      45.130  31.026  28.271  1.00  0.00     0.074 A 
ATOM    140  C   UNL A   1      43.928  31.664  28.765  1.00  0.00    -0.034 C 
ATOM    141  H   UNL A   1      41.949  30.968  29.152  1.00  0.00     0.065 H 
ATOM    142  H   UNL A   1      49.059  32.571  27.831  1.00  0.00     0.065 H 
ATOM    143  C   UNL A   1      46.336  31.640  28.184  1.00  0.00     0.037 A 
ATOM    144  H   UNL A   1      43.870  32.655  29.049  1.00  0.00     0.065 H 
BRANCH 125 145
ATOM    145  C   UNL A   1      50.912  28.055  26.087  1.00  0.00     0.064 A 
ATOM    146  C   UNL A   1      51.404  28.195  24.780  1.00  0.00     0.173 A 
ATOM    147  C   UNL A   1      51.835  27.808  27.113  1.00  0.00     0.173 A 
ATOM    148  F   UNL A   1      50.561  28.413  23.759  1.00  0.00    -0.203 F 
ATOM    149  C   UNL A   1      52.764  28.073  24.510  1.00  0.00     0.198 A 
ATOM    150  C   UNL A   1      53.199  27.720  26.844  1.00  0.00     0.198 A 
ATOM    151  F   UNL A   1      51.418  27.662  28.380  1.00  0.00    -0.203 F 
ATOM    152  F   UNL A   1      53.206  28.165  23.248  1.00  0.00    -0.200 F 
ATOM    153  C   UNL A   1      53.661  27.846  25.543  1.00  0.00     0.200 A 
ATOM    154  F   UNL A   1      54.065  27.512  27.845  1.00  0.00    -0.200 F 
ATOM    155  F   UNL A   1      54.972  27.744  25.283  1.00  0.00    -0.200 F 
ENDBRANCH 125 145
BRANCH 128 156
ATOM    156  C   UNL A   1      41.169  28.476  28.459  1.00  0.00     0.064 A 
ATOM    157  C   UNL A   1      40.181  28.946  27.583  1.00  0.00     0.173 A 
ATOM    158  C   UNL A   1      40.764  28.076  29.741  1.00  0.00     0.173 A 
ATOM    159  F   UNL A   1      40.517  29.353  26.350  1.00  0.00    -0.203 F 
ATOM    160  C   UNL A   1      38.850  29.047  27.983  1.00  0.00     0.198 A 
ATOM    161  C   UNL A   1      39.427  28.145  30.130  1.00  0.00     0.198 A 
ATOM    162  F   UNL A   1      41.666  27.608  30.616  1.00  0.00    -0.203 F 
ATOM    163  F   UNL A   1      37.936  29.556  27.146  1.00  0.00    -0.200 F 
ATOM    164  C   UNL A   1      38.473  28.643  29.256  1.00  0.00     0.200 A 
ATOM    165  F   UNL A   1      39.066  27.735  31.353  1.00  0.00    -0.200 F 
ATOM    166  F   UNL A   1      37.194  28.741  29.641  1.00  0.00    -0.200 F 
ENDBRANCH 128 156
BRANCH 143 167
ATOM    167  C   UNL A   1      46.403  33.080  28.602  1.00  0.00     0.064 A 
ATOM    168  C   UNL A   1      46.150  34.121  27.696  1.00  0.00     0.173 A 
ATOM    169  C   UNL A   1      46.677  33.418  29.936  1.00  0.00     0.173 A 
ATOM    170  F   UNL A   1      45.896  33.848  26.408  1.00  0.00    -0.203 F 
ATOM    171  C   UNL A   1      46.200  35.450  28.105  1.00  0.00     0.198 A 
ATOM    172  C   UNL A   1      46.689  34.747  30.349  1.00  0.00     0.198 A 
ATOM    173  F   UNL A   1      46.914  32.459  30.843  1.00  0.00    -0.203 F 
ATOM    174  F   UNL A   1      46.009  36.431  27.211  1.00  0.00    -0.200 F 
ATOM    175  C   UNL A   1      46.460  35.762  29.432  1.00  0.00     0.200 A 
ATOM    176  F   UNL A   1      46.921  35.045  31.634  1.00  0.00    -0.200 F 
ATOM    177  F   UNL A   1      46.497  37.041  29.825  1.00  0.00    -0.200 F 
ENDBRANCH 143 167
ENDBRANCH 108 111
ENDBRANCH  98 101
ENDBRANCH  94  97
ENDBRANCH  91  94
ENDBRANCH  88  91
ENDBRANCH  85  88
ENDBRANCH  82  85
ENDBRANCH   1  82
TORSDOF 26
ENDMDL
MODEL 3
REMARK VINA RESULT:     -11.3      5.985     12.211
REMARK SMILES C=C[C@@H]1[C@@H](O)C[C@H]2[C@]3(CC[C@]4(C)[C@@H]([C@H](C)CCC=C(C)C)CC[C@]24C)C[C@]13CCC(=O)NCCCCCCNC(=O)c1ccc(-c2c3nc(c(-c4c(F)c(F)c(F)c(F)c4F)c4ccc([nH]4)c(-c4c(F)c(F)c(F)c(F)c4F)c4nc(c(-c5c(F)c(F)c(F)c(F)c5F)c5ccc2[nH]5)C=C4)C=C3)cc1
REMARK SMILES IDX 33 1 32 4 30 5 31 6 29 8 28 11 27 14 3 15 4 16 6 18 8 20
REMARK SMILES IDX 26 21 7 22 9 25 24 28 10 30 11 33 23 34 13 37 22 38 2 44
REMARK SMILES IDX 1 45 5 49 25 51 12 55 14 59 16 61 17 64 18 67 19 68 20 70
REMARK SMILES IDX 21 74 15 78 34 82 35 85 36 88 37 91 38 94 39 97 40 98 41 100
REMARK SMILES IDX 42 101 43 102 104 103 44 104 103 106 45 108 46 111 47 112
REMARK SMILES IDX 97 113 48 114 102 115 96 116 98 117 49 118 101 119 95 121
REMARK SMILES IDX 94 123 50 125 82 128 62 129 81 130 63 131 66 132 80 133
REMARK SMILES IDX 99 134 64 135 65 137 79 139 100 140 67 143 51 145 52 146
REMARK SMILES IDX 60 147 53 148 54 149 58 150 61 151 55 152 56 153 59 154
REMARK SMILES IDX 57 155 83 156 84 157 92 158 85 159 86 160 90 161 93 162
REMARK SMILES IDX 87 163 88 164 91 165 89 166 68 167 69 168 77 169 70 170
REMARK SMILES IDX 71 171 75 172 78 173 72 174 73 175 76 176 74 177
REMARK H PARENT 33 2 33 3 32 7 29 9 29 10 28 12 28 13 3 17 4 19 6 23 6 24
REMARK H PARENT 26 26 26 27 7 29 9 31 9 32 10 35 10 36 23 39 23 40 13 41 22 42
REMARK H PARENT 22 43 1 46 1 47 2 48 5 50 25 52 25 53 25 54 12 56 12 57 12 58
REMARK H PARENT 14 60 16 62 16 63 17 65 17 66 18 69 20 71 20 72 20 73 21 75
REMARK H PARENT 21 76 21 77 15 79 15 80 15 81 34 83 34 84 35 86 35 87 36 89
REMARK H PARENT 36 90 37 92 37 93 38 95 38 96 39 99 43 105 104 107 44 109
REMARK H PARENT 103 110 102 120 96 122 98 124 101 126 95 127 63 136 66 138
REMARK H PARENT 99 141 64 142 100 144
REMARK Flexibility Score: inf
ROOT
ATOM      1  C   UNL A   1      38.245  22.881  26.222  1.00  0.00     0.017 C 
ATOM      2  H   UNL A   1      37.730  23.467  26.954  1.00  0.00     0.049 H 
ATOM      3  H   UNL A   1      38.487  23.081  25.199  1.00  0.00     0.049 H 
ENDROOT
BRANCH   1   4
ATOM      4  N   UNL A   1      37.255  21.777  25.915  1.00  0.00    -0.356 N 
ATOM      5  C   UNL A   1      36.250  21.769  24.995  1.00  0.00     0.220 C 
ATOM      6  O   UNL A   1      35.726  20.711  24.657  1.00  0.00    -0.275 OA
ATOM      7  H   UNL A   1      37.350  20.957  26.451  1.00  0.00     0.163 HD
BRANCH   5   8
ATOM      8  C   UNL A   1      35.839  23.099  24.429  1.00  0.00     0.027 C 
ATOM      9  H   UNL A   1      35.338  23.657  25.193  1.00  0.00     0.037 H 
ATOM     10  H   UNL A   1      36.724  23.598  24.094  1.00  0.00     0.037 H 
BRANCH   8  11
ATOM     11  C   UNL A   1      34.902  22.960  23.231  1.00  0.00    -0.038 C 
ATOM     12  H   UNL A   1      35.186  23.685  22.497  1.00  0.00     0.028 H 
ATOM     13  H   UNL A   1      35.001  21.954  22.879  1.00  0.00     0.028 H 
BRANCH  11  14
ATOM     14  C   UNL A   1      33.416  23.169  23.567  1.00  0.00    -0.014 C 
ATOM     15  C   UNL A   1      32.824  21.701  24.716  1.00  0.00     0.009 C 
ATOM     16  C   UNL A   1      31.926  22.194  26.425  1.00  0.00     0.061 C 
ATOM     17  H   UNL A   1      33.733  21.311  25.124  1.00  0.00     0.038 H 
ATOM     18  C   UNL A   1      31.286  24.061  26.649  1.00  0.00    -0.022 C 
ATOM     19  H   UNL A   1      31.038  21.603  26.347  1.00  0.00     0.061 H 
ATOM     20  C   UNL A   1      32.788  24.944  23.777  1.00  0.00    -0.019 C 
ATOM     21  C   UNL A   1      32.566  24.029  22.556  1.00  0.00    -0.040 C 
ATOM     22  C   UNL A   1      31.809  25.406  25.337  1.00  0.00    -0.027 C 
ATOM     23  H   UNL A   1      31.636  24.399  27.602  1.00  0.00     0.030 H 
ATOM     24  H   UNL A   1      30.226  23.984  26.529  1.00  0.00     0.030 H 
ATOM     25  C   UNL A   1      33.638  26.187  23.463  1.00  0.00    -0.046 C 
ATOM     26  H   UNL A   1      33.036  24.313  21.637  1.00  0.00     0.028 H 
ATOM     27  H   UNL A   1      31.642  23.770  22.082  1.00  0.00     0.028 H 
ATOM     28  C   UNL A   1      30.992  26.730  25.062  1.00  0.00    -0.023 C 
ATOM     29  H   UNL A   1      32.478  25.641  26.139  1.00  0.00     0.032 H 
ATOM     30  C   UNL A   1      32.784  27.458  23.362  1.00  0.00    -0.046 C 
ATOM     31  H   UNL A   1      34.142  26.035  22.531  1.00  0.00     0.027 H 
ATOM     32  H   UNL A   1      34.337  26.321  24.263  1.00  0.00     0.027 H 
ATOM     33  C   UNL A   1      32.011  27.907  24.647  1.00  0.00    -0.024 C 
ATOM     34  C   UNL A   1      30.464  27.247  26.396  1.00  0.00    -0.047 C 
ATOM     35  H   UNL A   1      32.060  27.298  22.591  1.00  0.00     0.027 H 
ATOM     36  H   UNL A   1      33.484  28.245  23.175  1.00  0.00     0.027 H 
ATOM     37  C   UNL A   1      32.798  28.093  26.005  1.00  0.00    -0.033 C 
ATOM     38  C   UNL A   1      31.706  27.826  27.102  1.00  0.00    -0.049 C 
ATOM     39  H   UNL A   1      29.726  28.006  26.244  1.00  0.00     0.027 H 
ATOM     40  H   UNL A   1      29.989  26.479  26.972  1.00  0.00     0.027 H 
ATOM     41  H   UNL A   1      33.630  27.427  25.908  1.00  0.00     0.031 H 
ATOM     42  H   UNL A   1      31.452  28.742  27.592  1.00  0.00     0.027 H 
ATOM     43  H   UNL A   1      32.074  27.141  27.837  1.00  0.00     0.027 H 
BRANCH  15  44
ATOM     44  C   UNL A   1      32.228  20.514  23.929  1.00  0.00    -0.085 C 
ATOM     45  C   UNL A   1      32.793  19.325  23.666  1.00  0.00    -0.103 C 
ATOM     46  H   UNL A   1      32.276  18.616  23.123  1.00  0.00     0.053 H 
ATOM     47  H   UNL A   1      33.746  19.121  24.008  1.00  0.00     0.053 H 
ATOM     48  H   UNL A   1      31.274  20.651  23.558  1.00  0.00     0.057 H 
ENDBRANCH  15  44
BRANCH  16  49
ATOM     49  O   UNL A   1      32.715  21.836  27.591  1.00  0.00    -0.392 OA
ATOM     50  H   UNL A   1      33.508  21.355  27.310  1.00  0.00     0.210 HD
ENDBRANCH  16  49
BRANCH  28  51
ATOM     51  C   UNL A   1      29.888  26.532  24.013  1.00  0.00    -0.059 C 
ATOM     52  H   UNL A   1      29.267  27.401  23.980  1.00  0.00     0.024 H 
ATOM     53  H   UNL A   1      29.296  25.680  24.275  1.00  0.00     0.024 H 
ATOM     54  H   UNL A   1      30.334  26.374  23.052  1.00  0.00     0.024 H 
ENDBRANCH  28  51
BRANCH  33  55
ATOM     55  C   UNL A   1      31.324  29.253  24.308  1.00  0.00    -0.059 C 
ATOM     56  H   UNL A   1      31.400  29.913  25.148  1.00  0.00     0.024 H 
ATOM     57  H   UNL A   1      30.293  29.080  24.082  1.00  0.00     0.024 H 
ATOM     58  H   UNL A   1      31.806  29.697  23.462  1.00  0.00     0.024 H 
ENDBRANCH  33  55
BRANCH  37  59
ATOM     59  C   UNL A   1      33.864  29.171  26.347  1.00  0.00    -0.041 C 
ATOM     60  H   UNL A   1      34.231  29.386  25.364  1.00  0.00     0.030 H 
BRANCH  59  61
ATOM     61  C   UNL A   1      33.273  30.467  26.942  1.00  0.00    -0.047 C 
ATOM     62  H   UNL A   1      32.324  30.230  27.376  1.00  0.00     0.027 H 
ATOM     63  H   UNL A   1      33.206  31.165  26.134  1.00  0.00     0.027 H 
BRANCH  61  64
ATOM     64  C   UNL A   1      34.136  31.134  28.017  1.00  0.00    -0.035 C 
ATOM     65  H   UNL A   1      35.154  30.836  27.877  1.00  0.00     0.031 H 
ATOM     66  H   UNL A   1      33.769  30.824  28.973  1.00  0.00     0.031 H 
BRANCH  64  67
ATOM     67  C   UNL A   1      34.058  32.644  27.956  1.00  0.00    -0.086 C 
ATOM     68  C   UNL A   1      34.324  33.500  28.964  1.00  0.00    -0.080 C 
ATOM     69  H   UNL A   1      33.771  33.058  27.056  1.00  0.00     0.058 H 
BRANCH  68  70
ATOM     70  C   UNL A   1      34.257  34.991  28.771  1.00  0.00    -0.044 C 
ATOM     71  H   UNL A   1      34.489  35.230  27.753  1.00  0.00     0.028 H 
ATOM     72  H   UNL A   1      34.965  35.466  29.418  1.00  0.00     0.028 H 
ATOM     73  H   UNL A   1      33.273  35.338  29.004  1.00  0.00     0.028 H 
ENDBRANCH  68  70
BRANCH  68  74
ATOM     74  C   UNL A   1      34.700  33.057  30.352  1.00  0.00    -0.044 C 
ATOM     75  H   UNL A   1      33.841  33.114  30.988  1.00  0.00     0.028 H 
ATOM     76  H   UNL A   1      35.469  33.695  30.734  1.00  0.00     0.028 H 
ATOM     77  H   UNL A   1      35.055  32.048  30.321  1.00  0.00     0.028 H 
ENDBRANCH  68  74
ENDBRANCH  64  67
ENDBRANCH  61  64
ENDBRANCH  59  61
BRANCH  59  78
ATOM     78  C   UNL A   1      35.125  28.729  27.095  1.00  0.00    -0.062 C 
ATOM     79  H   UNL A   1      35.053  29.022  28.121  1.00  0.00     0.023 H 
ATOM     80  H   UNL A   1      35.983  29.191  26.651  1.00  0.00     0.023 H 
ATOM     81  H   UNL A   1      35.222  27.665  27.033  1.00  0.00     0.023 H 
ENDBRANCH  59  78
ENDBRANCH  37  59
ENDBRANCH  11  14
ENDBRANCH   8  11
ENDBRANCH   5   8
ENDBRANCH   1   4
BRANCH   1  82
ATOM     82  C   UNL A   1      40.236  22.930  26.898  1.00  0.00    -0.036 C 
ATOM     83  H   UNL A   1      40.135  23.449  27.829  1.00  0.00     0.028 H 
ATOM     84  H   UNL A   1      40.619  23.154  25.925  1.00  0.00     0.028 H 
BRANCH  82  85
ATOM     85  C   UNL A   1      41.535  21.826  27.253  1.00  0.00    -0.052 C 
ATOM     86  H   UNL A   1      41.811  22.044  28.263  1.00  0.00     0.027 H 
ATOM     87  H   UNL A   1      42.157  22.023  26.405  1.00  0.00     0.027 H 
BRANCH  85  88
ATOM     88  C   UNL A   1      41.504  20.282  27.177  1.00  0.00    -0.052 C 
ATOM     89  H   UNL A   1      40.482  19.964  27.173  1.00  0.00     0.027 H 
ATOM     90  H   UNL A   1      42.044  19.918  28.026  1.00  0.00     0.027 H 
BRANCH  88  91
ATOM     91  C   UNL A   1      42.188  19.713  25.939  1.00  0.00    -0.036 C 
ATOM     92  H   UNL A   1      42.248  20.477  25.194  1.00  0.00     0.028 H 
ATOM     93  H   UNL A   1      41.612  18.883  25.588  1.00  0.00     0.028 H 
BRANCH  91  94
ATOM     94  C   UNL A   1      43.586  19.222  26.256  1.00  0.00     0.018 C 
ATOM     95  H   UNL A   1      43.529  18.413  26.953  1.00  0.00     0.049 H 
ATOM     96  H   UNL A   1      44.153  20.025  26.681  1.00  0.00     0.049 H 
BRANCH  94  97
ATOM     97  N   UNL A   1      44.237  18.766  25.035  1.00  0.00    -0.352 N 
ATOM     98  C   UNL A   1      44.778  19.555  24.057  1.00  0.00     0.251 C 
ATOM     99  H   UNL A   1      44.292  17.793  24.900  1.00  0.00     0.163 HD
ATOM    100  O   UNL A   1      45.037  19.133  22.944  1.00  0.00    -0.269 OA
BRANCH  98 101
ATOM    101  C   UNL A   1      45.037  20.950  24.432  1.00  0.00     0.039 A 
ATOM    102  C   UNL A   1      44.504  21.980  23.662  1.00  0.00    -0.049 A 
ATOM    103  C   UNL A   1      45.699  21.194  25.641  1.00  0.00    -0.049 A 
ATOM    104  C   UNL A   1      44.634  23.286  24.120  1.00  0.00    -0.053 A 
ATOM    105  H   UNL A   1      44.024  21.777  22.772  1.00  0.00     0.063 H 
ATOM    106  C   UNL A   1      45.744  22.482  26.134  1.00  0.00    -0.053 A 
ATOM    107  H   UNL A   1      46.146  20.420  26.157  1.00  0.00     0.063 H 
ATOM    108  C   UNL A   1      45.242  23.539  25.362  1.00  0.00    -0.014 A 
ATOM    109  H   UNL A   1      44.283  24.070  23.548  1.00  0.00     0.063 H 
ATOM    110  H   UNL A   1      46.144  22.667  27.068  1.00  0.00     0.063 H 
BRANCH 108 111
ATOM    111  C   UNL A   1      45.433  24.919  25.849  1.00  0.00     0.031 A 
ATOM    112  C   UNL A   1      46.807  25.523  25.789  1.00  0.00     0.074 A 
ATOM    113  C   UNL A   1      44.397  25.583  26.392  1.00  0.00     0.049 A 
ATOM    114  N   UNL A   1      47.220  26.681  26.229  1.00  0.00    -0.248 NA
ATOM    115  C   UNL A   1      47.869  24.696  25.189  1.00  0.00    -0.034 C 
ATOM    116  C   UNL A   1      43.040  25.056  26.546  1.00  0.00    -0.036 A 
ATOM    117  N   UNL A   1      44.330  26.842  26.926  1.00  0.00    -0.354 N 
ATOM    118  C   UNL A   1      48.585  26.710  25.977  1.00  0.00     0.074 A 
ATOM    119  C   UNL A   1      48.946  25.433  25.410  1.00  0.00    -0.034 C 
ATOM    120  H   UNL A   1      47.793  23.780  24.719  1.00  0.00     0.065 H 
ATOM    121  C   UNL A   1      42.268  25.996  27.116  1.00  0.00    -0.036 A 
ATOM    122  H   UNL A   1      42.727  24.115  26.263  1.00  0.00     0.065 H 
ATOM    123  C   UNL A   1      43.085  27.171  27.402  1.00  0.00     0.049 A 
ATOM    124  H   UNL A   1      45.101  27.454  26.966  1.00  0.00     0.167 HD
ATOM    125  C   UNL A   1      49.451  27.728  26.177  1.00  0.00     0.037 A 
ATOM    126  H   UNL A   1      49.912  25.135  25.203  1.00  0.00     0.065 H 
ATOM    127  H   UNL A   1      41.260  25.902  27.319  1.00  0.00     0.065 H 
ATOM    128  C   UNL A   1      42.663  28.296  28.008  1.00  0.00     0.037 A 
ATOM    129  C   UNL A   1      49.064  29.007  26.707  1.00  0.00     0.049 A 
ATOM    130  C   UNL A   1      43.649  29.417  28.208  1.00  0.00     0.074 A 
ATOM    131  C   UNL A   1      49.838  30.139  26.880  1.00  0.00    -0.036 A 
ATOM    132  N   UNL A   1      47.787  29.318  27.151  1.00  0.00    -0.354 N 
ATOM    133  N   UNL A   1      44.921  29.470  27.888  1.00  0.00    -0.248 NA
ATOM    134  C   UNL A   1      43.140  30.638  28.845  1.00  0.00    -0.034 C 
ATOM    135  C   UNL A   1      49.044  31.117  27.484  1.00  0.00    -0.036 A 
ATOM    136  H   UNL A   1      50.828  30.243  26.610  1.00  0.00     0.065 H 
ATOM    137  C   UNL A   1      47.758  30.617  27.629  1.00  0.00     0.049 A 
ATOM    138  H   UNL A   1      47.015  28.706  27.131  1.00  0.00     0.167 HD
ATOM    139  C   UNL A   1      45.356  30.734  28.260  1.00  0.00     0.074 A 
ATOM    140  C   UNL A   1      44.207  31.424  28.808  1.00  0.00    -0.034 C 
ATOM    141  H   UNL A   1      42.200  30.834  29.221  1.00  0.00     0.065 H 
ATOM    142  H   UNL A   1      49.360  32.055  27.775  1.00  0.00     0.065 H 
ATOM    143  C   UNL A   1      46.595  31.277  28.164  1.00  0.00     0.037 A 
ATOM    144  H   UNL A   1      44.217  32.404  29.130  1.00  0.00     0.065 H 
BRANCH 125 145
ATOM    145  C   UNL A   1      50.891  27.505  25.818  1.00  0.00     0.064 A 
ATOM    146  C   UNL A   1      51.825  27.046  26.758  1.00  0.00     0.173 A 
ATOM    147  C   UNL A   1      51.332  27.714  24.503  1.00  0.00     0.173 A 
ATOM    148  F   UNL A   1      51.460  26.847  28.034  1.00  0.00    -0.203 F 
ATOM    149  C   UNL A   1      53.153  26.826  26.401  1.00  0.00     0.198 A 
ATOM    150  C   UNL A   1      52.653  27.462  24.142  1.00  0.00     0.198 A 
ATOM    151  F   UNL A   1      50.481  28.156  23.565  1.00  0.00    -0.203 F 
ATOM    152  F   UNL A   1      54.039  26.433  27.327  1.00  0.00    -0.200 F 
ATOM    153  C   UNL A   1      53.563  27.024  25.091  1.00  0.00     0.200 A 
ATOM    154  F   UNL A   1      53.045  27.644  22.872  1.00  0.00    -0.200 F 
ATOM    155  F   UNL A   1      54.838  26.798  24.745  1.00  0.00    -0.200 F 
ENDBRANCH 125 145
BRANCH 128 156
ATOM    156  C   UNL A   1      41.252  28.422  28.457  1.00  0.00     0.064 A 
ATOM    157  C   UNL A   1      40.860  28.007  29.737  1.00  0.00     0.173 A 
ATOM    158  C   UNL A   1      40.261  28.944  27.612  1.00  0.00     0.173 A 
ATOM    159  F   UNL A   1      41.765  27.487  30.580  1.00  0.00    -0.203 F 
ATOM    160  C   UNL A   1      39.528  28.077  30.143  1.00  0.00     0.198 A 
ATOM    161  C   UNL A   1      38.936  29.046  28.030  1.00  0.00     0.198 A 
ATOM    162  F   UNL A   1      40.583  29.367  26.380  1.00  0.00    -0.203 F 
ATOM    163  F   UNL A   1      39.172  27.618  31.350  1.00  0.00    -0.200 F 
ATOM    164  C   UNL A   1      38.567  28.600  29.290  1.00  0.00     0.200 A 
ATOM    165  F   UNL A   1      38.015  29.570  27.209  1.00  0.00    -0.200 F 
ATOM    166  F   UNL A   1      37.287  28.666  29.678  1.00  0.00    -0.200 F 
ENDBRANCH 128 156
BRANCH 143 167
ATOM    167  C   UNL A   1      46.760  32.693  28.633  1.00  0.00     0.064 A 
ATOM    168  C   UNL A   1      47.129  32.992  29.952  1.00  0.00     0.173 A 
ATOM    169  C   UNL A   1      46.592  33.760  27.738  1.00  0.00     0.173 A 
ATOM    170  F   UNL A   1      47.290  32.007  30.849  1.00  0.00    -0.203 F 
ATOM    171  C   UNL A   1      47.294  34.311  30.366  1.00  0.00     0.198 A 
ATOM    172  C   UNL A   1      46.793  35.075  28.145  1.00  0.00     0.198 A 
ATOM    173  F   UNL A   1      46.250  33.526  26.462  1.00  0.00    -0.203 F 
ATOM    174  F   UNL A   1      47.594  34.576  31.645  1.00  0.00    -0.200 F 
ATOM    175  C   UNL A   1      47.135  35.350  29.461  1.00  0.00     0.200 A 
ATOM    176  F   UNL A   1      46.659  36.076  27.265  1.00  0.00    -0.200 F 
ATOM    177  F   UNL A   1      47.306  36.617  29.858  1.00  0.00    -0.200 F 
ENDBRANCH 143 167
ENDBRANCH 108 111
ENDBRANCH  98 101
ENDBRANCH  94  97
ENDBRANCH  91  94
ENDBRANCH  88  91
ENDBRANCH  85  88
ENDBRANCH  82  85
ENDBRANCH   1  82
TORSDOF 26
ENDMDL
MODEL 4
REMARK VINA RESULT:     -11.2      0.914      6.863
REMARK SMILES C=C[C@@H]1[C@@H](O)C[C@H]2[C@]3(CC[C@]4(C)[C@@H]([C@H](C)CCC=C(C)C)CC[C@]24C)C[C@]13CCC(=O)NCCCCCCNC(=O)c1ccc(-c2c3nc(c(-c4c(F)c(F)c(F)c(F)c4F)c4ccc([nH]4)c(-c4c(F)c(F)c(F)c(F)c4F)c4nc(c(-c5c(F)c(F)c(F)c(F)c5F)c5ccc2[nH]5)C=C4)C=C3)cc1
REMARK SMILES IDX 33 1 32 4 30 5 31 6 29 8 28 11 27 14 3 15 4 16 6 18 8 20
REMARK SMILES IDX 26 21 7 22 9 25 24 28 10 30 11 33 23 34 13 37 22 38 2 44
REMARK SMILES IDX 1 45 5 49 25 51 12 55 14 59 16 61 17 64 18 67 19 68 20 70
REMARK SMILES IDX 21 74 15 78 34 82 35 85 36 88 37 91 38 94 39 97 40 98 41 100
REMARK SMILES IDX 42 101 43 102 104 103 44 104 103 106 45 108 46 111 47 112
REMARK SMILES IDX 97 113 48 114 102 115 96 116 98 117 49 118 101 119 95 121
REMARK SMILES IDX 94 123 50 125 82 128 62 129 81 130 63 131 66 132 80 133
REMARK SMILES IDX 99 134 64 135 65 137 79 139 100 140 67 143 51 145 52 146
REMARK SMILES IDX 60 147 53 148 54 149 58 150 61 151 55 152 56 153 59 154
REMARK SMILES IDX 57 155 83 156 84 157 92 158 85 159 86 160 90 161 93 162
REMARK SMILES IDX 87 163 88 164 91 165 89 166 68 167 69 168 77 169 70 170
REMARK SMILES IDX 71 171 75 172 78 173 72 174 73 175 76 176 74 177
REMARK H PARENT 33 2 33 3 32 7 29 9 29 10 28 12 28 13 3 17 4 19 6 23 6 24
REMARK H PARENT 26 26 26 27 7 29 9 31 9 32 10 35 10 36 23 39 23 40 13 41 22 42
REMARK H PARENT 22 43 1 46 1 47 2 48 5 50 25 52 25 53 25 54 12 56 12 57 12 58
REMARK H PARENT 14 60 16 62 16 63 17 65 17 66 18 69 20 71 20 72 20 73 21 75
REMARK H PARENT 21 76 21 77 15 79 15 80 15 81 34 83 34 84 35 86 35 87 36 89
REMARK H PARENT 36 90 37 92 37 93 38 95 38 96 39 99 43 105 104 107 44 109
REMARK H PARENT 103 110 102 120 96 122 98 124 101 126 95 127 63 136 66 138
REMARK H PARENT 99 141 64 142 100 144
REMARK Flexibility Score: inf
ROOT
ATOM      1  C   UNL A   1      34.455  31.206  27.693  1.00  0.00     0.017 C 
ATOM      2  H   UNL A   1      35.004  31.054  26.788  1.00  0.00     0.049 H 
ATOM      3  H   UNL A   1      34.477  30.685  28.629  1.00  0.00     0.049 H 
ENDROOT
BRANCH   1   4
ATOM      4  N   UNL A   1      33.058  30.756  27.321  1.00  0.00    -0.356 N 
ATOM      5  C   UNL A   1      32.608  29.493  27.076  1.00  0.00     0.220 C 
ATOM      6  O   UNL A   1      31.404  29.252  27.077  1.00  0.00    -0.275 OA
ATOM      7  H   UNL A   1      32.386  31.471  27.244  1.00  0.00     0.163 HD
BRANCH   5   8
ATOM      8  C   UNL A   1      33.651  28.441  26.820  1.00  0.00     0.027 C 
ATOM      9  H   UNL A   1      34.618  28.869  26.984  1.00  0.00     0.037 H 
ATOM     10  H   UNL A   1      33.462  27.626  27.486  1.00  0.00     0.037 H 
BRANCH   8  11
ATOM     11  C   UNL A   1      33.592  27.898  25.393  1.00  0.00    -0.038 C 
ATOM     12  H   UNL A   1      33.444  28.722  24.727  1.00  0.00     0.028 H 
ATOM     13  H   UNL A   1      34.516  27.386  25.221  1.00  0.00     0.028 H 
BRANCH  11  14
ATOM     14  C   UNL A   1      32.467  26.875  25.156  1.00  0.00    -0.014 C 
ATOM     15  C   UNL A   1      31.478  27.398  23.552  1.00  0.00     0.009 C 
ATOM     16  C   UNL A   1      31.246  26.011  22.140  1.00  0.00     0.061 C 
ATOM     17  H   UNL A   1      32.155  28.041  23.030  1.00  0.00     0.038 H 
ATOM     18  C   UNL A   1      31.609  24.116  22.610  1.00  0.00    -0.022 C 
ATOM     19  H   UNL A   1      30.186  26.064  21.998  1.00  0.00     0.061 H 
ATOM     20  C   UNL A   1      32.796  25.065  25.607  1.00  0.00    -0.019 C 
ATOM     21  C   UNL A   1      31.951  26.073  26.411  1.00  0.00    -0.040 C 
ATOM     22  C   UNL A   1      32.452  23.709  24.322  1.00  0.00    -0.027 C 
ATOM     23  H   UNL A   1      32.244  23.720  21.846  1.00  0.00     0.030 H 
ATOM     24  H   UNL A   1      30.635  23.682  22.695  1.00  0.00     0.030 H 
ATOM     25  C   UNL A   1      34.056  24.590  26.352  1.00  0.00    -0.046 C 
ATOM     26  H   UNL A   1      32.323  26.370  27.370  1.00  0.00     0.028 H 
ATOM     27  H   UNL A   1      30.945  25.965  26.759  1.00  0.00     0.028 H 
ATOM     28  C   UNL A   1      32.316  22.319  25.060  1.00  0.00    -0.023 C 
ATOM     29  H   UNL A   1      33.286  23.605  23.660  1.00  0.00     0.032 H 
ATOM     30  C   UNL A   1      33.896  23.170  26.907  1.00  0.00    -0.046 C 
ATOM     31  H   UNL A   1      34.249  25.259  27.164  1.00  0.00     0.027 H 
ATOM     32  H   UNL A   1      34.869  24.583  25.655  1.00  0.00     0.027 H 
ATOM     33  C   UNL A   1      33.672  22.015  25.874  1.00  0.00    -0.024 C 
ATOM     34  C   UNL A   1      32.347  21.218  24.005  1.00  0.00    -0.047 C 
ATOM     35  H   UNL A   1      33.054  23.176  27.568  1.00  0.00     0.027 H 
ATOM     36  H   UNL A   1      34.835  22.947  27.368  1.00  0.00     0.027 H 
ATOM     37  C   UNL A   1      34.688  21.834  24.676  1.00  0.00    -0.033 C 
ATOM     38  C   UNL A   1      33.821  21.155  23.558  1.00  0.00    -0.049 C 
ATOM     39  H   UNL A   1      32.037  20.284  24.423  1.00  0.00     0.027 H 
ATOM     40  H   UNL A   1      31.682  21.415  23.189  1.00  0.00     0.027 H 
ATOM     41  H   UNL A   1      35.078  22.819  24.524  1.00  0.00     0.031 H 
ATOM     42  H   UNL A   1      34.120  20.135  23.434  1.00  0.00     0.027 H 
ATOM     43  H   UNL A   1      33.951  21.660  22.624  1.00  0.00     0.027 H 
BRANCH  15  44
ATOM     44  C   UNL A   1      30.262  28.300  23.854  1.00  0.00    -0.085 C 
ATOM     45  C   UNL A   1      30.072  29.582  23.502  1.00  0.00    -0.103 C 
ATOM     46  H   UNL A   1      29.204  30.068  23.773  1.00  0.00     0.053 H 
ATOM     47  H   UNL A   1      30.796  30.079  22.959  1.00  0.00     0.053 H 
ATOM     48  H   UNL A   1      29.498  27.864  24.395  1.00  0.00     0.057 H 
ENDBRANCH  15  44
BRANCH  16  49
ATOM     49  O   UNL A   1      31.972  26.329  20.923  1.00  0.00    -0.392 OA
ATOM     50  H   UNL A   1      32.664  26.981  21.120  1.00  0.00     0.210 HD
ENDBRANCH  16  49
BRANCH  28  51
ATOM     51  C   UNL A   1      31.078  22.253  25.965  1.00  0.00    -0.059 C 
ATOM     52  H   UNL A   1      30.626  21.288  25.882  1.00  0.00     0.024 H 
ATOM     53  H   UNL A   1      30.376  23.002  25.664  1.00  0.00     0.024 H 
ATOM     54  H   UNL A   1      31.369  22.424  26.981  1.00  0.00     0.024 H 
ENDBRANCH  28  51
BRANCH  33  55
ATOM     55  C   UNL A   1      33.649  20.692  26.679  1.00  0.00    -0.059 C 
ATOM     56  H   UNL A   1      34.651  20.345  26.824  1.00  0.00     0.024 H 
ATOM     57  H   UNL A   1      33.090  19.956  26.140  1.00  0.00     0.024 H 
ATOM     58  H   UNL A   1      33.189  20.862  27.631  1.00  0.00     0.024 H 
ENDBRANCH  33  55
BRANCH  37  59
ATOM     59  C   UNL A   1      36.178  21.396  24.750  1.00  0.00    -0.041 C 
ATOM     60  H   UNL A   1      36.461  21.529  23.726  1.00  0.00     0.030 H 
BRANCH  59  61
ATOM     61  C   UNL A   1      37.056  22.316  25.625  1.00  0.00    -0.047 C 
ATOM     62  H   UNL A   1      36.631  22.344  26.606  1.00  0.00     0.027 H 
ATOM     63  H   UNL A   1      37.066  23.270  25.141  1.00  0.00     0.027 H 
BRANCH  61  64
ATOM     64  C   UNL A   1      38.519  21.880  25.751  1.00  0.00    -0.035 C 
ATOM     65  H   UNL A   1      38.950  21.833  24.773  1.00  0.00     0.031 H 
ATOM     66  H   UNL A   1      38.538  20.924  26.231  1.00  0.00     0.031 H 
BRANCH  64  67
ATOM     67  C   UNL A   1      39.329  22.840  26.595  1.00  0.00    -0.086 C 
ATOM     68  C   UNL A   1      40.630  22.711  26.926  1.00  0.00    -0.080 C 
ATOM     69  H   UNL A   1      38.837  23.674  26.952  1.00  0.00     0.058 H 
BRANCH  68  70
ATOM     70  C   UNL A   1      41.346  23.759  27.736  1.00  0.00    -0.044 C 
ATOM     71  H   UNL A   1      40.684  24.580  27.921  1.00  0.00     0.028 H 
ATOM     72  H   UNL A   1      42.201  24.105  27.194  1.00  0.00     0.028 H 
ATOM     73  H   UNL A   1      41.660  23.338  28.667  1.00  0.00     0.028 H 
ENDBRANCH  68  70
BRANCH  68  74
ATOM     74  C   UNL A   1      41.474  21.529  26.533  1.00  0.00    -0.044 C 
ATOM     75  H   UNL A   1      41.248  20.702  27.174  1.00  0.00     0.028 H 
ATOM     76  H   UNL A   1      42.509  21.781  26.631  1.00  0.00     0.028 H 
ATOM     77  H   UNL A   1      41.265  21.263  25.519  1.00  0.00     0.028 H 
ENDBRANCH  68  74
ENDBRANCH  64  67
ENDBRANCH  61  64
ENDBRANCH  59  61
BRANCH  59  78
ATOM     78  C   UNL A   1      36.484  19.916  25.000  1.00  0.00    -0.062 C 
ATOM     79  H   UNL A   1      35.569  19.363  25.035  1.00  0.00     0.023 H 
ATOM     80  H   UNL A   1      37.000  19.812  25.932  1.00  0.00     0.023 H 
ATOM     81  H   UNL A   1      37.099  19.541  24.209  1.00  0.00     0.023 H 
ENDBRANCH  59  78
ENDBRANCH  37  59
ENDBRANCH  11  14
ENDBRANCH   8  11
ENDBRANCH   5   8
ENDBRANCH   1   4
BRANCH   1  82
ATOM     82  C   UNL A   1      35.279  32.987  28.449  1.00  0.00    -0.036 C 
ATOM     83  H   UNL A   1      36.061  33.179  27.745  1.00  0.00     0.028 H 
ATOM     84  H   UNL A   1      35.214  32.652  29.462  1.00  0.00     0.028 H 
BRANCH  82  85
ATOM     85  C   UNL A   1      34.774  34.603  28.858  1.00  0.00    -0.052 C 
ATOM     86  H   UNL A   1      35.395  35.241  28.266  1.00  0.00     0.027 H 
ATOM     87  H   UNL A   1      34.830  34.530  29.924  1.00  0.00     0.027 H 
BRANCH  85  88
ATOM     88  C   UNL A   1      33.355  35.205  28.732  1.00  0.00    -0.052 C 
ATOM     89  H   UNL A   1      32.698  34.659  29.376  1.00  0.00     0.027 H 
ATOM     90  H   UNL A   1      33.076  35.129  27.702  1.00  0.00     0.027 H 
BRANCH  88  91
ATOM     91  C   UNL A   1      33.278  36.681  29.105  1.00  0.00    -0.036 C 
ATOM     92  H   UNL A   1      32.279  37.027  28.946  1.00  0.00     0.028 H 
ATOM     93  H   UNL A   1      33.969  37.219  28.491  1.00  0.00     0.028 H 
BRANCH  91  94
ATOM     94  C   UNL A   1      33.653  36.906  30.555  1.00  0.00     0.018 C 
ATOM     95  H   UNL A   1      33.860  37.944  30.712  1.00  0.00     0.049 H 
ATOM     96  H   UNL A   1      34.522  36.325  30.788  1.00  0.00     0.049 H 
BRANCH  94  97
ATOM     97  N   UNL A   1      32.553  36.495  31.417  1.00  0.00    -0.352 N 
ATOM     98  C   UNL A   1      32.522  35.395  32.231  1.00  0.00     0.251 C 
ATOM     99  H   UNL A   1      31.752  37.066  31.415  1.00  0.00     0.163 HD
ATOM    100  O   UNL A   1      31.487  34.950  32.691  1.00  0.00    -0.269 OA
BRANCH  98 101
ATOM    101  C   UNL A   1      33.823  34.781  32.523  1.00  0.00     0.039 A 
ATOM    102  C   UNL A   1      34.977  35.558  32.474  1.00  0.00    -0.049 A 
ATOM    103  C   UNL A   1      33.838  33.458  32.981  1.00  0.00    -0.049 A 
ATOM    104  C   UNL A   1      36.174  34.995  32.900  1.00  0.00    -0.053 A 
ATOM    105  H   UNL A   1      34.944  36.530  32.129  1.00  0.00     0.063 H 
ATOM    106  C   UNL A   1      35.011  32.936  33.487  1.00  0.00    -0.053 A 
ATOM    107  H   UNL A   1      32.983  32.882  32.940  1.00  0.00     0.063 H 
ATOM    108  C   UNL A   1      36.193  33.688  33.419  1.00  0.00    -0.014 A 
ATOM    109  H   UNL A   1      37.051  35.537  32.836  1.00  0.00     0.063 H 
ATOM    110  H   UNL A   1      35.019  31.996  33.914  1.00  0.00     0.063 H 
BRANCH 108 111
ATOM    111  C   UNL A   1      37.457  33.051  33.835  1.00  0.00     0.031 A 
ATOM    112  C   UNL A   1      38.081  32.026  32.932  1.00  0.00     0.074 A 
ATOM    113  C   UNL A   1      37.991  33.350  35.033  1.00  0.00     0.049 A 
ATOM    114  N   UNL A   1      39.140  31.287  33.129  1.00  0.00    -0.248 NA
ATOM    115  C   UNL A   1      37.399  31.766  31.651  1.00  0.00    -0.034 C 
ATOM    116  C   UNL A   1      37.425  34.290  36.002  1.00  0.00    -0.036 A 
ATOM    117  N   UNL A   1      39.124  32.882  35.642  1.00  0.00    -0.354 N 
ATOM    118  C   UNL A   1      39.236  30.468  32.012  1.00  0.00     0.074 A 
ATOM    119  C   UNL A   1      38.096  30.749  31.172  1.00  0.00    -0.034 C 
ATOM    120  H   UNL A   1      36.588  32.252  31.237  1.00  0.00     0.065 H 
ATOM    121  C   UNL A   1      38.228  34.347  37.077  1.00  0.00    -0.036 A 
ATOM    122  H   UNL A   1      36.550  34.823  35.879  1.00  0.00     0.065 H 
ATOM    123  C   UNL A   1      39.338  33.419  36.888  1.00  0.00     0.049 A 
ATOM    124  H   UNL A   1      39.728  32.224  35.228  1.00  0.00     0.167 HD
ATOM    125  C   UNL A   1      40.210  29.583  31.705  1.00  0.00     0.037 A 
ATOM    126  H   UNL A   1      37.856  30.227  30.315  1.00  0.00     0.065 H 
ATOM    127  H   UNL A   1      38.082  34.948  37.903  1.00  0.00     0.065 H 
ATOM    128  C   UNL A   1      40.321  33.175  37.774  1.00  0.00     0.037 A 
ATOM    129  C   UNL A   1      41.359  29.347  32.536  1.00  0.00     0.049 A 
ATOM    130  C   UNL A   1      41.398  32.191  37.399  1.00  0.00     0.074 A 
ATOM    131  C   UNL A   1      42.448  28.533  32.290  1.00  0.00    -0.036 A 
ATOM    132  N   UNL A   1      41.561  29.930  33.778  1.00  0.00    -0.354 N 
ATOM    133  N   UNL A   1      41.529  31.483  36.302  1.00  0.00    -0.248 NA
ATOM    134  C   UNL A   1      42.468  31.977  38.381  1.00  0.00    -0.034 C 
ATOM    135  C   UNL A   1      43.282  28.577  33.410  1.00  0.00    -0.036 A 
ATOM    136  H   UNL A   1      42.615  27.988  31.430  1.00  0.00     0.065 H 
ATOM    137  C   UNL A   1      42.745  29.469  34.328  1.00  0.00     0.049 A 
ATOM    138  H   UNL A   1      40.953  30.577  34.207  1.00  0.00     0.167 HD
ATOM    139  C   UNL A   1      42.705  30.761  36.451  1.00  0.00     0.074 A 
ATOM    140  C   UNL A   1      43.262  31.135  37.734  1.00  0.00    -0.034 C 
ATOM    141  H   UNL A   1      42.575  32.377  39.327  1.00  0.00     0.065 H 
ATOM    142  H   UNL A   1      44.152  28.037  33.535  1.00  0.00     0.065 H 
ATOM    143  C   UNL A   1      43.274  29.865  35.607  1.00  0.00     0.037 A 
ATOM    144  H   UNL A   1      44.163  30.790  38.099  1.00  0.00     0.065 H 
BRANCH 125 145
ATOM    145  C   UNL A   1      40.079  28.814  30.422  1.00  0.00     0.064 A 
ATOM    146  C   UNL A   1      39.414  27.580  30.365  1.00  0.00     0.173 A 
ATOM    147  C   UNL A   1      40.593  29.339  29.228  1.00  0.00     0.173 A 
ATOM    148  F   UNL A   1      38.920  27.025  31.482  1.00  0.00    -0.203 F 
ATOM    149  C   UNL A   1      39.286  26.891  29.162  1.00  0.00     0.198 A 
ATOM    150  C   UNL A   1      40.434  28.663  28.021  1.00  0.00     0.198 A 
ATOM    151  F   UNL A   1      41.241  30.514  29.227  1.00  0.00    -0.203 F 
ATOM    152  F   UNL A   1      38.688  25.691  29.139  1.00  0.00    -0.200 F 
ATOM    153  C   UNL A   1      39.788  27.437  27.990  1.00  0.00     0.200 A 
ATOM    154  F   UNL A   1      40.910  29.198  26.888  1.00  0.00    -0.200 F 
ATOM    155  F   UNL A   1      39.651  26.779  26.830  1.00  0.00    -0.200 F 
ENDBRANCH 125 145
BRANCH 128 156
ATOM    156  C   UNL A   1      40.339  33.874  39.086  1.00  0.00     0.064 A 
ATOM    157  C   UNL A   1      39.595  33.394  40.172  1.00  0.00     0.173 A 
ATOM    158  C   UNL A   1      41.087  35.046  39.277  1.00  0.00     0.173 A 
ATOM    159  F   UNL A   1      38.852  32.286  40.038  1.00  0.00    -0.203 F 
ATOM    160  C   UNL A   1      39.570  34.076  41.388  1.00  0.00     0.198 A 
ATOM    161  C   UNL A   1      41.089  35.708  40.503  1.00  0.00     0.198 A 
ATOM    162  F   UNL A   1      41.826  35.543  38.275  1.00  0.00    -0.203 F 
ATOM    163  F   UNL A   1      38.803  33.627  42.390  1.00  0.00    -0.200 F 
ATOM    164  C   UNL A   1      40.320  35.231  41.554  1.00  0.00     0.200 A 
ATOM    165  F   UNL A   1      41.831  36.813  40.664  1.00  0.00    -0.200 F 
ATOM    166  F   UNL A   1      40.296  35.887  42.721  1.00  0.00    -0.200 F 
ENDBRANCH 128 156
BRANCH 143 167
ATOM    167  C   UNL A   1      44.577  29.255  36.033  1.00  0.00     0.064 A 
ATOM    168  C   UNL A   1      44.628  28.027  36.707  1.00  0.00     0.173 A 
ATOM    169  C   UNL A   1      45.791  29.886  35.721  1.00  0.00     0.173 A 
ATOM    170  F   UNL A   1      43.494  27.391  37.040  1.00  0.00    -0.203 F 
ATOM    171  C   UNL A   1      45.847  27.467  37.081  1.00  0.00     0.198 A 
ATOM    172  C   UNL A   1      47.008  29.306  36.063  1.00  0.00     0.198 A 
ATOM    173  F   UNL A   1      45.796  31.058  35.067  1.00  0.00    -0.203 F 
ATOM    174  F   UNL A   1      45.869  26.319  37.772  1.00  0.00    -0.200 F 
ATOM    175  C   UNL A   1      47.035  28.102  36.751  1.00  0.00     0.200 A 
ATOM    176  F   UNL A   1      48.156  29.911  35.726  1.00  0.00    -0.200 F 
ATOM    177  F   UNL A   1      48.206  27.556  37.101  1.00  0.00    -0.200 F 
ENDBRANCH 143 167
ENDBRANCH 108 111
ENDBRANCH  98 101
ENDBRANCH  94  97
ENDBRANCH  91  94
ENDBRANCH  88  91
ENDBRANCH  85  88
ENDBRANCH  82  85
ENDBRANCH   1  82
TORSDOF 26
ENDMDL
MODEL 5
REMARK VINA RESULT:     -11.1      3.172      8.860
REMARK SMILES C=C[C@@H]1[C@@H](O)C[C@H]2[C@]3(CC[C@]4(C)[C@@H]([C@H](C)CCC=C(C)C)CC[C@]24C)C[C@]13CCC(=O)NCCCCCCNC(=O)c1ccc(-c2c3nc(c(-c4c(F)c(F)c(F)c(F)c4F)c4ccc([nH]4)c(-c4c(F)c(F)c(F)c(F)c4F)c4nc(c(-c5c(F)c(F)c(F)c(F)c5F)c5ccc2[nH]5)C=C4)C=C3)cc1
REMARK SMILES IDX 33 1 32 4 30 5 31 6 29 8 28 11 27 14 3 15 4 16 6 18 8 20
REMARK SMILES IDX 26 21 7 22 9 25 24 28 10 30 11 33 23 34 13 37 22 38 2 44
REMARK SMILES IDX 1 45 5 49 25 51 12 55 14 59 16 61 17 64 18 67 19 68 20 70
REMARK SMILES IDX 21 74 15 78 34 82 35 85 36 88 37 91 38 94 39 97 40 98 41 100
REMARK SMILES IDX 42 101 43 102 104 103 44 104 103 106 45 108 46 111 47 112
REMARK SMILES IDX 97 113 48 114 102 115 96 116 98 117 49 118 101 119 95 121
REMARK SMILES IDX 94 123 50 125 82 128 62 129 81 130 63 131 66 132 80 133
REMARK SMILES IDX 99 134 64 135 65 137 79 139 100 140 67 143 51 145 52 146
REMARK SMILES IDX 60 147 53 148 54 149 58 150 61 151 55 152 56 153 59 154
REMARK SMILES IDX 57 155 83 156 84 157 92 158 85 159 86 160 90 161 93 162
REMARK SMILES IDX 87 163 88 164 91 165 89 166 68 167 69 168 77 169 70 170
REMARK SMILES IDX 71 171 75 172 78 173 72 174 73 175 76 176 74 177
REMARK H PARENT 33 2 33 3 32 7 29 9 29 10 28 12 28 13 3 17 4 19 6 23 6 24
REMARK H PARENT 26 26 26 27 7 29 9 31 9 32 10 35 10 36 23 39 23 40 13 41 22 42
REMARK H PARENT 22 43 1 46 1 47 2 48 5 50 25 52 25 53 25 54 12 56 12 57 12 58
REMARK H PARENT 14 60 16 62 16 63 17 65 17 66 18 69 20 71 20 72 20 73 21 75
REMARK H PARENT 21 76 21 77 15 79 15 80 15 81 34 83 34 84 35 86 35 87 36 89
REMARK H PARENT 36 90 37 92 37 93 38 95 38 96 39 99 43 105 104 107 44 109
REMARK H PARENT 103 110 102 120 96 122 98 124 101 126 95 127 63 136 66 138
REMARK H PARENT 99 141 64 142 100 144
REMARK Flexibility Score: inf
ROOT
ATOM      1  C   UNL A   1      39.031  25.096  27.148  1.00  0.00     0.017 C 
ATOM      2  H   UNL A   1      38.095  25.467  26.788  1.00  0.00     0.049 H 
ATOM      3  H   UNL A   1      40.021  25.168  26.746  1.00  0.00     0.049 H 
ENDROOT
BRANCH   1   4
ATOM      4  N   UNL A   1      38.906  23.602  26.935  1.00  0.00    -0.356 N 
ATOM      5  C   UNL A   1      38.217  22.935  25.966  1.00  0.00     0.220 C 
ATOM      6  O   UNL A   1      38.447  21.749  25.746  1.00  0.00    -0.275 OA
ATOM      7  H   UNL A   1      39.385  23.037  27.583  1.00  0.00     0.163 HD
BRANCH   5   8
ATOM      8  C   UNL A   1      37.192  23.724  25.200  1.00  0.00     0.027 C 
ATOM      9  H   UNL A   1      36.372  23.945  25.851  1.00  0.00     0.037 H 
ATOM     10  H   UNL A   1      37.665  24.616  24.847  1.00  0.00     0.037 H 
BRANCH   8  11
ATOM     11  C   UNL A   1      36.662  22.966  23.985  1.00  0.00    -0.038 C 
ATOM     12  H   UNL A   1      36.780  23.590  23.123  1.00  0.00     0.028 H 
ATOM     13  H   UNL A   1      37.223  22.058  23.919  1.00  0.00     0.028 H 
BRANCH  11  14
ATOM     14  C   UNL A   1      35.180  22.566  24.091  1.00  0.00    -0.014 C 
ATOM     15  C   UNL A   1      35.007  21.175  25.455  1.00  0.00     0.009 C 
ATOM     16  C   UNL A   1      33.668  21.484  26.898  1.00  0.00     0.061 C 
ATOM     17  H   UNL A   1      35.896  21.277  26.042  1.00  0.00     0.038 H 
ATOM     18  C   UNL A   1      32.308  22.907  26.633  1.00  0.00    -0.022 C 
ATOM     19  H   UNL A   1      33.122  20.565  26.847  1.00  0.00     0.061 H 
ATOM     20  C   UNL A   1      33.871  23.910  23.834  1.00  0.00    -0.019 C 
ATOM     21  C   UNL A   1      34.277  22.818  22.824  1.00  0.00    -0.040 C 
ATOM     22  C   UNL A   1      32.501  24.134  25.130  1.00  0.00    -0.027 C 
ATOM     23  H   UNL A   1      32.298  23.500  27.524  1.00  0.00     0.030 H 
ATOM     24  H   UNL A   1      31.412  22.366  26.410  1.00  0.00     0.030 H 
ATOM     25  C   UNL A   1      34.200  25.336  23.358  1.00  0.00    -0.046 C 
ATOM     26  H   UNL A   1      34.767  23.136  21.927  1.00  0.00     0.028 H 
ATOM     27  H   UNL A   1      33.645  22.121  22.313  1.00  0.00     0.028 H 
ATOM     28  C   UNL A   1      31.297  24.924  24.480  1.00  0.00    -0.023 C 
ATOM     29  H   UNL A   1      32.848  24.750  25.934  1.00  0.00     0.032 H 
ATOM     30  C   UNL A   1      32.950  26.088  22.884  1.00  0.00    -0.046 C 
ATOM     31  H   UNL A   1      34.896  25.278  22.547  1.00  0.00     0.027 H 
ATOM     32  H   UNL A   1      34.615  25.873  24.186  1.00  0.00     0.027 H 
ATOM     33  C   UNL A   1      31.824  26.347  23.941  1.00  0.00    -0.024 C 
ATOM     34  C   UNL A   1      30.355  25.357  25.598  1.00  0.00    -0.047 C 
ATOM     35  H   UNL A   1      32.517  25.520  22.087  1.00  0.00     0.027 H 
ATOM     36  H   UNL A   1      33.301  27.061  22.613  1.00  0.00     0.027 H 
ATOM     37  C   UNL A   1      32.186  27.053  25.308  1.00  0.00    -0.033 C 
ATOM     38  C   UNL A   1      31.098  26.510  26.301  1.00  0.00    -0.049 C 
ATOM     39  H   UNL A   1      29.422  25.694  25.198  1.00  0.00     0.027 H 
ATOM     40  H   UNL A   1      30.121  24.555  26.268  1.00  0.00     0.027 H 
ATOM     41  H   UNL A   1      33.216  26.801  25.457  1.00  0.00     0.031 H 
ATOM     42  H   UNL A   1      30.408  27.290  26.547  1.00  0.00     0.027 H 
ATOM     43  H   UNL A   1      31.554  26.166  27.205  1.00  0.00     0.027 H 
BRANCH  15  44
ATOM     44  C   UNL A   1      35.100  19.745  24.881  1.00  0.00    -0.085 C 
ATOM     45  C   UNL A   1      34.098  18.946  24.477  1.00  0.00    -0.103 C 
ATOM     46  H   UNL A   1      34.305  18.005  24.110  1.00  0.00     0.053 H 
ATOM     47  H   UNL A   1      33.122  19.276  24.534  1.00  0.00     0.053 H 
ATOM     48  H   UNL A   1      36.051  19.352  24.796  1.00  0.00     0.057 H 
ENDBRANCH  15  44
BRANCH  16  49
ATOM     49  O   UNL A   1      34.286  21.676  28.198  1.00  0.00    -0.392 OA
ATOM     50  H   UNL A   1      33.609  21.616  28.890  1.00  0.00     0.210 HD
ENDBRANCH  16  49
BRANCH  28  51
ATOM     51  C   UNL A   1      30.595  24.118  23.377  1.00  0.00    -0.059 C 
ATOM     52  H   UNL A   1      29.780  24.688  22.983  1.00  0.00     0.024 H 
ATOM     53  H   UNL A   1      30.224  23.202  23.786  1.00  0.00     0.024 H 
ATOM     54  H   UNL A   1      31.292  23.903  22.594  1.00  0.00     0.024 H 
ENDBRANCH  28  51
BRANCH  33  55
ATOM     55  C   UNL A   1      30.740  27.203  23.239  1.00  0.00    -0.059 C 
ATOM     56  H   UNL A   1      30.581  26.833  22.246  1.00  0.00     0.024 H 
ATOM     57  H   UNL A   1      31.064  28.221  23.193  1.00  0.00     0.024 H 
ATOM     58  H   UNL A   1      29.825  27.144  23.792  1.00  0.00     0.024 H 
ENDBRANCH  33  55
BRANCH  37  59
ATOM     59  C   UNL A   1      32.645  28.521  25.529  1.00  0.00    -0.041 C 
ATOM     60  H   UNL A   1      33.081  28.724  24.572  1.00  0.00     0.030 H 
BRANCH  59  61
ATOM     61  C   UNL A   1      31.483  29.510  25.757  1.00  0.00    -0.047 C 
ATOM     62  H   UNL A   1      31.699  30.078  26.638  1.00  0.00     0.027 H 
ATOM     63  H   UNL A   1      30.596  28.918  25.842  1.00  0.00     0.027 H 
BRANCH  61  64
ATOM     64  C   UNL A   1      31.237  30.491  24.607  1.00  0.00    -0.035 C 
ATOM     65  H   UNL A   1      31.465  30.003  23.682  1.00  0.00     0.031 H 
ATOM     66  H   UNL A   1      31.864  31.344  24.761  1.00  0.00     0.031 H 
BRANCH  64  67
ATOM     67  C   UNL A   1      29.803  30.971  24.563  1.00  0.00    -0.086 C 
ATOM     68  C   UNL A   1      28.972  30.914  23.501  1.00  0.00    -0.080 C 
ATOM     69  H   UNL A   1      29.423  31.382  25.429  1.00  0.00     0.058 H 
BRANCH  68  70
ATOM     70  C   UNL A   1      27.544  31.381  23.590  1.00  0.00    -0.044 C 
ATOM     71  H   UNL A   1      27.511  32.334  24.076  1.00  0.00     0.028 H 
ATOM     72  H   UNL A   1      26.972  30.674  24.153  1.00  0.00     0.028 H 
ATOM     73  H   UNL A   1      27.135  31.468  22.606  1.00  0.00     0.028 H 
ENDBRANCH  68  70
BRANCH  68  74
ATOM     74  C   UNL A   1      29.386  30.396  22.151  1.00  0.00    -0.044 C 
ATOM     75  H   UNL A   1      30.367  29.974  22.216  1.00  0.00     0.028 H 
ATOM     76  H   UNL A   1      29.392  31.201  21.446  1.00  0.00     0.028 H 
ATOM     77  H   UNL A   1      28.695  29.644  21.830  1.00  0.00     0.028 H 
ENDBRANCH  68  74
ENDBRANCH  64  67
ENDBRANCH  61  64
ENDBRANCH  59  61
BRANCH  59  78
ATOM     78  C   UNL A   1      33.805  28.778  26.496  1.00  0.00    -0.062 C 
ATOM     79  H   UNL A   1      33.550  28.407  27.466  1.00  0.00     0.023 H 
ATOM     80  H   UNL A   1      33.994  29.830  26.554  1.00  0.00     0.023 H 
ATOM     81  H   UNL A   1      34.682  28.277  26.141  1.00  0.00     0.023 H 
ENDBRANCH  59  78
ENDBRANCH  37  59
ENDBRANCH  11  14
ENDBRANCH   8  11
ENDBRANCH   5   8
ENDBRANCH   1   4
BRANCH   1  82
ATOM     82  C   UNL A   1      39.413  26.322  28.813  1.00  0.00    -0.036 C 
ATOM     83  H   UNL A   1      40.471  26.463  28.739  1.00  0.00     0.028 H 
ATOM     84  H   UNL A   1      38.748  25.769  29.442  1.00  0.00     0.028 H 
BRANCH  82  85
ATOM     85  C   UNL A   1      38.902  27.853  29.467  1.00  0.00    -0.052 C 
ATOM     86  H   UNL A   1      39.542  28.017  30.309  1.00  0.00     0.027 H 
ATOM     87  H   UNL A   1      37.852  27.661  29.539  1.00  0.00     0.027 H 
BRANCH  85  88
ATOM     88  C   UNL A   1      38.850  29.216  28.740  1.00  0.00    -0.052 C 
ATOM     89  H   UNL A   1      39.561  29.200  27.940  1.00  0.00     0.027 H 
ATOM     90  H   UNL A   1      39.072  29.967  29.470  1.00  0.00     0.027 H 
BRANCH  88  91
ATOM     91  C   UNL A   1      37.481  29.552  28.160  1.00  0.00    -0.036 C 
ATOM     92  H   UNL A   1      37.268  28.877  27.359  1.00  0.00     0.028 H 
ATOM     93  H   UNL A   1      37.504  30.563  27.810  1.00  0.00     0.028 H 
BRANCH  91  94
ATOM     94  C   UNL A   1      36.393  29.434  29.207  1.00  0.00     0.018 C 
ATOM     95  H   UNL A   1      36.833  29.200  30.153  1.00  0.00     0.049 H 
ATOM     96  H   UNL A   1      35.713  28.657  28.922  1.00  0.00     0.049 H 
BRANCH  94  97
ATOM     97  N   UNL A   1      35.668  30.694  29.308  1.00  0.00    -0.352 N 
ATOM     98  C   UNL A   1      35.715  31.579  30.351  1.00  0.00     0.251 C 
ATOM     99  H   UNL A   1      35.087  30.933  28.551  1.00  0.00     0.163 HD
ATOM    100  O   UNL A   1      34.879  32.450  30.508  1.00  0.00    -0.269 OA
BRANCH  98 101
ATOM    101  C   UNL A   1      36.845  31.419  31.274  1.00  0.00     0.039 A 
ATOM    102  C   UNL A   1      38.043  32.080  31.016  1.00  0.00    -0.049 A 
ATOM    103  C   UNL A   1      36.629  30.714  32.463  1.00  0.00    -0.049 A 
ATOM    104  C   UNL A   1      39.045  32.036  31.978  1.00  0.00    -0.053 A 
ATOM    105  H   UNL A   1      38.183  32.591  30.131  1.00  0.00     0.063 H 
ATOM    106  C   UNL A   1      37.592  30.750  33.451  1.00  0.00    -0.053 A 
ATOM    107  H   UNL A   1      35.760  30.173  32.599  1.00  0.00     0.063 H 
ATOM    108  C   UNL A   1      38.819  31.383  33.202  1.00  0.00    -0.014 A 
ATOM    109  H   UNL A   1      39.957  32.484  31.794  1.00  0.00     0.063 H 
ATOM    110  H   UNL A   1      37.411  30.315  34.369  1.00  0.00     0.063 H 
BRANCH 108 111
ATOM    111  C   UNL A   1      39.881  31.283  34.220  1.00  0.00     0.031 A 
ATOM    112  C   UNL A   1      40.818  30.109  34.174  1.00  0.00     0.074 A 
ATOM    113  C   UNL A   1      39.954  32.200  35.201  1.00  0.00     0.049 A 
ATOM    114  N   UNL A   1      41.769  29.778  35.006  1.00  0.00    -0.248 NA
ATOM    115  C   UNL A   1      40.635  29.157  33.064  1.00  0.00    -0.034 C 
ATOM    116  C   UNL A   1      39.051  33.342  35.361  1.00  0.00    -0.036 A 
ATOM    117  N   UNL A   1      40.820  32.308  36.255  1.00  0.00    -0.354 N 
ATOM    118  C   UNL A   1      42.279  28.577  34.531  1.00  0.00     0.074 A 
ATOM    119  C   UNL A   1      41.492  28.200  33.381  1.00  0.00    -0.034 C 
ATOM    120  H   UNL A   1      40.002  29.220  32.251  1.00  0.00     0.065 H 
ATOM    121  C   UNL A   1      39.427  34.049  36.439  1.00  0.00    -0.036 A 
ATOM    122  H   UNL A   1      38.255  33.567  34.745  1.00  0.00     0.065 H 
ATOM    123  C   UNL A   1      40.567  33.389  37.065  1.00  0.00     0.049 A 
ATOM    124  H   UNL A   1      41.554  31.673  36.418  1.00  0.00     0.167 HD
ATOM    125  C   UNL A   1      43.331  27.871  35.001  1.00  0.00     0.037 A 
ATOM    126  H   UNL A   1      41.586  27.306  32.874  1.00  0.00     0.065 H 
ATOM    127  H   UNL A   1      38.980  34.919  36.771  1.00  0.00     0.065 H 
ATOM    128  C   UNL A   1      41.189  33.786  38.190  1.00  0.00     0.037 A 
ATOM    129  C   UNL A   1      44.126  28.284  36.125  1.00  0.00     0.049 A 
ATOM    130  C   UNL A   1      42.364  32.984  38.684  1.00  0.00     0.074 A 
ATOM    131  C   UNL A   1      45.262  27.690  36.642  1.00  0.00    -0.036 A 
ATOM    132  N   UNL A   1      43.861  29.400  36.905  1.00  0.00    -0.354 N 
ATOM    133  N   UNL A   1      42.895  31.894  38.180  1.00  0.00    -0.248 NA
ATOM    134  C   UNL A   1      43.032  33.469  39.897  1.00  0.00    -0.034 C 
ATOM    135  C   UNL A   1      45.651  28.414  37.772  1.00  0.00    -0.036 A 
ATOM    136  H   UNL A   1      45.738  26.859  36.260  1.00  0.00     0.065 H 
ATOM    137  C   UNL A   1      44.796  29.496  37.922  1.00  0.00     0.049 A 
ATOM    138  H   UNL A   1      43.119  30.031  36.758  1.00  0.00     0.167 HD
ATOM    139  C   UNL A   1      43.972  31.580  38.997  1.00  0.00     0.074 A 
ATOM    140  C   UNL A   1      44.032  32.607  40.016  1.00  0.00    -0.034 C 
ATOM    141  H   UNL A   1      42.789  34.271  40.500  1.00  0.00     0.065 H 
ATOM    142  H   UNL A   1      46.443  28.183  38.392  1.00  0.00     0.065 H 
ATOM    143  C   UNL A   1      44.832  30.535  38.918  1.00  0.00     0.037 A 
ATOM    144  H   UNL A   1      44.762  32.661  40.744  1.00  0.00     0.065 H 
BRANCH 125 145
ATOM    145  C   UNL A   1      43.683  26.590  34.302  1.00  0.00     0.064 A 
ATOM    146  C   UNL A   1      44.574  26.560  33.218  1.00  0.00     0.173 A 
ATOM    147  C   UNL A   1      43.153  25.372  34.750  1.00  0.00     0.173 A 
ATOM    148  F   UNL A   1      45.095  27.700  32.739  1.00  0.00    -0.203 F 
ATOM    149  C   UNL A   1      44.903  25.359  32.595  1.00  0.00     0.198 A 
ATOM    150  C   UNL A   1      43.511  24.169  34.145  1.00  0.00     0.198 A 
ATOM    151  F   UNL A   1      42.295  25.344  35.780  1.00  0.00    -0.203 F 
ATOM    152  F   UNL A   1      45.719  25.359  31.532  1.00  0.00    -0.200 F 
ATOM    153  C   UNL A   1      44.380  24.164  33.065  1.00  0.00     0.200 A 
ATOM    154  F   UNL A   1      43.012  23.014  34.609  1.00  0.00    -0.200 F 
ATOM    155  F   UNL A   1      44.710  23.008  32.474  1.00  0.00    -0.200 F 
ENDBRANCH 125 145
BRANCH 128 156
ATOM    156  C   UNL A   1      40.723  34.996  38.917  1.00  0.00     0.064 A 
ATOM    157  C   UNL A   1      39.628  34.940  39.789  1.00  0.00     0.173 A 
ATOM    158  C   UNL A   1      41.352  36.239  38.742  1.00  0.00     0.173 A 
ATOM    159  F   UNL A   1      38.983  33.780  39.982  1.00  0.00    -0.203 F 
ATOM    160  C   UNL A   1      39.158  36.084  40.433  1.00  0.00     0.198 A 
ATOM    161  C   UNL A   1      40.902  37.375  39.411  1.00  0.00     0.198 A 
ATOM    162  F   UNL A   1      42.411  36.347  37.927  1.00  0.00    -0.203 F 
ATOM    163  F   UNL A   1      38.072  36.013  41.215  1.00  0.00    -0.200 F 
ATOM    164  C   UNL A   1      39.797  37.301  40.246  1.00  0.00     0.200 A 
ATOM    165  F   UNL A   1      41.536  38.544  39.242  1.00  0.00    -0.200 F 
ATOM    166  F   UNL A   1      39.346  38.400  40.862  1.00  0.00    -0.200 F 
ENDBRANCH 128 156
BRANCH 143 167
ATOM    167  C   UNL A   1      45.926  30.471  39.943  1.00  0.00     0.064 A 
ATOM    168  C   UNL A   1      45.763  29.775  41.150  1.00  0.00     0.173 A 
ATOM    169  C   UNL A   1      47.168  31.073  39.691  1.00  0.00     0.173 A 
ATOM    170  F   UNL A   1      44.590  29.194  41.442  1.00  0.00    -0.203 F 
ATOM    171  C   UNL A   1      46.795  29.712  42.082  1.00  0.00     0.198 A 
ATOM    172  C   UNL A   1      48.210  30.976  40.609  1.00  0.00     0.198 A 
ATOM    173  F   UNL A   1      47.378  31.740  38.547  1.00  0.00    -0.203 F 
ATOM    174  F   UNL A   1      46.600  29.088  43.252  1.00  0.00    -0.200 F 
ATOM    175  C   UNL A   1      48.020  30.304  41.807  1.00  0.00     0.200 A 
ATOM    176  F   UNL A   1      49.398  31.531  40.333  1.00  0.00    -0.200 F 
ATOM    177  F   UNL A   1      49.015  30.232  42.700  1.00  0.00    -0.200 F 
ENDBRANCH 143 167
ENDBRANCH 108 111
ENDBRANCH  98 101
ENDBRANCH  94  97
ENDBRANCH  91  94
ENDBRANCH  88  91
ENDBRANCH  85  88
ENDBRANCH  82  85
ENDBRANCH   1  82
TORSDOF 26
ENDMDL
MODEL 6
REMARK VINA RESULT:     -10.9      3.429      9.278
REMARK SMILES C=C[C@@H]1[C@@H](O)C[C@H]2[C@]3(CC[C@]4(C)[C@@H]([C@H](C)CCC=C(C)C)CC[C@]24C)C[C@]13CCC(=O)NCCCCCCNC(=O)c1ccc(-c2c3nc(c(-c4c(F)c(F)c(F)c(F)c4F)c4ccc([nH]4)c(-c4c(F)c(F)c(F)c(F)c4F)c4nc(c(-c5c(F)c(F)c(F)c(F)c5F)c5ccc2[nH]5)C=C4)C=C3)cc1
REMARK SMILES IDX 33 1 32 4 30 5 31 6 29 8 28 11 27 14 3 15 4 16 6 18 8 20
REMARK SMILES IDX 26 21 7 22 9 25 24 28 10 30 11 33 23 34 13 37 22 38 2 44
REMARK SMILES IDX 1 45 5 49 25 51 12 55 14 59 16 61 17 64 18 67 19 68 20 70
REMARK SMILES IDX 21 74 15 78 34 82 35 85 36 88 37 91 38 94 39 97 40 98 41 100
REMARK SMILES IDX 42 101 43 102 104 103 44 104 103 106 45 108 46 111 47 112
REMARK SMILES IDX 97 113 48 114 102 115 96 116 98 117 49 118 101 119 95 121
REMARK SMILES IDX 94 123 50 125 82 128 62 129 81 130 63 131 66 132 80 133
REMARK SMILES IDX 99 134 64 135 65 137 79 139 100 140 67 143 51 145 52 146
REMARK SMILES IDX 60 147 53 148 54 149 58 150 61 151 55 152 56 153 59 154
REMARK SMILES IDX 57 155 83 156 84 157 92 158 85 159 86 160 90 161 93 162
REMARK SMILES IDX 87 163 88 164 91 165 89 166 68 167 69 168 77 169 70 170
REMARK SMILES IDX 71 171 75 172 78 173 72 174 73 175 76 176 74 177
REMARK H PARENT 33 2 33 3 32 7 29 9 29 10 28 12 28 13 3 17 4 19 6 23 6 24
REMARK H PARENT 26 26 26 27 7 29 9 31 9 32 10 35 10 36 23 39 23 40 13 41 22 42
REMARK H PARENT 22 43 1 46 1 47 2 48 5 50 25 52 25 53 25 54 12 56 12 57 12 58
REMARK H PARENT 14 60 16 62 16 63 17 65 17 66 18 69 20 71 20 72 20 73 21 75
REMARK H PARENT 21 76 21 77 15 79 15 80 15 81 34 83 34 84 35 86 35 87 36 89
REMARK H PARENT 36 90 37 92 37 93 38 95 38 96 39 99 43 105 104 107 44 109
REMARK H PARENT 103 110 102 120 96 122 98 124 101 126 95 127 63 136 66 138
REMARK H PARENT 99 141 64 142 100 144
REMARK Flexibility Score: inf
ROOT
ATOM      1  C   UNL A   1      39.458  23.759  27.279  1.00  0.00     0.017 C 
ATOM      2  H   UNL A   1      38.920  23.765  28.203  1.00  0.00     0.049 H 
ATOM      3  H   UNL A   1      39.403  24.402  26.425  1.00  0.00     0.049 H 
ENDROOT
BRANCH   1   4
ATOM      4  N   UNL A   1      38.900  22.543  26.570  1.00  0.00    -0.356 N 
ATOM      5  C   UNL A   1      37.795  22.455  25.777  1.00  0.00     0.220 C 
ATOM      6  O   UNL A   1      37.635  21.485  25.041  1.00  0.00    -0.275 OA
ATOM      7  H   UNL A   1      39.400  21.706  26.699  1.00  0.00     0.163 HD
BRANCH   5   8
ATOM      8  C   UNL A   1      36.814  23.591  25.853  1.00  0.00     0.027 C 
ATOM      9  H   UNL A   1      37.131  24.267  26.620  1.00  0.00     0.037 H 
ATOM     10  H   UNL A   1      36.791  24.066  24.895  1.00  0.00     0.037 H 
BRANCH   8  11
ATOM     11  C   UNL A   1      35.397  23.119  26.172  1.00  0.00    -0.038 C 
ATOM     12  H   UNL A   1      35.450  22.105  26.511  1.00  0.00     0.028 H 
ATOM     13  H   UNL A   1      35.010  23.785  26.914  1.00  0.00     0.028 H 
BRANCH  11  14
ATOM     14  C   UNL A   1      34.431  23.178  24.975  1.00  0.00    -0.014 C 
ATOM     15  C   UNL A   1      33.248  21.622  25.052  1.00  0.00     0.009 C 
ATOM     16  C   UNL A   1      31.288  21.971  24.968  1.00  0.00     0.061 C 
ATOM     17  H   UNL A   1      33.307  21.304  26.072  1.00  0.00     0.038 H 
ATOM     18  C   UNL A   1      30.674  23.762  24.367  1.00  0.00    -0.022 C 
ATOM     19  H   UNL A   1      31.013  21.303  24.178  1.00  0.00     0.061 H 
ATOM     20  C   UNL A   1      33.842  24.879  24.385  1.00  0.00    -0.019 C 
ATOM     21  C   UNL A   1      34.906  23.990  23.710  1.00  0.00    -0.040 C 
ATOM     22  C   UNL A   1      31.982  25.194  24.165  1.00  0.00    -0.027 C 
ATOM     23  H   UNL A   1      29.948  24.098  25.077  1.00  0.00     0.030 H 
ATOM     24  H   UNL A   1      30.324  23.591  23.370  1.00  0.00     0.030 H 
ATOM     25  C   UNL A   1      34.405  26.206  24.923  1.00  0.00    -0.046 C 
ATOM     26  H   UNL A   1      35.915  24.348  23.707  1.00  0.00     0.028 H 
ATOM     27  H   UNL A   1      34.946  23.663  22.692  1.00  0.00     0.028 H 
ATOM     28  C   UNL A   1      31.777  26.445  23.222  1.00  0.00    -0.023 C 
ATOM     29  H   UNL A   1      31.538  25.462  25.101  1.00  0.00     0.032 H 
ATOM     30  C   UNL A   1      34.032  27.394  24.028  1.00  0.00    -0.046 C 
ATOM     31  H   UNL A   1      35.472  26.133  24.973  1.00  0.00     0.027 H 
ATOM     32  H   UNL A   1      33.983  26.376  25.892  1.00  0.00     0.027 H 
ATOM     33  C   UNL A   1      32.509  27.725  23.871  1.00  0.00    -0.024 C 
ATOM     34  C   UNL A   1      30.313  26.864  23.303  1.00  0.00    -0.047 C 
ATOM     35  H   UNL A   1      34.419  27.195  23.051  1.00  0.00     0.027 H 
ATOM     36  H   UNL A   1      34.449  28.249  24.518  1.00  0.00     0.027 H 
ATOM     37  C   UNL A   1      31.621  27.936  25.161  1.00  0.00    -0.033 C 
ATOM     38  C   UNL A   1      30.181  27.532  24.686  1.00  0.00    -0.049 C 
ATOM     39  H   UNL A   1      30.074  27.556  22.523  1.00  0.00     0.027 H 
ATOM     40  H   UNL A   1      29.645  26.037  23.184  1.00  0.00     0.027 H 
ATOM     41  H   UNL A   1      32.119  27.354  25.909  1.00  0.00     0.031 H 
ATOM     42  H   UNL A   1      29.564  28.403  24.612  1.00  0.00     0.027 H 
ATOM     43  H   UNL A   1      29.731  26.858  25.386  1.00  0.00     0.027 H 
BRANCH  15  44
ATOM     44  C   UNL A   1      33.779  20.414  24.252  1.00  0.00    -0.085 C 
ATOM     45  C   UNL A   1      34.056  19.179  24.701  1.00  0.00    -0.103 C 
ATOM     46  H   UNL A   1      34.408  18.460  24.050  1.00  0.00     0.053 H 
ATOM     47  H   UNL A   1      33.915  18.949  25.697  1.00  0.00     0.053 H 
ATOM     48  H   UNL A   1      33.942  20.574  23.245  1.00  0.00     0.057 H 
ENDBRANCH  15  44
BRANCH  16  49
ATOM     49  O   UNL A   1      30.612  21.648  26.212  1.00  0.00    -0.392 OA
ATOM     50  H   UNL A   1      30.145  20.803  26.117  1.00  0.00     0.210 HD
ENDBRANCH  16  49
BRANCH  28  51
ATOM     51  C   UNL A   1      32.251  26.182  21.786  1.00  0.00    -0.059 C 
ATOM     52  H   UNL A   1      33.234  25.761  21.806  1.00  0.00     0.024 H 
ATOM     53  H   UNL A   1      32.269  27.103  21.242  1.00  0.00     0.024 H 
ATOM     54  H   UNL A   1      31.580  25.499  21.308  1.00  0.00     0.024 H 
ENDBRANCH  28  51
BRANCH  33  55
ATOM     55  C   UNL A   1      32.417  29.013  23.015  1.00  0.00    -0.059 C 
ATOM     56  H   UNL A   1      32.794  28.816  22.033  1.00  0.00     0.024 H 
ATOM     57  H   UNL A   1      32.997  29.787  23.473  1.00  0.00     0.024 H 
ATOM     58  H   UNL A   1      31.395  29.325  22.949  1.00  0.00     0.024 H 
ENDBRANCH  33  55
BRANCH  37  59
ATOM     59  C   UNL A   1      31.703  29.096  26.193  1.00  0.00    -0.041 C 
ATOM     60  H   UNL A   1      30.768  28.962  26.697  1.00  0.00     0.030 H 
BRANCH  59  61
ATOM     61  C   UNL A   1      32.842  28.936  27.222  1.00  0.00    -0.047 C 
ATOM     62  H   UNL A   1      33.102  27.899  27.270  1.00  0.00     0.027 H 
ATOM     63  H   UNL A   1      32.467  29.321  28.148  1.00  0.00     0.027 H 
BRANCH  61  64
ATOM     64  C   UNL A   1      34.112  29.732  26.907  1.00  0.00    -0.035 C 
ATOM     65  H   UNL A   1      33.981  30.739  27.246  1.00  0.00     0.031 H 
ATOM     66  H   UNL A   1      34.270  29.696  25.850  1.00  0.00     0.031 H 
BRANCH  64  67
ATOM     67  C   UNL A   1      35.334  29.147  27.581  1.00  0.00    -0.086 C 
ATOM     68  C   UNL A   1      36.419  29.830  28.000  1.00  0.00    -0.080 C 
ATOM     69  H   UNL A   1      35.337  28.127  27.733  1.00  0.00     0.058 H 
BRANCH  68  70
ATOM     70  C   UNL A   1      37.560  29.144  28.703  1.00  0.00    -0.044 C 
ATOM     71  H   UNL A   1      37.530  28.095  28.491  1.00  0.00     0.028 H 
ATOM     72  H   UNL A   1      37.471  29.296  29.759  1.00  0.00     0.028 H 
ATOM     73  H   UNL A   1      38.487  29.550  28.361  1.00  0.00     0.028 H 
ENDBRANCH  68  70
BRANCH  68  74
ATOM     74  C   UNL A   1      36.596  31.311  27.805  1.00  0.00    -0.044 C 
ATOM     75  H   UNL A   1      36.306  31.575  26.809  1.00  0.00     0.028 H 
ATOM     76  H   UNL A   1      37.622  31.571  27.957  1.00  0.00     0.028 H 
ATOM     77  H   UNL A   1      35.985  31.839  28.506  1.00  0.00     0.028 H 
ENDBRANCH  68  74
ENDBRANCH  64  67
ENDBRANCH  61  64
ENDBRANCH  59  61
BRANCH  59  78
ATOM     78  C   UNL A   1      31.608  30.534  25.673  1.00  0.00    -0.062 C 
ATOM     79  H   UNL A   1      30.608  30.893  25.797  1.00  0.00     0.023 H 
ATOM     80  H   UNL A   1      31.869  30.555  24.635  1.00  0.00     0.023 H 
ATOM     81  H   UNL A   1      32.283  31.157  26.223  1.00  0.00     0.023 H 
ENDBRANCH  59  78
ENDBRANCH  37  59
ENDBRANCH  11  14
ENDBRANCH   8  11
ENDBRANCH   5   8
ENDBRANCH   1   4
BRANCH   1  82
ATOM     82  C   UNL A   1      41.385  24.375  27.854  1.00  0.00    -0.036 C 
ATOM     83  H   UNL A   1      41.975  23.528  27.573  1.00  0.00     0.028 H 
ATOM     84  H   UNL A   1      41.034  24.806  28.768  1.00  0.00     0.028 H 
BRANCH  82  85
ATOM     85  C   UNL A   1      42.493  25.686  27.558  1.00  0.00    -0.052 C 
ATOM     86  H   UNL A   1      43.461  25.272  27.744  1.00  0.00     0.027 H 
ATOM     87  H   UNL A   1      42.032  26.434  28.168  1.00  0.00     0.027 H 
BRANCH  85  88
ATOM     88  C   UNL A   1      42.656  26.503  26.256  1.00  0.00    -0.052 C 
ATOM     89  H   UNL A   1      42.708  25.820  25.433  1.00  0.00     0.027 H 
ATOM     90  H   UNL A   1      43.548  27.084  26.363  1.00  0.00     0.027 H 
BRANCH  88  91
ATOM     91  C   UNL A   1      41.517  27.482  25.996  1.00  0.00    -0.036 C 
ATOM     92  H   UNL A   1      40.729  27.290  26.692  1.00  0.00     0.028 H 
ATOM     93  H   UNL A   1      41.179  27.346  24.991  1.00  0.00     0.028 H 
BRANCH  91  94
ATOM     94  C   UNL A   1      41.975  28.918  26.155  1.00  0.00     0.018 C 
ATOM     95  H   UNL A   1      41.737  29.260  27.140  1.00  0.00     0.049 H 
ATOM     96  H   UNL A   1      41.477  29.528  25.430  1.00  0.00     0.049 H 
BRANCH  94  97
ATOM     97  N   UNL A   1      43.415  29.001  25.947  1.00  0.00    -0.352 N 
ATOM     98  C   UNL A   1      44.308  29.706  26.708  1.00  0.00     0.251 C 
ATOM     99  H   UNL A   1      43.781  28.500  25.184  1.00  0.00     0.163 HD
ATOM    100  O   UNL A   1      45.430  29.972  26.319  1.00  0.00    -0.269 OA
BRANCH  98 101
ATOM    101  C   UNL A   1      43.831  30.119  28.033  1.00  0.00     0.039 A 
ATOM    102  C   UNL A   1      43.752  31.474  28.343  1.00  0.00    -0.049 A 
ATOM    103  C   UNL A   1      43.337  29.132  28.892  1.00  0.00    -0.049 A 
ATOM    104  C   UNL A   1      43.157  31.846  29.543  1.00  0.00    -0.053 A 
ATOM    105  H   UNL A   1      44.126  32.186  27.696  1.00  0.00     0.063 H 
ATOM    106  C   UNL A   1      42.666  29.512  30.037  1.00  0.00    -0.053 A 
ATOM    107  H   UNL A   1      43.472  28.133  28.672  1.00  0.00     0.063 H 
ATOM    108  C   UNL A   1      42.602  30.868  30.386  1.00  0.00    -0.014 A 
ATOM    109  H   UNL A   1      43.121  32.842  29.814  1.00  0.00     0.063 H 
ATOM    110  H   UNL A   1      42.214  28.801  30.634  1.00  0.00     0.063 H 
BRANCH 108 111
ATOM    111  C   UNL A   1      42.005  31.232  31.686  1.00  0.00     0.031 A 
ATOM    112  C   UNL A   1      40.586  31.723  31.717  1.00  0.00     0.074 A 
ATOM    113  C   UNL A   1      42.754  31.179  32.802  1.00  0.00     0.049 A 
ATOM    114  N   UNL A   1      39.888  32.169  32.727  1.00  0.00    -0.248 NA
ATOM    115  C   UNL A   1      39.867  31.756  30.431  1.00  0.00    -0.034 C 
ATOM    116  C   UNL A   1      44.159  30.770  32.861  1.00  0.00    -0.036 A 
ATOM    117  N   UNL A   1      42.439  31.483  34.099  1.00  0.00    -0.354 N 
ATOM    118  C   UNL A   1      38.663  32.550  32.195  1.00  0.00     0.074 A 
ATOM    119  C   UNL A   1      38.733  32.349  30.767  1.00  0.00    -0.034 C 
ATOM    120  H   UNL A   1      40.169  31.407  29.507  1.00  0.00     0.065 H 
ATOM    121  C   UNL A   1      44.578  30.827  34.135  1.00  0.00    -0.036 A 
ATOM    122  H   UNL A   1      44.734  30.485  32.053  1.00  0.00     0.065 H 
ATOM    123  C   UNL A   1      43.486  31.314  34.972  1.00  0.00     0.049 A 
ATOM    124  H   UNL A   1      41.548  31.793  34.380  1.00  0.00     0.167 HD
ATOM    125  C   UNL A   1      37.570  32.999  32.849  1.00  0.00     0.037 A 
ATOM    126  H   UNL A   1      37.997  32.629  30.099  1.00  0.00     0.065 H 
ATOM    127  H   UNL A   1      45.520  30.570  34.469  1.00  0.00     0.065 H 
ATOM    128  C   UNL A   1      43.548  31.538  36.297  1.00  0.00     0.037 A 
ATOM    129  C   UNL A   1      37.508  33.155  34.277  1.00  0.00     0.049 A 
ATOM    130  C   UNL A   1      42.310  32.030  37.001  1.00  0.00     0.074 A 
ATOM    131  C   UNL A   1      36.430  33.527  35.058  1.00  0.00    -0.036 A 
ATOM    132  N   UNL A   1      38.577  32.946  35.136  1.00  0.00    -0.354 N 
ATOM    133  N   UNL A   1      41.127  32.307  36.503  1.00  0.00    -0.248 NA
ATOM    134  C   UNL A   1      42.411  32.233  38.451  1.00  0.00    -0.034 C 
ATOM    135  C   UNL A   1      36.863  33.600  36.384  1.00  0.00    -0.036 A 
ATOM    136  H   UNL A   1      35.474  33.716  34.720  1.00  0.00     0.065 H 
ATOM    137  C   UNL A   1      38.193  33.212  36.439  1.00  0.00     0.049 A 
ATOM    138  H   UNL A   1      39.476  32.652  34.861  1.00  0.00     0.167 HD
ATOM    139  C   UNL A   1      40.339  32.690  37.579  1.00  0.00     0.074 A 
ATOM    140  C   UNL A   1      41.172  32.588  38.760  1.00  0.00    -0.034 C 
ATOM    141  H   UNL A   1      43.231  32.126  39.069  1.00  0.00     0.065 H 
ATOM    142  H   UNL A   1      36.288  33.894  37.189  1.00  0.00     0.065 H 
ATOM    143  C   UNL A   1      39.046  33.096  37.594  1.00  0.00     0.037 A 
ATOM    144  H   UNL A   1      40.842  32.769  39.721  1.00  0.00     0.065 H 
BRANCH 125 145
ATOM    145  C   UNL A   1      36.358  33.346  32.035  1.00  0.00     0.064 A 
ATOM    146  C   UNL A   1      35.821  34.642  32.024  1.00  0.00     0.173 A 
ATOM    147  C   UNL A   1      35.751  32.377  31.222  1.00  0.00     0.173 A 
ATOM    148  F   UNL A   1      36.352  35.602  32.797  1.00  0.00    -0.203 F 
ATOM    149  C   UNL A   1      34.707  34.949  31.246  1.00  0.00     0.198 A 
ATOM    150  C   UNL A   1      34.658  32.696  30.421  1.00  0.00     0.198 A 
ATOM    151  F   UNL A   1      36.223  31.122  31.197  1.00  0.00    -0.203 F 
ATOM    152  F   UNL A   1      34.182  36.182  31.288  1.00  0.00    -0.200 F 
ATOM    153  C   UNL A   1      34.133  33.979  30.438  1.00  0.00     0.200 A 
ATOM    154  F   UNL A   1      34.112  31.760  29.632  1.00  0.00    -0.200 F 
ATOM    155  F   UNL A   1      33.071  34.281  29.679  1.00  0.00    -0.200 F 
ENDBRANCH 125 145
BRANCH 128 156
ATOM    156  C   UNL A   1      44.811  31.295  37.041  1.00  0.00     0.064 A 
ATOM    157  C   UNL A   1      45.770  32.307  37.190  1.00  0.00     0.173 A 
ATOM    158  C   UNL A   1      45.095  30.042  37.605  1.00  0.00     0.173 A 
ATOM    159  F   UNL A   1      45.553  33.519  36.658  1.00  0.00    -0.203 F 
ATOM    160  C   UNL A   1      46.978  32.066  37.843  1.00  0.00     0.198 A 
ATOM    161  C   UNL A   1      46.289  29.812  38.287  1.00  0.00     0.198 A 
ATOM    162  F   UNL A   1      44.209  29.042  37.502  1.00  0.00    -0.203 F 
ATOM    163  F   UNL A   1      47.901  33.034  37.919  1.00  0.00    -0.200 F 
ATOM    164  C   UNL A   1      47.235  30.820  38.395  1.00  0.00     0.200 A 
ATOM    165  F   UNL A   1      46.523  28.612  38.835  1.00  0.00    -0.200 F 
ATOM    166  F   UNL A   1      48.395  30.588  39.021  1.00  0.00    -0.200 F 
ENDBRANCH 128 156
BRANCH 143 167
ATOM    167  C   UNL A   1      38.447  33.427  38.929  1.00  0.00     0.064 A 
ATOM    168  C   UNL A   1      37.649  32.508  39.626  1.00  0.00     0.173 A 
ATOM    169  C   UNL A   1      38.716  34.662  39.539  1.00  0.00     0.173 A 
ATOM    170  F   UNL A   1      37.354  31.319  39.079  1.00  0.00    -0.203 F 
ATOM    171  C   UNL A   1      37.116  32.827  40.872  1.00  0.00     0.198 A 
ATOM    172  C   UNL A   1      38.211  34.963  40.800  1.00  0.00     0.198 A 
ATOM    173  F   UNL A   1      39.483  35.571  38.919  1.00  0.00    -0.203 F 
ATOM    174  F   UNL A   1      36.311  31.955  41.495  1.00  0.00    -0.200 F 
ATOM    175  C   UNL A   1      37.404  34.049  41.461  1.00  0.00     0.200 A 
ATOM    176  F   UNL A   1      38.507  36.135  41.377  1.00  0.00    -0.200 F 
ATOM    177  F   UNL A   1      36.899  34.348  42.665  1.00  0.00    -0.200 F 
ENDBRANCH 143 167
ENDBRANCH 108 111
ENDBRANCH  98 101
ENDBRANCH  94  97
ENDBRANCH  91  94
ENDBRANCH  88  91
ENDBRANCH  85  88
ENDBRANCH  82  85
ENDBRANCH   1  82
TORSDOF 26
ENDMDL
MODEL 7
REMARK VINA RESULT:     -10.9      3.146      8.557
REMARK SMILES C=C[C@@H]1[C@@H](O)C[C@H]2[C@]3(CC[C@]4(C)[C@@H]([C@H](C)CCC=C(C)C)CC[C@]24C)C[C@]13CCC(=O)NCCCCCCNC(=O)c1ccc(-c2c3nc(c(-c4c(F)c(F)c(F)c(F)c4F)c4ccc([nH]4)c(-c4c(F)c(F)c(F)c(F)c4F)c4nc(c(-c5c(F)c(F)c(F)c(F)c5F)c5ccc2[nH]5)C=C4)C=C3)cc1
REMARK SMILES IDX 33 1 32 4 30 5 31 6 29 8 28 11 27 14 3 15 4 16 6 18 8 20
REMARK SMILES IDX 26 21 7 22 9 25 24 28 10 30 11 33 23 34 13 37 22 38 2 44
REMARK SMILES IDX 1 45 5 49 25 51 12 55 14 59 16 61 17 64 18 67 19 68 20 70
REMARK SMILES IDX 21 74 15 78 34 82 35 85 36 88 37 91 38 94 39 97 40 98 41 100
REMARK SMILES IDX 42 101 43 102 104 103 44 104 103 106 45 108 46 111 47 112
REMARK SMILES IDX 97 113 48 114 102 115 96 116 98 117 49 118 101 119 95 121
REMARK SMILES IDX 94 123 50 125 82 128 62 129 81 130 63 131 66 132 80 133
REMARK SMILES IDX 99 134 64 135 65 137 79 139 100 140 67 143 51 145 52 146
REMARK SMILES IDX 60 147 53 148 54 149 58 150 61 151 55 152 56 153 59 154
REMARK SMILES IDX 57 155 83 156 84 157 92 158 85 159 86 160 90 161 93 162
REMARK SMILES IDX 87 163 88 164 91 165 89 166 68 167 69 168 77 169 70 170
REMARK SMILES IDX 71 171 75 172 78 173 72 174 73 175 76 176 74 177
REMARK H PARENT 33 2 33 3 32 7 29 9 29 10 28 12 28 13 3 17 4 19 6 23 6 24
REMARK H PARENT 26 26 26 27 7 29 9 31 9 32 10 35 10 36 23 39 23 40 13 41 22 42
REMARK H PARENT 22 43 1 46 1 47 2 48 5 50 25 52 25 53 25 54 12 56 12 57 12 58
REMARK H PARENT 14 60 16 62 16 63 17 65 17 66 18 69 20 71 20 72 20 73 21 75
REMARK H PARENT 21 76 21 77 15 79 15 80 15 81 34 83 34 84 35 86 35 87 36 89
REMARK H PARENT 36 90 37 92 37 93 38 95 38 96 39 99 43 105 104 107 44 109
REMARK H PARENT 103 110 102 120 96 122 98 124 101 126 95 127 63 136 66 138
REMARK H PARENT 99 141 64 142 100 144
REMARK Flexibility Score: inf
ROOT
ATOM      1  C   UNL A   1      39.575  25.539  27.771  1.00  0.00     0.017 C 
ATOM      2  H   UNL A   1      38.663  25.676  27.229  1.00  0.00     0.049 H 
ATOM      3  H   UNL A   1      40.582  25.823  27.544  1.00  0.00     0.049 H 
ENDROOT
BRANCH   1   4
ATOM      4  N   UNL A   1      39.822  24.050  27.649  1.00  0.00    -0.356 N 
ATOM      5  C   UNL A   1      39.333  23.181  26.720  1.00  0.00     0.220 C 
ATOM      6  O   UNL A   1      39.848  22.076  26.571  1.00  0.00    -0.275 OA
ATOM      7  H   UNL A   1      40.414  23.658  28.330  1.00  0.00     0.163 HD
BRANCH   5   8
ATOM      8  C   UNL A   1      38.159  23.650  25.907  1.00  0.00     0.027 C 
ATOM      9  H   UNL A   1      37.997  24.689  26.104  1.00  0.00     0.037 H 
ATOM     10  H   UNL A   1      38.386  23.475  24.876  1.00  0.00     0.037 H 
BRANCH   8  11
ATOM     11  C   UNL A   1      36.878  22.885  26.236  1.00  0.00    -0.038 C 
ATOM     12  H   UNL A   1      37.131  22.071  26.884  1.00  0.00     0.028 H 
ATOM     13  H   UNL A   1      36.210  23.585  26.692  1.00  0.00     0.028 H 
BRANCH  11  14
ATOM     14  C   UNL A   1      36.152  22.315  25.005  1.00  0.00    -0.014 C 
ATOM     15  C   UNL A   1      35.824  20.410  25.302  1.00  0.00     0.009 C 
ATOM     16  C   UNL A   1      33.953  19.767  25.068  1.00  0.00     0.061 C 
ATOM     17  H   UNL A   1      35.896  20.299  26.364  1.00  0.00     0.038 H 
ATOM     18  C   UNL A   1      32.660  20.948  24.131  1.00  0.00    -0.022 C 
ATOM     19  H   UNL A   1      34.119  18.949  24.397  1.00  0.00     0.061 H 
ATOM     20  C   UNL A   1      34.922  23.432  24.097  1.00  0.00    -0.019 C 
ATOM     21  C   UNL A   1      36.351  23.077  23.640  1.00  0.00    -0.040 C 
ATOM     22  C   UNL A   1      33.171  22.789  23.739  1.00  0.00    -0.027 C 
ATOM     23  H   UNL A   1      31.779  20.989  24.736  1.00  0.00     0.030 H 
ATOM     24  H   UNL A   1      32.556  20.499  23.165  1.00  0.00     0.030 H 
ATOM     25  C   UNL A   1      34.735  24.926  24.416  1.00  0.00    -0.046 C 
ATOM     26  H   UNL A   1      37.070  23.869  23.619  1.00  0.00     0.028 H 
ATOM     27  H   UNL A   1      36.664  22.676  22.698  1.00  0.00     0.028 H 
ATOM     28  C   UNL A   1      32.529  23.651  22.582  1.00  0.00    -0.023 C 
ATOM     29  H   UNL A   1      32.540  22.935  24.592  1.00  0.00     0.032 H 
ATOM     30  C   UNL A   1      33.968  25.659  23.309  1.00  0.00    -0.046 C 
ATOM     31  H   UNL A   1      35.698  25.378  24.527  1.00  0.00     0.027 H 
ATOM     32  H   UNL A   1      34.165  25.002  25.320  1.00  0.00     0.027 H 
ATOM     33  C   UNL A   1      32.498  25.199  23.026  1.00  0.00    -0.024 C 
ATOM     34  C   UNL A   1      31.040  23.328  22.519  1.00  0.00    -0.047 C 
ATOM     35  H   UNL A   1      34.522  25.540  22.402  1.00  0.00     0.027 H 
ATOM     36  H   UNL A   1      33.877  26.666  23.659  1.00  0.00     0.027 H 
ATOM     37  C   UNL A   1      31.460  25.132  24.217  1.00  0.00    -0.033 C 
ATOM     38  C   UNL A   1      30.442  24.030  23.755  1.00  0.00    -0.049 C 
ATOM     39  H   UNL A   1      30.606  23.710  21.620  1.00  0.00     0.027 H 
ATOM     40  H   UNL A   1      30.851  22.274  22.518  1.00  0.00     0.027 H 
ATOM     41  H   UNL A   1      32.074  24.965  25.078  1.00  0.00     0.031 H 
ATOM     42  H   UNL A   1      29.507  24.482  23.500  1.00  0.00     0.027 H 
ATOM     43  H   UNL A   1      30.273  23.325  24.541  1.00  0.00     0.027 H 
BRANCH  15  44
ATOM     44  C   UNL A   1      36.950  19.506  24.754  1.00  0.00    -0.085 C 
ATOM     45  C   UNL A   1      38.247  19.496  25.098  1.00  0.00    -0.103 C 
ATOM     46  H   UNL A   1      38.896  18.833  24.647  1.00  0.00     0.053 H 
ATOM     47  H   UNL A   1      38.595  20.154  25.814  1.00  0.00     0.053 H 
ATOM     48  H   UNL A   1      36.670  18.822  24.032  1.00  0.00     0.057 H 
ENDBRANCH  15  44
BRANCH  16  49
ATOM     49  O   UNL A   1      33.354  19.330  26.317  1.00  0.00    -0.392 OA
ATOM     50  H   UNL A   1      33.123  20.104  26.853  1.00  0.00     0.210 HD
ENDBRANCH  16  49
BRANCH  28  51
ATOM     51  C   UNL A   1      33.245  23.456  21.238  1.00  0.00    -0.059 C 
ATOM     52  H   UNL A   1      34.132  24.054  21.216  1.00  0.00     0.024 H 
ATOM     53  H   UNL A   1      32.596  23.752  20.441  1.00  0.00     0.024 H 
ATOM     54  H   UNL A   1      33.507  22.425  21.120  1.00  0.00     0.024 H 
ENDBRANCH  28  51
BRANCH  33  55
ATOM     55  C   UNL A   1      31.927  26.159  21.953  1.00  0.00    -0.059 C 
ATOM     56  H   UNL A   1      32.259  25.847  20.984  1.00  0.00     0.024 H 
ATOM     57  H   UNL A   1      32.270  27.154  22.145  1.00  0.00     0.024 H 
ATOM     58  H   UNL A   1      30.857  26.137  21.987  1.00  0.00     0.024 H 
ENDBRANCH  33  55
BRANCH  37  59
ATOM     59  C   UNL A   1      30.867  26.317  25.029  1.00  0.00    -0.041 C 
ATOM     60  H   UNL A   1      31.756  26.684  25.499  1.00  0.00     0.030 H 
BRANCH  59  61
ATOM     61  C   UNL A   1      30.278  27.442  24.152  1.00  0.00    -0.047 C 
ATOM     62  H   UNL A   1      29.241  27.544  24.395  1.00  0.00     0.027 H 
ATOM     63  H   UNL A   1      30.448  27.151  23.136  1.00  0.00     0.027 H 
BRANCH  61  64
ATOM     64  C   UNL A   1      30.945  28.810  24.325  1.00  0.00    -0.035 C 
ATOM     65  H   UNL A   1      30.385  29.379  25.038  1.00  0.00     0.031 H 
ATOM     66  H   UNL A   1      30.959  29.293  23.370  1.00  0.00     0.031 H 
BRANCH  64  67
ATOM     67  C   UNL A   1      32.373  28.692  24.809  1.00  0.00    -0.086 C 
ATOM     68  C   UNL A   1      32.842  29.071  26.016  1.00  0.00    -0.080 C 
ATOM     69  H   UNL A   1      33.055  28.284  24.151  1.00  0.00     0.058 H 
BRANCH  68  70
ATOM     70  C   UNL A   1      34.281  28.860  26.405  1.00  0.00    -0.044 C 
ATOM     71  H   UNL A   1      34.335  28.585  27.438  1.00  0.00     0.028 H 
ATOM     72  H   UNL A   1      34.828  29.767  26.249  1.00  0.00     0.028 H 
ATOM     73  H   UNL A   1      34.703  28.081  25.806  1.00  0.00     0.028 H 
ENDBRANCH  68  70
BRANCH  68  74
ATOM     74  C   UNL A   1      31.993  29.733  27.067  1.00  0.00    -0.044 C 
ATOM     75  H   UNL A   1      31.634  28.994  27.752  1.00  0.00     0.028 H 
ATOM     76  H   UNL A   1      31.162  30.218  26.600  1.00  0.00     0.028 H 
ATOM     77  H   UNL A   1      32.578  30.455  27.595  1.00  0.00     0.028 H 
ENDBRANCH  68  74
ENDBRANCH  64  67
ENDBRANCH  61  64
ENDBRANCH  59  61
BRANCH  59  78
ATOM     78  C   UNL A   1      29.959  25.994  26.220  1.00  0.00    -0.062 C 
ATOM     79  H   UNL A   1      30.507  25.429  26.943  1.00  0.00     0.023 H 
ATOM     80  H   UNL A   1      29.119  25.424  25.882  1.00  0.00     0.023 H 
ATOM     81  H   UNL A   1      29.616  26.906  26.664  1.00  0.00     0.023 H 
ENDBRANCH  59  78
ENDBRANCH  37  59
ENDBRANCH  11  14
ENDBRANCH   8  11
ENDBRANCH   5   8
ENDBRANCH   1   4
BRANCH   1  82
ATOM     82  C   UNL A   1      39.363  26.871  29.386  1.00  0.00    -0.036 C 
ATOM     83  H   UNL A   1      40.345  26.856  29.808  1.00  0.00     0.028 H 
ATOM     84  H   UNL A   1      38.401  26.485  29.648  1.00  0.00     0.028 H 
BRANCH  82  85
ATOM     85  C   UNL A   1      38.881  28.518  29.680  1.00  0.00    -0.052 C 
ATOM     86  H   UNL A   1      39.519  28.851  30.472  1.00  0.00     0.027 H 
ATOM     87  H   UNL A   1      37.827  28.368  29.780  1.00  0.00     0.027 H 
BRANCH  85  88
ATOM     88  C   UNL A   1      38.864  29.688  28.670  1.00  0.00    -0.052 C 
ATOM     89  H   UNL A   1      39.491  29.428  27.842  1.00  0.00     0.027 H 
ATOM     90  H   UNL A   1      39.213  30.555  29.191  1.00  0.00     0.027 H 
BRANCH  88  91
ATOM     91  C   UNL A   1      37.475  30.020  28.136  1.00  0.00    -0.036 C 
ATOM     92  H   UNL A   1      37.299  29.450  27.249  1.00  0.00     0.028 H 
ATOM     93  H   UNL A   1      37.437  31.069  27.929  1.00  0.00     0.028 H 
BRANCH  91  94
ATOM     94  C   UNL A   1      36.400  29.696  29.153  1.00  0.00     0.018 C 
ATOM     95  H   UNL A   1      36.858  29.390  30.070  1.00  0.00     0.049 H 
ATOM     96  H   UNL A   1      35.785  28.905  28.775  1.00  0.00     0.049 H 
BRANCH  94  97
ATOM     97  N   UNL A   1      35.577  30.874  29.391  1.00  0.00    -0.352 N 
ATOM     98  C   UNL A   1      35.567  31.646  30.521  1.00  0.00     0.251 C 
ATOM     99  H   UNL A   1      34.966  31.141  28.667  1.00  0.00     0.163 HD
ATOM    100  O   UNL A   1      34.665  32.424  30.774  1.00  0.00    -0.269 OA
BRANCH  98 101
ATOM    101  C   UNL A   1      36.721  31.486  31.413  1.00  0.00     0.039 A 
ATOM    102  C   UNL A   1      37.874  32.234  31.190  1.00  0.00    -0.049 A 
ATOM    103  C   UNL A   1      36.567  30.683  32.550  1.00  0.00    -0.049 A 
ATOM    104  C   UNL A   1      38.894  32.178  32.132  1.00  0.00    -0.053 A 
ATOM    105  H   UNL A   1      37.967  32.816  30.343  1.00  0.00     0.063 H 
ATOM    106  C   UNL A   1      37.544  30.703  33.524  1.00  0.00    -0.053 A 
ATOM    107  H   UNL A   1      35.734  30.084  32.657  1.00  0.00     0.063 H 
ATOM    108  C   UNL A   1      38.727  31.424  33.306  1.00  0.00    -0.014 A 
ATOM    109  H   UNL A   1      39.774  32.692  31.969  1.00  0.00     0.063 H 
ATOM    110  H   UNL A   1      37.405  30.191  34.410  1.00  0.00     0.063 H 
BRANCH 108 111
ATOM    111  C   UNL A   1      39.812  31.312  34.300  1.00  0.00     0.031 A 
ATOM    112  C   UNL A   1      40.748  30.140  34.220  1.00  0.00     0.074 A 
ATOM    113  C   UNL A   1      39.906  32.217  35.290  1.00  0.00     0.049 A 
ATOM    114  N   UNL A   1      41.717  29.799  35.026  1.00  0.00    -0.248 NA
ATOM    115  C   UNL A   1      40.541  29.201  33.102  1.00  0.00    -0.034 C 
ATOM    116  C   UNL A   1      39.007  33.357  35.483  1.00  0.00    -0.036 A 
ATOM    117  N   UNL A   1      40.795  32.313  36.326  1.00  0.00    -0.354 N 
ATOM    118  C   UNL A   1      42.216  28.604  34.526  1.00  0.00     0.074 A 
ATOM    119  C   UNL A   1      41.405  28.241  33.389  1.00  0.00    -0.034 C 
ATOM    120  H   UNL A   1      39.890  29.273  32.304  1.00  0.00     0.065 H 
ATOM    121  C   UNL A   1      39.406  34.051  36.561  1.00  0.00    -0.036 A 
ATOM    122  H   UNL A   1      38.197  33.589  34.887  1.00  0.00     0.065 H 
ATOM    123  C   UNL A   1      40.560  33.384  37.154  1.00  0.00     0.049 A 
ATOM    124  H   UNL A   1      41.533  31.677  36.466  1.00  0.00     0.167 HD
ATOM    125  C   UNL A   1      43.278  27.892  34.964  1.00  0.00     0.037 A 
ATOM    126  H   UNL A   1      41.487  27.353  32.869  1.00  0.00     0.065 H 
ATOM    127  H   UNL A   1      38.967  34.917  36.913  1.00  0.00     0.065 H 
ATOM    128  C   UNL A   1      41.206  33.768  38.270  1.00  0.00     0.037 A 
ATOM    129  C   UNL A   1      44.097  28.292  36.075  1.00  0.00     0.049 A 
ATOM    130  C   UNL A   1      42.392  32.960  38.728  1.00  0.00     0.074 A 
ATOM    131  C   UNL A   1      45.245  27.692  36.560  1.00  0.00    -0.036 A 
ATOM    132  N   UNL A   1      43.850  29.399  36.874  1.00  0.00    -0.354 N 
ATOM    133  N   UNL A   1      42.911  31.877  38.200  1.00  0.00    -0.248 NA
ATOM    134  C   UNL A   1      43.086  33.431  39.933  1.00  0.00    -0.034 C 
ATOM    135  C   UNL A   1      45.659  28.403  37.689  1.00  0.00    -0.036 A 
ATOM    136  H   UNL A   1      45.713  26.866  36.157  1.00  0.00     0.065 H 
ATOM    137  C   UNL A   1      44.807  29.482  37.871  1.00  0.00     0.049 A 
ATOM    138  H   UNL A   1      43.104  30.031  36.751  1.00  0.00     0.167 HD
ATOM    139  C   UNL A   1      44.006  31.553  38.989  1.00  0.00     0.074 A 
ATOM    140  C   UNL A   1      44.089  32.568  40.019  1.00  0.00    -0.034 C 
ATOM    141  H   UNL A   1      42.856  34.226  40.550  1.00  0.00     0.065 H 
ATOM    142  H   UNL A   1      46.463  28.164  38.289  1.00  0.00     0.065 H 
ATOM    143  C   UNL A   1      44.864  30.509  38.879  1.00  0.00     0.037 A 
ATOM    144  H   UNL A   1      44.834  32.613  40.731  1.00  0.00     0.065 H 
BRANCH 125 145
ATOM    145  C   UNL A   1      43.615  26.620  34.242  1.00  0.00     0.064 A 
ATOM    146  C   UNL A   1      44.421  26.613  33.093  1.00  0.00     0.173 A 
ATOM    147  C   UNL A   1      43.158  25.388  34.730  1.00  0.00     0.173 A 
ATOM    148  F   UNL A   1      44.869  27.766  32.574  1.00  0.00    -0.203 F 
ATOM    149  C   UNL A   1      44.739  25.420  32.449  1.00  0.00     0.198 A 
ATOM    150  C   UNL A   1      43.505  24.195  34.102  1.00  0.00     0.198 A 
ATOM    151  F   UNL A   1      42.382  25.338  35.823  1.00  0.00    -0.203 F 
ATOM    152  F   UNL A   1      45.471  25.441  31.326  1.00  0.00    -0.200 F 
ATOM    153  C   UNL A   1      44.289  24.212  32.959  1.00  0.00     0.200 A 
ATOM    154  F   UNL A   1      43.079  23.027  34.604  1.00  0.00    -0.200 F 
ATOM    155  F   UNL A   1      44.609  23.064  32.346  1.00  0.00    -0.200 F 
ENDBRANCH 125 145
BRANCH 128 156
ATOM    156  C   UNL A   1      40.756  34.969  39.021  1.00  0.00     0.064 A 
ATOM    157  C   UNL A   1      39.682  34.901  39.920  1.00  0.00     0.173 A 
ATOM    158  C   UNL A   1      41.378  36.214  38.845  1.00  0.00     0.173 A 
ATOM    159  F   UNL A   1      39.044  33.738  40.114  1.00  0.00    -0.203 F 
ATOM    160  C   UNL A   1      39.226  36.037  40.587  1.00  0.00     0.198 A 
ATOM    161  C   UNL A   1      40.943  37.343  39.538  1.00  0.00     0.198 A 
ATOM    162  F   UNL A   1      42.417  36.334  38.006  1.00  0.00    -0.203 F 
ATOM    163  F   UNL A   1      38.160  35.955  41.394  1.00  0.00    -0.200 F 
ATOM    164  C   UNL A   1      39.859  37.256  40.398  1.00  0.00     0.200 A 
ATOM    165  F   UNL A   1      41.572  38.514  39.367  1.00  0.00    -0.200 F 
ATOM    166  F   UNL A   1      39.421  38.348  41.038  1.00  0.00    -0.200 F 
ENDBRANCH 128 156
BRANCH 143 167
ATOM    167  C   UNL A   1      45.981  30.433  39.878  1.00  0.00     0.064 A 
ATOM    168  C   UNL A   1      47.215  31.058  39.650  1.00  0.00     0.173 A 
ATOM    169  C   UNL A   1      45.795  29.766  41.099  1.00  0.00     0.173 A 
ATOM    170  F   UNL A   1      47.446  31.697  38.493  1.00  0.00    -0.203 F 
ATOM    171  C   UNL A   1      48.235  30.991  40.596  1.00  0.00     0.198 A 
ATOM    172  C   UNL A   1      46.803  29.733  42.057  1.00  0.00     0.198 A 
ATOM    173  F   UNL A   1      44.629  29.162  41.370  1.00  0.00    -0.203 F 
ATOM    174  F   UNL A   1      49.425  31.549  40.334  1.00  0.00    -0.200 F 
ATOM    175  C   UNL A   1      48.025  30.337  41.801  1.00  0.00     0.200 A 
ATOM    176  F   UNL A   1      46.593  29.118  43.229  1.00  0.00    -0.200 F 
ATOM    177  F   UNL A   1      49.004  30.284  42.714  1.00  0.00    -0.200 F 
ENDBRANCH 143 167
ENDBRANCH 108 111
ENDBRANCH  98 101
ENDBRANCH  94  97
ENDBRANCH  91  94
ENDBRANCH  88  91
ENDBRANCH  85  88
ENDBRANCH  82  85
ENDBRANCH   1  82
TORSDOF 26
ENDMDL
MODEL 8
REMARK VINA RESULT:     -10.9      4.151      9.932
REMARK SMILES C=C[C@@H]1[C@@H](O)C[C@H]2[C@]3(CC[C@]4(C)[C@@H]([C@H](C)CCC=C(C)C)CC[C@]24C)C[C@]13CCC(=O)NCCCCCCNC(=O)c1ccc(-c2c3nc(c(-c4c(F)c(F)c(F)c(F)c4F)c4ccc([nH]4)c(-c4c(F)c(F)c(F)c(F)c4F)c4nc(c(-c5c(F)c(F)c(F)c(F)c5F)c5ccc2[nH]5)C=C4)C=C3)cc1
REMARK SMILES IDX 33 1 32 4 30 5 31 6 29 8 28 11 27 14 3 15 4 16 6 18 8 20
REMARK SMILES IDX 26 21 7 22 9 25 24 28 10 30 11 33 23 34 13 37 22 38 2 44
REMARK SMILES IDX 1 45 5 49 25 51 12 55 14 59 16 61 17 64 18 67 19 68 20 70
REMARK SMILES IDX 21 74 15 78 34 82 35 85 36 88 37 91 38 94 39 97 40 98 41 100
REMARK SMILES IDX 42 101 43 102 104 103 44 104 103 106 45 108 46 111 47 112
REMARK SMILES IDX 97 113 48 114 102 115 96 116 98 117 49 118 101 119 95 121
REMARK SMILES IDX 94 123 50 125 82 128 62 129 81 130 63 131 66 132 80 133
REMARK SMILES IDX 99 134 64 135 65 137 79 139 100 140 67 143 51 145 52 146
REMARK SMILES IDX 60 147 53 148 54 149 58 150 61 151 55 152 56 153 59 154
REMARK SMILES IDX 57 155 83 156 84 157 92 158 85 159 86 160 90 161 93 162
REMARK SMILES IDX 87 163 88 164 91 165 89 166 68 167 69 168 77 169 70 170
REMARK SMILES IDX 71 171 75 172 78 173 72 174 73 175 76 176 74 177
REMARK H PARENT 33 2 33 3 32 7 29 9 29 10 28 12 28 13 3 17 4 19 6 23 6 24
REMARK H PARENT 26 26 26 27 7 29 9 31 9 32 10 35 10 36 23 39 23 40 13 41 22 42
REMARK H PARENT 22 43 1 46 1 47 2 48 5 50 25 52 25 53 25 54 12 56 12 57 12 58
REMARK H PARENT 14 60 16 62 16 63 17 65 17 66 18 69 20 71 20 72 20 73 21 75
REMARK H PARENT 21 76 21 77 15 79 15 80 15 81 34 83 34 84 35 86 35 87 36 89
REMARK H PARENT 36 90 37 92 37 93 38 95 38 96 39 99 43 105 104 107 44 109
REMARK H PARENT 103 110 102 120 96 122 98 124 101 126 95 127 63 136 66 138
REMARK H PARENT 99 141 64 142 100 144
REMARK Flexibility Score: inf
ROOT
ATOM      1  C   UNL A   1      38.996  24.408  26.639  1.00  0.00     0.017 C 
ATOM      2  H   UNL A   1      38.087  24.899  26.364  1.00  0.00     0.049 H 
ATOM      3  H   UNL A   1      39.966  24.411  26.185  1.00  0.00     0.049 H 
ENDROOT
BRANCH   1   4
ATOM      4  N   UNL A   1      38.704  22.955  26.326  1.00  0.00    -0.356 N 
ATOM      5  C   UNL A   1      37.926  22.440  25.333  1.00  0.00     0.220 C 
ATOM      6  O   UNL A   1      38.019  21.255  25.023  1.00  0.00    -0.275 OA
ATOM      7  H   UNL A   1      39.131  22.297  26.919  1.00  0.00     0.163 HD
BRANCH   5   8
ATOM      8  C   UNL A   1      36.979  23.388  24.653  1.00  0.00     0.027 C 
ATOM      9  H   UNL A   1      36.283  23.757  25.379  1.00  0.00     0.037 H 
ATOM     10  H   UNL A   1      37.559  24.179  24.227  1.00  0.00     0.037 H 
BRANCH   8  11
ATOM     11  C   UNL A   1      36.198  22.722  23.522  1.00  0.00    -0.038 C 
ATOM     12  H   UNL A   1      36.265  23.347  22.656  1.00  0.00     0.028 H 
ATOM     13  H   UNL A   1      36.636  21.758  23.372  1.00  0.00     0.028 H 
BRANCH  11  14
ATOM     14  C   UNL A   1      34.710  22.491  23.837  1.00  0.00    -0.014 C 
ATOM     15  C   UNL A   1      34.573  21.143  25.248  1.00  0.00     0.009 C 
ATOM     16  C   UNL A   1      33.485  21.616  26.848  1.00  0.00     0.061 C 
ATOM     17  H   UNL A   1      35.540  21.153  25.707  1.00  0.00     0.038 H 
ATOM     18  C   UNL A   1      32.264  23.178  26.731  1.00  0.00    -0.022 C 
ATOM     19  H   UNL A   1      32.841  20.763  26.895  1.00  0.00     0.061 H 
ATOM     20  C   UNL A   1      33.531  23.969  23.721  1.00  0.00    -0.019 C 
ATOM     21  C   UNL A   1      33.675  22.827  22.696  1.00  0.00    -0.040 C 
ATOM     22  C   UNL A   1      32.383  24.359  25.183  1.00  0.00    -0.027 C 
ATOM     23  H   UNL A   1      32.441  23.779  27.598  1.00  0.00     0.030 H 
ATOM     24  H   UNL A   1      31.293  22.738  26.643  1.00  0.00     0.030 H 
ATOM     25  C   UNL A   1      33.946  25.344  23.168  1.00  0.00    -0.046 C 
ATOM     26  H   UNL A   1      34.070  23.079  21.733  1.00  0.00     0.028 H 
ATOM     27  H   UNL A   1      32.908  22.199  22.293  1.00  0.00     0.028 H 
ATOM     28  C   UNL A   1      31.195  25.270  24.679  1.00  0.00    -0.023 C 
ATOM     29  H   UNL A   1      32.902  24.941  25.917  1.00  0.00     0.032 H 
ATOM     30  C   UNL A   1      32.732  26.225  22.846  1.00  0.00    -0.046 C 
ATOM     31  H   UNL A   1      34.514  25.199  22.273  1.00  0.00     0.027 H 
ATOM     32  H   UNL A   1      34.526  25.841  23.918  1.00  0.00     0.027 H 
ATOM     33  C   UNL A   1      31.795  26.620  24.037  1.00  0.00    -0.024 C 
ATOM     34  C   UNL A   1      30.466  25.818  25.902  1.00  0.00    -0.047 C 
ATOM     35  H   UNL A   1      32.135  25.700  22.129  1.00  0.00     0.027 H 
ATOM     36  H   UNL A   1      33.146  27.150  22.505  1.00  0.00     0.027 H 
ATOM     37  C   UNL A   1      32.414  27.296  25.324  1.00  0.00    -0.033 C 
ATOM     38  C   UNL A   1      31.419  26.890  26.468  1.00  0.00    -0.049 C 
ATOM     39  H   UNL A   1      29.530  26.253  25.622  1.00  0.00     0.027 H 
ATOM     40  H   UNL A   1      30.240  25.055  26.618  1.00  0.00     0.027 H 
ATOM     41  H   UNL A   1      33.421  26.934  25.340  1.00  0.00     0.031 H 
ATOM     42  H   UNL A   1      30.858  27.745  26.783  1.00  0.00     0.027 H 
ATOM     43  H   UNL A   1      31.954  26.507  27.312  1.00  0.00     0.027 H 
BRANCH  15  44
ATOM     44  C   UNL A   1      34.432  19.705  24.704  1.00  0.00    -0.085 C 
ATOM     45  C   UNL A   1      33.309  19.060  24.349  1.00  0.00    -0.103 C 
ATOM     46  H   UNL A   1      33.360  18.091  23.998  1.00  0.00     0.053 H 
ATOM     47  H   UNL A   1      32.395  19.534  24.427  1.00  0.00     0.053 H 
ATOM     48  H   UNL A   1      35.310  19.172  24.600  1.00  0.00     0.057 H 
ENDBRANCH  15  44
BRANCH  16  49
ATOM     49  O   UNL A   1      34.292  21.753  28.048  1.00  0.00    -0.392 OA
ATOM     50  H   UNL A   1      34.921  22.483  27.934  1.00  0.00     0.210 HD
ENDBRANCH  16  49
BRANCH  28  51
ATOM     51  C   UNL A   1      30.266  24.535  23.702  1.00  0.00    -0.059 C 
ATOM     52  H   UNL A   1      29.427  24.141  24.236  1.00  0.00     0.024 H 
ATOM     53  H   UNL A   1      30.800  23.734  23.236  1.00  0.00     0.024 H 
ATOM     54  H   UNL A   1      29.924  25.219  22.953  1.00  0.00     0.024 H 
ENDBRANCH  28  51
BRANCH  33  55
ATOM     55  C   UNL A   1      30.725  27.583  23.464  1.00  0.00    -0.059 C 
ATOM     56  H   UNL A   1      30.311  28.168  24.259  1.00  0.00     0.024 H 
ATOM     57  H   UNL A   1      29.948  27.015  22.996  1.00  0.00     0.024 H 
ATOM     58  H   UNL A   1      31.178  28.231  22.742  1.00  0.00     0.024 H 
ENDBRANCH  33  55
BRANCH  37  59
ATOM     59  C   UNL A   1      33.056  28.707  25.442  1.00  0.00    -0.041 C 
ATOM     60  H   UNL A   1      32.185  29.290  25.659  1.00  0.00     0.030 H 
BRANCH  59  61
ATOM     61  C   UNL A   1      34.043  28.846  26.620  1.00  0.00    -0.047 C 
ATOM     62  H   UNL A   1      35.027  28.968  26.217  1.00  0.00     0.027 H 
ATOM     63  H   UNL A   1      33.935  27.960  27.210  1.00  0.00     0.027 H 
BRANCH  61  64
ATOM     64  C   UNL A   1      33.764  30.024  27.559  1.00  0.00    -0.035 C 
ATOM     65  H   UNL A   1      33.484  29.642  28.518  1.00  0.00     0.031 H 
ATOM     66  H   UNL A   1      32.978  30.609  27.130  1.00  0.00     0.031 H 
BRANCH  64  67
ATOM     67  C   UNL A   1      34.972  30.920  27.726  1.00  0.00    -0.086 C 
ATOM     68  C   UNL A   1      34.957  32.251  27.941  1.00  0.00    -0.080 C 
ATOM     69  H   UNL A   1      35.898  30.468  27.668  1.00  0.00     0.058 H 
BRANCH  68  70
ATOM     70  C   UNL A   1      36.227  33.034  28.138  1.00  0.00    -0.044 C 
ATOM     71  H   UNL A   1      36.550  32.940  29.155  1.00  0.00     0.028 H 
ATOM     72  H   UNL A   1      36.049  34.065  27.915  1.00  0.00     0.028 H 
ATOM     73  H   UNL A   1      36.986  32.654  27.487  1.00  0.00     0.028 H 
ENDBRANCH  68  70
BRANCH  68  74
ATOM     74  C   UNL A   1      33.695  33.069  27.995  1.00  0.00    -0.044 C 
ATOM     75  H   UNL A   1      32.860  32.452  27.738  1.00  0.00     0.028 H 
ATOM     76  H   UNL A   1      33.765  33.880  27.301  1.00  0.00     0.028 H 
ATOM     77  H   UNL A   1      33.563  33.455  28.984  1.00  0.00     0.028 H 
ENDBRANCH  68  74
ENDBRANCH  64  67
ENDBRANCH  61  64
ENDBRANCH  59  61
BRANCH  59  78
ATOM     78  C   UNL A   1      33.599  29.363  24.169  1.00  0.00    -0.062 C 
ATOM     79  H   UNL A   1      34.659  29.224  24.120  1.00  0.00     0.023 H 
ATOM     80  H   UNL A   1      33.377  30.409  24.185  1.00  0.00     0.023 H 
ATOM     81  H   UNL A   1      33.140  28.914  23.313  1.00  0.00     0.023 H 
ENDBRANCH  59  78
ENDBRANCH  37  59
ENDBRANCH  11  14
ENDBRANCH   8  11
ENDBRANCH   5   8
ENDBRANCH   1   4
BRANCH   1  82
ATOM     82  C   UNL A   1      39.592  25.454  28.364  1.00  0.00    -0.036 C 
ATOM     83  H   UNL A   1      40.635  25.220  28.408  1.00  0.00     0.028 H 
ATOM     84  H   UNL A   1      38.712  25.175  28.903  1.00  0.00     0.028 H 
BRANCH  82  85
ATOM     85  C   UNL A   1      39.571  27.078  28.993  1.00  0.00    -0.052 C 
ATOM     86  H   UNL A   1      40.521  27.199  29.469  1.00  0.00     0.027 H 
ATOM     87  H   UNL A   1      38.637  27.042  29.515  1.00  0.00     0.027 H 
BRANCH  85  88
ATOM     88  C   UNL A   1      39.355  28.390  28.203  1.00  0.00    -0.052 C 
ATOM     89  H   UNL A   1      39.251  28.147  27.167  1.00  0.00     0.027 H 
ATOM     90  H   UNL A   1      40.205  29.012  28.396  1.00  0.00     0.027 H 
BRANCH  88  91
ATOM     91  C   UNL A   1      38.123  29.175  28.639  1.00  0.00    -0.036 C 
ATOM     92  H   UNL A   1      37.473  28.525  29.185  1.00  0.00     0.028 H 
ATOM     93  H   UNL A   1      37.637  29.550  27.763  1.00  0.00     0.028 H 
BRANCH  91  94
ATOM     94  C   UNL A   1      38.498  30.350  29.518  1.00  0.00     0.018 C 
ATOM     95  H   UNL A   1      38.513  31.244  28.929  1.00  0.00     0.049 H 
ATOM     96  H   UNL A   1      39.467  30.180  29.940  1.00  0.00     0.049 H 
BRANCH  94  97
ATOM     97  N   UNL A   1      37.523  30.493  30.591  1.00  0.00    -0.352 N 
ATOM     98  C   UNL A   1      37.594  29.930  31.836  1.00  0.00     0.251 C 
ATOM     99  H   UNL A   1      36.736  31.051  30.402  1.00  0.00     0.163 HD
ATOM    100  O   UNL A   1      36.628  29.844  32.572  1.00  0.00    -0.269 OA
BRANCH  98 101
ATOM    101  C   UNL A   1      38.916  29.436  32.239  1.00  0.00     0.039 A 
ATOM    102  C   UNL A   1      39.103  28.075  32.467  1.00  0.00    -0.049 A 
ATOM    103  C   UNL A   1      39.984  30.341  32.242  1.00  0.00    -0.049 A 
ATOM    104  C   UNL A   1      40.392  27.612  32.697  1.00  0.00    -0.053 A 
ATOM    105  H   UNL A   1      38.301  27.426  32.463  1.00  0.00     0.063 H 
ATOM    106  C   UNL A   1      41.271  29.862  32.382  1.00  0.00    -0.053 A 
ATOM    107  H   UNL A   1      39.811  31.353  32.142  1.00  0.00     0.063 H 
ATOM    108  C   UNL A   1      41.480  28.501  32.644  1.00  0.00    -0.014 A 
ATOM    109  H   UNL A   1      40.552  26.614  32.908  1.00  0.00     0.063 H 
ATOM    110  H   UNL A   1      42.076  30.503  32.293  1.00  0.00     0.063 H 
BRANCH 108 111
ATOM    111  C   UNL A   1      42.853  28.043  32.930  1.00  0.00     0.031 A 
ATOM    112  C   UNL A   1      43.709  27.570  31.790  1.00  0.00     0.074 A 
ATOM    113  C   UNL A   1      43.290  27.997  34.201  1.00  0.00     0.049 A 
ATOM    114  N   UNL A   1      44.910  27.055  31.815  1.00  0.00    -0.248 NA
ATOM    115  C   UNL A   1      43.121  27.649  30.440  1.00  0.00    -0.034 C 
ATOM    116  C   UNL A   1      42.510  28.381  35.379  1.00  0.00    -0.036 A 
ATOM    117  N   UNL A   1      44.494  27.596  34.713  1.00  0.00    -0.354 N 
ATOM    118  C   UNL A   1      45.207  26.734  30.498  1.00  0.00     0.074 A 
ATOM    119  C   UNL A   1      44.041  27.047  29.705  1.00  0.00    -0.034 C 
ATOM    120  H   UNL A   1      42.223  28.066  30.146  1.00  0.00     0.065 H 
ATOM    121  C   UNL A   1      43.266  28.218  36.477  1.00  0.00    -0.036 A 
ATOM    122  H   UNL A   1      41.536  28.722  35.367  1.00  0.00     0.065 H 
ATOM    123  C   UNL A   1      44.564  27.681  36.082  1.00  0.00     0.049 A 
ATOM    124  H   UNL A   1      45.240  27.277  34.155  1.00  0.00     0.167 HD
ATOM    125  C   UNL A   1      46.363  26.249  29.995  1.00  0.00     0.037 A 
ATOM    126  H   UNL A   1      43.940  26.830  28.701  1.00  0.00     0.065 H 
ATOM    127  H   UNL A   1      42.975  28.436  37.443  1.00  0.00     0.065 H 
ATOM    128  C   UNL A   1      45.567  27.352  36.916  1.00  0.00     0.037 A 
ATOM    129  C   UNL A   1      47.526  25.981  30.796  1.00  0.00     0.049 A 
ATOM    130  C   UNL A   1      46.848  26.822  36.326  1.00  0.00     0.074 A 
ATOM    131  C   UNL A   1      48.778  25.563  30.386  1.00  0.00    -0.036 A 
ATOM    132  N   UNL A   1      47.573  26.107  32.177  1.00  0.00    -0.354 N 
ATOM    133  N   UNL A   1      47.152  26.602  35.068  1.00  0.00    -0.248 NA
ATOM    134  C   UNL A   1      47.927  26.504  37.268  1.00  0.00    -0.034 C 
ATOM    135  C   UNL A   1      49.566  25.379  31.525  1.00  0.00    -0.036 A 
ATOM    136  H   UNL A   1      49.078  25.414  29.410  1.00  0.00     0.065 H 
ATOM    137  C   UNL A   1      48.827  25.744  32.640  1.00  0.00     0.049 A 
ATOM    138  H   UNL A   1      46.827  26.410  32.744  1.00  0.00     0.167 HD
ATOM    139  C   UNL A   1      48.463  26.145  35.067  1.00  0.00     0.074 A 
ATOM    140  C   UNL A   1      48.903  26.142  36.446  1.00  0.00    -0.034 C 
ATOM    141  H   UNL A   1      47.928  26.550  38.299  1.00  0.00     0.065 H 
ATOM    142  H   UNL A   1      50.537  25.030  31.536  1.00  0.00     0.065 H 
ATOM    143  C   UNL A   1      49.235  25.757  34.022  1.00  0.00     0.037 A 
ATOM    144  H   UNL A   1      49.856  25.890  36.752  1.00  0.00     0.065 H 
BRANCH 125 145
ATOM    145  C   UNL A   1      46.430  25.984  28.519  1.00  0.00     0.064 A 
ATOM    146  C   UNL A   1      46.099  24.733  27.977  1.00  0.00     0.173 A 
ATOM    147  C   UNL A   1      46.791  27.008  27.633  1.00  0.00     0.173 A 
ATOM    148  F   UNL A   1      45.764  23.713  28.783  1.00  0.00    -0.203 F 
ATOM    149  C   UNL A   1      46.148  24.512  26.603  1.00  0.00     0.198 A 
ATOM    150  C   UNL A   1      46.807  26.793  26.257  1.00  0.00     0.198 A 
ATOM    151  F   UNL A   1      47.120  28.223  28.098  1.00  0.00    -0.203 F 
ATOM    152  F   UNL A   1      45.874  23.296  26.111  1.00  0.00    -0.200 F 
ATOM    153  C   UNL A   1      46.493  25.544  25.744  1.00  0.00     0.200 A 
ATOM    154  F   UNL A   1      47.129  27.796  25.428  1.00  0.00    -0.200 F 
ATOM    155  F   UNL A   1      46.525  25.334  24.421  1.00  0.00    -0.200 F 
ENDBRANCH 125 145
BRANCH 128 156
ATOM    156  C   UNL A   1      45.407  27.518  38.385  1.00  0.00     0.064 A 
ATOM    157  C   UNL A   1      44.885  26.487  39.178  1.00  0.00     0.173 A 
ATOM    158  C   UNL A   1      45.757  28.717  39.025  1.00  0.00     0.173 A 
ATOM    159  F   UNL A   1      44.522  25.326  38.613  1.00  0.00    -0.203 F 
ATOM    160  C   UNL A   1      44.687  26.659  40.547  1.00  0.00     0.198 A 
ATOM    161  C   UNL A   1      45.590  28.876  40.399  1.00  0.00     0.198 A 
ATOM    162  F   UNL A   1      46.272  29.732  38.316  1.00  0.00    -0.203 F 
ATOM    163  F   UNL A   1      44.130  25.678  41.270  1.00  0.00    -0.200 F 
ATOM    164  C   UNL A   1      45.043  27.852  41.157  1.00  0.00     0.200 A 
ATOM    165  F   UNL A   1      45.955  30.024  40.987  1.00  0.00    -0.200 F 
ATOM    166  F   UNL A   1      44.852  28.019  42.472  1.00  0.00    -0.200 F 
ENDBRANCH 128 156
BRANCH 143 167
ATOM    167  C   UNL A   1      50.639  25.328  34.330  1.00  0.00     0.064 A 
ATOM    168  C   UNL A   1      50.965  23.982  34.550  1.00  0.00     0.173 A 
ATOM    169  C   UNL A   1      51.678  26.271  34.357  1.00  0.00     0.173 A 
ATOM    170  F   UNL A   1      50.006  23.045  34.547  1.00  0.00    -0.203 F 
ATOM    171  C   UNL A   1      52.277  23.600  34.819  1.00  0.00     0.198 A 
ATOM    172  C   UNL A   1      52.993  25.881  34.589  1.00  0.00     0.198 A 
ATOM    173  F   UNL A   1      51.419  27.570  34.141  1.00  0.00    -0.203 F 
ATOM    174  F   UNL A   1      52.557  22.316  35.081  1.00  0.00    -0.200 F 
ATOM    175  C   UNL A   1      53.290  24.548  34.829  1.00  0.00     0.200 A 
ATOM    176  F   UNL A   1      53.973  26.795  34.579  1.00  0.00    -0.200 F 
ATOM    177  F   UNL A   1      54.553  24.176  35.076  1.00  0.00    -0.200 F 
ENDBRANCH 143 167
ENDBRANCH 108 111
ENDBRANCH  98 101
ENDBRANCH  94  97
ENDBRANCH  91  94
ENDBRANCH  88  91
ENDBRANCH  85  88
ENDBRANCH  82  85
ENDBRANCH   1  82
TORSDOF 26
ENDMDL
MODEL 9
REMARK VINA RESULT:     -10.9      3.753      9.764
REMARK SMILES C=C[C@@H]1[C@@H](O)C[C@H]2[C@]3(CC[C@]4(C)[C@@H]([C@H](C)CCC=C(C)C)CC[C@]24C)C[C@]13CCC(=O)NCCCCCCNC(=O)c1ccc(-c2c3nc(c(-c4c(F)c(F)c(F)c(F)c4F)c4ccc([nH]4)c(-c4c(F)c(F)c(F)c(F)c4F)c4nc(c(-c5c(F)c(F)c(F)c(F)c5F)c5ccc2[nH]5)C=C4)C=C3)cc1
REMARK SMILES IDX 33 1 32 4 30 5 31 6 29 8 28 11 27 14 3 15 4 16 6 18 8 20
REMARK SMILES IDX 26 21 7 22 9 25 24 28 10 30 11 33 23 34 13 37 22 38 2 44
REMARK SMILES IDX 1 45 5 49 25 51 12 55 14 59 16 61 17 64 18 67 19 68 20 70
REMARK SMILES IDX 21 74 15 78 34 82 35 85 36 88 37 91 38 94 39 97 40 98 41 100
REMARK SMILES IDX 42 101 43 102 104 103 44 104 103 106 45 108 46 111 47 112
REMARK SMILES IDX 97 113 48 114 102 115 96 116 98 117 49 118 101 119 95 121
REMARK SMILES IDX 94 123 50 125 82 128 62 129 81 130 63 131 66 132 80 133
REMARK SMILES IDX 99 134 64 135 65 137 79 139 100 140 67 143 51 145 52 146
REMARK SMILES IDX 60 147 53 148 54 149 58 150 61 151 55 152 56 153 59 154
REMARK SMILES IDX 57 155 83 156 84 157 92 158 85 159 86 160 90 161 93 162
REMARK SMILES IDX 87 163 88 164 91 165 89 166 68 167 69 168 77 169 70 170
REMARK SMILES IDX 71 171 75 172 78 173 72 174 73 175 76 176 74 177
REMARK H PARENT 33 2 33 3 32 7 29 9 29 10 28 12 28 13 3 17 4 19 6 23 6 24
REMARK H PARENT 26 26 26 27 7 29 9 31 9 32 10 35 10 36 23 39 23 40 13 41 22 42
REMARK H PARENT 22 43 1 46 1 47 2 48 5 50 25 52 25 53 25 54 12 56 12 57 12 58
REMARK H PARENT 14 60 16 62 16 63 17 65 17 66 18 69 20 71 20 72 20 73 21 75
REMARK H PARENT 21 76 21 77 15 79 15 80 15 81 34 83 34 84 35 86 35 87 36 89
REMARK H PARENT 36 90 37 92 37 93 38 95 38 96 39 99 43 105 104 107 44 109
REMARK H PARENT 103 110 102 120 96 122 98 124 101 126 95 127 63 136 66 138
REMARK H PARENT 99 141 64 142 100 144
REMARK Flexibility Score: inf
ROOT
ATOM      1  C   UNL A   1      39.327  24.744  26.498  1.00  0.00     0.017 C 
ATOM      2  H   UNL A   1      38.564  25.232  25.930  1.00  0.00     0.049 H 
ATOM      3  H   UNL A   1      40.374  24.620  26.315  1.00  0.00     0.049 H 
ENDROOT
BRANCH   1   4
ATOM      4  N   UNL A   1      38.986  23.278  26.334  1.00  0.00    -0.356 N 
ATOM      5  C   UNL A   1      38.076  22.706  25.496  1.00  0.00     0.220 C 
ATOM      6  O   UNL A   1      38.119  21.500  25.262  1.00  0.00    -0.275 OA
ATOM      7  H   UNL A   1      39.487  22.656  26.909  1.00  0.00     0.163 HD
BRANCH   5   8
ATOM      8  C   UNL A   1      37.049  23.618  24.886  1.00  0.00     0.027 C 
ATOM      9  H   UNL A   1      36.310  23.846  25.626  1.00  0.00     0.037 H 
ATOM     10  H   UNL A   1      37.555  24.500  24.551  1.00  0.00     0.037 H 
BRANCH   8  11
ATOM     11  C   UNL A   1      36.356  22.992  23.678  1.00  0.00    -0.038 C 
ATOM     12  H   UNL A   1      36.421  23.681  22.861  1.00  0.00     0.028 H 
ATOM     13  H   UNL A   1      36.856  22.067  23.481  1.00  0.00     0.028 H 
BRANCH  11  14
ATOM     14  C   UNL A   1      34.873  22.655  23.909  1.00  0.00    -0.014 C 
ATOM     15  C   UNL A   1      34.754  21.284  25.299  1.00  0.00     0.009 C 
ATOM     16  C   UNL A   1      33.552  21.662  26.841  1.00  0.00     0.061 C 
ATOM     17  H   UNL A   1      35.692  21.355  25.810  1.00  0.00     0.038 H 
ATOM     18  C   UNL A   1      32.233  23.137  26.671  1.00  0.00    -0.022 C 
ATOM     19  H   UNL A   1      32.967  20.765  26.846  1.00  0.00     0.061 H 
ATOM     20  C   UNL A   1      33.603  24.050  23.742  1.00  0.00    -0.019 C 
ATOM     21  C   UNL A   1      33.880  22.933  22.716  1.00  0.00    -0.040 C 
ATOM     22  C   UNL A   1      32.353  24.343  25.142  1.00  0.00    -0.027 C 
ATOM     23  H   UNL A   1      32.321  23.738  27.552  1.00  0.00     0.030 H 
ATOM     24  H   UNL A   1      31.301  22.632  26.527  1.00  0.00     0.030 H 
ATOM     25  C   UNL A   1      33.950  25.457  23.224  1.00  0.00    -0.046 C 
ATOM     26  H   UNL A   1      34.308  23.223  21.779  1.00  0.00     0.028 H 
ATOM     27  H   UNL A   1      33.181  22.259  22.266  1.00  0.00     0.028 H 
ATOM     28  C   UNL A   1      31.133  25.175  24.582  1.00  0.00    -0.023 C 
ATOM     29  H   UNL A   1      32.790  24.950  25.908  1.00  0.00     0.032 H 
ATOM     30  C   UNL A   1      32.697  26.256  22.844  1.00  0.00    -0.046 C 
ATOM     31  H   UNL A   1      34.574  25.362  22.360  1.00  0.00     0.027 H 
ATOM     32  H   UNL A   1      34.452  25.984  24.009  1.00  0.00     0.027 H 
ATOM     33  C   UNL A   1      31.672  26.571  23.985  1.00  0.00    -0.024 C 
ATOM     34  C   UNL A   1      30.304  25.657  25.768  1.00  0.00    -0.047 C 
ATOM     35  H   UNL A   1      32.178  25.700  22.091  1.00  0.00     0.027 H 
ATOM     36  H   UNL A   1      33.064  27.211  22.533  1.00  0.00     0.027 H 
ATOM     37  C   UNL A   1      32.173  27.273  25.310  1.00  0.00    -0.033 C 
ATOM     38  C   UNL A   1      31.148  26.785  26.394  1.00  0.00    -0.049 C 
ATOM     39  H   UNL A   1      29.356  26.030  25.441  1.00  0.00     0.027 H 
ATOM     40  H   UNL A   1      30.093  24.872  26.464  1.00  0.00     0.027 H 
ATOM     41  H   UNL A   1      33.200  26.980  25.378  1.00  0.00     0.031 H 
ATOM     42  H   UNL A   1      30.513  27.595  26.686  1.00  0.00     0.027 H 
ATOM     43  H   UNL A   1      31.662  26.430  27.262  1.00  0.00     0.027 H 
BRANCH  15  44
ATOM     44  C   UNL A   1      34.742  19.846  24.736  1.00  0.00    -0.085 C 
ATOM     45  C   UNL A   1      33.693  19.021  24.594  1.00  0.00    -0.103 C 
ATOM     46  H   UNL A   1      33.829  18.077  24.199  1.00  0.00     0.053 H 
ATOM     47  H   UNL A   1      32.750  19.331  24.879  1.00  0.00     0.053 H 
ATOM     48  H   UNL A   1      35.654  19.473  24.430  1.00  0.00     0.057 H 
ENDBRANCH  15  44
BRANCH  16  49
ATOM     49  O   UNL A   1      34.281  21.839  28.085  1.00  0.00    -0.392 OA
ATOM     50  H   UNL A   1      35.052  22.407  27.930  1.00  0.00     0.210 HD
ENDBRANCH  16  49
BRANCH  28  51
ATOM     51  C   UNL A   1      30.311  24.390  23.550  1.00  0.00    -0.059 C 
ATOM     52  H   UNL A   1      29.801  23.587  24.037  1.00  0.00     0.024 H 
ATOM     53  H   UNL A   1      30.964  23.996  22.800  1.00  0.00     0.024 H 
ATOM     54  H   UNL A   1      29.597  25.043  23.093  1.00  0.00     0.024 H 
ENDBRANCH  28  51
BRANCH  33  55
ATOM     55  C   UNL A   1      30.570  27.465  23.363  1.00  0.00    -0.059 C 
ATOM     56  H   UNL A   1      29.619  26.985  23.470  1.00  0.00     0.024 H 
ATOM     57  H   UNL A   1      30.779  27.617  22.325  1.00  0.00     0.024 H 
ATOM     58  H   UNL A   1      30.551  28.410  23.866  1.00  0.00     0.024 H 
ENDBRANCH  33  55
BRANCH  37  59
ATOM     59  C   UNL A   1      32.708  28.723  25.475  1.00  0.00    -0.041 C 
ATOM     60  H   UNL A   1      31.798  29.272  25.347  1.00  0.00     0.030 H 
BRANCH  59  61
ATOM     61  C   UNL A   1      33.268  29.025  26.881  1.00  0.00    -0.047 C 
ATOM     62  H   UNL A   1      34.310  28.780  26.883  1.00  0.00     0.027 H 
ATOM     63  H   UNL A   1      32.694  28.436  27.566  1.00  0.00     0.027 H 
BRANCH  61  64
ATOM     64  C   UNL A   1      33.119  30.480  27.335  1.00  0.00    -0.035 C 
ATOM     65  H   UNL A   1      32.568  30.501  28.252  1.00  0.00     0.031 H 
ATOM     66  H   UNL A   1      32.608  31.016  26.563  1.00  0.00     0.031 H 
BRANCH  64  67
ATOM     67  C   UNL A   1      34.458  31.148  27.557  1.00  0.00    -0.086 C 
ATOM     68  C   UNL A   1      34.661  32.430  27.925  1.00  0.00    -0.080 C 
ATOM     69  H   UNL A   1      35.298  30.567  27.411  1.00  0.00     0.058 H 
BRANCH  68  70
ATOM     70  C   UNL A   1      36.044  32.974  28.162  1.00  0.00    -0.044 C 
ATOM     71  H   UNL A   1      36.210  33.817  27.523  1.00  0.00     0.028 H 
ATOM     72  H   UNL A   1      36.767  32.215  27.945  1.00  0.00     0.028 H 
ATOM     73  H   UNL A   1      36.139  33.276  29.183  1.00  0.00     0.028 H 
ENDBRANCH  68  70
BRANCH  68  74
ATOM     74  C   UNL A   1      33.548  33.423  28.123  1.00  0.00    -0.044 C 
ATOM     75  H   UNL A   1      33.676  34.241  27.447  1.00  0.00     0.028 H 
ATOM     76  H   UNL A   1      33.569  33.787  29.129  1.00  0.00     0.028 H 
ATOM     77  H   UNL A   1      32.608  32.948  27.935  1.00  0.00     0.028 H 
ENDBRANCH  68  74
ENDBRANCH  64  67
ENDBRANCH  61  64
ENDBRANCH  59  61
BRANCH  59  78
ATOM     78  C   UNL A   1      33.609  29.290  24.374  1.00  0.00    -0.062 C 
ATOM     79  H   UNL A   1      33.056  29.358  23.460  1.00  0.00     0.023 H 
ATOM     80  H   UNL A   1      34.451  28.644  24.235  1.00  0.00     0.023 H 
ATOM     81  H   UNL A   1      33.950  30.264  24.658  1.00  0.00     0.023 H 
ENDBRANCH  59  78
ENDBRANCH  37  59
ENDBRANCH  11  14
ENDBRANCH   8  11
ENDBRANCH   5   8
ENDBRANCH   1   4
BRANCH   1  82
ATOM     82  C   UNL A   1      39.574  26.024  28.149  1.00  0.00    -0.036 C 
ATOM     83  H   UNL A   1      40.613  26.267  28.080  1.00  0.00     0.028 H 
ATOM     84  H   UNL A   1      38.960  25.418  28.780  1.00  0.00     0.028 H 
BRANCH  82  85
ATOM     85  C   UNL A   1      38.910  27.507  28.777  1.00  0.00    -0.052 C 
ATOM     86  H   UNL A   1      39.412  27.656  29.710  1.00  0.00     0.027 H 
ATOM     87  H   UNL A   1      37.870  27.276  28.684  1.00  0.00     0.027 H 
BRANCH  85  88
ATOM     88  C   UNL A   1      38.910  28.898  28.102  1.00  0.00    -0.052 C 
ATOM     89  H   UNL A   1      38.677  28.770  27.066  1.00  0.00     0.027 H 
ATOM     90  H   UNL A   1      39.883  29.317  28.255  1.00  0.00     0.027 H 
BRANCH  88  91
ATOM     91  C   UNL A   1      37.907  29.874  28.705  1.00  0.00    -0.036 C 
ATOM     92  H   UNL A   1      37.335  30.315  27.916  1.00  0.00     0.028 H 
ATOM     93  H   UNL A   1      38.448  30.621  29.246  1.00  0.00     0.028 H 
BRANCH  91  94
ATOM     94  C   UNL A   1      36.966  29.178  29.666  1.00  0.00     0.018 C 
ATOM     95  H   UNL A   1      37.503  28.430  30.210  1.00  0.00     0.049 H 
ATOM     96  H   UNL A   1      36.171  28.721  29.113  1.00  0.00     0.049 H 
BRANCH  94  97
ATOM     97  N   UNL A   1      36.407  30.148  30.599  1.00  0.00    -0.352 N 
ATOM     98  C   UNL A   1      36.876  30.437  31.852  1.00  0.00     0.251 C 
ATOM     99  H   UNL A   1      35.614  30.645  30.297  1.00  0.00     0.163 HD
ATOM    100  O   UNL A   1      36.207  31.028  32.680  1.00  0.00    -0.269 OA
BRANCH  98 101
ATOM    101  C   UNL A   1      38.245  29.994  32.139  1.00  0.00     0.039 A 
ATOM    102  C   UNL A   1      38.478  28.672  32.506  1.00  0.00    -0.049 A 
ATOM    103  C   UNL A   1      39.291  30.891  31.894  1.00  0.00    -0.049 A 
ATOM    104  C   UNL A   1      39.793  28.238  32.624  1.00  0.00    -0.053 A 
ATOM    105  H   UNL A   1      37.691  28.028  32.685  1.00  0.00     0.063 H 
ATOM    106  C   UNL A   1      40.592  30.431  31.925  1.00  0.00    -0.053 A 
ATOM    107  H   UNL A   1      39.092  31.884  31.694  1.00  0.00     0.063 H 
ATOM    108  C   UNL A   1      40.852  29.112  32.323  1.00  0.00    -0.014 A 
ATOM    109  H   UNL A   1      39.992  27.273  32.934  1.00  0.00     0.063 H 
ATOM    110  H   UNL A   1      41.370  31.054  31.656  1.00  0.00     0.063 H 
BRANCH 108 111
ATOM    111  C   UNL A   1      42.257  28.690  32.484  1.00  0.00     0.031 A 
ATOM    112  C   UNL A   1      42.932  27.976  31.349  1.00  0.00     0.074 A 
ATOM    113  C   UNL A   1      42.884  28.894  33.656  1.00  0.00     0.049 A 
ATOM    114  N   UNL A   1      44.127  27.449  31.297  1.00  0.00    -0.248 NA
ATOM    115  C   UNL A   1      42.143  27.792  30.117  1.00  0.00    -0.034 C 
ATOM    116  C   UNL A   1      42.291  29.528  34.835  1.00  0.00    -0.036 A 
ATOM    117  N   UNL A   1      44.156  28.578  34.051  1.00  0.00    -0.354 N 
ATOM    118  C   UNL A   1      44.221  26.860  30.043  1.00  0.00     0.074 A 
ATOM    119  C   UNL A   1      42.945  27.031  29.390  1.00  0.00    -0.034 C 
ATOM    120  H   UNL A   1      41.207  28.161  29.884  1.00  0.00     0.065 H 
ATOM    121  C   UNL A   1      43.208  29.574  35.816  1.00  0.00    -0.036 A 
ATOM    122  H   UNL A   1      41.324  29.882  34.903  1.00  0.00     0.065 H 
ATOM    123  C   UNL A   1      44.435  28.939  35.347  1.00  0.00     0.049 A 
ATOM    124  H   UNL A   1      44.810  28.135  33.463  1.00  0.00     0.167 HD
ATOM    125  C   UNL A   1      45.291  26.257  29.480  1.00  0.00     0.037 A 
ATOM    126  H   UNL A   1      42.692  26.617  28.479  1.00  0.00     0.065 H 
ATOM    127  H   UNL A   1      43.066  29.991  36.749  1.00  0.00     0.065 H 
ATOM    128  C   UNL A   1      45.557  28.763  36.068  1.00  0.00     0.037 A 
ATOM    129  C   UNL A   1      46.565  26.131  30.133  1.00  0.00     0.049 A 
ATOM    130  C   UNL A   1      46.736  28.096  35.411  1.00  0.00     0.074 A 
ATOM    131  C   UNL A   1      47.743  25.610  29.632  1.00  0.00    -0.036 A 
ATOM    132  N   UNL A   1      46.823  26.535  31.435  1.00  0.00    -0.354 N 
ATOM    133  N   UNL A   1      46.846  27.617  34.194  1.00  0.00    -0.248 NA
ATOM    134  C   UNL A   1      47.951  27.951  36.223  1.00  0.00    -0.034 C 
ATOM    135  C   UNL A   1      48.698  25.643  30.651  1.00  0.00    -0.036 A 
ATOM    136  H   UNL A   1      47.890  25.258  28.673  1.00  0.00     0.065 H 
ATOM    137  C   UNL A   1      48.135  26.244  31.767  1.00  0.00     0.049 A 
ATOM    138  H   UNL A   1      46.169  26.963  32.035  1.00  0.00     0.167 HD
ATOM    139  C   UNL A   1      48.145  27.140  34.086  1.00  0.00     0.074 A 
ATOM    140  C   UNL A   1      48.791  27.407  35.354  1.00  0.00    -0.034 C 
ATOM    141  H   UNL A   1      48.109  28.206  37.210  1.00  0.00     0.065 H 
ATOM    142  H   UNL A   1      49.662  25.281  30.585  1.00  0.00     0.065 H 
ATOM    143  C   UNL A   1      48.750  26.529  33.038  1.00  0.00     0.037 A 
ATOM    144  H   UNL A   1      49.782  27.201  35.556  1.00  0.00     0.065 H 
BRANCH 125 145
ATOM    145  C   UNL A   1      45.132  25.695  28.098  1.00  0.00     0.064 A 
ATOM    146  C   UNL A   1      45.394  26.463  26.953  1.00  0.00     0.173 A 
ATOM    147  C   UNL A   1      44.752  24.358  27.917  1.00  0.00     0.173 A 
ATOM    148  F   UNL A   1      45.743  27.753  27.069  1.00  0.00    -0.203 F 
ATOM    149  C   UNL A   1      45.260  25.918  25.678  1.00  0.00     0.198 A 
ATOM    150  C   UNL A   1      44.651  23.807  26.643  1.00  0.00     0.198 A 
ATOM    151  F   UNL A   1      44.486  23.580  28.978  1.00  0.00    -0.203 F 
ATOM    152  F   UNL A   1      45.469  26.684  24.598  1.00  0.00    -0.200 F 
ATOM    153  C   UNL A   1      44.898  24.588  25.525  1.00  0.00     0.200 A 
ATOM    154  F   UNL A   1      44.312  22.518  26.497  1.00  0.00    -0.200 F 
ATOM    155  F   UNL A   1      44.784  24.061  24.297  1.00  0.00    -0.200 F 
ENDBRANCH 125 145
BRANCH 128 156
ATOM    156  C   UNL A   1      45.623  29.229  37.478  1.00  0.00     0.064 A 
ATOM    157  C   UNL A   1      45.973  30.549  37.790  1.00  0.00     0.173 A 
ATOM    158  C   UNL A   1      45.353  28.359  38.546  1.00  0.00     0.173 A 
ATOM    159  F   UNL A   1      46.255  31.417  36.806  1.00  0.00    -0.203 F 
ATOM    160  C   UNL A   1      46.085  30.974  39.112  1.00  0.00     0.198 A 
ATOM    161  C   UNL A   1      45.432  28.793  39.868  1.00  0.00     0.198 A 
ATOM    162  F   UNL A   1      45.001  27.087  38.305  1.00  0.00    -0.203 F 
ATOM    163  F   UNL A   1      46.480  32.225  39.381  1.00  0.00    -0.200 F 
ATOM    164  C   UNL A   1      45.811  30.097  40.151  1.00  0.00     0.200 A 
ATOM    165  F   UNL A   1      45.146  27.947  40.867  1.00  0.00    -0.200 F 
ATOM    166  F   UNL A   1      45.919  30.504  41.422  1.00  0.00    -0.200 F 
ENDBRANCH 128 156
BRANCH 143 167
ATOM    167  C   UNL A   1      50.189  26.140  33.210  1.00  0.00     0.064 A 
ATOM    168  C   UNL A   1      51.230  27.044  32.955  1.00  0.00     0.173 A 
ATOM    169  C   UNL A   1      50.526  24.862  33.681  1.00  0.00     0.173 A 
ATOM    170  F   UNL A   1      50.960  28.274  32.492  1.00  0.00    -0.203 F 
ATOM    171  C   UNL A   1      52.560  26.672  33.136  1.00  0.00     0.198 A 
ATOM    172  C   UNL A   1      51.854  24.505  33.896  1.00  0.00     0.198 A 
ATOM    173  F   UNL A   1      49.566  23.965  33.950  1.00  0.00    -0.203 F 
ATOM    174  F   UNL A   1      53.541  27.534  32.835  1.00  0.00    -0.200 F 
ATOM    175  C   UNL A   1      52.869  25.407  33.615  1.00  0.00     0.200 A 
ATOM    176  F   UNL A   1      52.151  23.290  34.376  1.00  0.00    -0.200 F 
ATOM    177  F   UNL A   1      54.148  25.055  33.799  1.00  0.00    -0.200 F 
ENDBRANCH 143 167
ENDBRANCH 108 111
ENDBRANCH  98 101
ENDBRANCH  94  97
ENDBRANCH  91  94
ENDBRANCH  88  91
ENDBRANCH  85  88
ENDBRANCH  82  85
ENDBRANCH   1  82
TORSDOF 26
ENDMDL
MODEL 10
REMARK VINA RESULT:     -10.8      2.921      6.179
REMARK SMILES C=C[C@@H]1[C@@H](O)C[C@H]2[C@]3(CC[C@]4(C)[C@@H]([C@H](C)CCC=C(C)C)CC[C@]24C)C[C@]13CCC(=O)NCCCCCCNC(=O)c1ccc(-c2c3nc(c(-c4c(F)c(F)c(F)c(F)c4F)c4ccc([nH]4)c(-c4c(F)c(F)c(F)c(F)c4F)c4nc(c(-c5c(F)c(F)c(F)c(F)c5F)c5ccc2[nH]5)C=C4)C=C3)cc1
REMARK SMILES IDX 33 1 32 4 30 5 31 6 29 8 28 11 27 14 3 15 4 16 6 18 8 20
REMARK SMILES IDX 26 21 7 22 9 25 24 28 10 30 11 33 23 34 13 37 22 38 2 44
REMARK SMILES IDX 1 45 5 49 25 51 12 55 14 59 16 61 17 64 18 67 19 68 20 70
REMARK SMILES IDX 21 74 15 78 34 82 35 85 36 88 37 91 38 94 39 97 40 98 41 100
REMARK SMILES IDX 42 101 43 102 104 103 44 104 103 106 45 108 46 111 47 112
REMARK SMILES IDX 97 113 48 114 102 115 96 116 98 117 49 118 101 119 95 121
REMARK SMILES IDX 94 123 50 125 82 128 62 129 81 130 63 131 66 132 80 133
REMARK SMILES IDX 99 134 64 135 65 137 79 139 100 140 67 143 51 145 52 146
REMARK SMILES IDX 60 147 53 148 54 149 58 150 61 151 55 152 56 153 59 154
REMARK SMILES IDX 57 155 83 156 84 157 92 158 85 159 86 160 90 161 93 162
REMARK SMILES IDX 87 163 88 164 91 165 89 166 68 167 69 168 77 169 70 170
REMARK SMILES IDX 71 171 75 172 78 173 72 174 73 175 76 176 74 177
REMARK H PARENT 33 2 33 3 32 7 29 9 29 10 28 12 28 13 3 17 4 19 6 23 6 24
REMARK H PARENT 26 26 26 27 7 29 9 31 9 32 10 35 10 36 23 39 23 40 13 41 22 42
REMARK H PARENT 22 43 1 46 1 47 2 48 5 50 25 52 25 53 25 54 12 56 12 57 12 58
REMARK H PARENT 14 60 16 62 16 63 17 65 17 66 18 69 20 71 20 72 20 73 21 75
REMARK H PARENT 21 76 21 77 15 79 15 80 15 81 34 83 34 84 35 86 35 87 36 89
REMARK H PARENT 36 90 37 92 37 93 38 95 38 96 39 99 43 105 104 107 44 109
REMARK H PARENT 103 110 102 120 96 122 98 124 101 126 95 127 63 136 66 138
REMARK H PARENT 99 141 64 142 100 144
REMARK Flexibility Score: inf
ROOT
ATOM      1  C   UNL A   1      38.464  24.993  27.468  1.00  0.00     0.017 C 
ATOM      2  H   UNL A   1      38.132  24.829  28.472  1.00  0.00     0.049 H 
ATOM      3  H   UNL A   1      37.938  25.322  26.595  1.00  0.00     0.049 H 
ENDROOT
BRANCH   1   4
ATOM      4  N   UNL A   1      38.705  23.587  26.958  1.00  0.00    -0.356 N 
ATOM      5  C   UNL A   1      38.249  23.009  25.812  1.00  0.00     0.220 C 
ATOM      6  O   UNL A   1      38.763  21.976  25.390  1.00  0.00    -0.275 OA
ATOM      7  H   UNL A   1      39.265  23.016  27.531  1.00  0.00     0.163 HD
BRANCH   5   8
ATOM      8  C   UNL A   1      37.114  23.700  25.110  1.00  0.00     0.027 C 
ATOM      9  H   UNL A   1      36.316  23.846  25.808  1.00  0.00     0.037 H 
ATOM     10  H   UNL A   1      37.482  24.631  24.733  1.00  0.00     0.037 H 
BRANCH   8  11
ATOM     11  C   UNL A   1      36.585  22.896  23.924  1.00  0.00    -0.038 C 
ATOM     12  H   UNL A   1      36.704  23.486  23.039  1.00  0.00     0.028 H 
ATOM     13  H   UNL A   1      37.146  21.986  23.894  1.00  0.00     0.028 H 
BRANCH  11  14
ATOM     14  C   UNL A   1      35.103  22.500  24.045  1.00  0.00    -0.014 C 
ATOM     15  C   UNL A   1      34.923  21.192  25.487  1.00  0.00     0.009 C 
ATOM     16  C   UNL A   1      33.574  21.583  26.900  1.00  0.00     0.061 C 
ATOM     17  H   UNL A   1      35.808  21.330  26.072  1.00  0.00     0.038 H 
ATOM     18  C   UNL A   1      32.214  22.985  26.544  1.00  0.00    -0.022 C 
ATOM     19  H   UNL A   1      33.030  20.662  26.900  1.00  0.00     0.061 H 
ATOM     20  C   UNL A   1      33.793  23.824  23.700  1.00  0.00    -0.019 C 
ATOM     21  C   UNL A   1      34.207  22.675  22.759  1.00  0.00    -0.040 C 
ATOM     22  C   UNL A   1      32.415  24.122  24.972  1.00  0.00    -0.027 C 
ATOM     23  H   UNL A   1      32.197  23.630  27.397  1.00  0.00     0.030 H 
ATOM     24  H   UNL A   1      31.320  22.431  26.347  1.00  0.00     0.030 H 
ATOM     25  C   UNL A   1      34.123  25.220  23.143  1.00  0.00    -0.046 C 
ATOM     26  H   UNL A   1      34.702  22.941  21.848  1.00  0.00     0.028 H 
ATOM     27  H   UNL A   1      33.580  21.948  22.286  1.00  0.00     0.028 H 
ATOM     28  C   UNL A   1      31.214  24.869  24.268  1.00  0.00    -0.023 C 
ATOM     29  H   UNL A   1      32.756  24.784  25.740  1.00  0.00     0.032 H 
ATOM     30  C   UNL A   1      32.875  25.940  22.617  1.00  0.00    -0.046 C 
ATOM     31  H   UNL A   1      34.824  25.115  22.341  1.00  0.00     0.027 H 
ATOM     32  H   UNL A   1      34.532  25.806  23.940  1.00  0.00     0.027 H 
ATOM     33  C   UNL A   1      31.742  26.259  23.649  1.00  0.00    -0.024 C 
ATOM     34  C   UNL A   1      30.263  25.366  25.353  1.00  0.00    -0.047 C 
ATOM     35  H   UNL A   1      32.448  25.326  21.852  1.00  0.00     0.027 H 
ATOM     36  H   UNL A   1      33.226  26.896  22.291  1.00  0.00     0.027 H 
ATOM     37  C   UNL A   1      32.094  27.045  24.975  1.00  0.00    -0.033 C 
ATOM     38  C   UNL A   1      31.000  26.560  25.991  1.00  0.00    -0.049 C 
ATOM     39  H   UNL A   1      29.333  25.677  24.928  1.00  0.00     0.027 H 
ATOM     40  H   UNL A   1      30.026  24.605  26.067  1.00  0.00     0.027 H 
ATOM     41  H   UNL A   1      33.123  26.805  25.145  1.00  0.00     0.031 H 
ATOM     42  H   UNL A   1      30.308  27.352  26.186  1.00  0.00     0.027 H 
ATOM     43  H   UNL A   1      31.451  26.271  26.917  1.00  0.00     0.027 H 
BRANCH  15  44
ATOM     44  C   UNL A   1      35.022  19.730  24.999  1.00  0.00    -0.085 C 
ATOM     45  C   UNL A   1      34.038  18.943  24.534  1.00  0.00    -0.103 C 
ATOM     46  H   UNL A   1      34.247  17.976  24.239  1.00  0.00     0.053 H 
ATOM     47  H   UNL A   1      33.073  19.305  24.473  1.00  0.00     0.053 H 
ATOM     48  H   UNL A   1      35.961  19.305  25.033  1.00  0.00     0.057 H 
ENDBRANCH  15  44
BRANCH  16  49
ATOM     49  O   UNL A   1      34.183  21.853  28.191  1.00  0.00    -0.392 OA
ATOM     50  H   UNL A   1      33.489  21.992  28.854  1.00  0.00     0.210 HD
ENDBRANCH  16  49
BRANCH  28  51
ATOM     51  C   UNL A   1      30.520  23.999  23.210  1.00  0.00    -0.059 C 
ATOM     52  H   UNL A   1      30.054  23.162  23.686  1.00  0.00     0.024 H 
ATOM     53  H   UNL A   1      31.244  23.650  22.505  1.00  0.00     0.024 H 
ATOM     54  H   UNL A   1      29.777  24.579  22.703  1.00  0.00     0.024 H 
ENDBRANCH  28  51
BRANCH  33  55
ATOM     55  C   UNL A   1      30.661  27.070  22.891  1.00  0.00    -0.059 C 
ATOM     56  H   UNL A   1      31.115  27.920  22.425  1.00  0.00     0.024 H 
ATOM     57  H   UNL A   1      29.912  27.398  23.581  1.00  0.00     0.024 H 
ATOM     58  H   UNL A   1      30.210  26.451  22.142  1.00  0.00     0.024 H 
ENDBRANCH  33  55
BRANCH  37  59
ATOM     59  C   UNL A   1      32.550  28.525  25.111  1.00  0.00    -0.041 C 
ATOM     60  H   UNL A   1      32.497  28.830  24.086  1.00  0.00     0.030 H 
BRANCH  59  61
ATOM     61  C   UNL A   1      31.582  29.402  25.933  1.00  0.00    -0.047 C 
ATOM     62  H   UNL A   1      32.136  29.847  26.733  1.00  0.00     0.027 H 
ATOM     63  H   UNL A   1      30.800  28.753  26.269  1.00  0.00     0.027 H 
BRANCH  61  64
ATOM     64  C   UNL A   1      30.901  30.525  25.144  1.00  0.00    -0.035 C 
ATOM     65  H   UNL A   1      31.630  31.272  24.909  1.00  0.00     0.031 H 
ATOM     66  H   UNL A   1      30.116  30.925  25.750  1.00  0.00     0.031 H 
BRANCH  64  67
ATOM     67  C   UNL A   1      30.286  30.024  23.856  1.00  0.00    -0.086 C 
ATOM     68  C   UNL A   1      29.164  30.492  23.271  1.00  0.00    -0.080 C 
ATOM     69  H   UNL A   1      30.771  29.249  23.379  1.00  0.00     0.058 H 
BRANCH  68  70
ATOM     70  C   UNL A   1      28.670  29.945  21.959  1.00  0.00    -0.044 C 
ATOM     71  H   UNL A   1      27.700  29.513  22.095  1.00  0.00     0.028 H 
ATOM     72  H   UNL A   1      29.347  29.194  21.609  1.00  0.00     0.028 H 
ATOM     73  H   UNL A   1      28.611  30.735  21.241  1.00  0.00     0.028 H 
ENDBRANCH  68  70
BRANCH  68  74
ATOM     74  C   UNL A   1      28.310  31.580  23.864  1.00  0.00    -0.044 C 
ATOM     75  H   UNL A   1      28.202  32.374  23.156  1.00  0.00     0.028 H 
ATOM     76  H   UNL A   1      28.776  31.955  24.751  1.00  0.00     0.028 H 
ATOM     77  H   UNL A   1      27.346  31.184  24.107  1.00  0.00     0.028 H 
ENDBRANCH  68  74
ENDBRANCH  64  67
ENDBRANCH  61  64
ENDBRANCH  59  61
BRANCH  59  78
ATOM     78  C   UNL A   1      34.011  28.800  25.476  1.00  0.00    -0.062 C 
ATOM     79  H   UNL A   1      34.111  29.810  25.814  1.00  0.00     0.023 H 
ATOM     80  H   UNL A   1      34.628  28.649  24.615  1.00  0.00     0.023 H 
ATOM     81  H   UNL A   1      34.317  28.132  26.254  1.00  0.00     0.023 H 
ENDBRANCH  59  78
ENDBRANCH  37  59
ENDBRANCH  11  14
ENDBRANCH   8  11
ENDBRANCH   5   8
ENDBRANCH   1   4
BRANCH   1  82
ATOM     82  C   UNL A   1      39.647  26.723  27.641  1.00  0.00    -0.036 C 
ATOM     83  H   UNL A   1      40.225  26.680  26.741  1.00  0.00     0.028 H 
ATOM     84  H   UNL A   1      39.824  26.564  28.683  1.00  0.00     0.028 H 
BRANCH  82  85
ATOM     85  C   UNL A   1      39.448  28.441  27.846  1.00  0.00    -0.052 C 
ATOM     86  H   UNL A   1      39.299  28.818  26.856  1.00  0.00     0.027 H 
ATOM     87  H   UNL A   1      40.315  28.639  28.441  1.00  0.00     0.027 H 
BRANCH  85  88
ATOM     88  C   UNL A   1      38.391  29.168  28.709  1.00  0.00    -0.052 C 
ATOM     89  H   UNL A   1      38.877  29.954  29.248  1.00  0.00     0.027 H 
ATOM     90  H   UNL A   1      37.958  28.433  29.356  1.00  0.00     0.027 H 
BRANCH  88  91
ATOM     91  C   UNL A   1      37.249  29.775  27.901  1.00  0.00    -0.036 C 
ATOM     92  H   UNL A   1      37.184  29.271  26.960  1.00  0.00     0.028 H 
ATOM     93  H   UNL A   1      37.451  30.816  27.763  1.00  0.00     0.028 H 
BRANCH  91  94
ATOM     94  C   UNL A   1      35.925  29.638  28.626  1.00  0.00     0.018 C 
ATOM     95  H   UNL A   1      36.101  29.299  29.625  1.00  0.00     0.049 H 
ATOM     96  H   UNL A   1      35.311  28.930  28.107  1.00  0.00     0.049 H 
BRANCH  94  97
ATOM     97  N   UNL A   1      35.249  30.928  28.663  1.00  0.00    -0.352 N 
ATOM     98  C   UNL A   1      35.270  31.830  29.691  1.00  0.00     0.251 C 
ATOM     99  H   UNL A   1      34.723  31.174  27.868  1.00  0.00     0.163 HD
ATOM    100  O   UNL A   1      34.463  32.736  29.783  1.00  0.00    -0.269 OA
BRANCH  98 101
ATOM    101  C   UNL A   1      36.337  31.643  30.682  1.00  0.00     0.039 A 
ATOM    102  C   UNL A   1      36.205  30.657  31.657  1.00  0.00    -0.049 A 
ATOM    103  C   UNL A   1      37.519  32.374  30.522  1.00  0.00    -0.049 A 
ATOM    104  C   UNL A   1      37.288  30.397  32.488  1.00  0.00    -0.053 A 
ATOM    105  H   UNL A   1      35.322  30.133  31.760  1.00  0.00     0.063 H 
ATOM    106  C   UNL A   1      38.620  32.047  31.289  1.00  0.00    -0.053 A 
ATOM    107  H   UNL A   1      37.567  33.146  29.840  1.00  0.00     0.063 H 
ATOM    108  C   UNL A   1      38.501  31.081  32.298  1.00  0.00    -0.014 A 
ATOM    109  H   UNL A   1      37.202  29.699  33.244  1.00  0.00     0.063 H 
ATOM    110  H   UNL A   1      39.526  32.512  31.120  1.00  0.00     0.063 H 
BRANCH 108 111
ATOM    111  C   UNL A   1      39.652  30.856  33.194  1.00  0.00     0.031 A 
ATOM    112  C   UNL A   1      39.743  31.650  34.466  1.00  0.00     0.074 A 
ATOM    113  C   UNL A   1      40.622  29.998  32.831  1.00  0.00     0.049 A 
ATOM    114  N   UNL A   1      40.697  31.674  35.359  1.00  0.00    -0.248 NA
ATOM    115  C   UNL A   1      38.631  32.573  34.753  1.00  0.00    -0.034 C 
ATOM    116  C   UNL A   1      40.647  29.225  31.588  1.00  0.00    -0.036 A 
ATOM    117  N   UNL A   1      41.779  29.642  33.471  1.00  0.00    -0.354 N 
ATOM    118  C   UNL A   1      40.308  32.622  36.294  1.00  0.00     0.074 A 
ATOM    119  C   UNL A   1      39.069  33.202  35.832  1.00  0.00    -0.034 C 
ATOM    120  H   UNL A   1      37.741  32.698  34.244  1.00  0.00     0.065 H 
ATOM    121  C   UNL A   1      41.756  28.468  31.566  1.00  0.00    -0.036 A 
ATOM    122  H   UNL A   1      39.930  29.257  30.847  1.00  0.00     0.065 H 
ATOM    123  C   UNL A   1      42.534  28.733  32.772  1.00  0.00     0.049 A 
ATOM    124  H   UNL A   1      42.045  30.003  34.347  1.00  0.00     0.167 HD
ATOM    125  C   UNL A   1      40.920  32.955  37.452  1.00  0.00     0.037 A 
ATOM    126  H   UNL A   1      38.590  33.998  36.282  1.00  0.00     0.065 H 
ATOM    127  H   UNL A   1      42.016  27.806  30.818  1.00  0.00     0.065 H 
ATOM    128  C   UNL A   1      43.726  28.187  33.076  1.00  0.00     0.037 A 
ATOM    129  C   UNL A   1      42.132  32.337  37.915  1.00  0.00     0.049 A 
ATOM    130  C   UNL A   1      44.380  28.570  34.379  1.00  0.00     0.074 A 
ATOM    131  C   UNL A   1      42.801  32.537  39.108  1.00  0.00    -0.036 A 
ATOM    132  N   UNL A   1      42.857  31.397  37.197  1.00  0.00    -0.354 N 
ATOM    133  N   UNL A   1      43.963  29.406  35.301  1.00  0.00    -0.248 NA
ATOM    134  C   UNL A   1      45.664  27.930  34.687  1.00  0.00    -0.034 C 
ATOM    135  C   UNL A   1      43.963  31.761  39.087  1.00  0.00    -0.036 A 
ATOM    136  H   UNL A   1      42.496  33.151  39.878  1.00  0.00     0.065 H 
ATOM    137  C   UNL A   1      43.986  31.029  37.909  1.00  0.00     0.049 A 
ATOM    138  H   UNL A   1      42.607  31.044  36.312  1.00  0.00     0.167 HD
ATOM    139  C   UNL A   1      44.918  29.371  36.308  1.00  0.00     0.074 A 
ATOM    140  C   UNL A   1      45.923  28.415  35.893  1.00  0.00    -0.034 C 
ATOM    141  H   UNL A   1      46.219  27.273  34.116  1.00  0.00     0.065 H 
ATOM    142  H   UNL A   1      44.684  31.737  39.824  1.00  0.00     0.065 H 
ATOM    143  C   UNL A   1      44.966  30.069  37.469  1.00  0.00     0.037 A 
ATOM    144  H   UNL A   1      46.739  28.145  36.464  1.00  0.00     0.065 H 
BRANCH 125 145
ATOM    145  C   UNL A   1      40.289  34.023  38.297  1.00  0.00     0.064 A 
ATOM    146  C   UNL A   1      40.611  35.379  38.136  1.00  0.00     0.173 A 
ATOM    147  C   UNL A   1      39.319  33.688  39.253  1.00  0.00     0.173 A 
ATOM    148  F   UNL A   1      41.546  35.753  37.248  1.00  0.00    -0.203 F 
ATOM    149  C   UNL A   1      40.001  36.358  38.916  1.00  0.00     0.198 A 
ATOM    150  C   UNL A   1      38.687  34.673  40.008  1.00  0.00     0.198 A 
ATOM    151  F   UNL A   1      38.976  32.406  39.450  1.00  0.00    -0.203 F 
ATOM    152  F   UNL A   1      40.359  37.643  38.778  1.00  0.00    -0.200 F 
ATOM    153  C   UNL A   1      39.033  36.005  39.844  1.00  0.00     0.200 A 
ATOM    154  F   UNL A   1      37.744  34.330  40.897  1.00  0.00    -0.200 F 
ATOM    155  F   UNL A   1      38.436  36.950  40.584  1.00  0.00    -0.200 F 
ENDBRANCH 125 145
BRANCH 128 156
ATOM    156  C   UNL A   1      44.370  27.224  32.146  1.00  0.00     0.064 A 
ATOM    157  C   UNL A   1      45.106  27.667  31.039  1.00  0.00     0.173 A 
ATOM    158  C   UNL A   1      44.250  25.838  32.334  1.00  0.00     0.173 A 
ATOM    159  F   UNL A   1      45.239  28.982  30.806  1.00  0.00    -0.203 F 
ATOM    160  C   UNL A   1      45.668  26.765  30.137  1.00  0.00     0.198 A 
ATOM    161  C   UNL A   1      44.841  24.937  31.450  1.00  0.00     0.198 A 
ATOM    162  F   UNL A   1      43.567  25.359  33.383  1.00  0.00    -0.203 F 
ATOM    163  F   UNL A   1      46.315  27.218  29.055  1.00  0.00    -0.200 F 
ATOM    164  C   UNL A   1      45.538  25.400  30.345  1.00  0.00     0.200 A 
ATOM    165  F   UNL A   1      44.729  23.619  31.667  1.00  0.00    -0.200 F 
ATOM    166  F   UNL A   1      46.077  24.533  29.478  1.00  0.00    -0.200 F 
ENDBRANCH 128 156
BRANCH 143 167
ATOM    167  C   UNL A   1      46.125  29.800  38.383  1.00  0.00     0.064 A 
ATOM    168  C   UNL A   1      46.110  28.735  39.296  1.00  0.00     0.173 A 
ATOM    169  C   UNL A   1      47.284  30.588  38.309  1.00  0.00     0.173 A 
ATOM    170  F   UNL A   1      45.021  27.961  39.412  1.00  0.00    -0.203 F 
ATOM    171  C   UNL A   1      47.201  28.489  40.124  1.00  0.00     0.198 A 
ATOM    172  C   UNL A   1      48.387  30.317  39.112  1.00  0.00     0.198 A 
ATOM    173  F   UNL A   1      47.353  31.611  37.444  1.00  0.00    -0.203 F 
ATOM    174  F   UNL A   1      47.143  27.501  41.027  1.00  0.00    -0.200 F 
ATOM    175  C   UNL A   1      48.341  29.274  40.025  1.00  0.00     0.200 A 
ATOM    176  F   UNL A   1      49.494  31.063  39.002  1.00  0.00    -0.200 F 
ATOM    177  F   UNL A   1      49.394  29.028  40.816  1.00  0.00    -0.200 F 
ENDBRANCH 143 167
ENDBRANCH 108 111
ENDBRANCH  98 101
ENDBRANCH  94  97
ENDBRANCH  91  94
ENDBRANCH  88  91
ENDBRANCH  85  88
ENDBRANCH  82  85
ENDBRANCH   1  82
TORSDOF 26
ENDMDL
