MODEL 1
REMARK VINA RESULT:     -11.1      0.000      0.000
REMARK SMILES COc1ccc(/C=C/c2cc(OC)cc(OC)c2/C=C/C(=O)NCCCCCCNC(=O)c2ccc(-c3c4nc(c(-c5c(F)c(F)c(F)c(F)c5F)c5ccc([nH]5)c(-c5c(F)c(F)c(F)c(F)c5F)c5nc(c(-c6c(F)c(F)c(F)c(F)c6F)c6ccc3[nH]6)C=C5)C=C4)cc2)cc1
REMARK SMILES IDX 25 1 24 4 23 7 21 8 22 9 20 11 19 12 18 15 9 16 10 17 11 18
REMARK SMILES IDX 15 20 14 21 8 23 7 24 6 27 3 28 4 29 97 30 5 31 96 33 2 37
REMARK SMILES IDX 1 38 12 42 13 43 16 47 17 48 26 52 27 55 28 58 29 61 30 64
REMARK SMILES IDX 31 65 32 67 33 68 34 69 95 70 35 71 94 73 36 75 37 78 38 79
REMARK SMILES IDX 88 80 39 81 93 82 87 83 89 84 40 85 92 86 86 88 85 90 41 92
REMARK SMILES IDX 73 95 53 96 72 97 54 98 57 99 71 100 90 101 55 102 56 104
REMARK SMILES IDX 70 106 91 107 58 110 42 112 43 113 51 114 44 115 45 116
REMARK SMILES IDX 49 117 52 118 46 119 47 120 50 121 48 122 74 123 75 124
REMARK SMILES IDX 83 125 76 126 77 127 81 128 84 129 78 130 79 131 82 132
REMARK SMILES IDX 80 133 59 134 60 135 68 136 61 137 62 138 66 139 69 140
REMARK SMILES IDX 63 141 64 142 67 143 65 144
REMARK H PARENT 25 2 25 3 24 5 24 6 23 10 19 13 20 14 10 19 14 22 7 25 8 26
REMARK H PARENT 4 32 97 34 5 35 96 36 1 39 1 40 1 41 13 44 13 45 13 46 17 49
REMARK H PARENT 17 50 17 51 26 53 26 54 27 56 27 57 28 59 28 60 29 62 29 63
REMARK H PARENT 30 66 34 72 95 74 35 76 94 77 93 87 87 89 89 91 92 93 86 94
REMARK H PARENT 54 103 57 105 90 108 55 109 91 111
REMARK Flexibility Score: inf
ROOT
ATOM      1  C   UNL A   1      38.926  23.070  26.574  1.00  0.00    -0.036 C 
ATOM      2  H   UNL A   1      38.706  23.038  27.620  1.00  0.00     0.028 H 
ATOM      3  H   UNL A   1      39.780  23.676  26.355  1.00  0.00     0.028 H 
ENDROOT
BRANCH   1   4
ATOM      4  C   UNL A   1      37.740  23.694  25.851  1.00  0.00     0.018 C 
ATOM      5  H   UNL A   1      36.836  23.376  26.326  1.00  0.00     0.049 H 
ATOM      6  H   UNL A   1      37.839  24.759  25.899  1.00  0.00     0.049 H 
BRANCH   4   7
ATOM      7  N   UNL A   1      37.704  23.302  24.460  1.00  0.00    -0.353 N 
ATOM      8  C   UNL A   1      36.637  23.260  23.621  1.00  0.00     0.244 C 
ATOM      9  O   UNL A   1      36.773  22.962  22.440  1.00  0.00    -0.270 OA
ATOM     10  H   UNL A   1      38.566  23.029  24.070  1.00  0.00     0.163 HD
BRANCH   8  11
ATOM     11  C   UNL A   1      35.304  23.628  24.138  1.00  0.00     0.004 C 
ATOM     12  C   UNL A   1      34.336  24.036  23.303  1.00  0.00    -0.045 C 
ATOM     13  H   UNL A   1      34.493  23.961  22.286  1.00  0.00     0.063 H 
ATOM     14  H   UNL A   1      35.114  23.570  25.151  1.00  0.00     0.068 H 
BRANCH  12  15
ATOM     15  C   UNL A   1      33.060  24.587  23.786  1.00  0.00     0.024 A 
ATOM     16  C   UNL A   1      31.975  23.690  24.012  1.00  0.00    -0.011 A 
ATOM     17  C   UNL A   1      30.721  24.188  24.405  1.00  0.00    -0.012 A 
ATOM     18  C   UNL A   1      30.509  25.552  24.568  1.00  0.00     0.123 A 
ATOM     19  H   UNL A   1      29.945  23.530  24.578  1.00  0.00     0.067 H 
ATOM     20  C   UNL A   1      32.844  25.970  23.973  1.00  0.00     0.130 A 
ATOM     21  C   UNL A   1      31.573  26.424  24.373  1.00  0.00     0.023 A 
ATOM     22  H   UNL A   1      31.428  27.434  24.527  1.00  0.00     0.070 H 
BRANCH  16  23
ATOM     23  C   UNL A   1      32.035  22.226  23.806  1.00  0.00    -0.054 C 
ATOM     24  C   UNL A   1      32.537  21.379  24.720  1.00  0.00    -0.054 C 
ATOM     25  H   UNL A   1      32.894  21.795  25.594  1.00  0.00     0.063 H 
ATOM     26  H   UNL A   1      31.676  21.838  22.920  1.00  0.00     0.063 H 
BRANCH  24  27
ATOM     27  C   UNL A   1      32.628  19.908  24.595  1.00  0.00    -0.025 A 
ATOM     28  C   UNL A   1      32.868  17.082  24.510  1.00  0.00     0.118 A 
ATOM     29  C   UNL A   1      32.660  17.817  23.342  1.00  0.00    -0.019 A 
ATOM     30  C   UNL A   1      32.932  17.758  25.726  1.00  0.00    -0.019 A 
ATOM     31  C   UNL A   1      32.535  19.215  23.383  1.00  0.00    -0.051 A 
ATOM     32  H   UNL A   1      32.598  17.326  22.436  1.00  0.00     0.066 H 
ATOM     33  C   UNL A   1      32.818  19.155  25.764  1.00  0.00    -0.051 A 
ATOM     34  H   UNL A   1      33.065  17.229  26.601  1.00  0.00     0.066 H 
ATOM     35  H   UNL A   1      32.373  19.737  22.508  1.00  0.00     0.063 H 
ATOM     36  H   UNL A   1      32.874  19.640  26.673  1.00  0.00     0.063 H 
BRANCH  28  37
ATOM     37  O   UNL A   1      33.029  15.735  24.332  1.00  0.00    -0.497 OA
BRANCH  37  38
ATOM     38  C   UNL A   1      32.652  14.897  25.418  1.00  0.00     0.078 C 
ATOM     39  H   UNL A   1      32.200  15.490  26.186  1.00  0.00     0.067 H 
ATOM     40  H   UNL A   1      33.519  14.407  25.808  1.00  0.00     0.067 H 
ATOM     41  H   UNL A   1      31.950  14.165  25.076  1.00  0.00     0.067 H 
ENDBRANCH  37  38
ENDBRANCH  28  37
ENDBRANCH  24  27
ENDBRANCH  16  23
BRANCH  18  42
ATOM     42  O   UNL A   1      29.235  25.918  24.905  1.00  0.00    -0.497 OA
BRANCH  42  43
ATOM     43  C   UNL A   1      28.517  26.661  23.922  1.00  0.00     0.078 C 
ATOM     44  H   UNL A   1      29.196  27.006  23.170  1.00  0.00     0.067 H 
ATOM     45  H   UNL A   1      28.042  27.499  24.386  1.00  0.00     0.067 H 
ATOM     46  H   UNL A   1      27.775  26.034  23.472  1.00  0.00     0.067 H 
ENDBRANCH  42  43
ENDBRANCH  18  42
BRANCH  20  47
ATOM     47  O   UNL A   1      33.669  27.047  23.785  1.00  0.00    -0.496 OA
BRANCH  47  48
ATOM     48  C   UNL A   1      33.600  28.221  24.569  1.00  0.00     0.078 C 
ATOM     49  H   UNL A   1      32.577  28.506  24.695  1.00  0.00     0.067 H 
ATOM     50  H   UNL A   1      34.132  29.010  24.078  1.00  0.00     0.067 H 
ATOM     51  H   UNL A   1      34.039  28.037  25.527  1.00  0.00     0.067 H 
ENDBRANCH  47  48
ENDBRANCH  20  47
ENDBRANCH  12  15
ENDBRANCH   8  11
ENDBRANCH   4   7
ENDBRANCH   1   4
BRANCH   1  52
ATOM     52  C   UNL A   1      39.256  21.648  26.107  1.00  0.00    -0.052 C 
ATOM     53  H   UNL A   1      39.188  21.625  25.039  1.00  0.00     0.027 H 
ATOM     54  H   UNL A   1      38.554  21.003  26.592  1.00  0.00     0.027 H 
BRANCH  52  55
ATOM     55  C   UNL A   1      40.649  21.141  26.505  1.00  0.00    -0.052 C 
ATOM     56  H   UNL A   1      40.726  21.182  27.571  1.00  0.00     0.027 H 
ATOM     57  H   UNL A   1      41.354  21.774  26.007  1.00  0.00     0.027 H 
BRANCH  55  58
ATOM     58  C   UNL A   1      40.962  19.713  26.058  1.00  0.00    -0.036 C 
ATOM     59  H   UNL A   1      41.004  19.699  24.988  1.00  0.00     0.028 H 
ATOM     60  H   UNL A   1      40.186  19.092  26.453  1.00  0.00     0.028 H 
BRANCH  58  61
ATOM     61  C   UNL A   1      42.275  19.157  26.593  1.00  0.00     0.018 C 
ATOM     62  H   UNL A   1      42.076  18.265  27.148  1.00  0.00     0.049 H 
ATOM     63  H   UNL A   1      42.728  19.900  27.217  1.00  0.00     0.049 H 
BRANCH  61  64
ATOM     64  N   UNL A   1      43.194  18.845  25.512  1.00  0.00    -0.352 N 
ATOM     65  C   UNL A   1      43.965  19.693  24.758  1.00  0.00     0.251 C 
ATOM     66  H   UNL A   1      43.274  17.890  25.288  1.00  0.00     0.163 HD
ATOM     67  O   UNL A   1      44.471  19.293  23.714  1.00  0.00    -0.269 OA
BRANCH  65  68
ATOM     68  C   UNL A   1      44.186  21.090  25.192  1.00  0.00     0.039 A 
ATOM     69  C   UNL A   1      43.828  22.127  24.325  1.00  0.00    -0.049 A 
ATOM     70  C   UNL A   1      44.790  21.384  26.418  1.00  0.00    -0.049 A 
ATOM     71  C   UNL A   1      44.043  23.454  24.701  1.00  0.00    -0.053 A 
ATOM     72  H   UNL A   1      43.406  21.911  23.408  1.00  0.00     0.063 H 
ATOM     73  C   UNL A   1      44.935  22.709  26.825  1.00  0.00    -0.053 A 
ATOM     74  H   UNL A   1      45.131  20.620  27.022  1.00  0.00     0.063 H 
ATOM     75  C   UNL A   1      44.577  23.758  25.965  1.00  0.00    -0.014 A 
ATOM     76  H   UNL A   1      43.807  24.217  24.048  1.00  0.00     0.063 H 
ATOM     77  H   UNL A   1      45.306  22.920  27.764  1.00  0.00     0.063 H 
BRANCH  75  78
ATOM     78  C   UNL A   1      44.780  25.167  26.391  1.00  0.00     0.031 A 
ATOM     79  C   UNL A   1      46.140  25.799  26.298  1.00  0.00     0.074 A 
ATOM     80  C   UNL A   1      43.749  25.864  26.906  1.00  0.00     0.049 A 
ATOM     81  N   UNL A   1      46.520  26.999  26.659  1.00  0.00    -0.248 NA
ATOM     82  C   UNL A   1      47.222  24.967  25.752  1.00  0.00    -0.034 C 
ATOM     83  C   UNL A   1      42.398  25.342  27.091  1.00  0.00    -0.036 A 
ATOM     84  N   UNL A   1      43.673  27.149  27.380  1.00  0.00    -0.354 N 
ATOM     85  C   UNL A   1      47.880  27.060  26.394  1.00  0.00     0.074 A 
ATOM     86  C   UNL A   1      48.273  25.761  25.894  1.00  0.00    -0.034 C 
ATOM     87  H   UNL A   1      47.175  24.013  25.359  1.00  0.00     0.065 H 
ATOM     88  C   UNL A   1      41.619  26.294  27.623  1.00  0.00    -0.036 A 
ATOM     89  H   UNL A   1      42.090  24.386  26.849  1.00  0.00     0.065 H 
ATOM     90  C   UNL A   1      42.427  27.488  27.851  1.00  0.00     0.049 A 
ATOM     91  H   UNL A   1      44.437  27.769  27.383  1.00  0.00     0.167 HD
ATOM     92  C   UNL A   1      48.719  28.114  26.533  1.00  0.00     0.037 A 
ATOM     93  H   UNL A   1      49.245  25.489  25.676  1.00  0.00     0.065 H 
ATOM     94  H   UNL A   1      40.614  26.200  27.836  1.00  0.00     0.065 H 
ATOM     95  C   UNL A   1      41.986  28.629  28.412  1.00  0.00     0.037 A 
ATOM     96  C   UNL A   1      48.315  29.411  27.012  1.00  0.00     0.049 A 
ATOM     97  C   UNL A   1      42.940  29.781  28.561  1.00  0.00     0.074 A 
ATOM     98  C   UNL A   1      49.073  30.563  27.125  1.00  0.00    -0.036 A 
ATOM     99  N   UNL A   1      47.040  29.725  27.463  1.00  0.00    -0.354 N 
ATOM    100  N   UNL A   1      44.206  29.853  28.230  1.00  0.00    -0.248 NA
ATOM    101  C   UNL A   1      42.402  31.015  29.150  1.00  0.00    -0.034 C 
ATOM    102  C   UNL A   1      48.274  31.558  27.696  1.00  0.00    -0.036 A 
ATOM    103  H   UNL A   1      50.059  30.669  26.838  1.00  0.00     0.065 H 
ATOM    104  C   UNL A   1      47.000  31.045  27.883  1.00  0.00     0.049 A 
ATOM    105  H   UNL A   1      46.279  29.101  27.482  1.00  0.00     0.167 HD
ATOM    106  C   UNL A   1      44.610  31.143  28.545  1.00  0.00     0.074 A 
ATOM    107  C   UNL A   1      43.448  31.826  29.075  1.00  0.00    -0.034 C 
ATOM    108  H   UNL A   1      41.458  31.201  29.524  1.00  0.00     0.065 H 
ATOM    109  H   UNL A   1      48.580  32.514  27.937  1.00  0.00     0.065 H 
ATOM    110  C   UNL A   1      45.833  31.711  28.407  1.00  0.00     0.037 A 
ATOM    111  H   UNL A   1      43.436  32.818  29.358  1.00  0.00     0.065 H 
BRANCH  92 112
ATOM    112  C   UNL A   1      50.160  27.909  26.165  1.00  0.00     0.064 A 
ATOM    113  C   UNL A   1      51.149  27.697  27.138  1.00  0.00     0.173 A 
ATOM    114  C   UNL A   1      50.553  27.886  24.818  1.00  0.00     0.173 A 
ATOM    115  F   UNL A   1      50.830  27.721  28.441  1.00  0.00    -0.203 F 
ATOM    116  C   UNL A   1      52.479  27.498  26.778  1.00  0.00     0.198 A 
ATOM    117  C   UNL A   1      51.879  27.654  24.460  1.00  0.00     0.198 A 
ATOM    118  F   UNL A   1      49.648  28.078  23.846  1.00  0.00    -0.203 F 
ATOM    119  F   UNL A   1      53.413  27.347  27.728  1.00  0.00    -0.200 F 
ATOM    120  C   UNL A   1      52.842  27.468  25.440  1.00  0.00     0.200 A 
ATOM    121  F   UNL A   1      52.225  27.612  23.166  1.00  0.00    -0.200 F 
ATOM    122  F   UNL A   1      54.121  27.266  25.096  1.00  0.00    -0.200 F 
ENDBRANCH  92 112
BRANCH  95 123
ATOM    123  C   UNL A   1      40.570  28.743  28.855  1.00  0.00     0.064 A 
ATOM    124  C   UNL A   1      40.202  28.455  30.176  1.00  0.00     0.173 A 
ATOM    125  C   UNL A   1      39.559  29.138  27.968  1.00  0.00     0.173 A 
ATOM    126  F   UNL A   1      41.130  28.056  31.058  1.00  0.00    -0.203 F 
ATOM    127  C   UNL A   1      38.874  28.536  30.587  1.00  0.00     0.198 A 
ATOM    128  C   UNL A   1      38.234  29.249  28.389  1.00  0.00     0.198 A 
ATOM    129  F   UNL A   1      39.857  29.432  26.694  1.00  0.00    -0.203 F 
ATOM    130  F   UNL A   1      38.542  28.209  31.844  1.00  0.00    -0.200 F 
ATOM    131  C   UNL A   1      37.891  28.938  29.695  1.00  0.00     0.200 A 
ATOM    132  F   UNL A   1      37.291  29.656  27.528  1.00  0.00    -0.200 F 
ATOM    133  F   UNL A   1      36.615  29.020  30.093  1.00  0.00    -0.200 F 
ENDBRANCH  95 123
BRANCH 110 134
ATOM    134  C   UNL A   1      45.968  33.151  28.807  1.00  0.00     0.064 A 
ATOM    135  C   UNL A   1      46.358  33.523  30.102  1.00  0.00     0.173 A 
ATOM    136  C   UNL A   1      45.736  34.171  27.871  1.00  0.00     0.173 A 
ATOM    137  F   UNL A   1      46.577  32.587  31.037  1.00  0.00    -0.203 F 
ATOM    138  C   UNL A   1      46.481  34.865  30.453  1.00  0.00     0.198 A 
ATOM    139  C   UNL A   1      45.891  35.510  28.217  1.00  0.00     0.198 A 
ATOM    140  F   UNL A   1      45.367  33.869  26.618  1.00  0.00    -0.203 F 
ATOM    141  F   UNL A   1      46.801  35.199  31.711  1.00  0.00    -0.200 F 
ATOM    142  C   UNL A   1      46.255  35.856  29.509  1.00  0.00     0.200 A 
ATOM    143  F   UNL A   1      45.688  36.466  27.300  1.00  0.00    -0.200 F 
ATOM    144  F   UNL A   1      46.380  37.147  29.848  1.00  0.00    -0.200 F 
ENDBRANCH 110 134
ENDBRANCH  75  78
ENDBRANCH  65  68
ENDBRANCH  61  64
ENDBRANCH  58  61
ENDBRANCH  55  58
ENDBRANCH  52  55
ENDBRANCH   1  52
TORSDOF 22
ENDMDL
MODEL 2
REMARK VINA RESULT:     -11.0      1.537      4.635
REMARK SMILES COc1ccc(/C=C/c2cc(OC)cc(OC)c2/C=C/C(=O)NCCCCCCNC(=O)c2ccc(-c3c4nc(c(-c5c(F)c(F)c(F)c(F)c5F)c5ccc([nH]5)c(-c5c(F)c(F)c(F)c(F)c5F)c5nc(c(-c6c(F)c(F)c(F)c(F)c6F)c6ccc3[nH]6)C=C5)C=C4)cc2)cc1
REMARK SMILES IDX 25 1 24 4 23 7 21 8 22 9 20 11 19 12 18 15 9 16 10 17 11 18
REMARK SMILES IDX 15 20 14 21 8 23 7 24 6 27 3 28 4 29 97 30 5 31 96 33 2 37
REMARK SMILES IDX 1 38 12 42 13 43 16 47 17 48 26 52 27 55 28 58 29 61 30 64
REMARK SMILES IDX 31 65 32 67 33 68 34 69 95 70 35 71 94 73 36 75 37 78 38 79
REMARK SMILES IDX 88 80 39 81 93 82 87 83 89 84 40 85 92 86 86 88 85 90 41 92
REMARK SMILES IDX 73 95 53 96 72 97 54 98 57 99 71 100 90 101 55 102 56 104
REMARK SMILES IDX 70 106 91 107 58 110 42 112 43 113 51 114 44 115 45 116
REMARK SMILES IDX 49 117 52 118 46 119 47 120 50 121 48 122 74 123 75 124
REMARK SMILES IDX 83 125 76 126 77 127 81 128 84 129 78 130 79 131 82 132
REMARK SMILES IDX 80 133 59 134 60 135 68 136 61 137 62 138 66 139 69 140
REMARK SMILES IDX 63 141 64 142 67 143 65 144
REMARK H PARENT 25 2 25 3 24 5 24 6 23 10 19 13 20 14 10 19 14 22 7 25 8 26
REMARK H PARENT 4 32 97 34 5 35 96 36 1 39 1 40 1 41 13 44 13 45 13 46 17 49
REMARK H PARENT 17 50 17 51 26 53 26 54 27 56 27 57 28 59 28 60 29 62 29 63
REMARK H PARENT 30 66 34 72 95 74 35 76 94 77 93 87 87 89 89 91 92 93 86 94
REMARK H PARENT 54 103 57 105 90 108 55 109 91 111
REMARK Flexibility Score: inf
ROOT
ATOM      1  C   UNL A   1      39.071  22.871  26.608  1.00  0.00    -0.036 C 
ATOM      2  H   UNL A   1      39.095  22.860  27.677  1.00  0.00     0.028 H 
ATOM      3  H   UNL A   1      39.785  23.550  26.190  1.00  0.00     0.028 H 
ENDROOT
BRANCH   1   4
ATOM      4  C   UNL A   1      37.693  23.343  26.162  1.00  0.00     0.018 C 
ATOM      5  H   UNL A   1      36.961  22.633  26.482  1.00  0.00     0.049 H 
ATOM      6  H   UNL A   1      37.508  24.302  26.601  1.00  0.00     0.049 H 
BRANCH   4   7
ATOM      7  N   UNL A   1      37.621  23.478  24.725  1.00  0.00    -0.353 N 
ATOM      8  C   UNL A   1      36.540  23.339  23.915  1.00  0.00     0.244 C 
ATOM      9  O   UNL A   1      36.621  23.546  22.711  1.00  0.00    -0.270 OA
ATOM     10  H   UNL A   1      38.468  23.700  24.273  1.00  0.00     0.163 HD
BRANCH   8  11
ATOM     11  C   UNL A   1      35.238  22.981  24.514  1.00  0.00     0.004 C 
ATOM     12  C   UNL A   1      34.205  23.835  24.464  1.00  0.00    -0.045 C 
ATOM     13  H   UNL A   1      34.291  24.686  23.886  1.00  0.00     0.063 H 
ATOM     14  H   UNL A   1      35.122  22.065  24.974  1.00  0.00     0.068 H 
BRANCH  12  15
ATOM     15  C   UNL A   1      32.954  23.602  25.202  1.00  0.00     0.024 A 
ATOM     16  C   UNL A   1      32.438  24.654  26.014  1.00  0.00    -0.011 A 
ATOM     17  C   UNL A   1      31.284  24.444  26.788  1.00  0.00    -0.012 A 
ATOM     18  C   UNL A   1      30.634  23.215  26.789  1.00  0.00     0.123 A 
ATOM     19  H   UNL A   1      30.911  25.216  27.364  1.00  0.00     0.067 H 
ATOM     20  C   UNL A   1      32.277  22.362  25.191  1.00  0.00     0.130 A 
ATOM     21  C   UNL A   1      31.121  22.198  25.977  1.00  0.00     0.023 A 
ATOM     22  H   UNL A   1      30.620  21.296  25.950  1.00  0.00     0.070 H 
BRANCH  16  23
ATOM     23  C   UNL A   1      33.066  25.986  26.168  1.00  0.00    -0.054 C 
ATOM     24  C   UNL A   1      32.445  27.023  26.752  1.00  0.00    -0.054 C 
ATOM     25  H   UNL A   1      31.487  26.859  27.097  1.00  0.00     0.063 H 
ATOM     26  H   UNL A   1      34.023  26.123  25.809  1.00  0.00     0.063 H 
BRANCH  24  27
ATOM     27  C   UNL A   1      33.001  28.380  26.949  1.00  0.00    -0.025 A 
ATOM     28  C   UNL A   1      33.935  31.042  27.247  1.00  0.00     0.118 A 
ATOM     29  C   UNL A   1      34.790  29.959  27.452  1.00  0.00    -0.019 A 
ATOM     30  C   UNL A   1      32.605  30.795  26.916  1.00  0.00    -0.019 A 
ATOM     31  C   UNL A   1      34.328  28.640  27.311  1.00  0.00    -0.051 A 
ATOM     32  H   UNL A   1      35.775  30.129  27.710  1.00  0.00     0.066 H 
ATOM     33  C   UNL A   1      32.148  29.479  26.765  1.00  0.00    -0.051 A 
ATOM     34  H   UNL A   1      31.955  31.584  26.781  1.00  0.00     0.066 H 
ATOM     35  H   UNL A   1      34.975  27.854  27.476  1.00  0.00     0.063 H 
ATOM     36  H   UNL A   1      31.161  29.314  26.513  1.00  0.00     0.063 H 
BRANCH  28  37
ATOM     37  O   UNL A   1      34.518  32.276  27.359  1.00  0.00    -0.497 OA
BRANCH  37  38
ATOM     38  C   UNL A   1      35.788  32.327  27.997  1.00  0.00     0.078 C 
ATOM     39  H   UNL A   1      36.185  31.336  28.081  1.00  0.00     0.067 H 
ATOM     40  H   UNL A   1      35.679  32.751  28.974  1.00  0.00     0.067 H 
ATOM     41  H   UNL A   1      36.455  32.930  27.417  1.00  0.00     0.067 H 
ENDBRANCH  37  38
ENDBRANCH  28  37
ENDBRANCH  24  27
ENDBRANCH  16  23
BRANCH  18  42
ATOM     42  O   UNL A   1      29.552  23.119  27.620  1.00  0.00    -0.497 OA
BRANCH  42  43
ATOM     43  C   UNL A   1      28.564  22.159  27.251  1.00  0.00     0.078 C 
ATOM     44  H   UNL A   1      28.735  21.841  26.243  1.00  0.00     0.067 H 
ATOM     45  H   UNL A   1      27.592  22.598  27.327  1.00  0.00     0.067 H 
ATOM     46  H   UNL A   1      28.626  21.314  27.906  1.00  0.00     0.067 H 
ENDBRANCH  42  43
ENDBRANCH  18  42
BRANCH  20  47
ATOM     47  O   UNL A   1      32.565  21.182  24.560  1.00  0.00    -0.496 OA
BRANCH  47  48
ATOM     48  C   UNL A   1      32.946  20.008  25.250  1.00  0.00     0.078 C 
ATOM     49  H   UNL A   1      33.707  20.245  25.963  1.00  0.00     0.067 H 
ATOM     50  H   UNL A   1      33.324  19.290  24.551  1.00  0.00     0.067 H 
ATOM     51  H   UNL A   1      32.098  19.600  25.757  1.00  0.00     0.067 H 
ENDBRANCH  47  48
ENDBRANCH  20  47
ENDBRANCH  12  15
ENDBRANCH   8  11
ENDBRANCH   4   7
ENDBRANCH   1   4
BRANCH   1  52
ATOM     52  C   UNL A   1      39.438  21.472  26.103  1.00  0.00    -0.052 C 
ATOM     53  H   UNL A   1      39.370  21.476  25.035  1.00  0.00     0.027 H 
ATOM     54  H   UNL A   1      38.754  20.796  26.571  1.00  0.00     0.027 H 
BRANCH  52  55
ATOM     55  C   UNL A   1      40.844  20.992  26.486  1.00  0.00    -0.052 C 
ATOM     56  H   UNL A   1      40.934  21.041  27.551  1.00  0.00     0.027 H 
ATOM     57  H   UNL A   1      41.532  21.634  25.976  1.00  0.00     0.027 H 
BRANCH  55  58
ATOM     58  C   UNL A   1      41.177  19.567  26.045  1.00  0.00    -0.036 C 
ATOM     59  H   UNL A   1      41.179  19.540  24.974  1.00  0.00     0.028 H 
ATOM     60  H   UNL A   1      40.432  18.932  26.476  1.00  0.00     0.028 H 
BRANCH  58  61
ATOM     61  C   UNL A   1      42.523  19.050  26.536  1.00  0.00     0.018 C 
ATOM     62  H   UNL A   1      42.366  18.166  27.116  1.00  0.00     0.049 H 
ATOM     63  H   UNL A   1      42.983  19.815  27.126  1.00  0.00     0.049 H 
BRANCH  61  64
ATOM     64  N   UNL A   1      43.403  18.736  25.424  1.00  0.00    -0.352 N 
ATOM     65  C   UNL A   1      44.124  19.585  24.623  1.00  0.00     0.251 C 
ATOM     66  H   UNL A   1      43.495  17.779  25.216  1.00  0.00     0.163 HD
ATOM     67  O   UNL A   1      44.597  19.175  23.568  1.00  0.00    -0.269 OA
BRANCH  65  68
ATOM     68  C   UNL A   1      44.332  20.995  25.021  1.00  0.00     0.039 A 
ATOM     69  C   UNL A   1      45.149  21.269  26.122  1.00  0.00    -0.049 A 
ATOM     70  C   UNL A   1      43.688  22.042  24.354  1.00  0.00    -0.049 A 
ATOM     71  C   UNL A   1      45.347  22.589  26.530  1.00  0.00    -0.053 A 
ATOM     72  H   UNL A   1      45.604  20.496  26.632  1.00  0.00     0.063 H 
ATOM     73  C   UNL A   1      43.946  23.363  24.714  1.00  0.00    -0.053 A 
ATOM     74  H   UNL A   1      43.021  21.836  23.595  1.00  0.00     0.063 H 
ATOM     75  C   UNL A   1      44.766  23.650  25.816  1.00  0.00    -0.014 A 
ATOM     76  H   UNL A   1      45.925  22.787  27.362  1.00  0.00     0.063 H 
ATOM     77  H   UNL A   1      43.533  24.134  24.168  1.00  0.00     0.063 H 
BRANCH  75  78
ATOM     78  C   UNL A   1      44.996  25.061  26.220  1.00  0.00     0.031 A 
ATOM     79  C   UNL A   1      46.368  25.666  26.119  1.00  0.00     0.074 A 
ATOM     80  C   UNL A   1      43.978  25.785  26.724  1.00  0.00     0.049 A 
ATOM     81  N   UNL A   1      46.770  26.864  26.461  1.00  0.00    -0.248 NA
ATOM     82  C   UNL A   1      47.435  24.805  25.587  1.00  0.00    -0.034 C 
ATOM     83  C   UNL A   1      42.617  25.292  26.915  1.00  0.00    -0.036 A 
ATOM     84  N   UNL A   1      43.926  27.079  27.178  1.00  0.00    -0.354 N 
ATOM     85  C   UNL A   1      48.131  26.895  26.197  1.00  0.00     0.074 A 
ATOM     86  C   UNL A   1      48.500  25.581  25.718  1.00  0.00    -0.034 C 
ATOM     87  H   UNL A   1      47.370  23.846  25.209  1.00  0.00     0.065 H 
ATOM     88  C   UNL A   1      41.856  26.267  27.431  1.00  0.00    -0.036 A 
ATOM     89  H   UNL A   1      42.291  24.339  26.688  1.00  0.00     0.065 H 
ATOM     90  C   UNL A   1      42.686  27.449  27.641  1.00  0.00     0.049 A 
ATOM     91  H   UNL A   1      44.701  27.684  27.172  1.00  0.00     0.167 HD
ATOM     92  C   UNL A   1      48.990  27.935  26.321  1.00  0.00     0.037 A 
ATOM     93  H   UNL A   1      49.466  25.287  25.505  1.00  0.00     0.065 H 
ATOM     94  H   UNL A   1      40.849  26.195  27.645  1.00  0.00     0.065 H 
ATOM     95  C   UNL A   1      42.266  28.607  28.184  1.00  0.00     0.037 A 
ATOM     96  C   UNL A   1      48.610  29.246  26.778  1.00  0.00     0.049 A 
ATOM     97  C   UNL A   1      43.242  29.743  28.316  1.00  0.00     0.074 A 
ATOM     98  C   UNL A   1      49.390  30.385  26.875  1.00  0.00    -0.036 A 
ATOM     99  N   UNL A   1      47.342  29.591  27.224  1.00  0.00    -0.354 N 
ATOM    100  N   UNL A   1      44.510  29.786  27.986  1.00  0.00    -0.248 NA
ATOM    101  C   UNL A   1      42.727  30.996  28.886  1.00  0.00    -0.034 C 
ATOM    102  C   UNL A   1      48.609  31.404  27.429  1.00  0.00    -0.036 A 
ATOM    103  H   UNL A   1      50.378  30.468  26.587  1.00  0.00     0.065 H 
ATOM    104  C   UNL A   1      47.326  30.919  27.623  1.00  0.00     0.049 A 
ATOM    105  H   UNL A   1      46.568  28.983  27.252  1.00  0.00     0.167 HD
ATOM    106  C   UNL A   1      44.938  31.072  28.280  1.00  0.00     0.074 A 
ATOM    107  C   UNL A   1      43.788  31.785  28.799  1.00  0.00    -0.034 C 
ATOM    108  H   UNL A   1      41.787  31.205  29.255  1.00  0.00     0.065 H 
ATOM    109  H   UNL A   1      48.933  32.358  27.655  1.00  0.00     0.065 H 
ATOM    110  C   UNL A   1      46.172  31.614  28.135  1.00  0.00     0.037 A 
ATOM    111  H   UNL A   1      43.795  32.781  29.066  1.00  0.00     0.065 H 
BRANCH  92 112
ATOM    112  C   UNL A   1      50.428  27.697  25.957  1.00  0.00     0.064 A 
ATOM    113  C   UNL A   1      50.882  27.805  24.634  1.00  0.00     0.173 A 
ATOM    114  C   UNL A   1      51.372  27.397  26.951  1.00  0.00     0.173 A 
ATOM    115  F   UNL A   1      50.019  28.079  23.644  1.00  0.00    -0.203 F 
ATOM    116  C   UNL A   1      52.221  27.591  24.315  1.00  0.00     0.198 A 
ATOM    117  C   UNL A   1      52.716  27.216  26.633  1.00  0.00     0.198 A 
ATOM    118  F   UNL A   1      50.994  27.288  28.233  1.00  0.00    -0.203 F 
ATOM    119  F   UNL A   1      52.621  27.650  23.037  1.00  0.00    -0.200 F 
ATOM    120  C   UNL A   1      53.138  27.306  25.315  1.00  0.00     0.200 A 
ATOM    121  F   UNL A   1      53.603  26.954  27.603  1.00  0.00    -0.200 F 
ATOM    122  F   UNL A   1      54.427  27.111  25.008  1.00  0.00    -0.200 F 
ENDBRANCH  92 112
BRANCH  95 123
ATOM    123  C   UNL A   1      40.853  28.754  28.624  1.00  0.00     0.064 A 
ATOM    124  C   UNL A   1      39.847  29.105  27.714  1.00  0.00     0.173 A 
ATOM    125  C   UNL A   1      40.481  28.550  29.961  1.00  0.00     0.173 A 
ATOM    126  F   UNL A   1      40.155  29.328  26.428  1.00  0.00    -0.203 F 
ATOM    127  C   UNL A   1      38.527  29.269  28.128  1.00  0.00     0.198 A 
ATOM    128  C   UNL A   1      39.155  28.683  30.368  1.00  0.00     0.198 A 
ATOM    129  F   UNL A   1      41.404  28.206  30.871  1.00  0.00    -0.203 F 
ATOM    130  F   UNL A   1      37.592  29.651  27.247  1.00  0.00    -0.200 F 
ATOM    131  C   UNL A   1      38.180  29.052  29.454  1.00  0.00     0.200 A 
ATOM    132  F   UNL A   1      38.822  28.455  31.646  1.00  0.00    -0.200 F 
ATOM    133  F   UNL A   1      36.910  29.204  29.850  1.00  0.00    -0.200 F 
ENDBRANCH  95 123
BRANCH 110 134
ATOM    134  C   UNL A   1      46.334  33.058  28.513  1.00  0.00     0.064 A 
ATOM    135  C   UNL A   1      46.125  34.090  27.585  1.00  0.00     0.173 A 
ATOM    136  C   UNL A   1      46.671  33.413  29.827  1.00  0.00     0.173 A 
ATOM    137  F   UNL A   1      45.816  33.802  26.313  1.00  0.00    -0.203 F 
ATOM    138  C   UNL A   1      46.277  35.424  27.954  1.00  0.00     0.198 A 
ATOM    139  C   UNL A   1      46.790  34.750  30.201  1.00  0.00     0.198 A 
ATOM    140  F   UNL A   1      46.876  32.466  30.754  1.00  0.00    -0.203 F 
ATOM    141  F   UNL A   1      46.125  36.391  27.039  1.00  0.00    -0.200 F 
ATOM    142  C   UNL A   1      46.601  35.752  29.263  1.00  0.00     0.200 A 
ATOM    143  F   UNL A   1      47.089  35.066  31.468  1.00  0.00    -0.200 F 
ATOM    144  F   UNL A   1      46.741  37.037  29.617  1.00  0.00    -0.200 F 
ENDBRANCH 110 134
ENDBRANCH  75  78
ENDBRANCH  65  68
ENDBRANCH  61  64
ENDBRANCH  58  61
ENDBRANCH  55  58
ENDBRANCH  52  55
ENDBRANCH   1  52
TORSDOF 22
ENDMDL
MODEL 3
REMARK VINA RESULT:     -10.8      1.584      4.210
REMARK SMILES COc1ccc(/C=C/c2cc(OC)cc(OC)c2/C=C/C(=O)NCCCCCCNC(=O)c2ccc(-c3c4nc(c(-c5c(F)c(F)c(F)c(F)c5F)c5ccc([nH]5)c(-c5c(F)c(F)c(F)c(F)c5F)c5nc(c(-c6c(F)c(F)c(F)c(F)c6F)c6ccc3[nH]6)C=C5)C=C4)cc2)cc1
REMARK SMILES IDX 25 1 24 4 23 7 21 8 22 9 20 11 19 12 18 15 9 16 10 17 11 18
REMARK SMILES IDX 15 20 14 21 8 23 7 24 6 27 3 28 4 29 97 30 5 31 96 33 2 37
REMARK SMILES IDX 1 38 12 42 13 43 16 47 17 48 26 52 27 55 28 58 29 61 30 64
REMARK SMILES IDX 31 65 32 67 33 68 34 69 95 70 35 71 94 73 36 75 37 78 38 79
REMARK SMILES IDX 88 80 39 81 93 82 87 83 89 84 40 85 92 86 86 88 85 90 41 92
REMARK SMILES IDX 73 95 53 96 72 97 54 98 57 99 71 100 90 101 55 102 56 104
REMARK SMILES IDX 70 106 91 107 58 110 42 112 43 113 51 114 44 115 45 116
REMARK SMILES IDX 49 117 52 118 46 119 47 120 50 121 48 122 74 123 75 124
REMARK SMILES IDX 83 125 76 126 77 127 81 128 84 129 78 130 79 131 82 132
REMARK SMILES IDX 80 133 59 134 60 135 68 136 61 137 62 138 66 139 69 140
REMARK SMILES IDX 63 141 64 142 67 143 65 144
REMARK H PARENT 25 2 25 3 24 5 24 6 23 10 19 13 20 14 10 19 14 22 7 25 8 26
REMARK H PARENT 4 32 97 34 5 35 96 36 1 39 1 40 1 41 13 44 13 45 13 46 17 49
REMARK H PARENT 17 50 17 51 26 53 26 54 27 56 27 57 28 59 28 60 29 62 29 63
REMARK H PARENT 30 66 34 72 95 74 35 76 94 77 93 87 87 89 89 91 92 93 86 94
REMARK H PARENT 54 103 57 105 90 108 55 109 91 111
REMARK Flexibility Score: inf
ROOT
ATOM      1  C   UNL A   1      39.005  23.111  26.638  1.00  0.00    -0.036 C 
ATOM      2  H   UNL A   1      39.007  23.197  27.704  1.00  0.00     0.028 H 
ATOM      3  H   UNL A   1      39.772  23.699  26.179  1.00  0.00     0.028 H 
ENDROOT
BRANCH   1   4
ATOM      4  C   UNL A   1      37.672  23.633  26.116  1.00  0.00     0.018 C 
ATOM      5  H   UNL A   1      36.884  23.019  26.497  1.00  0.00     0.049 H 
ATOM      6  H   UNL A   1      37.556  24.646  26.444  1.00  0.00     0.049 H 
BRANCH   4   7
ATOM      7  N   UNL A   1      37.628  23.614  24.671  1.00  0.00    -0.353 N 
ATOM      8  C   UNL A   1      36.575  23.329  23.862  1.00  0.00     0.244 C 
ATOM      9  O   UNL A   1      36.674  23.413  22.644  1.00  0.00    -0.270 OA
ATOM     10  H   UNL A   1      38.472  23.836  24.214  1.00  0.00     0.163 HD
BRANCH   8  11
ATOM     11  C   UNL A   1      35.282  22.959  24.471  1.00  0.00     0.004 C 
ATOM     12  C   UNL A   1      34.260  23.828  24.483  1.00  0.00    -0.045 C 
ATOM     13  H   UNL A   1      34.345  24.704  23.945  1.00  0.00     0.063 H 
ATOM     14  H   UNL A   1      35.163  22.023  24.890  1.00  0.00     0.068 H 
BRANCH  12  15
ATOM     15  C   UNL A   1      33.021  23.576  25.236  1.00  0.00     0.024 A 
ATOM     16  C   UNL A   1      32.475  24.635  26.019  1.00  0.00    -0.011 A 
ATOM     17  C   UNL A   1      31.332  24.411  26.807  1.00  0.00    -0.012 A 
ATOM     18  C   UNL A   1      30.725  23.161  26.850  1.00  0.00     0.123 A 
ATOM     19  H   UNL A   1      30.937  25.187  27.361  1.00  0.00     0.067 H 
ATOM     20  C   UNL A   1      32.387  22.314  25.269  1.00  0.00     0.130 A 
ATOM     21  C   UNL A   1      31.241  22.136  26.067  1.00  0.00     0.023 A 
ATOM     22  H   UNL A   1      30.772  21.217  26.071  1.00  0.00     0.070 H 
BRANCH  16  23
ATOM     23  C   UNL A   1      33.058  25.991  26.127  1.00  0.00    -0.054 C 
ATOM     24  C   UNL A   1      32.425  27.013  26.726  1.00  0.00    -0.054 C 
ATOM     25  H   UNL A   1      31.490  26.818  27.115  1.00  0.00     0.063 H 
ATOM     26  H   UNL A   1      33.993  26.158  25.723  1.00  0.00     0.063 H 
BRANCH  24  27
ATOM     27  C   UNL A   1      32.938  28.392  26.880  1.00  0.00    -0.025 A 
ATOM     28  C   UNL A   1      34.057  30.973  27.249  1.00  0.00     0.118 A 
ATOM     29  C   UNL A   1      32.707  30.819  26.932  1.00  0.00    -0.019 A 
ATOM     30  C   UNL A   1      34.855  29.837  27.359  1.00  0.00    -0.019 A 
ATOM     31  C   UNL A   1      32.152  29.543  26.743  1.00  0.00    -0.051 A 
ATOM     32  H   UNL A   1      32.108  31.654  26.836  1.00  0.00     0.066 H 
ATOM     33  C   UNL A   1      34.298  28.563  27.180  1.00  0.00    -0.051 A 
ATOM     34  H   UNL A   1      35.859  29.934  27.573  1.00  0.00     0.066 H 
ATOM     35  H   UNL A   1      31.154  29.453  26.500  1.00  0.00     0.063 H 
ATOM     36  H   UNL A   1      34.902  27.731  27.271  1.00  0.00     0.063 H 
BRANCH  28  37
ATOM     37  O   UNL A   1      34.463  32.262  27.464  1.00  0.00    -0.497 OA
BRANCH  37  38
ATOM     38  C   UNL A   1      34.409  32.735  28.805  1.00  0.00     0.078 C 
ATOM     39  H   UNL A   1      35.271  32.391  29.339  1.00  0.00     0.067 H 
ATOM     40  H   UNL A   1      33.524  32.363  29.278  1.00  0.00     0.067 H 
ATOM     41  H   UNL A   1      34.393  33.804  28.806  1.00  0.00     0.067 H 
ENDBRANCH  37  38
ENDBRANCH  28  37
ENDBRANCH  24  27
ENDBRANCH  16  23
BRANCH  18  42
ATOM     42  O   UNL A   1      29.651  23.054  27.690  1.00  0.00    -0.497 OA
BRANCH  42  43
ATOM     43  C   UNL A   1      28.595  22.203  27.251  1.00  0.00     0.078 C 
ATOM     44  H   UNL A   1      28.911  21.663  26.382  1.00  0.00     0.067 H 
ATOM     45  H   UNL A   1      27.737  22.794  27.011  1.00  0.00     0.067 H 
ATOM     46  H   UNL A   1      28.346  21.512  28.029  1.00  0.00     0.067 H 
ENDBRANCH  42  43
ENDBRANCH  18  42
BRANCH  20  47
ATOM     47  O   UNL A   1      32.711  21.125  24.673  1.00  0.00    -0.496 OA
BRANCH  47  48
ATOM     48  C   UNL A   1      32.285  20.769  23.373  1.00  0.00     0.078 C 
ATOM     49  H   UNL A   1      32.500  19.737  23.196  1.00  0.00     0.067 H 
ATOM     50  H   UNL A   1      32.801  21.369  22.651  1.00  0.00     0.067 H 
ATOM     51  H   UNL A   1      31.231  20.933  23.284  1.00  0.00     0.067 H 
ENDBRANCH  47  48
ENDBRANCH  20  47
ENDBRANCH  12  15
ENDBRANCH   8  11
ENDBRANCH   4   7
ENDBRANCH   1   4
BRANCH   1  52
ATOM     52  C   UNL A   1      39.282  21.649  26.271  1.00  0.00    -0.052 C 
ATOM     53  H   UNL A   1      39.153  21.542  25.215  1.00  0.00     0.027 H 
ATOM     54  H   UNL A   1      38.598  21.062  26.846  1.00  0.00     0.027 H 
BRANCH  52  55
ATOM     55  C   UNL A   1      40.686  21.146  26.632  1.00  0.00    -0.052 C 
ATOM     56  H   UNL A   1      40.716  20.969  27.686  1.00  0.00     0.027 H 
ATOM     57  H   UNL A   1      41.370  21.904  26.312  1.00  0.00     0.027 H 
BRANCH  55  58
ATOM     58  C   UNL A   1      41.106  19.859  25.920  1.00  0.00    -0.036 C 
ATOM     59  H   UNL A   1      41.319  20.097  24.898  1.00  0.00     0.028 H 
ATOM     60  H   UNL A   1      40.295  19.171  26.029  1.00  0.00     0.028 H 
BRANCH  58  61
ATOM     61  C   UNL A   1      42.332  19.180  26.515  1.00  0.00     0.018 C 
ATOM     62  H   UNL A   1      42.024  18.301  27.041  1.00  0.00     0.049 H 
ATOM     63  H   UNL A   1      42.813  19.869  27.178  1.00  0.00     0.049 H 
BRANCH  61  64
ATOM     64  N   UNL A   1      43.279  18.803  25.480  1.00  0.00    -0.352 N 
ATOM     65  C   UNL A   1      44.110  19.599  24.734  1.00  0.00     0.251 C 
ATOM     66  H   UNL A   1      43.332  17.839  25.288  1.00  0.00     0.163 HD
ATOM     67  O   UNL A   1      44.641  19.150  23.723  1.00  0.00    -0.269 OA
BRANCH  65  68
ATOM     68  C   UNL A   1      44.367  21.000  25.136  1.00  0.00     0.039 A 
ATOM     69  C   UNL A   1      43.673  22.023  24.484  1.00  0.00    -0.049 A 
ATOM     70  C   UNL A   1      45.321  21.314  26.109  1.00  0.00    -0.049 A 
ATOM     71  C   UNL A   1      43.909  23.355  24.831  1.00  0.00    -0.053 A 
ATOM     72  H   UNL A   1      42.987  21.794  23.748  1.00  0.00     0.063 H 
ATOM     73  C   UNL A   1      45.501  22.637  26.507  1.00  0.00    -0.053 A 
ATOM     74  H   UNL A   1      45.893  20.567  26.531  1.00  0.00     0.063 H 
ATOM     75  C   UNL A   1      44.808  23.673  25.862  1.00  0.00    -0.014 A 
ATOM     76  H   UNL A   1      43.419  24.111  24.328  1.00  0.00     0.063 H 
ATOM     77  H   UNL A   1      46.146  22.857  27.281  1.00  0.00     0.063 H 
BRANCH  75  78
ATOM     78  C   UNL A   1      45.044  25.084  26.263  1.00  0.00     0.031 A 
ATOM     79  C   UNL A   1      46.420  25.680  26.166  1.00  0.00     0.074 A 
ATOM     80  C   UNL A   1      44.029  25.815  26.762  1.00  0.00     0.049 A 
ATOM     81  N   UNL A   1      46.828  26.877  26.507  1.00  0.00    -0.248 NA
ATOM     82  C   UNL A   1      47.484  24.812  25.640  1.00  0.00    -0.034 C 
ATOM     83  C   UNL A   1      42.664  25.330  26.950  1.00  0.00    -0.036 A 
ATOM     84  N   UNL A   1      43.982  27.110  27.212  1.00  0.00    -0.354 N 
ATOM     85  C   UNL A   1      48.190  26.900  26.247  1.00  0.00     0.074 A 
ATOM     86  C   UNL A   1      48.553  25.582  25.773  1.00  0.00    -0.034 C 
ATOM     87  H   UNL A   1      47.415  23.853  25.265  1.00  0.00     0.065 H 
ATOM     88  C   UNL A   1      41.907  26.311  27.460  1.00  0.00    -0.036 A 
ATOM     89  H   UNL A   1      42.334  24.378  26.724  1.00  0.00     0.065 H 
ATOM     90  C   UNL A   1      42.743  27.489  27.670  1.00  0.00     0.049 A 
ATOM     91  H   UNL A   1      44.761  27.711  27.207  1.00  0.00     0.167 HD
ATOM     92  C   UNL A   1      49.055  27.935  26.372  1.00  0.00     0.037 A 
ATOM     93  H   UNL A   1      49.519  25.282  25.565  1.00  0.00     0.065 H 
ATOM     94  H   UNL A   1      40.899  26.246  27.670  1.00  0.00     0.065 H 
ATOM     95  C   UNL A   1      42.328  28.651  28.208  1.00  0.00     0.037 A 
ATOM     96  C   UNL A   1      48.681  29.250  26.824  1.00  0.00     0.049 A 
ATOM     97  C   UNL A   1      43.310  29.781  28.341  1.00  0.00     0.074 A 
ATOM     98  C   UNL A   1      49.467  30.385  26.920  1.00  0.00    -0.036 A 
ATOM     99  N   UNL A   1      47.412  29.603  27.264  1.00  0.00    -0.354 N 
ATOM    100  N   UNL A   1      44.578  29.816  28.015  1.00  0.00    -0.248 NA
ATOM    101  C   UNL A   1      42.800  31.038  28.905  1.00  0.00    -0.034 C 
ATOM    102  C   UNL A   1      48.689  31.409  27.469  1.00  0.00    -0.036 A 
ATOM    103  H   UNL A   1      50.456  30.461  26.636  1.00  0.00     0.065 H 
ATOM    104  C   UNL A   1      47.402  30.932  27.660  1.00  0.00     0.049 A 
ATOM    105  H   UNL A   1      46.635  28.999  27.291  1.00  0.00     0.167 HD
ATOM    106  C   UNL A   1      45.013  31.100  28.308  1.00  0.00     0.074 A 
ATOM    107  C   UNL A   1      43.866  31.821  28.820  1.00  0.00    -0.034 C 
ATOM    108  H   UNL A   1      41.859  31.254  29.271  1.00  0.00     0.065 H 
ATOM    109  H   UNL A   1      49.018  32.362  27.694  1.00  0.00     0.065 H 
ATOM    110  C   UNL A   1      46.251  31.635  28.166  1.00  0.00     0.037 A 
ATOM    111  H   UNL A   1      43.877  32.818  29.085  1.00  0.00     0.065 H 
BRANCH  92 112
ATOM    112  C   UNL A   1      50.492  27.688  26.014  1.00  0.00     0.064 A 
ATOM    113  C   UNL A   1      51.444  27.335  26.982  1.00  0.00     0.173 A 
ATOM    114  C   UNL A   1      50.915  27.766  24.678  1.00  0.00     0.173 A 
ATOM    115  F   UNL A   1      51.095  27.257  28.275  1.00  0.00    -0.203 F 
ATOM    116  C   UNL A   1      52.771  27.099  26.631  1.00  0.00     0.198 A 
ATOM    117  C   UNL A   1      52.236  27.498  24.326  1.00  0.00     0.198 A 
ATOM    118  F   UNL A   1      50.045  28.094  23.711  1.00  0.00    -0.203 F 
ATOM    119  F   UNL A   1      53.672  26.813  27.581  1.00  0.00    -0.200 F 
ATOM    120  C   UNL A   1      53.164  27.173  25.303  1.00  0.00     0.200 A 
ATOM    121  F   UNL A   1      52.610  27.555  23.040  1.00  0.00    -0.200 F 
ATOM    122  F   UNL A   1      54.438  26.935  24.966  1.00  0.00    -0.200 F 
ENDBRANCH  92 112
BRANCH  95 123
ATOM    123  C   UNL A   1      40.914  28.807  28.643  1.00  0.00     0.064 A 
ATOM    124  C   UNL A   1      40.546  28.626  29.982  1.00  0.00     0.173 A 
ATOM    125  C   UNL A   1      39.903  29.138  27.728  1.00  0.00     0.173 A 
ATOM    126  F   UNL A   1      41.473  28.291  30.892  1.00  0.00    -0.203 F 
ATOM    127  C   UNL A   1      39.219  28.746  30.388  1.00  0.00     0.198 A 
ATOM    128  C   UNL A   1      38.580  29.289  28.140  1.00  0.00     0.198 A 
ATOM    129  F   UNL A   1      40.202  29.329  26.435  1.00  0.00    -0.203 F 
ATOM    130  F   UNL A   1      38.887  28.521  31.666  1.00  0.00    -0.200 F 
ATOM    131  C   UNL A   1      38.237  29.084  29.467  1.00  0.00     0.200 A 
ATOM    132  F   UNL A   1      37.638  29.633  27.251  1.00  0.00    -0.200 F 
ATOM    133  F   UNL A   1      36.962  29.204  29.859  1.00  0.00    -0.200 F 
ENDBRANCH  95 123
BRANCH 110 134
ATOM    134  C   UNL A   1      46.419  33.079  28.540  1.00  0.00     0.064 A 
ATOM    135  C   UNL A   1      46.806  33.466  29.832  1.00  0.00     0.173 A 
ATOM    136  C   UNL A   1      46.223  34.086  27.583  1.00  0.00     0.173 A 
ATOM    137  F   UNL A   1      46.990  32.542  30.787  1.00  0.00    -0.203 F 
ATOM    138  C   UNL A   1      46.960  34.810  30.160  1.00  0.00     0.198 A 
ATOM    139  C   UNL A   1      46.411  35.428  27.906  1.00  0.00     0.198 A 
ATOM    140  F   UNL A   1      45.860  33.770  26.332  1.00  0.00    -0.203 F 
ATOM    141  F   UNL A   1      47.276  35.159  31.414  1.00  0.00    -0.200 F 
ATOM    142  C   UNL A   1      46.770  35.789  29.195  1.00  0.00     0.200 A 
ATOM    143  F   UNL A   1      46.242  36.371  26.969  1.00  0.00    -0.200 F 
ATOM    144  F   UNL A   1      46.926  37.082  29.511  1.00  0.00    -0.200 F 
ENDBRANCH 110 134
ENDBRANCH  75  78
ENDBRANCH  65  68
ENDBRANCH  61  64
ENDBRANCH  58  61
ENDBRANCH  55  58
ENDBRANCH  52  55
ENDBRANCH   1  52
TORSDOF 22
ENDMDL
MODEL 4
REMARK VINA RESULT:     -10.8      1.689      8.213
REMARK SMILES COc1ccc(/C=C/c2cc(OC)cc(OC)c2/C=C/C(=O)NCCCCCCNC(=O)c2ccc(-c3c4nc(c(-c5c(F)c(F)c(F)c(F)c5F)c5ccc([nH]5)c(-c5c(F)c(F)c(F)c(F)c5F)c5nc(c(-c6c(F)c(F)c(F)c(F)c6F)c6ccc3[nH]6)C=C5)C=C4)cc2)cc1
REMARK SMILES IDX 25 1 24 4 23 7 21 8 22 9 20 11 19 12 18 15 9 16 10 17 11 18
REMARK SMILES IDX 15 20 14 21 8 23 7 24 6 27 3 28 4 29 97 30 5 31 96 33 2 37
REMARK SMILES IDX 1 38 12 42 13 43 16 47 17 48 26 52 27 55 28 58 29 61 30 64
REMARK SMILES IDX 31 65 32 67 33 68 34 69 95 70 35 71 94 73 36 75 37 78 38 79
REMARK SMILES IDX 88 80 39 81 93 82 87 83 89 84 40 85 92 86 86 88 85 90 41 92
REMARK SMILES IDX 73 95 53 96 72 97 54 98 57 99 71 100 90 101 55 102 56 104
REMARK SMILES IDX 70 106 91 107 58 110 42 112 43 113 51 114 44 115 45 116
REMARK SMILES IDX 49 117 52 118 46 119 47 120 50 121 48 122 74 123 75 124
REMARK SMILES IDX 83 125 76 126 77 127 81 128 84 129 78 130 79 131 82 132
REMARK SMILES IDX 80 133 59 134 60 135 68 136 61 137 62 138 66 139 69 140
REMARK SMILES IDX 63 141 64 142 67 143 65 144
REMARK H PARENT 25 2 25 3 24 5 24 6 23 10 19 13 20 14 10 19 14 22 7 25 8 26
REMARK H PARENT 4 32 97 34 5 35 96 36 1 39 1 40 1 41 13 44 13 45 13 46 17 49
REMARK H PARENT 17 50 17 51 26 53 26 54 27 56 27 57 28 59 28 60 29 62 29 63
REMARK H PARENT 30 66 34 72 95 74 35 76 94 77 93 87 87 89 89 91 92 93 86 94
REMARK H PARENT 54 103 57 105 90 108 55 109 91 111
REMARK Flexibility Score: inf
ROOT
ATOM      1  C   UNL A   1      39.021  22.998  26.681  1.00  0.00    -0.036 C 
ATOM      2  H   UNL A   1      38.986  22.934  27.748  1.00  0.00     0.028 H 
ATOM      3  H   UNL A   1      39.764  23.686  26.336  1.00  0.00     0.028 H 
ENDROOT
BRANCH   1   4
ATOM      4  C   UNL A   1      37.675  23.510  26.185  1.00  0.00     0.018 C 
ATOM      5  H   UNL A   1      36.902  22.864  26.544  1.00  0.00     0.049 H 
ATOM      6  H   UNL A   1      37.538  24.506  26.554  1.00  0.00     0.049 H 
BRANCH   4   7
ATOM      7  N   UNL A   1      37.624  23.548  24.741  1.00  0.00    -0.353 N 
ATOM      8  C   UNL A   1      36.560  23.327  23.927  1.00  0.00     0.244 C 
ATOM      9  O   UNL A   1      36.657  23.456  22.712  1.00  0.00    -0.270 OA
ATOM     10  H   UNL A   1      38.473  23.761  24.288  1.00  0.00     0.163 HD
BRANCH   8  11
ATOM     11  C   UNL A   1      35.258  22.976  24.527  1.00  0.00     0.004 C 
ATOM     12  C   UNL A   1      34.224  23.828  24.464  1.00  0.00    -0.045 C 
ATOM     13  H   UNL A   1      34.310  24.671  23.875  1.00  0.00     0.063 H 
ATOM     14  H   UNL A   1      35.142  22.066  25.000  1.00  0.00     0.068 H 
BRANCH  12  15
ATOM     15  C   UNL A   1      32.972  23.604  25.203  1.00  0.00     0.024 A 
ATOM     16  C   UNL A   1      32.456  24.665  26.004  1.00  0.00    -0.011 A 
ATOM     17  C   UNL A   1      31.301  24.464  26.779  1.00  0.00    -0.012 A 
ATOM     18  C   UNL A   1      30.650  23.235  26.792  1.00  0.00     0.123 A 
ATOM     19  H   UNL A   1      30.928  25.242  27.346  1.00  0.00     0.067 H 
ATOM     20  C   UNL A   1      32.294  22.365  25.205  1.00  0.00     0.130 A 
ATOM     21  C   UNL A   1      31.137  22.210  25.992  1.00  0.00     0.023 A 
ATOM     22  H   UNL A   1      30.636  21.308  25.973  1.00  0.00     0.070 H 
BRANCH  16  23
ATOM     23  C   UNL A   1      33.085  25.997  26.144  1.00  0.00    -0.054 C 
ATOM     24  C   UNL A   1      32.451  27.051  26.684  1.00  0.00    -0.054 C 
ATOM     25  H   UNL A   1      31.482  26.899  27.003  1.00  0.00     0.063 H 
ATOM     26  H   UNL A   1      34.054  26.122  25.812  1.00  0.00     0.063 H 
BRANCH  24  27
ATOM     27  C   UNL A   1      33.007  28.410  26.865  1.00  0.00    -0.025 A 
ATOM     28  C   UNL A   1      34.213  30.946  27.272  1.00  0.00     0.118 A 
ATOM     29  C   UNL A   1      32.839  30.835  27.053  1.00  0.00    -0.019 A 
ATOM     30  C   UNL A   1      34.989  29.790  27.264  1.00  0.00    -0.019 A 
ATOM     31  C   UNL A   1      32.241  29.582  26.845  1.00  0.00    -0.051 A 
ATOM     32  H   UNL A   1      32.255  31.686  27.044  1.00  0.00     0.066 H 
ATOM     33  C   UNL A   1      34.390  28.538  27.066  1.00  0.00    -0.051 A 
ATOM     34  H   UNL A   1      36.009  29.855  27.404  1.00  0.00     0.066 H 
ATOM     35  H   UNL A   1      31.225  29.524  26.677  1.00  0.00     0.063 H 
ATOM     36  H   UNL A   1      34.979  27.691  27.070  1.00  0.00     0.063 H 
BRANCH  28  37
ATOM     37  O   UNL A   1      34.665  32.214  27.517  1.00  0.00    -0.497 OA
BRANCH  37  38
ATOM     38  C   UNL A   1      33.712  33.149  28.009  1.00  0.00     0.078 C 
ATOM     39  H   UNL A   1      32.831  33.114  27.401  1.00  0.00     0.067 H 
ATOM     40  H   UNL A   1      34.129  34.133  27.976  1.00  0.00     0.067 H 
ATOM     41  H   UNL A   1      33.458  32.901  29.018  1.00  0.00     0.067 H 
ENDBRANCH  37  38
ENDBRANCH  28  37
ENDBRANCH  24  27
ENDBRANCH  16  23
BRANCH  18  42
ATOM     42  O   UNL A   1      29.567  23.148  27.622  1.00  0.00    -0.497 OA
BRANCH  42  43
ATOM     43  C   UNL A   1      28.569  22.200  27.252  1.00  0.00     0.078 C 
ATOM     44  H   UNL A   1      28.736  21.882  26.243  1.00  0.00     0.067 H 
ATOM     45  H   UNL A   1      27.602  22.649  27.329  1.00  0.00     0.067 H 
ATOM     46  H   UNL A   1      28.622  21.353  27.905  1.00  0.00     0.067 H 
ENDBRANCH  42  43
ENDBRANCH  18  42
BRANCH  20  47
ATOM     47  O   UNL A   1      32.581  21.177  24.586  1.00  0.00    -0.496 OA
BRANCH  47  48
ATOM     48  C   UNL A   1      32.975  20.015  25.287  1.00  0.00     0.078 C 
ATOM     49  H   UNL A   1      32.801  19.154  24.677  1.00  0.00     0.067 H 
ATOM     50  H   UNL A   1      32.405  19.932  26.190  1.00  0.00     0.067 H 
ATOM     51  H   UNL A   1      34.016  20.077  25.527  1.00  0.00     0.067 H 
ENDBRANCH  47  48
ENDBRANCH  20  47
ENDBRANCH  12  15
ENDBRANCH   8  11
ENDBRANCH   4   7
ENDBRANCH   1   4
BRANCH   1  52
ATOM     52  C   UNL A   1      39.399  21.620  26.128  1.00  0.00    -0.052 C 
ATOM     53  H   UNL A   1      39.339  21.662  25.060  1.00  0.00     0.027 H 
ATOM     54  H   UNL A   1      38.715  20.923  26.565  1.00  0.00     0.027 H 
BRANCH  52  55
ATOM     55  C   UNL A   1      40.804  21.133  26.504  1.00  0.00    -0.052 C 
ATOM     56  H   UNL A   1      40.901  21.185  27.568  1.00  0.00     0.027 H 
ATOM     57  H   UNL A   1      41.493  21.768  25.987  1.00  0.00     0.027 H 
BRANCH  55  58
ATOM     58  C   UNL A   1      41.125  19.703  26.067  1.00  0.00    -0.036 C 
ATOM     59  H   UNL A   1      41.099  19.667  24.997  1.00  0.00     0.028 H 
ATOM     60  H   UNL A   1      40.392  19.072  26.524  1.00  0.00     0.028 H 
BRANCH  58  61
ATOM     61  C   UNL A   1      42.484  19.192  26.526  1.00  0.00     0.018 C 
ATOM     62  H   UNL A   1      42.344  18.317  27.125  1.00  0.00     0.049 H 
ATOM     63  H   UNL A   1      42.964  19.965  27.090  1.00  0.00     0.049 H 
BRANCH  61  64
ATOM     64  N   UNL A   1      43.331  18.858  25.394  1.00  0.00    -0.352 N 
ATOM     65  C   UNL A   1      44.085  19.686  24.602  1.00  0.00     0.251 C 
ATOM     66  H   UNL A   1      43.369  17.902  25.163  1.00  0.00     0.163 HD
ATOM     67  O   UNL A   1      44.520  19.277  23.530  1.00  0.00    -0.269 OA
BRANCH  65  68
ATOM     68  C   UNL A   1      44.373  21.074  25.028  1.00  0.00     0.039 A 
ATOM     69  C   UNL A   1      45.213  21.278  26.127  1.00  0.00    -0.049 A 
ATOM     70  C   UNL A   1      43.781  22.168  24.391  1.00  0.00    -0.049 A 
ATOM     71  C   UNL A   1      45.487  22.576  26.562  1.00  0.00    -0.053 A 
ATOM     72  H   UNL A   1      45.630  20.469  26.615  1.00  0.00     0.063 H 
ATOM     73  C   UNL A   1      44.114  23.465  24.778  1.00  0.00    -0.053 A 
ATOM     74  H   UNL A   1      43.096  22.017  23.634  1.00  0.00     0.063 H 
ATOM     75  C   UNL A   1      44.958  23.682  25.877  1.00  0.00    -0.014 A 
ATOM     76  H   UNL A   1      46.082  22.723  27.392  1.00  0.00     0.063 H 
ATOM     77  H   UNL A   1      43.739  24.269  24.252  1.00  0.00     0.063 H 
BRANCH  75  78
ATOM     78  C   UNL A   1      45.268  25.070  26.309  1.00  0.00     0.031 A 
ATOM     79  C   UNL A   1      44.193  25.940  26.895  1.00  0.00     0.074 A 
ATOM     80  C   UNL A   1      46.509  25.563  26.130  1.00  0.00     0.049 A 
ATOM     81  N   UNL A   1      44.262  27.186  27.291  1.00  0.00    -0.248 NA
ATOM     82  C   UNL A   1      42.857  25.341  27.033  1.00  0.00    -0.034 C 
ATOM     83  C   UNL A   1      47.619  24.832  25.527  1.00  0.00    -0.036 A 
ATOM     84  N   UNL A   1      47.044  26.792  26.421  1.00  0.00    -0.354 N 
ATOM     85  C   UNL A   1      42.984  27.520  27.712  1.00  0.00     0.074 A 
ATOM     86  C   UNL A   1      42.144  26.367  27.474  1.00  0.00    -0.034 C 
ATOM     87  H   UNL A   1      42.554  24.374  26.838  1.00  0.00     0.065 H 
ATOM     88  C   UNL A   1      48.709  25.612  25.505  1.00  0.00    -0.036 A 
ATOM     89  H   UNL A   1      47.573  23.863  25.174  1.00  0.00     0.065 H 
ATOM     90  C   UNL A   1      48.364  26.917  26.060  1.00  0.00     0.049 A 
ATOM     91  H   UNL A   1      46.532  27.516  26.849  1.00  0.00     0.167 HD
ATOM     92  C   UNL A   1      42.555  28.678  28.269  1.00  0.00     0.037 A 
ATOM     93  H   UNL A   1      41.123  26.346  27.627  1.00  0.00     0.065 H 
ATOM     94  H   UNL A   1      49.639  25.337  25.153  1.00  0.00     0.065 H 
ATOM     95  C   UNL A   1      49.201  27.966  26.157  1.00  0.00     0.037 A 
ATOM     96  C   UNL A   1      43.403  29.814  28.523  1.00  0.00     0.049 A 
ATOM     97  C   UNL A   1      48.698  29.242  26.773  1.00  0.00     0.074 A 
ATOM     98  C   UNL A   1      43.082  31.008  29.145  1.00  0.00    -0.036 A 
ATOM     99  N   UNL A   1      44.740  29.899  28.160  1.00  0.00    -0.354 N 
ATOM    100  N   UNL A   1      47.507  29.518  27.243  1.00  0.00    -0.248 NA
ATOM    101  C   UNL A   1      49.659  30.348  26.884  1.00  0.00    -0.034 C 
ATOM    102  C   UNL A   1      44.208  31.836  29.110  1.00  0.00    -0.036 A 
ATOM    103  H   UNL A   1      42.169  31.245  29.562  1.00  0.00     0.065 H 
ATOM    104  C   UNL A   1      45.250  31.138  28.520  1.00  0.00     0.049 A 
ATOM    105  H   UNL A   1      45.251  29.186  27.713  1.00  0.00     0.167 HD
ATOM    106  C   UNL A   1      47.579  30.816  27.728  1.00  0.00     0.074 A 
ATOM    107  C   UNL A   1      48.940  31.266  27.513  1.00  0.00    -0.034 C 
ATOM    108  H   UNL A   1      50.637  30.396  26.558  1.00  0.00     0.065 H 
ATOM    109  H   UNL A   1      44.256  32.804  29.464  1.00  0.00     0.065 H 
ATOM    110  C   UNL A   1      46.607  31.569  28.301  1.00  0.00     0.037 A 
ATOM    111  H   UNL A   1      49.302  32.184  27.813  1.00  0.00     0.065 H 
BRANCH  92 112
ATOM    112  C   UNL A   1      41.104  28.776  28.643  1.00  0.00     0.064 A 
ATOM    113  C   UNL A   1      40.116  29.077  27.693  1.00  0.00     0.173 A 
ATOM    114  C   UNL A   1      40.691  28.526  29.960  1.00  0.00     0.173 A 
ATOM    115  F   UNL A   1      40.458  29.336  26.422  1.00  0.00    -0.203 F 
ATOM    116  C   UNL A   1      38.773  29.153  28.054  1.00  0.00     0.198 A 
ATOM    117  C   UNL A   1      39.343  28.571  30.311  1.00  0.00     0.198 A 
ATOM    118  F   UNL A   1      41.593  28.228  30.907  1.00  0.00    -0.203 F 
ATOM    119  F   UNL A   1      37.854  29.492  27.140  1.00  0.00    -0.200 F 
ATOM    120  C   UNL A   1      38.387  28.892  29.360  1.00  0.00     0.200 A 
ATOM    121  F   UNL A   1      38.972  28.304  31.571  1.00  0.00    -0.200 F 
ATOM    122  F   UNL A   1      37.094  28.955  29.703  1.00  0.00    -0.200 F 
ENDBRANCH  92 112
BRANCH  95 123
ATOM    123  C   UNL A   1      50.603  27.847  25.675  1.00  0.00     0.064 A 
ATOM    124  C   UNL A   1      51.656  27.608  26.568  1.00  0.00     0.173 A 
ATOM    125  C   UNL A   1      50.919  27.973  24.314  1.00  0.00     0.173 A 
ATOM    126  F   UNL A   1      51.407  27.498  27.882  1.00  0.00    -0.203 F 
ATOM    127  C   UNL A   1      52.973  27.522  26.124  1.00  0.00     0.198 A 
ATOM    128  C   UNL A   1      52.234  27.854  23.866  1.00  0.00     0.198 A 
ATOM    129  F   UNL A   1      49.949  28.195  23.416  1.00  0.00    -0.203 F 
ATOM    130  F   UNL A   1      53.965  27.339  27.005  1.00  0.00    -0.200 F 
ATOM    131  C   UNL A   1      53.261  27.639  24.772  1.00  0.00     0.200 A 
ATOM    132  F   UNL A   1      52.505  27.951  22.557  1.00  0.00    -0.200 F 
ATOM    133  F   UNL A   1      54.527  27.551  24.345  1.00  0.00    -0.200 F 
ENDBRANCH  95 123
BRANCH 110 134
ATOM    134  C   UNL A   1      46.990  32.944  28.764  1.00  0.00     0.064 A 
ATOM    135  C   UNL A   1      47.521  33.170  30.043  1.00  0.00     0.173 A 
ATOM    136  C   UNL A   1      46.853  34.045  27.905  1.00  0.00     0.173 A 
ATOM    137  F   UNL A   1      47.657  32.153  30.907  1.00  0.00    -0.203 F 
ATOM    138  C   UNL A   1      47.873  34.453  30.454  1.00  0.00     0.198 A 
ATOM    139  C   UNL A   1      47.237  35.321  28.308  1.00  0.00     0.198 A 
ATOM    140  F   UNL A   1      46.356  33.882  26.670  1.00  0.00    -0.203 F 
ATOM    141  F   UNL A   1      48.327  34.653  31.699  1.00  0.00    -0.200 F 
ATOM    142  C   UNL A   1      47.738  35.525  29.584  1.00  0.00     0.200 A 
ATOM    143  F   UNL A   1      47.120  36.353  27.461  1.00  0.00    -0.200 F 
ATOM    144  F   UNL A   1      48.083  36.758  29.980  1.00  0.00    -0.200 F 
ENDBRANCH 110 134
ENDBRANCH  75  78
ENDBRANCH  65  68
ENDBRANCH  61  64
ENDBRANCH  58  61
ENDBRANCH  55  58
ENDBRANCH  52  55
ENDBRANCH   1  52
TORSDOF 22
ENDMDL
MODEL 5
REMARK VINA RESULT:     -10.5      4.750     10.168
REMARK SMILES COc1ccc(/C=C/c2cc(OC)cc(OC)c2/C=C/C(=O)NCCCCCCNC(=O)c2ccc(-c3c4nc(c(-c5c(F)c(F)c(F)c(F)c5F)c5ccc([nH]5)c(-c5c(F)c(F)c(F)c(F)c5F)c5nc(c(-c6c(F)c(F)c(F)c(F)c6F)c6ccc3[nH]6)C=C5)C=C4)cc2)cc1
REMARK SMILES IDX 25 1 24 4 23 7 21 8 22 9 20 11 19 12 18 15 9 16 10 17 11 18
REMARK SMILES IDX 15 20 14 21 8 23 7 24 6 27 3 28 4 29 97 30 5 31 96 33 2 37
REMARK SMILES IDX 1 38 12 42 13 43 16 47 17 48 26 52 27 55 28 58 29 61 30 64
REMARK SMILES IDX 31 65 32 67 33 68 34 69 95 70 35 71 94 73 36 75 37 78 38 79
REMARK SMILES IDX 88 80 39 81 93 82 87 83 89 84 40 85 92 86 86 88 85 90 41 92
REMARK SMILES IDX 73 95 53 96 72 97 54 98 57 99 71 100 90 101 55 102 56 104
REMARK SMILES IDX 70 106 91 107 58 110 42 112 43 113 51 114 44 115 45 116
REMARK SMILES IDX 49 117 52 118 46 119 47 120 50 121 48 122 74 123 75 124
REMARK SMILES IDX 83 125 76 126 77 127 81 128 84 129 78 130 79 131 82 132
REMARK SMILES IDX 80 133 59 134 60 135 68 136 61 137 62 138 66 139 69 140
REMARK SMILES IDX 63 141 64 142 67 143 65 144
REMARK H PARENT 25 2 25 3 24 5 24 6 23 10 19 13 20 14 10 19 14 22 7 25 8 26
REMARK H PARENT 4 32 97 34 5 35 96 36 1 39 1 40 1 41 13 44 13 45 13 46 17 49
REMARK H PARENT 17 50 17 51 26 53 26 54 27 56 27 57 28 59 28 60 29 62 29 63
REMARK H PARENT 30 66 34 72 95 74 35 76 94 77 93 87 87 89 89 91 92 93 86 94
REMARK H PARENT 54 103 57 105 90 108 55 109 91 111
REMARK Flexibility Score: inf
ROOT
ATOM      1  C   UNL A   1      44.876  21.536  24.257  1.00  0.00    -0.036 C 
ATOM      2  H   UNL A   1      44.128  21.264  23.542  1.00  0.00     0.028 H 
ATOM      3  H   UNL A   1      45.847  21.177  23.990  1.00  0.00     0.028 H 
ENDROOT
BRANCH   1   4
ATOM      4  C   UNL A   1      44.517  20.900  25.593  1.00  0.00     0.018 C 
ATOM      5  H   UNL A   1      45.405  20.504  26.041  1.00  0.00     0.049 H 
ATOM      6  H   UNL A   1      44.081  21.651  26.219  1.00  0.00     0.049 H 
BRANCH   4   7
ATOM      7  N   UNL A   1      43.558  19.831  25.428  1.00  0.00    -0.353 N 
ATOM      8  C   UNL A   1      42.281  19.764  25.886  1.00  0.00     0.244 C 
ATOM      9  O   UNL A   1      41.561  18.811  25.611  1.00  0.00    -0.270 OA
ATOM     10  H   UNL A   1      43.871  19.050  24.916  1.00  0.00     0.163 HD
BRANCH   8  11
ATOM     11  C   UNL A   1      41.745  20.884  26.684  1.00  0.00     0.004 C 
ATOM     12  C   UNL A   1      41.064  21.879  26.096  1.00  0.00    -0.045 C 
ATOM     13  H   UNL A   1      40.804  21.783  25.102  1.00  0.00     0.063 H 
ATOM     14  H   UNL A   1      41.895  20.901  27.706  1.00  0.00     0.068 H 
BRANCH  12  15
ATOM     15  C   UNL A   1      40.674  23.100  26.817  1.00  0.00     0.024 A 
ATOM     16  C   UNL A   1      39.299  23.475  26.824  1.00  0.00    -0.011 A 
ATOM     17  C   UNL A   1      38.899  24.673  27.443  1.00  0.00    -0.012 A 
ATOM     18  C   UNL A   1      39.828  25.515  28.043  1.00  0.00     0.123 A 
ATOM     19  H   UNL A   1      37.900  24.930  27.453  1.00  0.00     0.067 H 
ATOM     20  C   UNL A   1      41.610  23.950  27.447  1.00  0.00     0.130 A 
ATOM     21  C   UNL A   1      41.165  25.137  28.059  1.00  0.00     0.023 A 
ATOM     22  H   UNL A   1      41.851  25.743  28.534  1.00  0.00     0.070 H 
BRANCH  16  23
ATOM     23  C   UNL A   1      38.215  22.716  26.162  1.00  0.00    -0.054 C 
ATOM     24  C   UNL A   1      37.001  23.237  25.918  1.00  0.00    -0.054 C 
ATOM     25  H   UNL A   1      36.843  24.211  26.219  1.00  0.00     0.063 H 
ATOM     26  H   UNL A   1      38.399  21.742  25.876  1.00  0.00     0.063 H 
BRANCH  24  27
ATOM     27  C   UNL A   1      35.869  22.550  25.260  1.00  0.00    -0.025 A 
ATOM     28  C   UNL A   1      33.631  21.382  23.964  1.00  0.00     0.118 A 
ATOM     29  C   UNL A   1      34.466  20.615  24.777  1.00  0.00    -0.019 A 
ATOM     30  C   UNL A   1      33.927  22.730  23.779  1.00  0.00    -0.019 A 
ATOM     31  C   UNL A   1      35.577  21.189  25.414  1.00  0.00    -0.051 A 
ATOM     32  H   UNL A   1      34.264  19.612  24.912  1.00  0.00     0.066 H 
ATOM     33  C   UNL A   1      35.032  23.305  24.424  1.00  0.00    -0.051 A 
ATOM     34  H   UNL A   1      33.332  23.307  23.165  1.00  0.00     0.066 H 
ATOM     35  H   UNL A   1      36.186  20.602  26.004  1.00  0.00     0.063 H 
ATOM     36  H   UNL A   1      35.233  24.307  24.281  1.00  0.00     0.063 H 
BRANCH  28  37
ATOM     37  O   UNL A   1      32.551  20.721  23.447  1.00  0.00    -0.497 OA
BRANCH  37  38
ATOM     38  C   UNL A   1      32.488  19.318  23.678  1.00  0.00     0.078 C 
ATOM     39  H   UNL A   1      32.065  18.834  22.822  1.00  0.00     0.067 H 
ATOM     40  H   UNL A   1      31.878  19.125  24.536  1.00  0.00     0.067 H 
ATOM     41  H   UNL A   1      33.475  18.941  23.849  1.00  0.00     0.067 H 
ENDBRANCH  37  38
ENDBRANCH  28  37
ENDBRANCH  24  27
ENDBRANCH  16  23
BRANCH  18  42
ATOM     42  O   UNL A   1      39.324  26.674  28.567  1.00  0.00    -0.497 OA
BRANCH  42  43
ATOM     43  C   UNL A   1      39.236  26.730  29.989  1.00  0.00     0.078 C 
ATOM     44  H   UNL A   1      38.687  25.884  30.346  1.00  0.00     0.067 H 
ATOM     45  H   UNL A   1      38.736  27.629  30.280  1.00  0.00     0.067 H 
ATOM     46  H   UNL A   1      40.221  26.719  30.408  1.00  0.00     0.067 H 
ENDBRANCH  42  43
ENDBRANCH  18  42
BRANCH  20  47
ATOM     47  O   UNL A   1      42.974  23.873  27.551  1.00  0.00    -0.496 OA
BRANCH  47  48
ATOM     48  C   UNL A   1      43.637  23.434  28.719  1.00  0.00     0.078 C 
ATOM     49  H   UNL A   1      42.915  23.198  29.472  1.00  0.00     0.067 H 
ATOM     50  H   UNL A   1      44.283  24.209  29.076  1.00  0.00     0.067 H 
ATOM     51  H   UNL A   1      44.215  22.562  28.495  1.00  0.00     0.067 H 
ENDBRANCH  47  48
ENDBRANCH  20  47
ENDBRANCH  12  15
ENDBRANCH   8  11
ENDBRANCH   4   7
ENDBRANCH   1   4
BRANCH   1  52
ATOM     52  C   UNL A   1      44.963  23.066  24.305  1.00  0.00    -0.052 C 
ATOM     53  H   UNL A   1      44.225  23.419  24.995  1.00  0.00     0.027 H 
ATOM     54  H   UNL A   1      44.806  23.405  23.303  1.00  0.00     0.027 H 
BRANCH  52  55
ATOM     55  C   UNL A   1      46.325  23.625  24.737  1.00  0.00    -0.052 C 
ATOM     56  H   UNL A   1      46.528  24.497  24.153  1.00  0.00     0.027 H 
ATOM     57  H   UNL A   1      47.035  22.839  24.584  1.00  0.00     0.027 H 
BRANCH  55  58
ATOM     58  C   UNL A   1      46.419  24.008  26.214  1.00  0.00    -0.036 C 
ATOM     59  H   UNL A   1      46.947  23.231  26.728  1.00  0.00     0.028 H 
ATOM     60  H   UNL A   1      45.415  24.131  26.562  1.00  0.00     0.028 H 
BRANCH  58  61
ATOM     61  C   UNL A   1      47.134  25.326  26.481  1.00  0.00     0.018 C 
ATOM     62  H   UNL A   1      48.180  25.137  26.603  1.00  0.00     0.049 H 
ATOM     63  H   UNL A   1      46.722  25.761  27.367  1.00  0.00     0.049 H 
BRANCH  61  64
ATOM     64  N   UNL A   1      46.948  26.258  25.383  1.00  0.00    -0.352 N 
ATOM     65  C   UNL A   1      46.048  27.286  25.262  1.00  0.00     0.251 C 
ATOM     66  H   UNL A   1      47.552  26.133  24.616  1.00  0.00     0.163 HD
ATOM     67  O   UNL A   1      45.846  27.796  24.164  1.00  0.00    -0.269 OA
BRANCH  65  68
ATOM     68  C   UNL A   1      45.314  27.783  26.448  1.00  0.00     0.039 A 
ATOM     69  C   UNL A   1      45.430  29.133  26.791  1.00  0.00    -0.049 A 
ATOM     70  C   UNL A   1      44.561  26.921  27.251  1.00  0.00    -0.049 A 
ATOM     71  C   UNL A   1      44.763  29.625  27.915  1.00  0.00    -0.053 A 
ATOM     72  H   UNL A   1      46.007  29.765  26.214  1.00  0.00     0.063 H 
ATOM     73  C   UNL A   1      43.836  27.427  28.328  1.00  0.00    -0.053 A 
ATOM     74  H   UNL A   1      44.542  25.910  27.047  1.00  0.00     0.063 H 
ATOM     75  C   UNL A   1      43.941  28.781  28.681  1.00  0.00    -0.014 A 
ATOM     76  H   UNL A   1      44.874  30.614  28.185  1.00  0.00     0.063 H 
ATOM     77  H   UNL A   1      43.217  26.803  28.868  1.00  0.00     0.063 H 
BRANCH  75  78
ATOM     78  C   UNL A   1      43.200  29.298  29.860  1.00  0.00     0.031 A 
ATOM     79  C   UNL A   1      41.762  29.714  29.730  1.00  0.00     0.074 A 
ATOM     80  C   UNL A   1      43.837  29.440  31.038  1.00  0.00     0.049 A 
ATOM     81  N   UNL A   1      40.965  30.226  30.635  1.00  0.00    -0.248 NA
ATOM     82  C   UNL A   1      41.144  29.557  28.406  1.00  0.00    -0.034 C 
ATOM     83  C   UNL A   1      45.242  29.119  31.272  1.00  0.00    -0.036 A 
ATOM     84  N   UNL A   1      43.398  29.900  32.254  1.00  0.00    -0.354 N 
ATOM     85  C   UNL A   1      39.761  30.460  29.987  1.00  0.00     0.074 A 
ATOM     86  C   UNL A   1      39.946  30.087  28.601  1.00  0.00    -0.034 C 
ATOM     87  H   UNL A   1      41.539  29.141  27.547  1.00  0.00     0.065 H 
ATOM     88  C   UNL A   1      45.552  29.373  32.551  1.00  0.00    -0.036 A 
ATOM     89  H   UNL A   1      45.896  28.751  30.562  1.00  0.00     0.065 H 
ATOM     90  C   UNL A   1      44.373  29.911  33.222  1.00  0.00     0.049 A 
ATOM     91  H   UNL A   1      42.473  30.193  32.418  1.00  0.00     0.167 HD
ATOM     92  C   UNL A   1      38.600  30.923  30.508  1.00  0.00     0.037 A 
ATOM     93  H   UNL A   1      39.237  30.218  27.862  1.00  0.00     0.065 H 
ATOM     94  H   UNL A   1      46.472  29.214  32.990  1.00  0.00     0.065 H 
ATOM     95  C   UNL A   1      44.327  30.319  34.504  1.00  0.00     0.037 A 
ATOM     96  C   UNL A   1      38.419  31.271  31.894  1.00  0.00     0.049 A 
ATOM     97  C   UNL A   1      43.027  30.834  35.056  1.00  0.00     0.074 A 
ATOM     98  C   UNL A   1      37.264  31.684  32.535  1.00  0.00    -0.036 A 
ATOM     99  N   UNL A   1      39.424  31.254  32.851  1.00  0.00    -0.354 N 
ATOM    100  N   UNL A   1      41.872  30.974  34.453  1.00  0.00    -0.248 NA
ATOM    101  C   UNL A   1      43.021  31.237  36.469  1.00  0.00    -0.034 C 
ATOM    102  C   UNL A   1      37.582  31.969  33.866  1.00  0.00    -0.036 A 
ATOM    103  H   UNL A   1      36.330  31.767  32.105  1.00  0.00     0.065 H 
ATOM    104  C   UNL A   1      38.921  31.677  34.072  1.00  0.00     0.049 A 
ATOM    105  H   UNL A   1      40.355  30.982  32.687  1.00  0.00     0.167 HD
ATOM    106  C   UNL A   1      40.995  31.455  35.416  1.00  0.00     0.074 A 
ATOM    107  C   UNL A   1      41.749  31.563  36.648  1.00  0.00    -0.034 C 
ATOM    108  H   UNL A   1      43.801  31.259  37.144  1.00  0.00     0.065 H 
ATOM    109  H   UNL A   1      36.929  32.334  34.578  1.00  0.00     0.065 H 
ATOM    110  C   UNL A   1      39.684  31.777  35.290  1.00  0.00     0.037 A 
ATOM    111  H   UNL A   1      41.345  31.857  37.551  1.00  0.00     0.065 H 
BRANCH  92 112
ATOM    112  C   UNL A   1      37.433  31.080  29.577  1.00  0.00     0.064 A 
ATOM    113  C   UNL A   1      37.138  32.307  28.962  1.00  0.00     0.173 A 
ATOM    114  C   UNL A   1      36.621  29.979  29.263  1.00  0.00     0.173 A 
ATOM    115  F   UNL A   1      37.875  33.393  29.237  1.00  0.00    -0.203 F 
ATOM    116  C   UNL A   1      36.058  32.432  28.092  1.00  0.00     0.198 A 
ATOM    117  C   UNL A   1      35.561  30.101  28.367  1.00  0.00     0.198 A 
ATOM    118  F   UNL A   1      36.861  28.781  29.817  1.00  0.00    -0.203 F 
ATOM    119  F   UNL A   1      35.767  33.627  27.558  1.00  0.00    -0.200 F 
ATOM    120  C   UNL A   1      35.276  31.328  27.789  1.00  0.00     0.200 A 
ATOM    121  F   UNL A   1      34.816  29.029  28.064  1.00  0.00    -0.200 F 
ATOM    122  F   UNL A   1      34.244  31.449  26.944  1.00  0.00    -0.200 F 
ENDBRANCH  92 112
BRANCH  95 123
ATOM    123  C   UNL A   1      45.544  30.237  35.356  1.00  0.00     0.064 A 
ATOM    124  C   UNL A   1      45.839  29.077  36.085  1.00  0.00     0.173 A 
ATOM    125  C   UNL A   1      46.434  31.316  35.461  1.00  0.00     0.173 A 
ATOM    126  F   UNL A   1      45.009  28.025  36.032  1.00  0.00    -0.203 F 
ATOM    127  C   UNL A   1      46.964  29.007  36.903  1.00  0.00     0.198 A 
ATOM    128  C   UNL A   1      47.576  31.234  36.255  1.00  0.00     0.198 A 
ATOM    129  F   UNL A   1      46.203  32.448  34.779  1.00  0.00    -0.203 F 
ATOM    130  F   UNL A   1      47.197  27.903  37.626  1.00  0.00    -0.200 F 
ATOM    131  C   UNL A   1      47.835  30.084  36.983  1.00  0.00     0.200 A 
ATOM    132  F   UNL A   1      48.424  32.270  36.316  1.00  0.00    -0.200 F 
ATOM    133  F   UNL A   1      48.919  30.013  37.767  1.00  0.00    -0.200 F 
ENDBRANCH  95 123
BRANCH 110 134
ATOM    134  C   UNL A   1      38.974  32.247  36.526  1.00  0.00     0.064 A 
ATOM    135  C   UNL A   1      39.096  33.566  36.990  1.00  0.00     0.173 A 
ATOM    136  C   UNL A   1      38.135  31.375  37.236  1.00  0.00     0.173 A 
ATOM    137  F   UNL A   1      39.898  34.433  36.356  1.00  0.00    -0.203 F 
ATOM    138  C   UNL A   1      38.426  33.984  38.137  1.00  0.00     0.198 A 
ATOM    139  C   UNL A   1      37.441  31.806  38.363  1.00  0.00     0.198 A 
ATOM    140  F   UNL A   1      37.978  30.106  36.831  1.00  0.00    -0.203 F 
ATOM    141  F   UNL A   1      38.600  35.232  38.593  1.00  0.00    -0.200 F 
ATOM    142  C   UNL A   1      37.594  33.107  38.818  1.00  0.00     0.200 A 
ATOM    143  F   UNL A   1      36.626  30.963  39.011  1.00  0.00    -0.200 F 
ATOM    144  F   UNL A   1      36.946  33.514  39.917  1.00  0.00    -0.200 F 
ENDBRANCH 110 134
ENDBRANCH  75  78
ENDBRANCH  65  68
ENDBRANCH  61  64
ENDBRANCH  58  61
ENDBRANCH  55  58
ENDBRANCH  52  55
ENDBRANCH   1  52
TORSDOF 22
ENDMDL
MODEL 6
REMARK VINA RESULT:     -10.3      4.717      9.921
REMARK SMILES COc1ccc(/C=C/c2cc(OC)cc(OC)c2/C=C/C(=O)NCCCCCCNC(=O)c2ccc(-c3c4nc(c(-c5c(F)c(F)c(F)c(F)c5F)c5ccc([nH]5)c(-c5c(F)c(F)c(F)c(F)c5F)c5nc(c(-c6c(F)c(F)c(F)c(F)c6F)c6ccc3[nH]6)C=C5)C=C4)cc2)cc1
REMARK SMILES IDX 25 1 24 4 23 7 21 8 22 9 20 11 19 12 18 15 9 16 10 17 11 18
REMARK SMILES IDX 15 20 14 21 8 23 7 24 6 27 3 28 4 29 97 30 5 31 96 33 2 37
REMARK SMILES IDX 1 38 12 42 13 43 16 47 17 48 26 52 27 55 28 58 29 61 30 64
REMARK SMILES IDX 31 65 32 67 33 68 34 69 95 70 35 71 94 73 36 75 37 78 38 79
REMARK SMILES IDX 88 80 39 81 93 82 87 83 89 84 40 85 92 86 86 88 85 90 41 92
REMARK SMILES IDX 73 95 53 96 72 97 54 98 57 99 71 100 90 101 55 102 56 104
REMARK SMILES IDX 70 106 91 107 58 110 42 112 43 113 51 114 44 115 45 116
REMARK SMILES IDX 49 117 52 118 46 119 47 120 50 121 48 122 74 123 75 124
REMARK SMILES IDX 83 125 76 126 77 127 81 128 84 129 78 130 79 131 82 132
REMARK SMILES IDX 80 133 59 134 60 135 68 136 61 137 62 138 66 139 69 140
REMARK SMILES IDX 63 141 64 142 67 143 65 144
REMARK H PARENT 25 2 25 3 24 5 24 6 23 10 19 13 20 14 10 19 14 22 7 25 8 26
REMARK H PARENT 4 32 97 34 5 35 96 36 1 39 1 40 1 41 13 44 13 45 13 46 17 49
REMARK H PARENT 17 50 17 51 26 53 26 54 27 56 27 57 28 59 28 60 29 62 29 63
REMARK H PARENT 30 66 34 72 95 74 35 76 94 77 93 87 87 89 89 91 92 93 86 94
REMARK H PARENT 54 103 57 105 90 108 55 109 91 111
REMARK Flexibility Score: inf
ROOT
ATOM      1  C   UNL A   1      42.612  22.457  28.219  1.00  0.00    -0.036 C 
ATOM      2  H   UNL A   1      43.069  22.065  29.103  1.00  0.00     0.028 H 
ATOM      3  H   UNL A   1      43.140  23.299  27.824  1.00  0.00     0.028 H 
ENDROOT
BRANCH   1   4
ATOM      4  C   UNL A   1      41.211  22.937  28.575  1.00  0.00     0.018 C 
ATOM      5  H   UNL A   1      40.498  22.213  28.241  1.00  0.00     0.049 H 
ATOM      6  H   UNL A   1      41.157  23.060  29.638  1.00  0.00     0.049 H 
BRANCH   4   7
ATOM      7  N   UNL A   1      40.916  24.209  27.954  1.00  0.00    -0.353 N 
ATOM      8  C   UNL A   1      39.966  24.497  27.027  1.00  0.00     0.244 C 
ATOM      9  O   UNL A   1      39.793  25.645  26.635  1.00  0.00    -0.270 OA
ATOM     10  H   UNL A   1      41.477  24.966  28.241  1.00  0.00     0.163 HD
BRANCH   8  11
ATOM     11  C   UNL A   1      39.100  23.410  26.526  1.00  0.00     0.004 C 
ATOM     12  C   UNL A   1      37.989  23.688  25.828  1.00  0.00    -0.045 C 
ATOM     13  H   UNL A   1      37.820  24.662  25.531  1.00  0.00     0.063 H 
ATOM     14  H   UNL A   1      39.353  22.427  26.715  1.00  0.00     0.068 H 
BRANCH  12  15
ATOM     15  C   UNL A   1      37.004  22.656  25.471  1.00  0.00     0.024 A 
ATOM     16  C   UNL A   1      35.631  23.028  25.384  1.00  0.00    -0.011 A 
ATOM     17  C   UNL A   1      34.653  22.054  25.114  1.00  0.00    -0.012 A 
ATOM     18  C   UNL A   1      35.000  20.719  24.941  1.00  0.00     0.123 A 
ATOM     19  H   UNL A   1      33.663  22.336  25.042  1.00  0.00     0.067 H 
ATOM     20  C   UNL A   1      37.351  21.301  25.273  1.00  0.00     0.130 A 
ATOM     21  C   UNL A   1      36.340  20.360  24.999  1.00  0.00     0.023 A 
ATOM     22  H   UNL A   1      36.603  19.376  24.836  1.00  0.00     0.070 H 
BRANCH  16  23
ATOM     23  C   UNL A   1      35.111  24.394  25.619  1.00  0.00    -0.054 C 
ATOM     24  C   UNL A   1      33.876  24.778  25.257  1.00  0.00    -0.054 C 
ATOM     25  H   UNL A   1      33.286  24.072  24.792  1.00  0.00     0.063 H 
ATOM     26  H   UNL A   1      35.725  25.082  26.081  1.00  0.00     0.063 H 
BRANCH  24  27
ATOM     27  C   UNL A   1      33.280  26.117  25.458  1.00  0.00    -0.025 A 
ATOM     28  C   UNL A   1      32.003  28.610  25.910  1.00  0.00     0.118 A 
ATOM     29  C   UNL A   1      33.112  28.518  25.069  1.00  0.00    -0.019 A 
ATOM     30  C   UNL A   1      31.545  27.458  26.545  1.00  0.00    -0.019 A 
ATOM     31  C   UNL A   1      33.750  27.287  24.849  1.00  0.00    -0.051 A 
ATOM     32  H   UNL A   1      33.469  29.366  24.601  1.00  0.00     0.066 H 
ATOM     33  C   UNL A   1      32.176  26.228  26.317  1.00  0.00    -0.051 A 
ATOM     34  H   UNL A   1      30.739  27.512  27.186  1.00  0.00     0.066 H 
ATOM     35  H   UNL A   1      34.574  27.243  24.230  1.00  0.00     0.063 H 
ATOM     36  H   UNL A   1      31.820  25.383  26.791  1.00  0.00     0.063 H 
BRANCH  28  37
ATOM     37  O   UNL A   1      31.438  29.853  25.997  1.00  0.00    -0.497 OA
BRANCH  37  38
ATOM     38  C   UNL A   1      30.957  30.424  24.786  1.00  0.00     0.078 C 
ATOM     39  H   UNL A   1      30.744  29.643  24.084  1.00  0.00     0.067 H 
ATOM     40  H   UNL A   1      31.702  31.075  24.379  1.00  0.00     0.067 H 
ATOM     41  H   UNL A   1      30.064  30.979  24.983  1.00  0.00     0.067 H 
ENDBRANCH  37  38
ENDBRANCH  28  37
ENDBRANCH  24  27
ENDBRANCH  16  23
BRANCH  18  42
ATOM     42  O   UNL A   1      33.956  19.859  24.733  1.00  0.00    -0.497 OA
BRANCH  42  43
ATOM     43  C   UNL A   1      32.700  20.462  24.432  1.00  0.00     0.078 C 
ATOM     44  H   UNL A   1      32.634  21.412  24.920  1.00  0.00     0.067 H 
ATOM     45  H   UNL A   1      31.909  19.829  24.775  1.00  0.00     0.067 H 
ATOM     46  H   UNL A   1      32.614  20.598  23.374  1.00  0.00     0.067 H 
ENDBRANCH  42  43
ENDBRANCH  18  42
BRANCH  20  47
ATOM     47  O   UNL A   1      38.558  20.658  25.345  1.00  0.00    -0.496 OA
BRANCH  47  48
ATOM     48  C   UNL A   1      38.685  19.250  25.375  1.00  0.00     0.078 C 
ATOM     49  H   UNL A   1      39.218  18.959  26.256  1.00  0.00     0.067 H 
ATOM     50  H   UNL A   1      39.220  18.921  24.509  1.00  0.00     0.067 H 
ATOM     51  H   UNL A   1      37.712  18.804  25.384  1.00  0.00     0.067 H 
ENDBRANCH  47  48
ENDBRANCH  20  47
ENDBRANCH  12  15
ENDBRANCH   8  11
ENDBRANCH   4   7
ENDBRANCH   1   4
BRANCH   1  52
ATOM     52  C   UNL A   1      42.637  21.369  27.140  1.00  0.00    -0.052 C 
ATOM     53  H   UNL A   1      41.869  20.659  27.367  1.00  0.00     0.027 H 
ATOM     54  H   UNL A   1      43.621  20.951  27.159  1.00  0.00     0.027 H 
BRANCH  52  55
ATOM     55  C   UNL A   1      42.411  21.870  25.708  1.00  0.00    -0.052 C 
ATOM     56  H   UNL A   1      41.604  22.571  25.723  1.00  0.00     0.027 H 
ATOM     57  H   UNL A   1      42.206  21.004  25.114  1.00  0.00     0.027 H 
BRANCH  55  58
ATOM     58  C   UNL A   1      43.622  22.552  25.071  1.00  0.00    -0.036 C 
ATOM     59  H   UNL A   1      43.741  22.164  24.080  1.00  0.00     0.028 H 
ATOM     60  H   UNL A   1      44.459  22.342  25.703  1.00  0.00     0.028 H 
BRANCH  58  61
ATOM     61  C   UNL A   1      43.519  24.068  24.979  1.00  0.00     0.018 C 
ATOM     62  H   UNL A   1      43.109  24.446  25.892  1.00  0.00     0.049 H 
ATOM     63  H   UNL A   1      42.888  24.314  24.150  1.00  0.00     0.049 H 
BRANCH  61  64
ATOM     64  N   UNL A   1      44.821  24.673  24.759  1.00  0.00    -0.352 N 
ATOM     65  C   UNL A   1      45.328  25.844  25.260  1.00  0.00     0.251 C 
ATOM     66  H   UNL A   1      45.425  24.170  24.167  1.00  0.00     0.163 HD
ATOM     67  O   UNL A   1      46.334  26.338  24.760  1.00  0.00    -0.269 OA
BRANCH  65  68
ATOM     68  C   UNL A   1      44.667  26.521  26.398  1.00  0.00     0.039 A 
ATOM     69  C   UNL A   1      44.172  25.742  27.448  1.00  0.00    -0.049 A 
ATOM     70  C   UNL A   1      44.483  27.907  26.413  1.00  0.00    -0.049 A 
ATOM     71  C   UNL A   1      43.528  26.352  28.525  1.00  0.00    -0.053 A 
ATOM     72  H   UNL A   1      44.284  24.716  27.426  1.00  0.00     0.063 H 
ATOM     73  C   UNL A   1      43.907  28.523  27.523  1.00  0.00    -0.053 A 
ATOM     74  H   UNL A   1      44.772  28.475  25.602  1.00  0.00     0.063 H 
ATOM     75  C   UNL A   1      43.410  27.751  28.584  1.00  0.00    -0.014 A 
ATOM     76  H   UNL A   1      43.136  25.773  29.284  1.00  0.00     0.063 H 
ATOM     77  H   UNL A   1      43.847  29.552  27.565  1.00  0.00     0.063 H 
BRANCH  75  78
ATOM     78  C   UNL A   1      42.755  28.416  29.740  1.00  0.00     0.031 A 
ATOM     79  C   UNL A   1      41.371  28.986  29.603  1.00  0.00     0.074 A 
ATOM     80  C   UNL A   1      43.426  28.550  30.900  1.00  0.00     0.049 A 
ATOM     81  N   UNL A   1      40.655  29.636  30.486  1.00  0.00    -0.248 NA
ATOM     82  C   UNL A   1      40.714  28.827  28.298  1.00  0.00    -0.034 C 
ATOM     83  C   UNL A   1      44.789  28.083  31.135  1.00  0.00    -0.036 A 
ATOM     84  N   UNL A   1      43.065  29.125  32.092  1.00  0.00    -0.354 N 
ATOM     85  C   UNL A   1      39.473  29.970  29.841  1.00  0.00     0.074 A 
ATOM     86  C   UNL A   1      39.588  29.501  28.477  1.00  0.00    -0.034 C 
ATOM     87  H   UNL A   1      41.043  28.320  27.461  1.00  0.00     0.065 H 
ATOM     88  C   UNL A   1      45.150  28.372  32.393  1.00  0.00    -0.036 A 
ATOM     89  H   UNL A   1      45.383  27.604  30.440  1.00  0.00     0.065 H 
ATOM     90  C   UNL A   1      44.053  29.079  33.046  1.00  0.00     0.049 A 
ATOM     91  H   UNL A   1      42.182  29.532  32.250  1.00  0.00     0.167 HD
ATOM     92  C   UNL A   1      38.382  30.592  30.348  1.00  0.00     0.037 A 
ATOM     93  H   UNL A   1      38.885  29.670  27.740  1.00  0.00     0.065 H 
ATOM     94  H   UNL A   1      46.054  28.134  32.830  1.00  0.00     0.065 H 
ATOM     95  C   UNL A   1      44.077  29.561  34.303  1.00  0.00     0.037 A 
ATOM     96  C   UNL A   1      38.268  31.036  31.713  1.00  0.00     0.049 A 
ATOM     97  C   UNL A   1      42.855  30.253  34.839  1.00  0.00     0.074 A 
ATOM     98  C   UNL A   1      37.180  31.615  32.343  1.00  0.00    -0.036 A 
ATOM     99  N   UNL A   1      39.282  30.958  32.657  1.00  0.00    -0.354 N 
ATOM    100  N   UNL A   1      41.712  30.490  34.244  1.00  0.00    -0.248 NA
ATOM    101  C   UNL A   1      42.921  30.733  36.226  1.00  0.00    -0.034 C 
ATOM    102  C   UNL A   1      37.553  31.936  33.652  1.00  0.00    -0.036 A 
ATOM    103  H   UNL A   1      36.254  31.780  31.920  1.00  0.00     0.065 H 
ATOM    104  C   UNL A   1      38.854  31.504  33.857  1.00  0.00     0.049 A 
ATOM    105  H   UNL A   1      40.174  30.572  32.498  1.00  0.00     0.167 HD
ATOM    106  C   UNL A   1      40.914  31.122  35.187  1.00  0.00     0.074 A 
ATOM    107  C   UNL A   1      41.698  31.213  36.402  1.00  0.00    -0.034 C 
ATOM    108  H   UNL A   1      43.711  30.703  36.889  1.00  0.00     0.065 H 
ATOM    109  H   UNL A   1      36.960  32.414  34.348  1.00  0.00     0.065 H 
ATOM    110  C   UNL A   1      39.647  31.585  35.059  1.00  0.00     0.037 A 
ATOM    111  H   UNL A   1      41.348  31.601  37.291  1.00  0.00     0.065 H 
BRANCH  92 112
ATOM    112  C   UNL A   1      37.223  30.829  29.423  1.00  0.00     0.064 A 
ATOM    113  C   UNL A   1      36.305  29.814  29.114  1.00  0.00     0.173 A 
ATOM    114  C   UNL A   1      37.005  32.100  28.870  1.00  0.00     0.173 A 
ATOM    115  F   UNL A   1      36.474  28.578  29.608  1.00  0.00    -0.203 F 
ATOM    116  C   UNL A   1      35.229  30.054  28.263  1.00  0.00     0.198 A 
ATOM    117  C   UNL A   1      35.909  32.345  28.044  1.00  0.00     0.198 A 
ATOM    118  F   UNL A   1      37.848  33.108  29.136  1.00  0.00    -0.203 F 
ATOM    119  F   UNL A   1      34.395  29.055  27.943  1.00  0.00    -0.200 F 
ATOM    120  C   UNL A   1      35.028  31.321  27.735  1.00  0.00     0.200 A 
ATOM    121  F   UNL A   1      35.709  33.573  27.547  1.00  0.00    -0.200 F 
ATOM    122  F   UNL A   1      33.987  31.552  26.925  1.00  0.00    -0.200 F 
ENDBRANCH  92 112
BRANCH  95 123
ATOM    123  C   UNL A   1      45.293  29.389  35.143  1.00  0.00     0.064 A 
ATOM    124  C   UNL A   1      45.448  28.265  35.966  1.00  0.00     0.173 A 
ATOM    125  C   UNL A   1      46.320  30.343  35.142  1.00  0.00     0.173 A 
ATOM    126  F   UNL A   1      44.485  27.333  36.015  1.00  0.00    -0.203 F 
ATOM    127  C   UNL A   1      46.573  28.114  36.773  1.00  0.00     0.198 A 
ATOM    128  C   UNL A   1      47.460  30.175  35.926  1.00  0.00     0.198 A 
ATOM    129  F   UNL A   1      46.226  31.434  34.367  1.00  0.00    -0.203 F 
ATOM    130  F   UNL A   1      46.674  27.053  37.586  1.00  0.00    -0.200 F 
ATOM    131  C   UNL A   1      47.581  29.066  36.748  1.00  0.00     0.200 A 
ATOM    132  F   UNL A   1      48.440  31.088  35.886  1.00  0.00    -0.200 F 
ATOM    133  F   UNL A   1      48.665  28.917  37.521  1.00  0.00    -0.200 F 
ENDBRANCH  95 123
BRANCH 110 134
ATOM    134  C   UNL A   1      39.017  32.203  36.273  1.00  0.00     0.064 A 
ATOM    135  C   UNL A   1      38.137  31.482  37.094  1.00  0.00     0.173 A 
ATOM    136  C   UNL A   1      39.325  33.522  36.638  1.00  0.00     0.173 A 
ATOM    137  F   UNL A   1      37.799  30.223  36.781  1.00  0.00    -0.203 F 
ATOM    138  C   UNL A   1      37.565  32.071  38.219  1.00  0.00     0.198 A 
ATOM    139  C   UNL A   1      38.777  34.097  37.782  1.00  0.00     0.198 A 
ATOM    140  F   UNL A   1      40.166  34.252  35.891  1.00  0.00    -0.203 F 
ATOM    141  F   UNL A   1      36.685  31.382  38.958  1.00  0.00    -0.200 F 
ATOM    142  C   UNL A   1      37.892  33.374  38.565  1.00  0.00     0.200 A 
ATOM    143  F   UNL A   1      39.105  35.350  38.123  1.00  0.00    -0.200 F 
ATOM    144  F   UNL A   1      37.345  33.936  39.652  1.00  0.00    -0.200 F 
ENDBRANCH 110 134
ENDBRANCH  75  78
ENDBRANCH  65  68
ENDBRANCH  61  64
ENDBRANCH  58  61
ENDBRANCH  55  58
ENDBRANCH  52  55
ENDBRANCH   1  52
TORSDOF 22
ENDMDL
MODEL 7
REMARK VINA RESULT:     -10.3      6.698     12.730
REMARK SMILES COc1ccc(/C=C/c2cc(OC)cc(OC)c2/C=C/C(=O)NCCCCCCNC(=O)c2ccc(-c3c4nc(c(-c5c(F)c(F)c(F)c(F)c5F)c5ccc([nH]5)c(-c5c(F)c(F)c(F)c(F)c5F)c5nc(c(-c6c(F)c(F)c(F)c(F)c6F)c6ccc3[nH]6)C=C5)C=C4)cc2)cc1
REMARK SMILES IDX 25 1 24 4 23 7 21 8 22 9 20 11 19 12 18 15 9 16 10 17 11 18
REMARK SMILES IDX 15 20 14 21 8 23 7 24 6 27 3 28 4 29 97 30 5 31 96 33 2 37
REMARK SMILES IDX 1 38 12 42 13 43 16 47 17 48 26 52 27 55 28 58 29 61 30 64
REMARK SMILES IDX 31 65 32 67 33 68 34 69 95 70 35 71 94 73 36 75 37 78 38 79
REMARK SMILES IDX 88 80 39 81 93 82 87 83 89 84 40 85 92 86 86 88 85 90 41 92
REMARK SMILES IDX 73 95 53 96 72 97 54 98 57 99 71 100 90 101 55 102 56 104
REMARK SMILES IDX 70 106 91 107 58 110 42 112 43 113 51 114 44 115 45 116
REMARK SMILES IDX 49 117 52 118 46 119 47 120 50 121 48 122 74 123 75 124
REMARK SMILES IDX 83 125 76 126 77 127 81 128 84 129 78 130 79 131 82 132
REMARK SMILES IDX 80 133 59 134 60 135 68 136 61 137 62 138 66 139 69 140
REMARK SMILES IDX 63 141 64 142 67 143 65 144
REMARK H PARENT 25 2 25 3 24 5 24 6 23 10 19 13 20 14 10 19 14 22 7 25 8 26
REMARK H PARENT 4 32 97 34 5 35 96 36 1 39 1 40 1 41 13 44 13 45 13 46 17 49
REMARK H PARENT 17 50 17 51 26 53 26 54 27 56 27 57 28 59 28 60 29 62 29 63
REMARK H PARENT 30 66 34 72 95 74 35 76 94 77 93 87 87 89 89 91 92 93 86 94
REMARK H PARENT 54 103 57 105 90 108 55 109 91 111
REMARK Flexibility Score: inf
ROOT
ATOM      1  C   UNL A   1      32.912  36.116  31.539  1.00  0.00    -0.036 C 
ATOM      2  H   UNL A   1      32.143  36.860  31.523  1.00  0.00     0.028 H 
ATOM      3  H   UNL A   1      32.532  35.141  31.765  1.00  0.00     0.028 H 
ENDROOT
BRANCH   1   4
ATOM      4  C   UNL A   1      33.904  36.473  32.638  1.00  0.00     0.018 C 
ATOM      5  H   UNL A   1      34.866  36.639  32.199  1.00  0.00     0.049 H 
ATOM      6  H   UNL A   1      33.556  37.357  33.132  1.00  0.00     0.049 H 
BRANCH   4   7
ATOM      7  N   UNL A   1      34.010  35.415  33.617  1.00  0.00    -0.353 N 
ATOM      8  C   UNL A   1      35.092  34.654  33.926  1.00  0.00     0.244 C 
ATOM      9  O   UNL A   1      35.046  33.829  34.831  1.00  0.00    -0.270 OA
ATOM     10  H   UNL A   1      33.190  35.220  34.127  1.00  0.00     0.163 HD
BRANCH   8  11
ATOM     11  C   UNL A   1      36.353  34.867  33.188  1.00  0.00     0.004 C 
ATOM     12  C   UNL A   1      37.291  33.910  33.148  1.00  0.00    -0.045 C 
ATOM     13  H   UNL A   1      37.065  32.976  33.525  1.00  0.00     0.063 H 
ATOM     14  H   UNL A   1      36.513  35.761  32.697  1.00  0.00     0.068 H 
BRANCH  12  15
ATOM     15  C   UNL A   1      38.631  34.143  32.587  1.00  0.00     0.024 A 
ATOM     16  C   UNL A   1      39.717  34.357  33.485  1.00  0.00    -0.011 A 
ATOM     17  C   UNL A   1      40.997  34.652  32.985  1.00  0.00    -0.012 A 
ATOM     18  C   UNL A   1      41.227  34.754  31.617  1.00  0.00     0.123 A 
ATOM     19  H   UNL A   1      41.779  34.794  33.643  1.00  0.00     0.067 H 
ATOM     20  C   UNL A   1      38.876  34.228  31.198  1.00  0.00     0.130 A 
ATOM     21  C   UNL A   1      40.175  34.520  30.741  1.00  0.00     0.023 A 
ATOM     22  H   UNL A   1      40.350  34.561  29.725  1.00  0.00     0.070 H 
BRANCH  16  23
ATOM     23  C   UNL A   1      39.603  34.352  34.961  1.00  0.00    -0.054 C 
ATOM     24  C   UNL A   1      39.644  35.473  35.700  1.00  0.00    -0.054 C 
ATOM     25  H   UNL A   1      39.765  36.362  35.192  1.00  0.00     0.063 H 
ATOM     26  H   UNL A   1      39.488  33.447  35.443  1.00  0.00     0.063 H 
BRANCH  24  27
ATOM     27  C   UNL A   1      39.533  35.555  37.173  1.00  0.00    -0.025 A 
ATOM     28  C   UNL A   1      39.210  35.589  39.992  1.00  0.00     0.118 A 
ATOM     29  C   UNL A   1      39.818  36.657  39.330  1.00  0.00    -0.019 A 
ATOM     30  C   UNL A   1      38.785  34.492  39.247  1.00  0.00    -0.019 A 
ATOM     31  C   UNL A   1      39.984  36.640  37.936  1.00  0.00    -0.051 A 
ATOM     32  H   UNL A   1      40.148  37.470  39.872  1.00  0.00     0.066 H 
ATOM     33  C   UNL A   1      38.942  34.480  37.854  1.00  0.00    -0.051 A 
ATOM     34  H   UNL A   1      38.352  33.685  39.723  1.00  0.00     0.066 H 
ATOM     35  H   UNL A   1      40.443  37.436  37.468  1.00  0.00     0.063 H 
ATOM     36  H   UNL A   1      38.616  33.662  37.317  1.00  0.00     0.063 H 
BRANCH  28  37
ATOM     37  O   UNL A   1      39.056  35.750  41.342  1.00  0.00    -0.497 OA
BRANCH  37  38
ATOM     38  C   UNL A   1      38.034  34.982  41.965  1.00  0.00     0.078 C 
ATOM     39  H   UNL A   1      37.307  34.694  41.232  1.00  0.00     0.067 H 
ATOM     40  H   UNL A   1      37.561  35.567  42.725  1.00  0.00     0.067 H 
ATOM     41  H   UNL A   1      38.463  34.105  42.403  1.00  0.00     0.067 H 
ENDBRANCH  37  38
ENDBRANCH  28  37
ENDBRANCH  24  27
ENDBRANCH  16  23
BRANCH  18  42
ATOM     42  O   UNL A   1      42.501  35.094  31.255  1.00  0.00    -0.497 OA
BRANCH  42  43
ATOM     43  C   UNL A   1      43.179  35.996  32.126  1.00  0.00     0.078 C 
ATOM     44  H   UNL A   1      43.653  35.445  32.912  1.00  0.00     0.067 H 
ATOM     45  H   UNL A   1      42.476  36.683  32.547  1.00  0.00     0.067 H 
ATOM     46  H   UNL A   1      43.919  36.537  31.574  1.00  0.00     0.067 H 
ENDBRANCH  42  43
ENDBRANCH  18  42
BRANCH  20  47
ATOM     47  O   UNL A   1      38.032  34.122  30.124  1.00  0.00    -0.496 OA
BRANCH  47  48
ATOM     48  C   UNL A   1      38.435  33.604  28.872  1.00  0.00     0.078 C 
ATOM     49  H   UNL A   1      37.659  32.984  28.476  1.00  0.00     0.067 H 
ATOM     50  H   UNL A   1      39.327  33.024  28.996  1.00  0.00     0.067 H 
ATOM     51  H   UNL A   1      38.626  34.411  28.196  1.00  0.00     0.067 H 
ENDBRANCH  47  48
ENDBRANCH  20  47
ENDBRANCH  12  15
ENDBRANCH   8  11
ENDBRANCH   4   7
ENDBRANCH   1   4
BRANCH   1  52
ATOM     52  C   UNL A   1      33.537  36.038  30.142  1.00  0.00    -0.052 C 
ATOM     53  H   UNL A   1      34.591  36.196  30.241  1.00  0.00     0.027 H 
ATOM     54  H   UNL A   1      33.048  36.785  29.553  1.00  0.00     0.027 H 
BRANCH  52  55
ATOM     55  C   UNL A   1      33.324  34.707  29.409  1.00  0.00    -0.052 C 
ATOM     56  H   UNL A   1      33.407  34.889  28.358  1.00  0.00     0.027 H 
ATOM     57  H   UNL A   1      32.356  34.354  29.700  1.00  0.00     0.027 H 
BRANCH  55  58
ATOM     58  C   UNL A   1      34.315  33.605  29.783  1.00  0.00    -0.036 C 
ATOM     59  H   UNL A   1      33.783  32.845  30.319  1.00  0.00     0.028 H 
ATOM     60  H   UNL A   1      35.082  34.068  30.366  1.00  0.00     0.028 H 
BRANCH  58  61
ATOM     61  C   UNL A   1      35.009  32.950  28.596  1.00  0.00     0.018 C 
ATOM     62  H   UNL A   1      35.999  32.665  28.885  1.00  0.00     0.049 H 
ATOM     63  H   UNL A   1      35.038  33.655  27.790  1.00  0.00     0.049 H 
BRANCH  61  64
ATOM     64  N   UNL A   1      34.289  31.771  28.148  1.00  0.00    -0.352 N 
ATOM     65  C   UNL A   1      34.755  30.499  27.939  1.00  0.00     0.251 C 
ATOM     66  H   UNL A   1      33.330  31.905  27.971  1.00  0.00     0.163 HD
ATOM     67  O   UNL A   1      34.077  29.696  27.304  1.00  0.00    -0.269 OA
BRANCH  65  68
ATOM     68  C   UNL A   1      36.075  30.087  28.468  1.00  0.00     0.039 A 
ATOM     69  C   UNL A   1      37.201  30.240  27.654  1.00  0.00    -0.049 A 
ATOM     70  C   UNL A   1      36.202  29.504  29.732  1.00  0.00    -0.049 A 
ATOM     71  C   UNL A   1      38.455  29.843  28.121  1.00  0.00    -0.053 A 
ATOM     72  H   UNL A   1      37.105  30.646  26.710  1.00  0.00     0.063 H 
ATOM     73  C   UNL A   1      37.463  29.178  30.226  1.00  0.00    -0.053 A 
ATOM     74  H   UNL A   1      35.361  29.314  30.299  1.00  0.00     0.063 H 
ATOM     75  C   UNL A   1      38.602  29.329  29.421  1.00  0.00    -0.014 A 
ATOM     76  H   UNL A   1      39.281  29.928  27.508  1.00  0.00     0.063 H 
ATOM     77  H   UNL A   1      37.561  28.824  31.190  1.00  0.00     0.063 H 
BRANCH  75  78
ATOM     78  C   UNL A   1      39.936  28.933  29.941  1.00  0.00     0.031 A 
ATOM     79  C   UNL A   1      40.658  27.752  29.357  1.00  0.00     0.074 A 
ATOM     80  C   UNL A   1      40.476  29.608  30.974  1.00  0.00     0.049 A 
ATOM     81  N   UNL A   1      41.808  27.232  29.707  1.00  0.00    -0.248 NA
ATOM     82  C   UNL A   1      39.992  27.048  28.252  1.00  0.00    -0.034 C 
ATOM     83  C   UNL A   1      39.847  30.737  31.654  1.00  0.00    -0.036 A 
ATOM     84  N   UNL A   1      41.663  29.441  31.642  1.00  0.00    -0.354 N 
ATOM     85  C   UNL A   1      41.995  26.139  28.874  1.00  0.00     0.074 A 
ATOM     86  C   UNL A   1      40.818  26.035  28.040  1.00  0.00    -0.034 C 
ATOM     87  H   UNL A   1      39.111  27.282  27.767  1.00  0.00     0.065 H 
ATOM     88  C   UNL A   1      40.654  31.176  32.631  1.00  0.00    -0.036 A 
ATOM     89  H   UNL A   1      38.925  31.137  31.418  1.00  0.00     0.065 H 
ATOM     90  C   UNL A   1      41.845  30.334  32.670  1.00  0.00     0.049 A 
ATOM     91  H   UNL A   1      42.321  28.749  31.406  1.00  0.00     0.167 HD
ATOM     92  C   UNL A   1      43.064  25.310  28.799  1.00  0.00     0.037 A 
ATOM     93  H   UNL A   1      40.645  25.271  27.367  1.00  0.00     0.065 H 
ATOM     94  H   UNL A   1      40.464  31.977  33.253  1.00  0.00     0.065 H 
ATOM     95  C   UNL A   1      42.853  30.456  33.554  1.00  0.00     0.037 A 
ATOM     96  C   UNL A   1      44.241  25.434  29.619  1.00  0.00     0.049 A 
ATOM     97  C   UNL A   1      44.025  29.519  33.452  1.00  0.00     0.074 A 
ATOM     98  C   UNL A   1      45.406  24.688  29.573  1.00  0.00    -0.036 A 
ATOM     99  N   UNL A   1      44.399  26.361  30.640  1.00  0.00    -0.354 N 
ATOM    100  N   UNL A   1      44.227  28.539  32.606  1.00  0.00    -0.248 NA
ATOM    101  C   UNL A   1      45.114  29.713  34.419  1.00  0.00    -0.034 C 
ATOM    102  C   UNL A   1      46.246  25.127  30.601  1.00  0.00    -0.036 A 
ATOM    103  H   UNL A   1      45.618  23.938  28.897  1.00  0.00     0.065 H 
ATOM    104  C   UNL A   1      45.632  26.186  31.250  1.00  0.00     0.049 A 
ATOM    105  H   UNL A   1      43.734  27.041  30.893  1.00  0.00     0.167 HD
ATOM    106  C   UNL A   1      45.474  28.016  32.919  1.00  0.00     0.074 A 
ATOM    107  C   UNL A   1      45.990  28.802  34.021  1.00  0.00    -0.034 C 
ATOM    108  H   UNL A   1      45.179  30.383  35.201  1.00  0.00     0.065 H 
ATOM    109  H   UNL A   1      47.170  24.730  30.837  1.00  0.00     0.065 H 
ATOM    110  C   UNL A   1      46.132  26.979  32.345  1.00  0.00     0.037 A 
ATOM    111  H   UNL A   1      46.923  28.669  34.442  1.00  0.00     0.065 H 
BRANCH  92 112
ATOM    112  C   UNL A   1      43.011  24.195  27.794  1.00  0.00     0.064 A 
ATOM    113  C   UNL A   1      43.406  24.383  26.461  1.00  0.00     0.173 A 
ATOM    114  C   UNL A   1      42.597  22.911  28.179  1.00  0.00     0.173 A 
ATOM    115  F   UNL A   1      43.800  25.593  26.037  1.00  0.00    -0.203 F 
ATOM    116  C   UNL A   1      43.361  23.335  25.544  1.00  0.00     0.198 A 
ATOM    117  C   UNL A   1      42.584  21.857  27.268  1.00  0.00     0.198 A 
ATOM    118  F   UNL A   1      42.214  22.674  29.443  1.00  0.00    -0.203 F 
ATOM    119  F   UNL A   1      43.695  23.552  24.265  1.00  0.00    -0.200 F 
ATOM    120  C   UNL A   1      42.958  22.072  25.950  1.00  0.00     0.200 A 
ATOM    121  F   UNL A   1      42.208  20.634  27.666  1.00  0.00    -0.200 F 
ATOM    122  F   UNL A   1      42.925  21.063  25.070  1.00  0.00    -0.200 F 
ENDBRANCH  92 112
BRANCH  95 123
ATOM    123  C   UNL A   1      42.807  31.515  34.597  1.00  0.00     0.064 A 
ATOM    124  C   UNL A   1      42.127  31.310  35.804  1.00  0.00     0.173 A 
ATOM    125  C   UNL A   1      43.437  32.753  34.406  1.00  0.00     0.173 A 
ATOM    126  F   UNL A   1      41.492  30.150  36.026  1.00  0.00    -0.203 F 
ATOM    127  C   UNL A   1      42.059  32.310  36.772  1.00  0.00     0.198 A 
ATOM    128  C   UNL A   1      43.396  33.742  35.388  1.00  0.00     0.198 A 
ATOM    129  F   UNL A   1      44.108  33.000  33.271  1.00  0.00    -0.203 F 
ATOM    130  F   UNL A   1      41.362  32.104  37.898  1.00  0.00    -0.200 F 
ATOM    131  C   UNL A   1      42.699  33.523  36.566  1.00  0.00     0.200 A 
ATOM    132  F   UNL A   1      44.031  34.906  35.192  1.00  0.00    -0.200 F 
ATOM    133  F   UNL A   1      42.638  34.482  37.499  1.00  0.00    -0.200 F 
ENDBRANCH  95 123
BRANCH 110 134
ATOM    134  C   UNL A   1      47.497  26.655  32.879  1.00  0.00     0.064 A 
ATOM    135  C   UNL A   1      47.687  25.695  33.884  1.00  0.00     0.173 A 
ATOM    136  C   UNL A   1      48.632  27.291  32.354  1.00  0.00     0.173 A 
ATOM    137  F   UNL A   1      46.633  25.070  34.429  1.00  0.00    -0.203 F 
ATOM    138  C   UNL A   1      48.961  25.406  34.365  1.00  0.00     0.198 A 
ATOM    139  C   UNL A   1      49.908  26.976  32.814  1.00  0.00     0.198 A 
ATOM    140  F   UNL A   1      48.506  28.212  31.388  1.00  0.00    -0.203 F 
ATOM    141  F   UNL A   1      49.114  24.525  35.363  1.00  0.00    -0.200 F 
ATOM    142  C   UNL A   1      50.070  26.041  33.824  1.00  0.00     0.200 A 
ATOM    143  F   UNL A   1      50.979  27.578  32.281  1.00  0.00    -0.200 F 
ATOM    144  F   UNL A   1      51.296  25.756  34.284  1.00  0.00    -0.200 F 
ENDBRANCH 110 134
ENDBRANCH  75  78
ENDBRANCH  65  68
ENDBRANCH  61  64
ENDBRANCH  58  61
ENDBRANCH  55  58
ENDBRANCH  52  55
ENDBRANCH   1  52
TORSDOF 22
ENDMDL
MODEL 8
REMARK VINA RESULT:     -10.2      0.408      2.033
REMARK SMILES COc1ccc(/C=C/c2cc(OC)cc(OC)c2/C=C/C(=O)NCCCCCCNC(=O)c2ccc(-c3c4nc(c(-c5c(F)c(F)c(F)c(F)c5F)c5ccc([nH]5)c(-c5c(F)c(F)c(F)c(F)c5F)c5nc(c(-c6c(F)c(F)c(F)c(F)c6F)c6ccc3[nH]6)C=C5)C=C4)cc2)cc1
REMARK SMILES IDX 25 1 24 4 23 7 21 8 22 9 20 11 19 12 18 15 9 16 10 17 11 18
REMARK SMILES IDX 15 20 14 21 8 23 7 24 6 27 3 28 4 29 97 30 5 31 96 33 2 37
REMARK SMILES IDX 1 38 12 42 13 43 16 47 17 48 26 52 27 55 28 58 29 61 30 64
REMARK SMILES IDX 31 65 32 67 33 68 34 69 95 70 35 71 94 73 36 75 37 78 38 79
REMARK SMILES IDX 88 80 39 81 93 82 87 83 89 84 40 85 92 86 86 88 85 90 41 92
REMARK SMILES IDX 73 95 53 96 72 97 54 98 57 99 71 100 90 101 55 102 56 104
REMARK SMILES IDX 70 106 91 107 58 110 42 112 43 113 51 114 44 115 45 116
REMARK SMILES IDX 49 117 52 118 46 119 47 120 50 121 48 122 74 123 75 124
REMARK SMILES IDX 83 125 76 126 77 127 81 128 84 129 78 130 79 131 82 132
REMARK SMILES IDX 80 133 59 134 60 135 68 136 61 137 62 138 66 139 69 140
REMARK SMILES IDX 63 141 64 142 67 143 65 144
REMARK H PARENT 25 2 25 3 24 5 24 6 23 10 19 13 20 14 10 19 14 22 7 25 8 26
REMARK H PARENT 4 32 97 34 5 35 96 36 1 39 1 40 1 41 13 44 13 45 13 46 17 49
REMARK H PARENT 17 50 17 51 26 53 26 54 27 56 27 57 28 59 28 60 29 62 29 63
REMARK H PARENT 30 66 34 72 95 74 35 76 94 77 93 87 87 89 89 91 92 93 86 94
REMARK H PARENT 54 103 57 105 90 108 55 109 91 111
REMARK Flexibility Score: inf
ROOT
ATOM      1  C   UNL A   1      38.895  22.172  26.442  1.00  0.00    -0.036 C 
ATOM      2  H   UNL A   1      38.621  21.927  27.447  1.00  0.00     0.028 H 
ATOM      3  H   UNL A   1      39.798  22.744  26.393  1.00  0.00     0.028 H 
ENDROOT
BRANCH   1   4
ATOM      4  C   UNL A   1      37.791  23.029  25.837  1.00  0.00     0.018 C 
ATOM      5  H   UNL A   1      36.853  22.742  26.263  1.00  0.00     0.049 H 
ATOM      6  H   UNL A   1      38.006  24.056  26.052  1.00  0.00     0.049 H 
BRANCH   4   7
ATOM      7  N   UNL A   1      37.725  22.868  24.402  1.00  0.00    -0.353 N 
ATOM      8  C   UNL A   1      36.673  23.094  23.573  1.00  0.00     0.244 C 
ATOM      9  O   UNL A   1      36.787  22.970  22.360  1.00  0.00    -0.270 OA
ATOM     10  H   UNL A   1      38.552  22.553  23.968  1.00  0.00     0.163 HD
BRANCH   8  11
ATOM     11  C   UNL A   1      35.390  23.543  24.150  1.00  0.00     0.004 C 
ATOM     12  C   UNL A   1      34.358  23.861  23.355  1.00  0.00    -0.045 C 
ATOM     13  H   UNL A   1      34.427  23.659  22.345  1.00  0.00     0.063 H 
ATOM     14  H   UNL A   1      35.286  23.611  25.174  1.00  0.00     0.068 H 
BRANCH  12  15
ATOM     15  C   UNL A   1      33.130  24.486  23.870  1.00  0.00     0.024 A 
ATOM     16  C   UNL A   1      32.017  23.648  24.173  1.00  0.00    -0.011 A 
ATOM     17  C   UNL A   1      30.804  24.216  24.601  1.00  0.00    -0.012 A 
ATOM     18  C   UNL A   1      30.661  25.593  24.724  1.00  0.00     0.123 A 
ATOM     19  H   UNL A   1      30.007  23.601  24.829  1.00  0.00     0.067 H 
ATOM     20  C   UNL A   1      32.984  25.883  24.017  1.00  0.00     0.130 A 
ATOM     21  C   UNL A   1      31.753  26.408  24.454  1.00  0.00     0.023 A 
ATOM     22  H   UNL A   1      31.660  27.428  24.578  1.00  0.00     0.070 H 
BRANCH  16  23
ATOM     23  C   UNL A   1      32.002  22.176  24.017  1.00  0.00    -0.054 C 
ATOM     24  C   UNL A   1      32.666  21.348  24.839  1.00  0.00    -0.054 C 
ATOM     25  H   UNL A   1      33.206  21.782  25.603  1.00  0.00     0.063 H 
ATOM     26  H   UNL A   1      31.457  21.769  23.241  1.00  0.00     0.063 H 
BRANCH  24  27
ATOM     27  C   UNL A   1      32.699  19.871  24.756  1.00  0.00    -0.025 A 
ATOM     28  C   UNL A   1      32.717  17.052  24.435  1.00  0.00     0.118 A 
ATOM     29  C   UNL A   1      32.722  17.626  25.707  1.00  0.00    -0.019 A 
ATOM     30  C   UNL A   1      32.727  17.887  23.321  1.00  0.00    -0.019 A 
ATOM     31  C   UNL A   1      32.719  19.021  25.868  1.00  0.00    -0.051 A 
ATOM     32  H   UNL A   1      32.727  17.017  26.541  1.00  0.00     0.066 H 
ATOM     33  C   UNL A   1      32.714  19.280  23.483  1.00  0.00    -0.051 A 
ATOM     34  H   UNL A   1      32.744  17.480  22.374  1.00  0.00     0.066 H 
ATOM     35  H   UNL A   1      32.732  19.424  26.817  1.00  0.00     0.063 H 
ATOM     36  H   UNL A   1      32.715  19.884  22.647  1.00  0.00     0.063 H 
BRANCH  28  37
ATOM     37  O   UNL A   1      32.663  15.685  24.412  1.00  0.00    -0.497 OA
BRANCH  37  38
ATOM     38  C   UNL A   1      33.012  15.010  25.615  1.00  0.00     0.078 C 
ATOM     39  H   UNL A   1      32.124  14.652  26.094  1.00  0.00     0.067 H 
ATOM     40  H   UNL A   1      33.521  15.687  26.269  1.00  0.00     0.067 H 
ATOM     41  H   UNL A   1      33.652  14.183  25.388  1.00  0.00     0.067 H 
ENDBRANCH  37  38
ENDBRANCH  28  37
ENDBRANCH  24  27
ENDBRANCH  16  23
BRANCH  18  42
ATOM     42  O   UNL A   1      29.420  26.028  25.100  1.00  0.00    -0.497 OA
BRANCH  42  43
ATOM     43  C   UNL A   1      28.545  26.414  24.043  1.00  0.00     0.078 C 
ATOM     44  H   UNL A   1      27.530  26.345  24.377  1.00  0.00     0.067 H 
ATOM     45  H   UNL A   1      28.690  25.766  23.205  1.00  0.00     0.067 H 
ATOM     46  H   UNL A   1      28.757  27.423  23.755  1.00  0.00     0.067 H 
ENDBRANCH  42  43
ENDBRANCH  18  42
BRANCH  20  47
ATOM     47  O   UNL A   1      33.848  26.914  23.757  1.00  0.00    -0.496 OA
BRANCH  47  48
ATOM     48  C   UNL A   1      33.419  28.198  23.351  1.00  0.00     0.078 C 
ATOM     49  H   UNL A   1      34.265  28.773  23.037  1.00  0.00     0.067 H 
ATOM     50  H   UNL A   1      32.938  28.690  24.171  1.00  0.00     0.067 H 
ATOM     51  H   UNL A   1      32.731  28.105  22.537  1.00  0.00     0.067 H 
ENDBRANCH  47  48
ENDBRANCH  20  47
ENDBRANCH  12  15
ENDBRANCH   8  11
ENDBRANCH   4   7
ENDBRANCH   1   4
BRANCH   1  52
ATOM     52  C   UNL A   1      39.152  20.867  25.681  1.00  0.00    -0.052 C 
ATOM     53  H   UNL A   1      39.465  21.118  24.689  1.00  0.00     0.027 H 
ATOM     54  H   UNL A   1      38.235  20.317  25.712  1.00  0.00     0.027 H 
BRANCH  52  55
ATOM     55  C   UNL A   1      40.220  19.955  26.299  1.00  0.00    -0.052 C 
ATOM     56  H   UNL A   1      40.005  18.947  26.010  1.00  0.00     0.027 H 
ATOM     57  H   UNL A   1      40.172  20.109  27.357  1.00  0.00     0.027 H 
BRANCH  55  58
ATOM     58  C   UNL A   1      41.655  20.275  25.882  1.00  0.00    -0.036 C 
ATOM     59  H   UNL A   1      41.941  21.196  26.346  1.00  0.00     0.028 H 
ATOM     60  H   UNL A   1      41.658  20.328  24.813  1.00  0.00     0.028 H 
BRANCH  58  61
ATOM     61  C   UNL A   1      42.677  19.213  26.265  1.00  0.00     0.018 C 
ATOM     62  H   UNL A   1      42.163  18.308  26.514  1.00  0.00     0.049 H 
ATOM     63  H   UNL A   1      43.240  19.571  27.102  1.00  0.00     0.049 H 
BRANCH  61  64
ATOM     64  N   UNL A   1      43.597  18.948  25.173  1.00  0.00    -0.352 N 
ATOM     65  C   UNL A   1      44.337  19.833  24.430  1.00  0.00     0.251 C 
ATOM     66  H   UNL A   1      43.705  18.001  24.932  1.00  0.00     0.163 HD
ATOM     67  O   UNL A   1      44.848  19.467  23.376  1.00  0.00    -0.269 OA
BRANCH  65  68
ATOM     68  C   UNL A   1      44.518  21.228  24.888  1.00  0.00     0.039 A 
ATOM     69  C   UNL A   1      45.123  21.454  26.128  1.00  0.00    -0.049 A 
ATOM     70  C   UNL A   1      44.051  22.308  24.133  1.00  0.00    -0.049 A 
ATOM     71  C   UNL A   1      45.290  22.760  26.593  1.00  0.00    -0.053 A 
ATOM     72  H   UNL A   1      45.445  20.657  26.699  1.00  0.00     0.063 H 
ATOM     73  C   UNL A   1      44.286  23.613  24.562  1.00  0.00    -0.053 A 
ATOM     74  H   UNL A   1      43.531  22.140  23.258  1.00  0.00     0.063 H 
ATOM     75  C   UNL A   1      44.894  23.853  25.804  1.00  0.00    -0.014 A 
ATOM     76  H   UNL A   1      45.708  22.924  27.522  1.00  0.00     0.063 H 
ATOM     77  H   UNL A   1      44.012  24.407  23.964  1.00  0.00     0.063 H 
BRANCH  75  78
ATOM     78  C   UNL A   1      45.096  25.248  26.272  1.00  0.00     0.031 A 
ATOM     79  C   UNL A   1      46.460  25.877  26.219  1.00  0.00     0.074 A 
ATOM     80  C   UNL A   1      44.060  25.935  26.791  1.00  0.00     0.049 A 
ATOM     81  N   UNL A   1      46.838  27.065  26.619  1.00  0.00    -0.248 NA
ATOM     82  C   UNL A   1      47.547  25.055  25.667  1.00  0.00    -0.034 C 
ATOM     83  C   UNL A   1      42.704  25.413  26.941  1.00  0.00    -0.036 A 
ATOM     84  N   UNL A   1      43.981  27.206  27.300  1.00  0.00    -0.354 N 
ATOM     85  C   UNL A   1      48.202  27.127  26.377  1.00  0.00     0.074 A 
ATOM     86  C   UNL A   1      48.598  25.841  25.847  1.00  0.00    -0.034 C 
ATOM     87  H   UNL A   1      47.503  24.114  25.247  1.00  0.00     0.065 H 
ATOM     88  C   UNL A   1      41.921  26.354  27.486  1.00  0.00    -0.036 A 
ATOM     89  H   UNL A   1      42.396  24.466  26.667  1.00  0.00     0.065 H 
ATOM     90  C   UNL A   1      42.729  27.538  27.760  1.00  0.00     0.049 A 
ATOM     91  H   UNL A   1      44.747  27.823  27.332  1.00  0.00     0.167 HD
ATOM     92  C   UNL A   1      49.044  28.173  26.560  1.00  0.00     0.037 A 
ATOM     93  H   UNL A   1      49.573  25.571  25.637  1.00  0.00     0.065 H 
ATOM     94  H   UNL A   1      40.912  26.258  27.681  1.00  0.00     0.065 H 
ATOM     95  C   UNL A   1      42.284  28.664  28.346  1.00  0.00     0.037 A 
ATOM     96  C   UNL A   1      48.637  29.458  27.068  1.00  0.00     0.049 A 
ATOM     97  C   UNL A   1      43.240  29.807  28.543  1.00  0.00     0.074 A 
ATOM     98  C   UNL A   1      49.398  30.603  27.226  1.00  0.00    -0.036 A 
ATOM     99  N   UNL A   1      47.357  29.764  27.508  1.00  0.00    -0.354 N 
ATOM    100  N   UNL A   1      44.511  29.883  28.234  1.00  0.00    -0.248 NA
ATOM    101  C   UNL A   1      42.697  31.027  29.158  1.00  0.00    -0.034 C 
ATOM    102  C   UNL A   1      48.593  31.584  27.812  1.00  0.00    -0.036 A 
ATOM    103  H   UNL A   1      50.388  30.712  26.957  1.00  0.00     0.065 H 
ATOM    104  C   UNL A   1      47.315  31.072  27.965  1.00  0.00     0.049 A 
ATOM    105  H   UNL A   1      46.593  29.144  27.498  1.00  0.00     0.167 HD
ATOM    106  C   UNL A   1      44.915  31.162  28.591  1.00  0.00     0.074 A 
ATOM    107  C   UNL A   1      43.748  31.835  29.122  1.00  0.00    -0.034 C 
ATOM    108  H   UNL A   1      41.748  31.206  29.522  1.00  0.00     0.065 H 
ATOM    109  H   UNL A   1      48.899  32.532  28.084  1.00  0.00     0.065 H 
ATOM    110  C   UNL A   1      46.143  31.728  28.489  1.00  0.00     0.037 A 
ATOM    111  H   UNL A   1      43.735  32.818  29.433  1.00  0.00     0.065 H 
BRANCH  92 112
ATOM    112  C   UNL A   1      50.490  27.973  26.208  1.00  0.00     0.064 A 
ATOM    113  C   UNL A   1      50.946  28.053  24.883  1.00  0.00     0.173 A 
ATOM    114  C   UNL A   1      51.440  27.736  27.214  1.00  0.00     0.173 A 
ATOM    115  F   UNL A   1      50.078  28.267  23.882  1.00  0.00    -0.203 F 
ATOM    116  C   UNL A   1      52.293  27.876  24.576  1.00  0.00     0.198 A 
ATOM    117  C   UNL A   1      52.791  27.591  26.906  1.00  0.00     0.198 A 
ATOM    118  F   UNL A   1      51.060  27.655  28.497  1.00  0.00    -0.203 F 
ATOM    119  F   UNL A   1      52.695  27.907  23.298  1.00  0.00    -0.200 F 
ATOM    120  C   UNL A   1      53.214  27.653  25.587  1.00  0.00     0.200 A 
ATOM    121  F   UNL A   1      53.682  27.390  27.886  1.00  0.00    -0.200 F 
ATOM    122  F   UNL A   1      54.511  27.493  25.290  1.00  0.00    -0.200 F 
ENDBRANCH  92 112
BRANCH  95 123
ATOM    123  C   UNL A   1      40.862  28.771  28.770  1.00  0.00     0.064 A 
ATOM    124  C   UNL A   1      39.859  29.111  27.853  1.00  0.00     0.173 A 
ATOM    125  C   UNL A   1      40.479  28.539  30.099  1.00  0.00     0.173 A 
ATOM    126  F   UNL A   1      40.177  29.360  26.575  1.00  0.00    -0.203 F 
ATOM    127  C   UNL A   1      38.530  29.237  28.253  1.00  0.00     0.198 A 
ATOM    128  C   UNL A   1      39.144  28.635  30.492  1.00  0.00     0.198 A 
ATOM    129  F   UNL A   1      41.398  28.204  31.017  1.00  0.00    -0.203 F 
ATOM    130  F   UNL A   1      37.598  29.610  27.365  1.00  0.00    -0.200 F 
ATOM    131  C   UNL A   1      38.173  28.993  29.571  1.00  0.00     0.200 A 
ATOM    132  F   UNL A   1      38.801  28.381  31.762  1.00  0.00    -0.200 F 
ATOM    133  F   UNL A   1      36.894  29.110  29.953  1.00  0.00    -0.200 F 
ENDBRANCH  95 123
BRANCH 110 134
ATOM    134  C   UNL A   1      46.277  33.156  28.931  1.00  0.00     0.064 A 
ATOM    135  C   UNL A   1      46.046  34.225  28.051  1.00  0.00     0.173 A 
ATOM    136  C   UNL A   1      46.610  33.458  30.260  1.00  0.00     0.173 A 
ATOM    137  F   UNL A   1      45.741  33.989  26.767  1.00  0.00    -0.203 F 
ATOM    138  C   UNL A   1      46.172  35.543  28.480  1.00  0.00     0.198 A 
ATOM    139  C   UNL A   1      46.703  34.778  30.694  1.00  0.00     0.198 A 
ATOM    140  F   UNL A   1      46.835  32.474  31.142  1.00  0.00    -0.203 F 
ATOM    141  F   UNL A   1      46.000  36.547  27.610  1.00  0.00    -0.200 F 
ATOM    142  C   UNL A   1      46.493  35.818  29.802  1.00  0.00     0.200 A 
ATOM    143  F   UNL A   1      46.998  35.042  31.973  1.00  0.00    -0.200 F 
ATOM    144  F   UNL A   1      46.608  37.088  30.214  1.00  0.00    -0.200 F 
ENDBRANCH 110 134
ENDBRANCH  75  78
ENDBRANCH  65  68
ENDBRANCH  61  64
ENDBRANCH  58  61
ENDBRANCH  55  58
ENDBRANCH  52  55
ENDBRANCH   1  52
TORSDOF 22
ENDMDL
MODEL 9
REMARK VINA RESULT:     -10.2      6.767     13.331
REMARK SMILES COc1ccc(/C=C/c2cc(OC)cc(OC)c2/C=C/C(=O)NCCCCCCNC(=O)c2ccc(-c3c4nc(c(-c5c(F)c(F)c(F)c(F)c5F)c5ccc([nH]5)c(-c5c(F)c(F)c(F)c(F)c5F)c5nc(c(-c6c(F)c(F)c(F)c(F)c6F)c6ccc3[nH]6)C=C5)C=C4)cc2)cc1
REMARK SMILES IDX 25 1 24 4 23 7 21 8 22 9 20 11 19 12 18 15 9 16 10 17 11 18
REMARK SMILES IDX 15 20 14 21 8 23 7 24 6 27 3 28 4 29 97 30 5 31 96 33 2 37
REMARK SMILES IDX 1 38 12 42 13 43 16 47 17 48 26 52 27 55 28 58 29 61 30 64
REMARK SMILES IDX 31 65 32 67 33 68 34 69 95 70 35 71 94 73 36 75 37 78 38 79
REMARK SMILES IDX 88 80 39 81 93 82 87 83 89 84 40 85 92 86 86 88 85 90 41 92
REMARK SMILES IDX 73 95 53 96 72 97 54 98 57 99 71 100 90 101 55 102 56 104
REMARK SMILES IDX 70 106 91 107 58 110 42 112 43 113 51 114 44 115 45 116
REMARK SMILES IDX 49 117 52 118 46 119 47 120 50 121 48 122 74 123 75 124
REMARK SMILES IDX 83 125 76 126 77 127 81 128 84 129 78 130 79 131 82 132
REMARK SMILES IDX 80 133 59 134 60 135 68 136 61 137 62 138 66 139 69 140
REMARK SMILES IDX 63 141 64 142 67 143 65 144
REMARK H PARENT 25 2 25 3 24 5 24 6 23 10 19 13 20 14 10 19 14 22 7 25 8 26
REMARK H PARENT 4 32 97 34 5 35 96 36 1 39 1 40 1 41 13 44 13 45 13 46 17 49
REMARK H PARENT 17 50 17 51 26 53 26 54 27 56 27 57 28 59 28 60 29 62 29 63
REMARK H PARENT 30 66 34 72 95 74 35 76 94 77 93 87 87 89 89 91 92 93 86 94
REMARK H PARENT 54 103 57 105 90 108 55 109 91 111
REMARK Flexibility Score: inf
ROOT
ATOM      1  C   UNL A   1      32.882  36.333  31.310  1.00  0.00    -0.036 C 
ATOM      2  H   UNL A   1      32.252  37.198  31.320  1.00  0.00     0.028 H 
ATOM      3  H   UNL A   1      32.339  35.430  31.496  1.00  0.00     0.028 H 
ENDROOT
BRANCH   1   4
ATOM      4  C   UNL A   1      33.909  36.473  32.426  1.00  0.00     0.018 C 
ATOM      5  H   UNL A   1      34.885  36.550  31.994  1.00  0.00     0.049 H 
ATOM      6  H   UNL A   1      33.675  37.352  32.991  1.00  0.00     0.049 H 
BRANCH   4   7
ATOM      7  N   UNL A   1      33.877  35.336  33.317  1.00  0.00    -0.353 N 
ATOM      8  C   UNL A   1      34.884  34.481  33.634  1.00  0.00     0.244 C 
ATOM      9  O   UNL A   1      34.722  33.592  34.461  1.00  0.00    -0.270 OA
ATOM     10  H   UNL A   1      33.012  35.157  33.753  1.00  0.00     0.163 HD
BRANCH   8  11
ATOM     11  C   UNL A   1      36.207  34.666  33.004  1.00  0.00     0.004 C 
ATOM     12  C   UNL A   1      37.176  33.754  33.168  1.00  0.00    -0.045 C 
ATOM     13  H   UNL A   1      36.944  32.859  33.627  1.00  0.00     0.063 H 
ATOM     14  H   UNL A   1      36.386  35.505  32.430  1.00  0.00     0.068 H 
BRANCH  12  15
ATOM     15  C   UNL A   1      38.557  33.982  32.717  1.00  0.00     0.024 A 
ATOM     16  C   UNL A   1      39.550  34.283  33.695  1.00  0.00    -0.011 A 
ATOM     17  C   UNL A   1      40.866  34.576  33.295  1.00  0.00    -0.012 A 
ATOM     18  C   UNL A   1      41.220  34.592  31.951  1.00  0.00     0.123 A 
ATOM     19  H   UNL A   1      41.580  34.781  34.011  1.00  0.00     0.067 H 
ATOM     20  C   UNL A   1      38.929  33.980  31.354  1.00  0.00     0.130 A 
ATOM     21  C   UNL A   1      40.260  34.273  30.999  1.00  0.00     0.023 A 
ATOM     22  H   UNL A   1      40.529  34.250  30.004  1.00  0.00     0.070 H 
BRANCH  16  23
ATOM     23  C   UNL A   1      39.300  34.375  35.151  1.00  0.00    -0.054 C 
ATOM     24  C   UNL A   1      39.756  35.386  35.908  1.00  0.00    -0.054 C 
ATOM     25  H   UNL A   1      40.307  36.115  35.430  1.00  0.00     0.063 H 
ATOM     26  H   UNL A   1      38.750  33.629  35.604  1.00  0.00     0.063 H 
BRANCH  24  27
ATOM     27  C   UNL A   1      39.546  35.554  37.363  1.00  0.00    -0.025 A 
ATOM     28  C   UNL A   1      39.246  36.010  40.147  1.00  0.00     0.118 A 
ATOM     29  C   UNL A   1      38.861  34.796  39.577  1.00  0.00    -0.019 A 
ATOM     30  C   UNL A   1      39.759  37.008  39.321  1.00  0.00    -0.019 A 
ATOM     31  C   UNL A   1      39.004  34.571  38.198  1.00  0.00    -0.051 A 
ATOM     32  H   UNL A   1      38.468  34.054  40.176  1.00  0.00     0.066 H 
ATOM     33  C   UNL A   1      39.910  36.778  37.947  1.00  0.00    -0.051 A 
ATOM     34  H   UNL A   1      40.029  37.918  39.723  1.00  0.00     0.066 H 
ATOM     35  H   UNL A   1      38.705  33.669  37.796  1.00  0.00     0.063 H 
ATOM     36  H   UNL A   1      40.298  37.525  37.351  1.00  0.00     0.063 H 
BRANCH  28  37
ATOM     37  O   UNL A   1      39.110  36.086  41.507  1.00  0.00    -0.497 OA
BRANCH  37  38
ATOM     38  C   UNL A   1      38.762  34.883  42.182  1.00  0.00     0.078 C 
ATOM     39  H   UNL A   1      38.969  34.989  43.228  1.00  0.00     0.067 H 
ATOM     40  H   UNL A   1      39.336  34.072  41.786  1.00  0.00     0.067 H 
ATOM     41  H   UNL A   1      37.720  34.685  42.045  1.00  0.00     0.067 H 
ENDBRANCH  37  38
ENDBRANCH  28  37
ENDBRANCH  24  27
ENDBRANCH  16  23
BRANCH  18  42
ATOM     42  O   UNL A   1      42.516  34.939  31.685  1.00  0.00    -0.497 OA
BRANCH  42  43
ATOM     43  C   UNL A   1      42.721  35.758  30.536  1.00  0.00     0.078 C 
ATOM     44  H   UNL A   1      41.894  36.429  30.424  1.00  0.00     0.067 H 
ATOM     45  H   UNL A   1      42.800  35.141  29.666  1.00  0.00     0.067 H 
ATOM     46  H   UNL A   1      43.623  36.322  30.656  1.00  0.00     0.067 H 
ENDBRANCH  42  43
ENDBRANCH  18  42
BRANCH  20  47
ATOM     47  O   UNL A   1      38.192  33.781  30.217  1.00  0.00    -0.496 OA
BRANCH  47  48
ATOM     48  C   UNL A   1      38.648  33.007  29.125  1.00  0.00     0.078 C 
ATOM     49  H   UNL A   1      39.428  33.534  28.616  1.00  0.00     0.067 H 
ATOM     50  H   UNL A   1      37.837  32.831  28.449  1.00  0.00     0.067 H 
ATOM     51  H   UNL A   1      39.025  32.072  29.482  1.00  0.00     0.067 H 
ENDBRANCH  47  48
ENDBRANCH  20  47
ENDBRANCH  12  15
ENDBRANCH   8  11
ENDBRANCH   4   7
ENDBRANCH   1   4
BRANCH   1  52
ATOM     52  C   UNL A   1      33.499  36.202  29.914  1.00  0.00    -0.052 C 
ATOM     53  H   UNL A   1      34.543  36.424  29.990  1.00  0.00     0.027 H 
ATOM     54  H   UNL A   1      32.965  36.883  29.285  1.00  0.00     0.027 H 
BRANCH  52  55
ATOM     55  C   UNL A   1      33.354  34.819  29.267  1.00  0.00    -0.052 C 
ATOM     56  H   UNL A   1      33.453  34.934  28.208  1.00  0.00     0.027 H 
ATOM     57  H   UNL A   1      32.395  34.447  29.563  1.00  0.00     0.027 H 
BRANCH  55  58
ATOM     58  C   UNL A   1      34.379  33.784  29.732  1.00  0.00    -0.036 C 
ATOM     59  H   UNL A   1      33.871  33.053  30.326  1.00  0.00     0.028 H 
ATOM     60  H   UNL A   1      35.127  34.319  30.278  1.00  0.00     0.028 H 
BRANCH  58  61
ATOM     61  C   UNL A   1      35.102  33.060  28.604  1.00  0.00     0.018 C 
ATOM     62  H   UNL A   1      36.035  32.685  28.971  1.00  0.00     0.049 H 
ATOM     63  H   UNL A   1      35.261  33.753  27.804  1.00  0.00     0.049 H 
BRANCH  61  64
ATOM     64  N   UNL A   1      34.313  31.951  28.099  1.00  0.00    -0.352 N 
ATOM     65  C   UNL A   1      34.700  30.662  27.832  1.00  0.00     0.251 C 
ATOM     66  H   UNL A   1      33.366  32.152  27.924  1.00  0.00     0.163 HD
ATOM     67  O   UNL A   1      33.978  29.934  27.158  1.00  0.00    -0.269 OA
BRANCH  65  68
ATOM     68  C   UNL A   1      35.988  30.145  28.347  1.00  0.00     0.039 A 
ATOM     69  C   UNL A   1      36.055  29.711  29.674  1.00  0.00    -0.049 A 
ATOM     70  C   UNL A   1      37.138  30.134  27.551  1.00  0.00    -0.049 A 
ATOM     71  C   UNL A   1      37.261  29.235  30.190  1.00  0.00    -0.053 A 
ATOM     72  H   UNL A   1      35.213  29.742  30.270  1.00  0.00     0.063 H 
ATOM     73  C   UNL A   1      38.322  29.589  28.044  1.00  0.00    -0.053 A 
ATOM     74  H   UNL A   1      37.110  30.531  26.599  1.00  0.00     0.063 H 
ATOM     75  C   UNL A   1      38.401  29.148  29.373  1.00  0.00    -0.014 A 
ATOM     76  H   UNL A   1      37.317  28.945  31.179  1.00  0.00     0.063 H 
ATOM     77  H   UNL A   1      39.145  29.509  27.427  1.00  0.00     0.063 H 
BRANCH  75  78
ATOM     78  C   UNL A   1      39.682  28.613  29.901  1.00  0.00     0.031 A 
ATOM     79  C   UNL A   1      40.381  29.303  31.039  1.00  0.00     0.074 A 
ATOM     80  C   UNL A   1      40.243  27.533  29.325  1.00  0.00     0.049 A 
ATOM     81  N   UNL A   1      41.524  29.010  31.606  1.00  0.00    -0.248 NA
ATOM     82  C   UNL A   1      39.723  30.494  31.597  1.00  0.00    -0.034 C 
ATOM     83  C   UNL A   1      39.684  26.811  28.185  1.00  0.00    -0.036 A 
ATOM     84  N   UNL A   1      41.405  26.860  29.603  1.00  0.00    -0.354 N 
ATOM     85  C   UNL A   1      41.724  29.981  32.576  1.00  0.00     0.074 A 
ATOM     86  C   UNL A   1      40.615  30.905  32.486  1.00  0.00    -0.034 C 
ATOM     87  H   UNL A   1      38.805  30.902  31.360  1.00  0.00     0.065 H 
ATOM     88  C   UNL A   1      40.489  25.787  27.867  1.00  0.00    -0.036 A 
ATOM     89  H   UNL A   1      38.805  27.050  27.701  1.00  0.00     0.065 H 
ATOM     90  C   UNL A   1      41.643  25.801  28.759  1.00  0.00     0.049 A 
ATOM     91  H   UNL A   1      42.011  27.111  30.337  1.00  0.00     0.167 HD
ATOM     92  C   UNL A   1      42.732  30.079  33.476  1.00  0.00     0.037 A 
ATOM     93  H   UNL A   1      40.530  31.771  33.041  1.00  0.00     0.065 H 
ATOM     94  H   UNL A   1      40.321  25.101  27.114  1.00  0.00     0.065 H 
ATOM     95  C   UNL A   1      42.679  24.944  28.704  1.00  0.00     0.037 A 
ATOM     96  C   UNL A   1      43.822  29.142  33.572  1.00  0.00     0.049 A 
ATOM     97  C   UNL A   1      43.788  25.079  29.710  1.00  0.00     0.074 A 
ATOM     98  C   UNL A   1      44.855  29.114  34.493  1.00  0.00    -0.036 A 
ATOM     99  N   UNL A   1      44.022  28.071  32.712  1.00  0.00    -0.354 N 
ATOM    100  N   UNL A   1      43.925  25.954  30.676  1.00  0.00    -0.248 NA
ATOM    101  C   UNL A   1      44.880  24.100  29.627  1.00  0.00    -0.034 C 
ATOM    102  C   UNL A   1      45.710  28.060  34.157  1.00  0.00    -0.036 A 
ATOM    103  H   UNL A   1      44.973  29.759  35.289  1.00  0.00     0.065 H 
ATOM    104  C   UNL A   1      45.179  27.393  33.064  1.00  0.00     0.049 A 
ATOM    105  H   UNL A   1      43.430  27.829  31.964  1.00  0.00     0.167 HD
ATOM    106  C   UNL A   1      45.101  25.618  31.332  1.00  0.00     0.074 A 
ATOM    107  C   UNL A   1      45.629  24.445  30.665  1.00  0.00    -0.034 C 
ATOM    108  H   UNL A   1      45.026  23.342  28.941  1.00  0.00     0.065 H 
ATOM    109  H   UNL A   1      46.589  27.817  34.642  1.00  0.00     0.065 H 
ATOM    110  C   UNL A   1      45.690  26.225  32.391  1.00  0.00     0.037 A 
ATOM    111  H   UNL A   1      46.479  23.942  30.961  1.00  0.00     0.065 H 
BRANCH  92 112
ATOM    112  C   UNL A   1      42.705  31.239  34.428  1.00  0.00     0.064 A 
ATOM    113  C   UNL A   1      41.936  31.214  35.601  1.00  0.00     0.173 A 
ATOM    114  C   UNL A   1      43.490  32.377  34.185  1.00  0.00     0.173 A 
ATOM    115  F   UNL A   1      41.159  30.155  35.876  1.00  0.00    -0.203 F 
ATOM    116  C   UNL A   1      41.930  32.295  36.480  1.00  0.00     0.198 A 
ATOM    117  C   UNL A   1      43.507  33.443  35.082  1.00  0.00     0.198 A 
ATOM    118  F   UNL A   1      44.249  32.452  33.081  1.00  0.00    -0.203 F 
ATOM    119  F   UNL A   1      41.148  32.267  37.568  1.00  0.00    -0.200 F 
ATOM    120  C   UNL A   1      42.722  33.404  36.223  1.00  0.00     0.200 A 
ATOM    121  F   UNL A   1      44.284  34.507  34.839  1.00  0.00    -0.200 F 
ATOM    122  F   UNL A   1      42.723  34.438  37.075  1.00  0.00    -0.200 F 
ENDBRANCH  92 112
BRANCH  95 123
ATOM    123  C   UNL A   1      42.706  23.874  27.671  1.00  0.00     0.064 A 
ATOM    124  C   UNL A   1      42.188  22.600  27.938  1.00  0.00     0.173 A 
ATOM    125  C   UNL A   1      43.251  24.102  26.399  1.00  0.00     0.173 A 
ATOM    126  F   UNL A   1      41.672  22.327  29.146  1.00  0.00    -0.203 F 
ATOM    127  C   UNL A   1      42.234  21.588  26.983  1.00  0.00     0.198 A 
ATOM    128  C   UNL A   1      43.269  23.098  25.432  1.00  0.00     0.198 A 
ATOM    129  F   UNL A   1      43.754  25.306  26.088  1.00  0.00    -0.203 F 
ATOM    130  F   UNL A   1      41.775  20.365  27.281  1.00  0.00    -0.200 F 
ATOM    131  C   UNL A   1      42.770  21.839  25.728  1.00  0.00     0.200 A 
ATOM    132  F   UNL A   1      43.770  23.351  24.216  1.00  0.00    -0.200 F 
ATOM    133  F   UNL A   1      42.809  20.867  24.807  1.00  0.00    -0.200 F 
ENDBRANCH  95 123
BRANCH 110 134
ATOM    134  C   UNL A   1      46.957  25.612  32.914  1.00  0.00     0.064 A 
ATOM    135  C   UNL A   1      46.941  24.625  33.910  1.00  0.00     0.173 A 
ATOM    136  C   UNL A   1      48.199  25.996  32.388  1.00  0.00     0.173 A 
ATOM    137  F   UNL A   1      45.780  24.235  34.456  1.00  0.00    -0.203 F 
ATOM    138  C   UNL A   1      48.126  24.065  34.380  1.00  0.00     0.198 A 
ATOM    139  C   UNL A   1      49.380  25.411  32.837  1.00  0.00     0.198 A 
ATOM    140  F   UNL A   1      48.270  26.932  31.429  1.00  0.00    -0.203 F 
ATOM    141  F   UNL A   1      48.091  23.163  35.370  1.00  0.00    -0.200 F 
ATOM    142  C   UNL A   1      49.343  24.453  33.839  1.00  0.00     0.200 A 
ATOM    143  F   UNL A   1      50.553  25.776  32.303  1.00  0.00    -0.200 F 
ATOM    144  F   UNL A   1      50.481  23.909  34.289  1.00  0.00    -0.200 F 
ENDBRANCH 110 134
ENDBRANCH  75  78
ENDBRANCH  65  68
ENDBRANCH  61  64
ENDBRANCH  58  61
ENDBRANCH  55  58
ENDBRANCH  52  55
ENDBRANCH   1  52
TORSDOF 22
ENDMDL
MODEL 10
REMARK VINA RESULT:     -10.2      6.027      8.403
REMARK SMILES COc1ccc(/C=C/c2cc(OC)cc(OC)c2/C=C/C(=O)NCCCCCCNC(=O)c2ccc(-c3c4nc(c(-c5c(F)c(F)c(F)c(F)c5F)c5ccc([nH]5)c(-c5c(F)c(F)c(F)c(F)c5F)c5nc(c(-c6c(F)c(F)c(F)c(F)c6F)c6ccc3[nH]6)C=C5)C=C4)cc2)cc1
REMARK SMILES IDX 25 1 24 4 23 7 21 8 22 9 20 11 19 12 18 15 9 16 10 17 11 18
REMARK SMILES IDX 15 20 14 21 8 23 7 24 6 27 3 28 4 29 97 30 5 31 96 33 2 37
REMARK SMILES IDX 1 38 12 42 13 43 16 47 17 48 26 52 27 55 28 58 29 61 30 64
REMARK SMILES IDX 31 65 32 67 33 68 34 69 95 70 35 71 94 73 36 75 37 78 38 79
REMARK SMILES IDX 88 80 39 81 93 82 87 83 89 84 40 85 92 86 86 88 85 90 41 92
REMARK SMILES IDX 73 95 53 96 72 97 54 98 57 99 71 100 90 101 55 102 56 104
REMARK SMILES IDX 70 106 91 107 58 110 42 112 43 113 51 114 44 115 45 116
REMARK SMILES IDX 49 117 52 118 46 119 47 120 50 121 48 122 74 123 75 124
REMARK SMILES IDX 83 125 76 126 77 127 81 128 84 129 78 130 79 131 82 132
REMARK SMILES IDX 80 133 59 134 60 135 68 136 61 137 62 138 66 139 69 140
REMARK SMILES IDX 63 141 64 142 67 143 65 144
REMARK H PARENT 25 2 25 3 24 5 24 6 23 10 19 13 20 14 10 19 14 22 7 25 8 26
REMARK H PARENT 4 32 97 34 5 35 96 36 1 39 1 40 1 41 13 44 13 45 13 46 17 49
REMARK H PARENT 17 50 17 51 26 53 26 54 27 56 27 57 28 59 28 60 29 62 29 63
REMARK H PARENT 30 66 34 72 95 74 35 76 94 77 93 87 87 89 89 91 92 93 86 94
REMARK H PARENT 54 103 57 105 90 108 55 109 91 111
REMARK Flexibility Score: inf
ROOT
ATOM      1  C   UNL A   1      41.709  27.893  30.222  1.00  0.00    -0.036 C 
ATOM      2  H   UNL A   1      41.274  28.243  29.309  1.00  0.00     0.028 H 
ATOM      3  H   UNL A   1      41.462  26.872  30.426  1.00  0.00     0.028 H 
ENDROOT
BRANCH   1   4
ATOM      4  C   UNL A   1      41.151  28.724  31.370  1.00  0.00     0.018 C 
ATOM      5  H   UNL A   1      41.955  29.012  32.015  1.00  0.00     0.049 H 
ATOM      6  H   UNL A   1      40.668  29.586  30.958  1.00  0.00     0.049 H 
BRANCH   4   7
ATOM      7  N   UNL A   1      40.177  27.978  32.135  1.00  0.00    -0.353 N 
ATOM      8  C   UNL A   1      38.852  28.230  32.291  1.00  0.00     0.244 C 
ATOM      9  O   UNL A   1      38.134  27.467  32.927  1.00  0.00    -0.270 OA
ATOM     10  H   UNL A   1      40.520  27.184  32.606  1.00  0.00     0.163 HD
BRANCH   8  11
ATOM     11  C   UNL A   1      38.266  29.418  31.638  1.00  0.00     0.004 C 
ATOM     12  C   UNL A   1      37.110  29.327  30.964  1.00  0.00    -0.045 C 
ATOM     13  H   UNL A   1      36.569  28.451  31.021  1.00  0.00     0.063 H 
ATOM     14  H   UNL A   1      38.751  30.327  31.702  1.00  0.00     0.068 H 
BRANCH  12  15
ATOM     15  C   UNL A   1      36.586  30.432  30.147  1.00  0.00     0.024 A 
ATOM     16  C   UNL A   1      36.885  30.448  28.753  1.00  0.00    -0.011 A 
ATOM     17  C   UNL A   1      36.461  31.524  27.954  1.00  0.00    -0.012 A 
ATOM     18  C   UNL A   1      35.759  32.592  28.502  1.00  0.00     0.123 A 
ATOM     19  H   UNL A   1      36.672  31.520  26.943  1.00  0.00     0.067 H 
ATOM     20  C   UNL A   1      35.855  31.511  30.693  1.00  0.00     0.130 A 
ATOM     21  C   UNL A   1      35.445  32.565  29.855  1.00  0.00     0.023 A 
ATOM     22  H   UNL A   1      34.895  33.339  30.257  1.00  0.00     0.070 H 
BRANCH  16  23
ATOM     23  C   UNL A   1      37.684  29.419  28.050  1.00  0.00    -0.054 C 
ATOM     24  C   UNL A   1      39.020  29.488  27.928  1.00  0.00    -0.054 C 
ATOM     25  H   UNL A   1      39.484  30.308  28.348  1.00  0.00     0.063 H 
ATOM     26  H   UNL A   1      37.192  28.612  27.635  1.00  0.00     0.063 H 
BRANCH  24  27
ATOM     27  C   UNL A   1      39.890  28.504  27.249  1.00  0.00    -0.025 A 
ATOM     28  C   UNL A   1      41.506  26.500  26.056  1.00  0.00     0.118 A 
ATOM     29  C   UNL A   1      41.724  27.851  25.781  1.00  0.00    -0.019 A 
ATOM     30  C   UNL A   1      40.463  26.148  26.909  1.00  0.00    -0.019 A 
ATOM     31  C   UNL A   1      40.922  28.844  26.366  1.00  0.00    -0.051 A 
ATOM     32  H   UNL A   1      42.486  28.124  25.141  1.00  0.00     0.066 H 
ATOM     33  C   UNL A   1      39.669  27.141  27.500  1.00  0.00    -0.051 A 
ATOM     34  H   UNL A   1      40.275  25.153  27.106  1.00  0.00     0.066 H 
ATOM     35  H   UNL A   1      41.095  29.836  26.143  1.00  0.00     0.063 H 
ATOM     36  H   UNL A   1      38.905  26.862  28.135  1.00  0.00     0.063 H 
BRANCH  28  37
ATOM     37  O   UNL A   1      42.390  25.635  25.470  1.00  0.00    -0.497 OA
BRANCH  37  38
ATOM     38  C   UNL A   1      42.344  24.282  25.906  1.00  0.00     0.078 C 
ATOM     39  H   UNL A   1      43.184  24.083  26.540  1.00  0.00     0.067 H 
ATOM     40  H   UNL A   1      42.377  23.632  25.057  1.00  0.00     0.067 H 
ATOM     41  H   UNL A   1      41.439  24.113  26.451  1.00  0.00     0.067 H 
ENDBRANCH  37  38
ENDBRANCH  28  37
ENDBRANCH  24  27
ENDBRANCH  16  23
BRANCH  18  42
ATOM     42  O   UNL A   1      35.445  33.601  27.634  1.00  0.00    -0.497 OA
BRANCH  42  43
ATOM     43  C   UNL A   1      34.431  34.505  28.068  1.00  0.00     0.078 C 
ATOM     44  H   UNL A   1      34.124  35.118  27.245  1.00  0.00     0.067 H 
ATOM     45  H   UNL A   1      34.816  35.125  28.850  1.00  0.00     0.067 H 
ATOM     46  H   UNL A   1      33.591  33.951  28.433  1.00  0.00     0.067 H 
ENDBRANCH  42  43
ENDBRANCH  18  42
BRANCH  20  47
ATOM     47  O   UNL A   1      35.476  31.784  31.981  1.00  0.00    -0.496 OA
BRANCH  47  48
ATOM     48  C   UNL A   1      34.848  32.992  32.362  1.00  0.00     0.078 C 
ATOM     49  H   UNL A   1      34.867  33.678  31.542  1.00  0.00     0.067 H 
ATOM     50  H   UNL A   1      35.369  33.417  33.195  1.00  0.00     0.067 H 
ATOM     51  H   UNL A   1      33.833  32.796  32.638  1.00  0.00     0.067 H 
ENDBRANCH  47  48
ENDBRANCH  20  47
ENDBRANCH  12  15
ENDBRANCH   8  11
ENDBRANCH   4   7
ENDBRANCH   1   4
BRANCH   1  52
ATOM     52  C   UNL A   1      43.234  27.966  30.089  1.00  0.00    -0.052 C 
ATOM     53  H   UNL A   1      43.663  27.357  30.857  1.00  0.00     0.027 H 
ATOM     54  H   UNL A   1      43.492  29.001  30.172  1.00  0.00     0.027 H 
BRANCH  52  55
ATOM     55  C   UNL A   1      43.791  27.493  28.740  1.00  0.00    -0.052 C 
ATOM     56  H   UNL A   1      44.661  28.075  28.516  1.00  0.00     0.027 H 
ATOM     57  H   UNL A   1      43.004  27.621  28.027  1.00  0.00     0.027 H 
BRANCH  55  58
ATOM     58  C   UNL A   1      44.181  26.016  28.692  1.00  0.00    -0.036 C 
ATOM     59  H   UNL A   1      44.314  25.739  27.666  1.00  0.00     0.028 H 
ATOM     60  H   UNL A   1      43.391  25.476  29.170  1.00  0.00     0.028 H 
BRANCH  58  61
ATOM     61  C   UNL A   1      45.458  25.673  29.446  1.00  0.00     0.018 C 
ATOM     62  H   UNL A   1      45.277  24.827  30.074  1.00  0.00     0.049 H 
ATOM     63  H   UNL A   1      45.745  26.524  30.030  1.00  0.00     0.049 H 
BRANCH  61  64
ATOM     64  N   UNL A   1      46.542  25.359  28.531  1.00  0.00    -0.352 N 
ATOM     65  C   UNL A   1      47.170  26.171  27.621  1.00  0.00     0.251 C 
ATOM     66  H   UNL A   1      46.872  24.434  28.570  1.00  0.00     0.163 HD
ATOM     67  O   UNL A   1      47.873  25.677  26.745  1.00  0.00    -0.269 OA
BRANCH  65  68
ATOM     68  C   UNL A   1      47.001  27.640  27.684  1.00  0.00     0.039 A 
ATOM     69  C   UNL A   1      46.455  28.301  26.580  1.00  0.00    -0.049 A 
ATOM     70  C   UNL A   1      47.425  28.374  28.796  1.00  0.00    -0.049 A 
ATOM     71  C   UNL A   1      46.301  29.688  26.606  1.00  0.00    -0.053 A 
ATOM     72  H   UNL A   1      46.165  27.763  25.748  1.00  0.00     0.063 H 
ATOM     73  C   UNL A   1      47.202  29.748  28.852  1.00  0.00    -0.053 A 
ATOM     74  H   UNL A   1      47.904  27.898  29.576  1.00  0.00     0.063 H 
ATOM     75  C   UNL A   1      46.652  30.422  27.751  1.00  0.00    -0.014 A 
ATOM     76  H   UNL A   1      45.926  30.178  25.778  1.00  0.00     0.063 H 
ATOM     77  H   UNL A   1      47.442  30.273  29.707  1.00  0.00     0.063 H 
BRANCH  75  78
ATOM     78  C   UNL A   1      46.463  31.895  27.803  1.00  0.00     0.031 A 
ATOM     79  C   UNL A   1      47.560  32.817  27.353  1.00  0.00     0.074 A 
ATOM     80  C   UNL A   1      45.320  32.404  28.303  1.00  0.00     0.049 A 
ATOM     81  N   UNL A   1      47.596  34.126  27.362  1.00  0.00    -0.248 NA
ATOM     82  C   UNL A   1      48.790  32.188  26.848  1.00  0.00    -0.034 C 
ATOM     83  C   UNL A   1      44.207  31.611  28.815  1.00  0.00    -0.036 A 
ATOM     84  N   UNL A   1      44.907  33.701  28.474  1.00  0.00    -0.354 N 
ATOM     85  C   UNL A   1      48.848  34.473  26.877  1.00  0.00     0.074 A 
ATOM     86  C   UNL A   1      49.564  33.241  26.633  1.00  0.00    -0.034 C 
ATOM     87  H   UNL A   1      48.994  31.187  26.697  1.00  0.00     0.065 H 
ATOM     88  C   UNL A   1      43.229  32.428  29.230  1.00  0.00    -0.036 A 
ATOM     89  H   UNL A   1      44.177  30.579  28.852  1.00  0.00     0.065 H 
ATOM     90  C   UNL A   1      43.662  33.810  29.046  1.00  0.00     0.049 A 
ATOM     91  H   UNL A   1      45.449  34.479  28.212  1.00  0.00     0.167 HD
ATOM     92  C   UNL A   1      49.345  35.710  26.635  1.00  0.00     0.037 A 
ATOM     93  H   UNL A   1      50.551  33.189  26.332  1.00  0.00     0.065 H 
ATOM     94  H   UNL A   1      42.320  32.131  29.617  1.00  0.00     0.065 H 
ATOM     95  C   UNL A   1      42.951  34.899  29.392  1.00  0.00     0.037 A 
ATOM     96  C   UNL A   1      48.616  36.931  26.860  1.00  0.00     0.049 A 
ATOM     97  C   UNL A   1      43.529  36.260  29.119  1.00  0.00     0.074 A 
ATOM     98  C   UNL A   1      49.005  38.230  26.583  1.00  0.00    -0.036 A 
ATOM     99  N   UNL A   1      47.350  37.004  27.424  1.00  0.00    -0.354 N 
ATOM    100  N   UNL A   1      44.683  36.575  28.583  1.00  0.00    -0.248 NA
ATOM    101  C   UNL A   1      42.702  37.417  29.486  1.00  0.00    -0.034 C 
ATOM    102  C   UNL A   1      47.998  39.092  27.030  1.00  0.00    -0.036 A 
ATOM    103  H   UNL A   1      49.885  38.514  26.126  1.00  0.00     0.065 H 
ATOM    104  C   UNL A   1      46.955  38.329  27.531  1.00  0.00     0.049 A 
ATOM    105  H   UNL A   1      46.813  36.229  27.708  1.00  0.00     0.167 HD
ATOM    106  C   UNL A   1      44.711  37.960  28.524  1.00  0.00     0.074 A 
ATOM    107  C   UNL A   1      43.449  38.426  29.061  1.00  0.00    -0.034 C 
ATOM    108  H   UNL A   1      41.781  37.438  29.952  1.00  0.00     0.065 H 
ATOM    109  H   UNL A   1      48.026  40.123  26.992  1.00  0.00     0.065 H 
ATOM    110  C   UNL A   1      45.694  38.775  28.066  1.00  0.00     0.037 A 
ATOM    111  H   UNL A   1      43.167  39.417  29.106  1.00  0.00     0.065 H 
BRANCH  92 112
ATOM    112  C   UNL A   1      50.744  35.805  26.099  1.00  0.00     0.064 A 
ATOM    113  C   UNL A   1      51.865  35.694  26.936  1.00  0.00     0.173 A 
ATOM    114  C   UNL A   1      50.968  35.969  24.723  1.00  0.00     0.173 A 
ATOM    115  F   UNL A   1      51.707  35.547  28.260  1.00  0.00    -0.203 F 
ATOM    116  C   UNL A   1      53.156  35.773  26.420  1.00  0.00     0.198 A 
ATOM    117  C   UNL A   1      52.261  36.015  24.206  1.00  0.00     0.198 A 
ATOM    118  F   UNL A   1      49.933  36.075  23.877  1.00  0.00    -0.203 F 
ATOM    119  F   UNL A   1      54.210  35.715  27.246  1.00  0.00    -0.200 F 
ATOM    120  C   UNL A   1      53.353  35.926  25.056  1.00  0.00     0.200 A 
ATOM    121  F   UNL A   1      52.449  36.148  22.886  1.00  0.00    -0.200 F 
ATOM    122  F   UNL A   1      54.596  35.991  24.560  1.00  0.00    -0.200 F 
ENDBRANCH  92 112
BRANCH  95 123
ATOM    123  C   UNL A   1      41.610  34.747  30.017  1.00  0.00     0.064 A 
ATOM    124  C   UNL A   1      41.479  34.437  31.377  1.00  0.00     0.173 A 
ATOM    125  C   UNL A   1      40.435  34.904  29.268  1.00  0.00     0.173 A 
ATOM    126  F   UNL A   1      42.573  34.259  32.132  1.00  0.00    -0.203 F 
ATOM    127  C   UNL A   1      40.225  34.268  31.960  1.00  0.00     0.198 A 
ATOM    128  C   UNL A   1      39.180  34.766  29.859  1.00  0.00     0.198 A 
ATOM    129  F   UNL A   1      40.504  35.208  27.963  1.00  0.00    -0.203 F 
ATOM    130  F   UNL A   1      40.128  33.926  33.252  1.00  0.00    -0.200 F 
ATOM    131  C   UNL A   1      39.076  34.439  31.201  1.00  0.00     0.200 A 
ATOM    132  F   UNL A   1      38.073  34.949  29.126  1.00  0.00    -0.200 F 
ATOM    133  F   UNL A   1      37.870  34.281  31.763  1.00  0.00    -0.200 F 
ENDBRANCH  95 123
BRANCH 110 134
ATOM    134  C   UNL A   1      45.428  40.252  28.097  1.00  0.00     0.064 A 
ATOM    135  C   UNL A   1      44.861  40.922  27.002  1.00  0.00     0.173 A 
ATOM    136  C   UNL A   1      45.716  41.000  29.249  1.00  0.00     0.173 A 
ATOM    137  F   UNL A   1      44.582  40.255  25.873  1.00  0.00    -0.203 F 
ATOM    138  C   UNL A   1      44.619  42.292  27.050  1.00  0.00     0.198 A 
ATOM    139  C   UNL A   1      45.442  42.364  29.305  1.00  0.00     0.198 A 
ATOM    140  F   UNL A   1      46.254  40.407  30.325  1.00  0.00    -0.203 F 
ATOM    141  F   UNL A   1      44.127  42.921  25.974  1.00  0.00    -0.200 F 
ATOM    142  C   UNL A   1      44.903  43.010  28.203  1.00  0.00     0.200 A 
ATOM    143  F   UNL A   1      45.703  43.053  30.424  1.00  0.00    -0.200 F 
ATOM    144  F   UNL A   1      44.663  44.327  28.249  1.00  0.00    -0.200 F 
ENDBRANCH 110 134
ENDBRANCH  75  78
ENDBRANCH  65  68
ENDBRANCH  61  64
ENDBRANCH  58  61
ENDBRANCH  55  58
ENDBRANCH  52  55
ENDBRANCH   1  52
TORSDOF 22
ENDMDL
