MODEL 1
REMARK VINA RESULT:     -12.1      0.000      0.000
REMARK SMILES O=C(Cc1ccn(-c2ccccc2F)c1)NCCCCCCNC(=O)c1ccc(-c2c3nc(c(-c4c(F)c(F)c(F)c(F)c4F)c4ccc([nH]4)c(-c4c(F)c(F)c(F)c(F)c4F)c4nc(c(-c5c(F)c(F)c(F)c(F)c5F)c5ccc2[nH]5)C=C4)C=C3)cc1
REMARK SMILES IDX 19 1 18 4 17 7 16 10 1 11 2 12 3 14 4 17 5 18 15 19 6 20
REMARK SMILES IDX 7 22 8 25 9 26 13 27 10 28 12 30 14 31 11 32 20 36 21 39
REMARK SMILES IDX 22 42 23 45 24 46 25 48 26 49 27 50 88 51 28 52 87 54 29 56
REMARK SMILES IDX 30 59 31 60 81 61 32 62 86 63 80 64 82 65 33 66 85 67 79 69
REMARK SMILES IDX 78 71 34 73 66 76 46 77 65 78 47 79 50 80 64 81 83 82 48 83
REMARK SMILES IDX 49 85 63 87 84 88 51 91 35 93 36 94 44 95 37 96 38 97 42 98
REMARK SMILES IDX 45 99 39 100 40 101 43 102 41 103 67 104 68 105 76 106
REMARK SMILES IDX 69 107 70 108 74 109 77 110 71 111 72 112 75 113 73 114
REMARK SMILES IDX 52 115 53 116 61 117 54 118 55 119 59 120 62 121 56 122
REMARK SMILES IDX 57 123 60 124 58 125
REMARK H PARENT 19 2 19 3 18 5 18 6 17 8 17 9 16 13 3 15 3 16 5 21 15 23 6 24
REMARK H PARENT 9 29 10 33 12 34 11 35 20 37 20 38 21 40 21 41 22 43 22 44
REMARK H PARENT 23 47 27 53 88 55 28 57 87 58 86 68 80 70 82 72 85 74 79 75
REMARK H PARENT 47 84 50 86 83 89 48 90 84 92
REMARK Flexibility Score: inf
ROOT
ATOM      1  C   UNL A   1      32.811  26.176  25.551  1.00  0.00    -0.052 C 
ATOM      2  H   UNL A   1      32.413  25.657  24.704  1.00  0.00     0.027 H 
ATOM      3  H   UNL A   1      33.415  25.561  26.186  1.00  0.00     0.027 H 
ENDROOT
BRANCH   1   4
ATOM      4  C   UNL A   1      31.635  26.650  26.416  1.00  0.00    -0.036 C 
ATOM      5  H   UNL A   1      31.843  26.392  27.433  1.00  0.00     0.028 H 
ATOM      6  H   UNL A   1      31.547  27.704  26.259  1.00  0.00     0.028 H 
BRANCH   4   7
ATOM      7  C   UNL A   1      30.285  26.040  26.036  1.00  0.00     0.017 C 
ATOM      8  H   UNL A   1      29.682  25.955  26.917  1.00  0.00     0.049 H 
ATOM      9  H   UNL A   1      29.817  26.679  25.317  1.00  0.00     0.049 H 
BRANCH   7  10
ATOM     10  N   UNL A   1      30.445  24.730  25.447  1.00  0.00    -0.356 N 
ATOM     11  O   UNL A   1      30.405  23.558  27.420  1.00  0.00    -0.275 OA
ATOM     12  C   UNL A   1      30.501  23.574  26.195  1.00  0.00     0.224 C 
ATOM     13  H   UNL A   1      30.517  24.661  24.468  1.00  0.00     0.163 HD
BRANCH  12  14
ATOM     14  C   UNL A   1      30.813  22.320  25.397  1.00  0.00     0.053 C 
ATOM     15  H   UNL A   1      30.115  22.253  24.590  1.00  0.00     0.042 H 
ATOM     16  H   UNL A   1      30.739  21.496  26.076  1.00  0.00     0.042 H 
BRANCH  14  17
ATOM     17  C   UNL A   1      32.196  22.290  24.827  1.00  0.00    -0.021 A 
ATOM     18  C   UNL A   1      32.584  22.669  23.514  1.00  0.00    -0.040 A 
ATOM     19  C   UNL A   1      33.357  21.928  25.485  1.00  0.00     0.013 A 
ATOM     20  C   UNL A   1      33.959  22.609  23.454  1.00  0.00     0.009 A 
ATOM     21  H   UNL A   1      31.951  22.940  22.746  1.00  0.00     0.064 H 
ATOM     22  N   UNL A   1      34.442  22.161  24.666  1.00  0.00    -0.321 N 
ATOM     23  H   UNL A   1      33.405  21.543  26.442  1.00  0.00     0.083 H 
ATOM     24  H   UNL A   1      34.535  22.859  22.635  1.00  0.00     0.082 H 
BRANCH  22  25
ATOM     25  C   UNL A   1      35.803  22.031  25.025  1.00  0.00     0.081 A 
ATOM     26  C   UNL A   1      36.450  20.797  24.867  1.00  0.00    -0.035 A 
ATOM     27  C   UNL A   1      36.520  23.129  25.503  1.00  0.00     0.147 A 
ATOM     28  C   UNL A   1      37.812  20.685  25.162  1.00  0.00    -0.060 A 
ATOM     29  H   UNL A   1      35.922  19.975  24.535  1.00  0.00     0.065 H 
ATOM     30  C   UNL A   1      37.867  23.004  25.834  1.00  0.00    -0.024 A 
ATOM     31  F   UNL A   1      35.923  24.309  25.725  1.00  0.00    -0.205 F 
ATOM     32  C   UNL A   1      38.517  21.785  25.652  1.00  0.00    -0.059 A 
ATOM     33  H   UNL A   1      38.296  19.785  25.017  1.00  0.00     0.062 H 
ATOM     34  H   UNL A   1      38.384  23.813  26.214  1.00  0.00     0.065 H 
ATOM     35  H   UNL A   1      39.520  21.694  25.880  1.00  0.00     0.062 H 
ENDBRANCH  22  25
ENDBRANCH  14  17
ENDBRANCH  12  14
ENDBRANCH   7  10
ENDBRANCH   4   7
ENDBRANCH   1   4
BRANCH   1  36
ATOM     36  C   UNL A   1      33.734  27.286  25.034  1.00  0.00    -0.052 C 
ATOM     37  H   UNL A   1      33.442  27.520  24.032  1.00  0.00     0.027 H 
ATOM     38  H   UNL A   1      34.731  26.902  25.111  1.00  0.00     0.027 H 
BRANCH  36  39
ATOM     39  C   UNL A   1      33.717  28.586  25.849  1.00  0.00    -0.036 C 
ATOM     40  H   UNL A   1      32.773  28.658  26.349  1.00  0.00     0.028 H 
ATOM     41  H   UNL A   1      33.877  29.388  25.159  1.00  0.00     0.028 H 
BRANCH  39  42
ATOM     42  C   UNL A   1      34.825  28.675  26.898  1.00  0.00     0.018 C 
ATOM     43  H   UNL A   1      35.675  28.120  26.559  1.00  0.00     0.049 H 
ATOM     44  H   UNL A   1      34.458  28.271  27.819  1.00  0.00     0.049 H 
BRANCH  42  45
ATOM     45  N   UNL A   1      35.217  30.056  27.122  1.00  0.00    -0.352 N 
ATOM     46  C   UNL A   1      36.268  30.573  27.836  1.00  0.00     0.251 C 
ATOM     47  H   UNL A   1      34.638  30.727  26.694  1.00  0.00     0.163 HD
ATOM     48  O   UNL A   1      36.219  31.738  28.210  1.00  0.00    -0.269 OA
BRANCH  46  49
ATOM     49  C   UNL A   1      37.453  29.756  28.174  1.00  0.00     0.039 A 
ATOM     50  C   UNL A   1      38.498  29.712  27.241  1.00  0.00    -0.049 A 
ATOM     51  C   UNL A   1      37.503  28.958  29.322  1.00  0.00    -0.049 A 
ATOM     52  C   UNL A   1      39.613  28.917  27.483  1.00  0.00    -0.053 A 
ATOM     53  H   UNL A   1      38.440  30.268  26.374  1.00  0.00     0.063 H 
ATOM     54  C   UNL A   1      38.627  28.178  29.581  1.00  0.00    -0.053 A 
ATOM     55  H   UNL A   1      36.705  28.948  29.978  1.00  0.00     0.063 H 
ATOM     56  C   UNL A   1      39.689  28.174  28.668  1.00  0.00    -0.014 A 
ATOM     57  H   UNL A   1      40.381  28.876  26.795  1.00  0.00     0.063 H 
ATOM     58  H   UNL A   1      38.677  27.608  30.439  1.00  0.00     0.063 H 
BRANCH  56  59
ATOM     59  C   UNL A   1      40.981  27.549  29.028  1.00  0.00     0.031 A 
ATOM     60  C   UNL A   1      41.113  26.136  28.412  1.00  0.00     0.074 A 
ATOM     61  C   UNL A   1      41.814  28.278  29.832  1.00  0.00     0.049 A 
ATOM     62  N   UNL A   1      41.863  25.134  28.760  1.00  0.00    -0.248 NA
ATOM     63  C   UNL A   1      40.245  25.764  27.256  1.00  0.00    -0.034 C 
ATOM     64  C   UNL A   1      41.543  29.658  30.286  1.00  0.00    -0.036 A 
ATOM     65  N   UNL A   1      43.036  28.033  30.433  1.00  0.00    -0.354 N 
ATOM     66  C   UNL A   1      41.704  24.114  27.791  1.00  0.00     0.074 A 
ATOM     67  C   UNL A   1      40.625  24.522  26.947  1.00  0.00    -0.034 C 
ATOM     68  H   UNL A   1      39.519  26.337  26.800  1.00  0.00     0.065 H 
ATOM     69  C   UNL A   1      42.497  30.085  31.140  1.00  0.00    -0.036 A 
ATOM     70  H   UNL A   1      40.730  30.222  29.990  1.00  0.00     0.065 H 
ATOM     71  C   UNL A   1      43.489  29.046  31.324  1.00  0.00     0.049 A 
ATOM     72  H   UNL A   1      43.555  27.215  30.257  1.00  0.00     0.167 HD
ATOM     73  C   UNL A   1      42.558  23.052  27.679  1.00  0.00     0.037 A 
ATOM     74  H   UNL A   1      40.201  23.940  26.208  1.00  0.00     0.065 H 
ATOM     75  H   UNL A   1      42.517  31.012  31.594  1.00  0.00     0.065 H 
ATOM     76  C   UNL A   1      44.558  29.026  32.184  1.00  0.00     0.037 A 
ATOM     77  C   UNL A   1      43.521  23.101  28.722  1.00  0.00     0.049 A 
ATOM     78  C   UNL A   1      45.296  27.802  31.844  1.00  0.00     0.074 A 
ATOM     79  C   UNL A   1      43.425  22.850  30.065  1.00  0.00    -0.036 A 
ATOM     80  N   UNL A   1      44.675  23.800  28.471  1.00  0.00    -0.354 N 
ATOM     81  N   UNL A   1      46.005  27.643  30.766  1.00  0.00    -0.248 NA
ATOM     82  C   UNL A   1      45.171  26.638  32.729  1.00  0.00    -0.034 C 
ATOM     83  C   UNL A   1      44.267  23.822  30.634  1.00  0.00    -0.036 A 
ATOM     84  H   UNL A   1      42.868  22.124  30.543  1.00  0.00     0.065 H 
ATOM     85  C   UNL A   1      45.009  24.454  29.629  1.00  0.00     0.049 A 
ATOM     86  H   UNL A   1      45.169  23.826  27.621  1.00  0.00     0.167 HD
ATOM     87  C   UNL A   1      46.108  26.277  30.694  1.00  0.00     0.074 A 
ATOM     88  C   UNL A   1      45.889  25.765  32.028  1.00  0.00    -0.034 C 
ATOM     89  H   UNL A   1      44.675  26.529  33.627  1.00  0.00     0.065 H 
ATOM     90  H   UNL A   1      44.330  24.038  31.641  1.00  0.00     0.065 H 
ATOM     91  C   UNL A   1      45.801  25.653  29.528  1.00  0.00     0.037 A 
ATOM     92  H   UNL A   1      46.236  24.860  32.383  1.00  0.00     0.065 H 
BRANCH  73  93
ATOM     93  C   UNL A   1      42.786  22.026  26.601  1.00  0.00     0.064 A 
ATOM     94  C   UNL A   1      43.822  22.111  25.664  1.00  0.00     0.173 A 
ATOM     95  C   UNL A   1      42.182  20.750  26.748  1.00  0.00     0.173 A 
ATOM     96  F   UNL A   1      44.472  23.262  25.454  1.00  0.00    -0.203 F 
ATOM     97  C   UNL A   1      44.286  20.975  24.990  1.00  0.00     0.198 A 
ATOM     98  C   UNL A   1      42.678  19.614  26.113  1.00  0.00     0.198 A 
ATOM     99  F   UNL A   1      41.144  20.571  27.583  1.00  0.00    -0.203 F 
ATOM    100  F   UNL A   1      45.318  21.085  24.141  1.00  0.00    -0.200 F 
ATOM    101  C   UNL A   1      43.746  19.724  25.246  1.00  0.00     0.200 A 
ATOM    102  F   UNL A   1      42.165  18.409  26.398  1.00  0.00    -0.200 F 
ATOM    103  F   UNL A   1      44.275  18.628  24.686  1.00  0.00    -0.200 F 
ENDBRANCH  73  93
BRANCH  76 104
ATOM    104  C   UNL A   1      45.086  29.811  33.372  1.00  0.00     0.064 A 
ATOM    105  C   UNL A   1      44.348  29.826  34.594  1.00  0.00     0.173 A 
ATOM    106  C   UNL A   1      46.197  30.663  33.375  1.00  0.00     0.173 A 
ATOM    107  F   UNL A   1      43.368  28.945  34.836  1.00  0.00    -0.203 F 
ATOM    108  C   UNL A   1      44.562  30.750  35.617  1.00  0.00     0.198 A 
ATOM    109  C   UNL A   1      46.454  31.552  34.438  1.00  0.00     0.198 A 
ATOM    110  F   UNL A   1      47.075  30.661  32.367  1.00  0.00    -0.203 F 
ATOM    111  F   UNL A   1      43.725  30.787  36.665  1.00  0.00    -0.200 F 
ATOM    112  C   UNL A   1      45.606  31.634  35.529  1.00  0.00     0.200 A 
ATOM    113  F   UNL A   1      47.524  32.359  34.384  1.00  0.00    -0.200 F 
ATOM    114  F   UNL A   1      45.802  32.545  36.492  1.00  0.00    -0.200 F 
ENDBRANCH  76 104
BRANCH  91 115
ATOM    115  C   UNL A   1      45.991  26.511  28.295  1.00  0.00     0.064 A 
ATOM    116  C   UNL A   1      44.939  27.052  27.537  1.00  0.00     0.173 A 
ATOM    117  C   UNL A   1      47.285  26.896  27.913  1.00  0.00     0.173 A 
ATOM    118  F   UNL A   1      43.674  26.749  27.815  1.00  0.00    -0.203 F 
ATOM    119  C   UNL A   1      45.158  27.923  26.465  1.00  0.00     0.198 A 
ATOM    120  C   UNL A   1      47.509  27.771  26.846  1.00  0.00     0.198 A 
ATOM    121  F   UNL A   1      48.347  26.415  28.578  1.00  0.00    -0.203 F 
ATOM    122  F   UNL A   1      44.118  28.400  25.764  1.00  0.00    -0.200 F 
ATOM    123  C   UNL A   1      46.446  28.283  26.122  1.00  0.00     0.200 A 
ATOM    124  F   UNL A   1      48.762  28.108  26.513  1.00  0.00    -0.200 F 
ATOM    125  F   UNL A   1      46.662  29.108  25.088  1.00  0.00    -0.200 F 
ENDBRANCH  91 115
ENDBRANCH  56  59
ENDBRANCH  46  49
ENDBRANCH  42  45
ENDBRANCH  39  42
ENDBRANCH  36  39
ENDBRANCH   1  36
TORSDOF 15
ENDMDL
MODEL 2
REMARK VINA RESULT:     -11.9      1.334      1.950
REMARK SMILES O=C(Cc1ccn(-c2ccccc2F)c1)NCCCCCCNC(=O)c1ccc(-c2c3nc(c(-c4c(F)c(F)c(F)c(F)c4F)c4ccc([nH]4)c(-c4c(F)c(F)c(F)c(F)c4F)c4nc(c(-c5c(F)c(F)c(F)c(F)c5F)c5ccc2[nH]5)C=C4)C=C3)cc1
REMARK SMILES IDX 19 1 18 4 17 7 16 10 1 11 2 12 3 14 4 17 5 18 15 19 6 20
REMARK SMILES IDX 7 22 8 25 9 26 13 27 10 28 12 30 14 31 11 32 20 36 21 39
REMARK SMILES IDX 22 42 23 45 24 46 25 48 26 49 27 50 88 51 28 52 87 54 29 56
REMARK SMILES IDX 30 59 31 60 81 61 32 62 86 63 80 64 82 65 33 66 85 67 79 69
REMARK SMILES IDX 78 71 34 73 66 76 46 77 65 78 47 79 50 80 64 81 83 82 48 83
REMARK SMILES IDX 49 85 63 87 84 88 51 91 35 93 36 94 44 95 37 96 38 97 42 98
REMARK SMILES IDX 45 99 39 100 40 101 43 102 41 103 67 104 68 105 76 106
REMARK SMILES IDX 69 107 70 108 74 109 77 110 71 111 72 112 75 113 73 114
REMARK SMILES IDX 52 115 53 116 61 117 54 118 55 119 59 120 62 121 56 122
REMARK SMILES IDX 57 123 60 124 58 125
REMARK H PARENT 19 2 19 3 18 5 18 6 17 8 17 9 16 13 3 15 3 16 5 21 15 23 6 24
REMARK H PARENT 9 29 10 33 12 34 11 35 20 37 20 38 21 40 21 41 22 43 22 44
REMARK H PARENT 23 47 27 53 88 55 28 57 87 58 86 68 80 70 82 72 85 74 79 75
REMARK H PARENT 47 84 50 86 83 89 48 90 84 92
REMARK Flexibility Score: inf
ROOT
ATOM      1  C   UNL A   1      31.658  28.331  25.307  1.00  0.00    -0.052 C 
ATOM      2  H   UNL A   1      32.414  27.668  24.942  1.00  0.00     0.027 H 
ATOM      3  H   UNL A   1      30.793  27.828  25.687  1.00  0.00     0.027 H 
ENDROOT
BRANCH   1   4
ATOM      4  C   UNL A   1      31.167  29.185  24.130  1.00  0.00    -0.036 C 
ATOM      5  H   UNL A   1      30.107  29.302  24.221  1.00  0.00     0.028 H 
ATOM      6  H   UNL A   1      31.697  30.113  24.185  1.00  0.00     0.028 H 
BRANCH   4   7
ATOM      7  C   UNL A   1      31.465  28.595  22.751  1.00  0.00     0.017 C 
ATOM      8  H   UNL A   1      30.631  28.779  22.106  1.00  0.00     0.049 H 
ATOM      9  H   UNL A   1      32.350  29.061  22.370  1.00  0.00     0.049 H 
BRANCH   7  10
ATOM     10  N   UNL A   1      31.697  27.171  22.828  1.00  0.00    -0.356 N 
ATOM     11  O   UNL A   1      33.653  27.168  21.626  1.00  0.00    -0.275 OA
ATOM     12  C   UNL A   1      32.785  26.556  22.245  1.00  0.00     0.224 C 
ATOM     13  H   UNL A   1      31.050  26.614  23.318  1.00  0.00     0.163 HD
BRANCH  12  14
ATOM     14  C   UNL A   1      32.770  25.040  22.321  1.00  0.00     0.053 C 
ATOM     15  H   UNL A   1      33.154  24.653  21.401  1.00  0.00     0.042 H 
ATOM     16  H   UNL A   1      31.755  24.750  22.498  1.00  0.00     0.042 H 
BRANCH  14  17
ATOM     17  C   UNL A   1      33.584  24.479  23.444  1.00  0.00    -0.021 A 
ATOM     18  C   UNL A   1      33.338  24.635  24.834  1.00  0.00    -0.040 A 
ATOM     19  C   UNL A   1      34.700  23.669  23.335  1.00  0.00     0.013 A 
ATOM     20  C   UNL A   1      34.250  23.851  25.507  1.00  0.00     0.009 A 
ATOM     21  H   UNL A   1      32.610  25.226  25.262  1.00  0.00     0.064 H 
ATOM     22  N   UNL A   1      35.086  23.248  24.590  1.00  0.00    -0.321 N 
ATOM     23  H   UNL A   1      35.171  23.419  22.451  1.00  0.00     0.083 H 
ATOM     24  H   UNL A   1      34.299  23.733  26.531  1.00  0.00     0.082 H 
BRANCH  22  25
ATOM     25  C   UNL A   1      36.108  22.315  24.882  1.00  0.00     0.081 A 
ATOM     26  C   UNL A   1      35.847  20.942  24.774  1.00  0.00    -0.035 A 
ATOM     27  C   UNL A   1      37.384  22.749  25.244  1.00  0.00     0.147 A 
ATOM     28  C   UNL A   1      36.874  20.021  25.001  1.00  0.00    -0.060 A 
ATOM     29  H   UNL A   1      34.900  20.612  24.529  1.00  0.00     0.065 H 
ATOM     30  C   UNL A   1      38.395  21.828  25.508  1.00  0.00    -0.024 A 
ATOM     31  F   UNL A   1      37.655  24.051  25.416  1.00  0.00    -0.205 F 
ATOM     32  C   UNL A   1      38.144  20.464  25.375  1.00  0.00    -0.059 A 
ATOM     33  H   UNL A   1      36.692  19.011  24.892  1.00  0.00     0.062 H 
ATOM     34  H   UNL A   1      39.329  22.155  25.803  1.00  0.00     0.065 H 
ATOM     35  H   UNL A   1      38.897  19.780  25.553  1.00  0.00     0.062 H 
ENDBRANCH  22  25
ENDBRANCH  14  17
ENDBRANCH  12  14
ENDBRANCH   7  10
ENDBRANCH   4   7
ENDBRANCH   1   4
BRANCH   1  36
ATOM     36  C   UNL A   1      32.244  29.115  26.487  1.00  0.00    -0.052 C 
ATOM     37  H   UNL A   1      31.452  29.316  27.177  1.00  0.00     0.027 H 
ATOM     38  H   UNL A   1      32.681  29.998  26.069  1.00  0.00     0.027 H 
BRANCH  36  39
ATOM     39  C   UNL A   1      33.370  28.405  27.251  1.00  0.00    -0.036 C 
ATOM     40  H   UNL A   1      33.227  27.349  27.158  1.00  0.00     0.028 H 
ATOM     41  H   UNL A   1      33.315  28.738  28.266  1.00  0.00     0.028 H 
BRANCH  39  42
ATOM     42  C   UNL A   1      34.772  28.748  26.747  1.00  0.00     0.018 C 
ATOM     43  H   UNL A   1      34.798  28.640  25.683  1.00  0.00     0.049 H 
ATOM     44  H   UNL A   1      35.473  28.082  27.207  1.00  0.00     0.049 H 
BRANCH  42  45
ATOM     45  N   UNL A   1      35.130  30.112  27.097  1.00  0.00    -0.352 N 
ATOM     46  C   UNL A   1      36.146  30.585  27.887  1.00  0.00     0.251 C 
ATOM     47  H   UNL A   1      34.553  30.806  26.705  1.00  0.00     0.163 HD
ATOM     48  O   UNL A   1      36.062  31.715  28.354  1.00  0.00    -0.269 OA
BRANCH  46  49
ATOM     49  C   UNL A   1      37.335  29.763  28.198  1.00  0.00     0.039 A 
ATOM     50  C   UNL A   1      38.364  29.724  27.248  1.00  0.00    -0.049 A 
ATOM     51  C   UNL A   1      37.402  28.955  29.339  1.00  0.00    -0.049 A 
ATOM     52  C   UNL A   1      39.481  28.924  27.464  1.00  0.00    -0.053 A 
ATOM     53  H   UNL A   1      38.292  30.287  26.386  1.00  0.00     0.063 H 
ATOM     54  C   UNL A   1      38.528  28.170  29.572  1.00  0.00    -0.053 A 
ATOM     55  H   UNL A   1      36.615  28.942  30.008  1.00  0.00     0.063 H 
ATOM     56  C   UNL A   1      39.574  28.172  28.641  1.00  0.00    -0.014 A 
ATOM     57  H   UNL A   1      40.237  28.887  26.762  1.00  0.00     0.063 H 
ATOM     58  H   UNL A   1      38.591  27.593  30.424  1.00  0.00     0.063 H 
BRANCH  56  59
ATOM     59  C   UNL A   1      40.871  27.540  28.974  1.00  0.00     0.031 A 
ATOM     60  C   UNL A   1      40.969  26.113  28.387  1.00  0.00     0.074 A 
ATOM     61  C   UNL A   1      41.737  28.278  29.735  1.00  0.00     0.049 A 
ATOM     62  N   UNL A   1      41.719  25.111  28.733  1.00  0.00    -0.248 NA
ATOM     63  C   UNL A   1      40.061  25.725  27.267  1.00  0.00    -0.034 C 
ATOM     64  C   UNL A   1      41.494  29.671  30.166  1.00  0.00    -0.036 A 
ATOM     65  N   UNL A   1      42.975  28.033  30.302  1.00  0.00    -0.354 N 
ATOM     66  C   UNL A   1      41.520  24.072  27.792  1.00  0.00     0.074 A 
ATOM     67  C   UNL A   1      40.418  24.473  26.974  1.00  0.00    -0.034 C 
ATOM     68  H   UNL A   1      39.326  26.296  26.821  1.00  0.00     0.065 H 
ATOM     69  C   UNL A   1      42.479  30.106  30.980  1.00  0.00    -0.036 A 
ATOM     70  H   UNL A   1      40.678  30.237  29.883  1.00  0.00     0.065 H 
ATOM     71  C   UNL A   1      43.466  29.061  31.156  1.00  0.00     0.049 A 
ATOM     72  H   UNL A   1      43.479  27.206  30.129  1.00  0.00     0.167 HD
ATOM     73  C   UNL A   1      42.358  22.998  27.677  1.00  0.00     0.037 A 
ATOM     74  H   UNL A   1      39.965  23.879  26.262  1.00  0.00     0.065 H 
ATOM     75  H   UNL A   1      42.522  31.043  31.412  1.00  0.00     0.065 H 
ATOM     76  C   UNL A   1      44.562  29.048  31.981  1.00  0.00     0.037 A 
ATOM     77  C   UNL A   1      43.355  23.060  28.688  1.00  0.00     0.049 A 
ATOM     78  C   UNL A   1      45.276  27.809  31.646  1.00  0.00     0.074 A 
ATOM     79  C   UNL A   1      43.298  22.839  30.038  1.00  0.00    -0.036 A 
ATOM     80  N   UNL A   1      44.507  23.740  28.385  1.00  0.00    -0.354 N 
ATOM     81  N   UNL A   1      45.948  27.619  30.551  1.00  0.00    -0.248 NA
ATOM     82  C   UNL A   1      45.167  26.666  32.560  1.00  0.00    -0.034 C 
ATOM     83  C   UNL A   1      44.169  23.815  30.559  1.00  0.00    -0.036 A 
ATOM     84  H   UNL A   1      42.750  22.130  30.550  1.00  0.00     0.065 H 
ATOM     85  C   UNL A   1      44.884  24.416  29.517  1.00  0.00     0.049 A 
ATOM     86  H   UNL A   1      44.974  23.742  27.520  1.00  0.00     0.167 HD
ATOM     87  C   UNL A   1      46.036  26.250  30.505  1.00  0.00     0.074 A 
ATOM     88  C   UNL A   1      45.853  25.770  31.857  1.00  0.00    -0.034 C 
ATOM     89  H   UNL A   1      44.699  26.582  33.476  1.00  0.00     0.065 H 
ATOM     90  H   UNL A   1      44.266  24.052  31.559  1.00  0.00     0.065 H 
ATOM     91  C   UNL A   1      45.685  25.604  29.364  1.00  0.00     0.037 A 
ATOM     92  H   UNL A   1      46.203  24.869  32.221  1.00  0.00     0.065 H 
BRANCH  73  93
ATOM     93  C   UNL A   1      42.542  21.946  26.616  1.00  0.00     0.064 A 
ATOM     94  C   UNL A   1      43.566  21.984  25.663  1.00  0.00     0.173 A 
ATOM     95  C   UNL A   1      41.904  20.691  26.796  1.00  0.00     0.173 A 
ATOM     96  F   UNL A   1      44.245  23.112  25.422  1.00  0.00    -0.203 F 
ATOM     97  C   UNL A   1      43.988  20.822  25.004  1.00  0.00     0.198 A 
ATOM     98  C   UNL A   1      42.358  19.530  26.175  1.00  0.00     0.198 A 
ATOM     99  F   UNL A   1      40.874  20.558  27.648  1.00  0.00    -0.203 F 
ATOM    100  F   UNL A   1      45.010  20.887  24.139  1.00  0.00    -0.200 F 
ATOM    101  C   UNL A   1      43.416  19.593  25.291  1.00  0.00     0.200 A 
ATOM    102  F   UNL A   1      41.815  18.345  26.491  1.00  0.00    -0.200 F 
ATOM    103  F   UNL A   1      43.905  18.472  24.745  1.00  0.00    -0.200 F 
ENDBRANCH  73  93
BRANCH  76 104
ATOM    104  C   UNL A   1      45.135  29.854  33.134  1.00  0.00     0.064 A 
ATOM    105  C   UNL A   1      46.281  30.679  32.919  1.00  0.00     0.173 A 
ATOM    106  C   UNL A   1      44.735  29.786  34.473  1.00  0.00     0.173 A 
ATOM    107  F   UNL A   1      46.693  31.006  31.687  1.00  0.00    -0.203 F 
ATOM    108  C   UNL A   1      47.069  31.194  33.949  1.00  0.00     0.198 A 
ATOM    109  C   UNL A   1      45.494  30.361  35.511  1.00  0.00     0.198 A 
ATOM    110  F   UNL A   1      43.599  29.175  34.827  1.00  0.00    -0.203 F 
ATOM    111  F   UNL A   1      48.210  31.835  33.656  1.00  0.00    -0.200 F 
ATOM    112  C   UNL A   1      46.686  31.015  35.253  1.00  0.00     0.200 A 
ATOM    113  F   UNL A   1      45.073  30.253  36.780  1.00  0.00    -0.200 F 
ATOM    114  F   UNL A   1      47.452  31.480  36.250  1.00  0.00    -0.200 F 
ENDBRANCH  76 104
BRANCH  91 115
ATOM    115  C   UNL A   1      45.844  26.433  28.107  1.00  0.00     0.064 A 
ATOM    116  C   UNL A   1      44.774  26.933  27.347  1.00  0.00     0.173 A 
ATOM    117  C   UNL A   1      47.127  26.832  27.700  1.00  0.00     0.173 A 
ATOM    118  F   UNL A   1      43.518  26.613  27.648  1.00  0.00    -0.203 F 
ATOM    119  C   UNL A   1      44.964  27.779  26.250  1.00  0.00     0.198 A 
ATOM    120  C   UNL A   1      47.321  27.682  26.607  1.00  0.00     0.198 A 
ATOM    121  F   UNL A   1      48.204  26.389  28.364  1.00  0.00    -0.203 F 
ATOM    122  F   UNL A   1      43.906  28.217  25.549  1.00  0.00    -0.200 F 
ATOM    123  C   UNL A   1      46.240  28.155  25.883  1.00  0.00     0.200 A 
ATOM    124  F   UNL A   1      48.564  28.035  26.252  1.00  0.00    -0.200 F 
ATOM    125  F   UNL A   1      46.428  28.956  24.825  1.00  0.00    -0.200 F 
ENDBRANCH  91 115
ENDBRANCH  56  59
ENDBRANCH  46  49
ENDBRANCH  42  45
ENDBRANCH  39  42
ENDBRANCH  36  39
ENDBRANCH   1  36
TORSDOF 15
ENDMDL
MODEL 3
REMARK VINA RESULT:     -11.8      1.801      2.264
REMARK SMILES O=C(Cc1ccn(-c2ccccc2F)c1)NCCCCCCNC(=O)c1ccc(-c2c3nc(c(-c4c(F)c(F)c(F)c(F)c4F)c4ccc([nH]4)c(-c4c(F)c(F)c(F)c(F)c4F)c4nc(c(-c5c(F)c(F)c(F)c(F)c5F)c5ccc2[nH]5)C=C4)C=C3)cc1
REMARK SMILES IDX 19 1 18 4 17 7 16 10 1 11 2 12 3 14 4 17 5 18 15 19 6 20
REMARK SMILES IDX 7 22 8 25 9 26 13 27 10 28 12 30 14 31 11 32 20 36 21 39
REMARK SMILES IDX 22 42 23 45 24 46 25 48 26 49 27 50 88 51 28 52 87 54 29 56
REMARK SMILES IDX 30 59 31 60 81 61 32 62 86 63 80 64 82 65 33 66 85 67 79 69
REMARK SMILES IDX 78 71 34 73 66 76 46 77 65 78 47 79 50 80 64 81 83 82 48 83
REMARK SMILES IDX 49 85 63 87 84 88 51 91 35 93 36 94 44 95 37 96 38 97 42 98
REMARK SMILES IDX 45 99 39 100 40 101 43 102 41 103 67 104 68 105 76 106
REMARK SMILES IDX 69 107 70 108 74 109 77 110 71 111 72 112 75 113 73 114
REMARK SMILES IDX 52 115 53 116 61 117 54 118 55 119 59 120 62 121 56 122
REMARK SMILES IDX 57 123 60 124 58 125
REMARK H PARENT 19 2 19 3 18 5 18 6 17 8 17 9 16 13 3 15 3 16 5 21 15 23 6 24
REMARK H PARENT 9 29 10 33 12 34 11 35 20 37 20 38 21 40 21 41 22 43 22 44
REMARK H PARENT 23 47 27 53 88 55 28 57 87 58 86 68 80 70 82 72 85 74 79 75
REMARK H PARENT 47 84 50 86 83 89 48 90 84 92
REMARK Flexibility Score: inf
ROOT
ATOM      1  C   UNL A   1      32.637  27.292  23.780  1.00  0.00    -0.052 C 
ATOM      2  H   UNL A   1      31.963  26.470  23.909  1.00  0.00     0.027 H 
ATOM      3  H   UNL A   1      32.154  28.247  23.791  1.00  0.00     0.027 H 
ENDROOT
BRANCH   1   4
ATOM      4  C   UNL A   1      33.286  27.162  22.396  1.00  0.00    -0.036 C 
ATOM      5  H   UNL A   1      33.154  28.088  21.877  1.00  0.00     0.028 H 
ATOM      6  H   UNL A   1      34.314  26.917  22.563  1.00  0.00     0.028 H 
BRANCH   4   7
ATOM      7  C   UNL A   1      32.709  26.043  21.528  1.00  0.00     0.017 C 
ATOM      8  H   UNL A   1      31.925  26.444  20.919  1.00  0.00     0.049 H 
ATOM      9  H   UNL A   1      33.496  25.647  20.920  1.00  0.00     0.049 H 
BRANCH   7  10
ATOM     10  N   UNL A   1      32.176  24.971  22.337  1.00  0.00    -0.356 N 
ATOM     11  O   UNL A   1      33.671  23.369  21.653  1.00  0.00    -0.275 OA
ATOM     12  C   UNL A   1      32.701  23.696  22.332  1.00  0.00     0.224 C 
ATOM     13  H   UNL A   1      31.404  25.159  22.918  1.00  0.00     0.163 HD
BRANCH  12  14
ATOM     14  C   UNL A   1      31.911  22.685  23.144  1.00  0.00     0.053 C 
ATOM     15  H   UNL A   1      31.219  22.196  22.492  1.00  0.00     0.042 H 
ATOM     16  H   UNL A   1      31.425  23.230  23.927  1.00  0.00     0.042 H 
BRANCH  14  17
ATOM     17  C   UNL A   1      32.755  21.640  23.803  1.00  0.00    -0.021 A 
ATOM     18  C   UNL A   1      33.841  21.859  24.691  1.00  0.00    -0.040 A 
ATOM     19  C   UNL A   1      32.607  20.269  23.702  1.00  0.00     0.013 A 
ATOM     20  C   UNL A   1      34.249  20.629  25.160  1.00  0.00     0.009 A 
ATOM     21  H   UNL A   1      34.250  22.772  24.941  1.00  0.00     0.064 H 
ATOM     22  N   UNL A   1      33.488  19.646  24.561  1.00  0.00    -0.321 N 
ATOM     23  H   UNL A   1      31.939  19.785  23.079  1.00  0.00     0.083 H 
ATOM     24  H   UNL A   1      35.001  20.468  25.849  1.00  0.00     0.082 H 
BRANCH  22  25
ATOM     25  C   UNL A   1      33.554  18.260  24.831  1.00  0.00     0.081 A 
ATOM     26  C   UNL A   1      32.404  17.577  25.250  1.00  0.00    -0.035 A 
ATOM     27  C   UNL A   1      34.748  17.558  24.653  1.00  0.00     0.147 A 
ATOM     28  C   UNL A   1      32.454  16.195  25.456  1.00  0.00    -0.060 A 
ATOM     29  H   UNL A   1      31.524  18.092  25.405  1.00  0.00     0.065 H 
ATOM     30  C   UNL A   1      34.805  16.188  24.898  1.00  0.00    -0.024 A 
ATOM     31  F   UNL A   1      35.883  18.186  24.314  1.00  0.00    -0.205 F 
ATOM     32  C   UNL A   1      33.655  15.503  25.288  1.00  0.00    -0.059 A 
ATOM     33  H   UNL A   1      31.601  15.686  25.734  1.00  0.00     0.062 H 
ATOM     34  H   UNL A   1      35.697  15.680  24.792  1.00  0.00     0.065 H 
ATOM     35  H   UNL A   1      33.691  14.485  25.453  1.00  0.00     0.062 H 
ENDBRANCH  22  25
ENDBRANCH  14  17
ENDBRANCH  12  14
ENDBRANCH   7  10
ENDBRANCH   4   7
ENDBRANCH   1   4
BRANCH   1  36
ATOM     36  C   UNL A   1      33.610  27.296  24.964  1.00  0.00    -0.052 C 
ATOM     37  H   UNL A   1      34.595  27.124  24.583  1.00  0.00     0.027 H 
ATOM     38  H   UNL A   1      33.269  26.531  25.631  1.00  0.00     0.027 H 
BRANCH  36  39
ATOM     39  C   UNL A   1      33.639  28.592  25.785  1.00  0.00    -0.036 C 
ATOM     40  H   UNL A   1      32.721  28.668  26.329  1.00  0.00     0.028 H 
ATOM     41  H   UNL A   1      33.773  29.396  25.092  1.00  0.00     0.028 H 
BRANCH  39  42
ATOM     42  C   UNL A   1      34.796  28.668  26.782  1.00  0.00     0.018 C 
ATOM     43  H   UNL A   1      35.635  28.135  26.387  1.00  0.00     0.049 H 
ATOM     44  H   UNL A   1      34.479  28.233  27.707  1.00  0.00     0.049 H 
BRANCH  42  45
ATOM     45  N   UNL A   1      35.180  30.048  27.026  1.00  0.00    -0.352 N 
ATOM     46  C   UNL A   1      36.224  30.561  27.752  1.00  0.00     0.251 C 
ATOM     47  H   UNL A   1      34.600  30.722  26.602  1.00  0.00     0.163 HD
ATOM     48  O   UNL A   1      36.167  31.721  28.141  1.00  0.00    -0.269 OA
BRANCH  46  49
ATOM     49  C   UNL A   1      37.411  29.746  28.087  1.00  0.00     0.039 A 
ATOM     50  C   UNL A   1      38.460  29.715  27.158  1.00  0.00    -0.049 A 
ATOM     51  C   UNL A   1      37.459  28.936  29.227  1.00  0.00    -0.049 A 
ATOM     52  C   UNL A   1      39.577  28.922  27.396  1.00  0.00    -0.053 A 
ATOM     53  H   UNL A   1      38.403  30.280  26.296  1.00  0.00     0.063 H 
ATOM     54  C   UNL A   1      38.585  28.158  29.482  1.00  0.00    -0.053 A 
ATOM     55  H   UNL A   1      36.659  28.917  29.880  1.00  0.00     0.063 H 
ATOM     56  C   UNL A   1      39.651  28.168  28.574  1.00  0.00    -0.014 A 
ATOM     57  H   UNL A   1      40.348  28.891  26.711  1.00  0.00     0.063 H 
ATOM     58  H   UNL A   1      38.634  27.579  30.334  1.00  0.00     0.063 H 
BRANCH  56  59
ATOM     59  C   UNL A   1      40.944  27.544  28.932  1.00  0.00     0.031 A 
ATOM     60  C   UNL A   1      41.056  26.111  28.359  1.00  0.00     0.074 A 
ATOM     61  C   UNL A   1      41.796  28.291  29.700  1.00  0.00     0.049 A 
ATOM     62  N   UNL A   1      41.804  25.115  28.726  1.00  0.00    -0.248 NA
ATOM     63  C   UNL A   1      40.168  25.711  27.229  1.00  0.00    -0.034 C 
ATOM     64  C   UNL A   1      41.541  29.687  30.115  1.00  0.00    -0.036 A 
ATOM     65  N   UNL A   1      43.025  28.056  30.289  1.00  0.00    -0.354 N 
ATOM     66  C   UNL A   1      41.624  24.068  27.792  1.00  0.00     0.074 A 
ATOM     67  C   UNL A   1      40.534  24.457  26.953  1.00  0.00    -0.034 C 
ATOM     68  H   UNL A   1      39.438  26.275  26.767  1.00  0.00     0.065 H 
ATOM     69  C   UNL A   1      42.512  30.133  30.940  1.00  0.00    -0.036 A 
ATOM     70  H   UNL A   1      40.728  30.248  29.815  1.00  0.00     0.065 H 
ATOM     71  C   UNL A   1      43.500  29.093  31.141  1.00  0.00     0.049 A 
ATOM     72  H   UNL A   1      43.535  27.229  30.131  1.00  0.00     0.167 HD
ATOM     73  C   UNL A   1      42.467  22.996  27.699  1.00  0.00     0.037 A 
ATOM     74  H   UNL A   1      40.094  23.856  26.239  1.00  0.00     0.065 H 
ATOM     75  H   UNL A   1      42.546  31.074  31.365  1.00  0.00     0.065 H 
ATOM     76  C   UNL A   1      44.582  29.092  31.984  1.00  0.00     0.037 A 
ATOM     77  C   UNL A   1      43.448  23.070  28.726  1.00  0.00     0.049 A 
ATOM     78  C   UNL A   1      45.306  27.852  31.671  1.00  0.00     0.074 A 
ATOM     79  C   UNL A   1      43.371  22.861  30.077  1.00  0.00    -0.036 A 
ATOM     80  N   UNL A   1      44.602  23.752  28.435  1.00  0.00    -0.354 N 
ATOM     81  N   UNL A   1      45.996  27.654  30.588  1.00  0.00    -0.248 NA
ATOM     82  C   UNL A   1      45.187  26.716  32.593  1.00  0.00    -0.034 C 
ATOM     83  C   UNL A   1      44.229  23.844  30.602  1.00  0.00    -0.036 A 
ATOM     84  H   UNL A   1      42.817  22.155  30.586  1.00  0.00     0.065 H 
ATOM     85  C   UNL A   1      44.959  24.439  29.566  1.00  0.00     0.049 A 
ATOM     86  H   UNL A   1      45.083  23.748  27.577  1.00  0.00     0.167 HD
ATOM     87  C   UNL A   1      46.089  26.285  30.556  1.00  0.00     0.074 A 
ATOM     88  C   UNL A   1      45.887  25.817  31.909  1.00  0.00    -0.034 C 
ATOM     89  H   UNL A   1      44.704  26.639  33.502  1.00  0.00     0.065 H 
ATOM     90  H   UNL A   1      44.310  24.090  31.601  1.00  0.00     0.065 H 
ATOM     91  C   UNL A   1      45.759  25.629  29.416  1.00  0.00     0.037 A 
ATOM     92  H   UNL A   1      46.233  24.921  32.286  1.00  0.00     0.065 H 
BRANCH  73  93
ATOM     93  C   UNL A   1      42.671  21.935  26.651  1.00  0.00     0.064 A 
ATOM     94  C   UNL A   1      43.630  22.030  25.636  1.00  0.00     0.173 A 
ATOM     95  C   UNL A   1      42.149  20.638  26.896  1.00  0.00     0.173 A 
ATOM     96  F   UNL A   1      44.200  23.202  25.330  1.00  0.00    -0.203 F 
ATOM     97  C   UNL A   1      44.104  20.889  24.975  1.00  0.00     0.198 A 
ATOM     98  C   UNL A   1      42.658  19.501  26.272  1.00  0.00     0.198 A 
ATOM     99  F   UNL A   1      41.186  20.445  27.813  1.00  0.00    -0.203 F 
ATOM    100  F   UNL A   1      45.063  21.013  24.048  1.00  0.00    -0.200 F 
ATOM    101  C   UNL A   1      43.652  19.626  25.323  1.00  0.00     0.200 A 
ATOM    102  F   UNL A   1      42.232  18.286  26.645  1.00  0.00    -0.200 F 
ATOM    103  F   UNL A   1      44.196  18.534  24.770  1.00  0.00    -0.200 F 
ENDBRANCH  73  93
BRANCH  76 104
ATOM    104  C   UNL A   1      45.135  29.909  33.138  1.00  0.00     0.064 A 
ATOM    105  C   UNL A   1      44.500  29.847  34.416  1.00  0.00     0.173 A 
ATOM    106  C   UNL A   1      46.164  30.855  33.067  1.00  0.00     0.173 A 
ATOM    107  F   UNL A   1      43.624  28.881  34.722  1.00  0.00    -0.203 F 
ATOM    108  C   UNL A   1      44.715  30.777  35.434  1.00  0.00     0.198 A 
ATOM    109  C   UNL A   1      46.427  31.754  34.120  1.00  0.00     0.198 A 
ATOM    110  F   UNL A   1      46.953  30.940  31.992  1.00  0.00    -0.203 F 
ATOM    111  F   UNL A   1      43.967  30.730  36.546  1.00  0.00    -0.200 F 
ATOM    112  C   UNL A   1      45.668  31.750  35.276  1.00  0.00     0.200 A 
ATOM    113  F   UNL A   1      47.415  32.652  33.994  1.00  0.00    -0.200 F 
ATOM    114  F   UNL A   1      45.861  32.666  36.235  1.00  0.00    -0.200 F 
ENDBRANCH  76 104
BRANCH  91 115
ATOM    115  C   UNL A   1      45.935  26.446  28.153  1.00  0.00     0.064 A 
ATOM    116  C   UNL A   1      44.874  26.945  27.378  1.00  0.00     0.173 A 
ATOM    117  C   UNL A   1      47.223  26.837  27.757  1.00  0.00     0.173 A 
ATOM    118  F   UNL A   1      43.614  26.632  27.668  1.00  0.00    -0.203 F 
ATOM    119  C   UNL A   1      45.080  27.781  26.277  1.00  0.00     0.198 A 
ATOM    120  C   UNL A   1      47.432  27.678  26.660  1.00  0.00     0.198 A 
ATOM    121  F   UNL A   1      48.291  26.395  28.437  1.00  0.00    -0.203 F 
ATOM    122  F   UNL A   1      44.032  28.219  25.561  1.00  0.00    -0.200 F 
ATOM    123  C   UNL A   1      46.361  28.149  25.920  1.00  0.00     0.200 A 
ATOM    124  F   UNL A   1      48.680  28.023  26.315  1.00  0.00    -0.200 F 
ATOM    125  F   UNL A   1      46.564  28.941  24.858  1.00  0.00    -0.200 F 
ENDBRANCH  91 115
ENDBRANCH  56  59
ENDBRANCH  46  49
ENDBRANCH  42  45
ENDBRANCH  39  42
ENDBRANCH  36  39
ENDBRANCH   1  36
TORSDOF 15
ENDMDL
MODEL 4
REMARK VINA RESULT:     -11.7      4.512      9.449
REMARK SMILES O=C(Cc1ccn(-c2ccccc2F)c1)NCCCCCCNC(=O)c1ccc(-c2c3nc(c(-c4c(F)c(F)c(F)c(F)c4F)c4ccc([nH]4)c(-c4c(F)c(F)c(F)c(F)c4F)c4nc(c(-c5c(F)c(F)c(F)c(F)c5F)c5ccc2[nH]5)C=C4)C=C3)cc1
REMARK SMILES IDX 19 1 18 4 17 7 16 10 1 11 2 12 3 14 4 17 5 18 15 19 6 20
REMARK SMILES IDX 7 22 8 25 9 26 13 27 10 28 12 30 14 31 11 32 20 36 21 39
REMARK SMILES IDX 22 42 23 45 24 46 25 48 26 49 27 50 88 51 28 52 87 54 29 56
REMARK SMILES IDX 30 59 31 60 81 61 32 62 86 63 80 64 82 65 33 66 85 67 79 69
REMARK SMILES IDX 78 71 34 73 66 76 46 77 65 78 47 79 50 80 64 81 83 82 48 83
REMARK SMILES IDX 49 85 63 87 84 88 51 91 35 93 36 94 44 95 37 96 38 97 42 98
REMARK SMILES IDX 45 99 39 100 40 101 43 102 41 103 67 104 68 105 76 106
REMARK SMILES IDX 69 107 70 108 74 109 77 110 71 111 72 112 75 113 73 114
REMARK SMILES IDX 52 115 53 116 61 117 54 118 55 119 59 120 62 121 56 122
REMARK SMILES IDX 57 123 60 124 58 125
REMARK H PARENT 19 2 19 3 18 5 18 6 17 8 17 9 16 13 3 15 3 16 5 21 15 23 6 24
REMARK H PARENT 9 29 10 33 12 34 11 35 20 37 20 38 21 40 21 41 22 43 22 44
REMARK H PARENT 23 47 27 53 88 55 28 57 87 58 86 68 80 70 82 72 85 74 79 75
REMARK H PARENT 47 84 50 86 83 89 48 90 84 92
REMARK Flexibility Score: inf
ROOT
ATOM      1  C   UNL A   1      33.816  23.277  26.585  1.00  0.00    -0.052 C 
ATOM      2  H   UNL A   1      34.029  23.575  27.590  1.00  0.00     0.027 H 
ATOM      3  H   UNL A   1      32.878  23.641  26.219  1.00  0.00     0.027 H 
ENDROOT
BRANCH   1   4
ATOM      4  C   UNL A   1      33.718  21.746  26.553  1.00  0.00    -0.036 C 
ATOM      5  H   UNL A   1      34.700  21.351  26.403  1.00  0.00     0.028 H 
ATOM      6  H   UNL A   1      33.285  21.450  27.486  1.00  0.00     0.028 H 
BRANCH   4   7
ATOM      7  C   UNL A   1      32.808  21.192  25.456  1.00  0.00     0.017 C 
ATOM      8  H   UNL A   1      33.411  20.874  24.631  1.00  0.00     0.049 H 
ATOM      9  H   UNL A   1      32.254  20.371  25.860  1.00  0.00     0.049 H 
BRANCH   7  10
ATOM     10  N   UNL A   1      31.870  22.191  24.996  1.00  0.00    -0.356 N 
ATOM     11  O   UNL A   1      32.538  22.173  22.800  1.00  0.00    -0.275 OA
ATOM     12  C   UNL A   1      31.811  22.617  23.686  1.00  0.00     0.224 C 
ATOM     13  H   UNL A   1      31.246  22.585  25.646  1.00  0.00     0.163 HD
BRANCH  12  14
ATOM     14  C   UNL A   1      30.855  23.770  23.439  1.00  0.00     0.053 C 
ATOM     15  H   UNL A   1      30.060  23.707  24.153  1.00  0.00     0.042 H 
ATOM     16  H   UNL A   1      30.511  23.674  22.430  1.00  0.00     0.042 H 
BRANCH  14  17
ATOM     17  C   UNL A   1      31.487  25.121  23.556  1.00  0.00    -0.021 A 
ATOM     18  C   UNL A   1      31.844  25.988  22.490  1.00  0.00    -0.040 A 
ATOM     19  C   UNL A   1      31.799  25.792  24.724  1.00  0.00     0.013 A 
ATOM     20  C   UNL A   1      32.272  27.175  23.045  1.00  0.00     0.009 A 
ATOM     21  H   UNL A   1      31.793  25.770  21.483  1.00  0.00     0.064 H 
ATOM     22  N   UNL A   1      32.240  27.063  24.421  1.00  0.00    -0.321 N 
ATOM     23  H   UNL A   1      31.715  25.402  25.677  1.00  0.00     0.083 H 
ATOM     24  H   UNL A   1      32.569  28.011  22.519  1.00  0.00     0.082 H 
BRANCH  22  25
ATOM     25  C   UNL A   1      32.538  28.089  25.347  1.00  0.00     0.081 A 
ATOM     26  C   UNL A   1      33.637  27.953  26.206  1.00  0.00    -0.035 A 
ATOM     27  C   UNL A   1      31.766  29.251  25.392  1.00  0.00     0.147 A 
ATOM     28  C   UNL A   1      33.969  28.993  27.078  1.00  0.00    -0.060 A 
ATOM     29  H   UNL A   1      34.199  27.087  26.194  1.00  0.00     0.065 H 
ATOM     30  C   UNL A   1      32.076  30.270  26.290  1.00  0.00    -0.024 A 
ATOM     31  F   UNL A   1      30.672  29.392  24.630  1.00  0.00    -0.205 F 
ATOM     32  C   UNL A   1      33.185  30.147  27.125  1.00  0.00    -0.059 A 
ATOM     33  H   UNL A   1      34.797  28.907  27.689  1.00  0.00     0.062 H 
ATOM     34  H   UNL A   1      31.485  31.115  26.338  1.00  0.00     0.065 H 
ATOM     35  H   UNL A   1      33.427  30.908  27.779  1.00  0.00     0.062 H 
ENDBRANCH  22  25
ENDBRANCH  14  17
ENDBRANCH  12  14
ENDBRANCH   7  10
ENDBRANCH   4   7
ENDBRANCH   1   4
BRANCH   1  36
ATOM     36  C   UNL A   1      34.889  23.885  25.675  1.00  0.00    -0.052 C 
ATOM     37  H   UNL A   1      34.972  24.925  25.909  1.00  0.00     0.027 H 
ATOM     38  H   UNL A   1      34.568  23.697  24.671  1.00  0.00     0.027 H 
BRANCH  36  39
ATOM     39  C   UNL A   1      36.285  23.259  25.797  1.00  0.00    -0.036 C 
ATOM     40  H   UNL A   1      36.547  22.830  24.853  1.00  0.00     0.028 H 
ATOM     41  H   UNL A   1      36.232  22.530  26.578  1.00  0.00     0.028 H 
BRANCH  39  42
ATOM     42  C   UNL A   1      37.378  24.253  26.192  1.00  0.00     0.018 C 
ATOM     43  H   UNL A   1      36.975  24.959  26.888  1.00  0.00     0.049 H 
ATOM     44  H   UNL A   1      37.721  24.753  25.310  1.00  0.00     0.049 H 
BRANCH  42  45
ATOM     45  N   UNL A   1      38.504  23.570  26.805  1.00  0.00    -0.352 N 
ATOM     46  C   UNL A   1      39.635  24.078  27.389  1.00  0.00     0.251 C 
ATOM     47  H   UNL A   1      38.445  22.587  26.802  1.00  0.00     0.163 HD
ATOM     48  O   UNL A   1      40.619  23.357  27.511  1.00  0.00    -0.269 OA
BRANCH  46  49
ATOM     49  C   UNL A   1      39.702  25.475  27.867  1.00  0.00     0.039 A 
ATOM     50  C   UNL A   1      39.238  25.741  29.162  1.00  0.00    -0.049 A 
ATOM     51  C   UNL A   1      40.102  26.527  27.035  1.00  0.00    -0.049 A 
ATOM     52  C   UNL A   1      39.228  27.046  29.643  1.00  0.00    -0.053 A 
ATOM     53  H   UNL A   1      38.903  24.970  29.760  1.00  0.00     0.063 H 
ATOM     54  C   UNL A   1      40.114  27.832  27.519  1.00  0.00    -0.053 A 
ATOM     55  H   UNL A   1      40.387  26.334  26.062  1.00  0.00     0.063 H 
ATOM     56  C   UNL A   1      39.695  28.086  28.830  1.00  0.00    -0.014 A 
ATOM     57  H   UNL A   1      38.879  27.247  30.594  1.00  0.00     0.063 H 
ATOM     58  H   UNL A   1      40.432  28.606  26.916  1.00  0.00     0.063 H 
BRANCH  56  59
ATOM     59  C   UNL A   1      39.920  29.414  29.443  1.00  0.00     0.031 A 
ATOM     60  C   UNL A   1      38.678  30.324  29.289  1.00  0.00     0.074 A 
ATOM     61  C   UNL A   1      41.147  29.630  30.009  1.00  0.00     0.049 A 
ATOM     62  N   UNL A   1      38.573  31.617  29.332  1.00  0.00    -0.248 NA
ATOM     63  C   UNL A   1      37.354  29.700  29.000  1.00  0.00    -0.034 C 
ATOM     64  C   UNL A   1      42.211  28.609  30.115  1.00  0.00    -0.036 A 
ATOM     65  N   UNL A   1      41.761  30.720  30.600  1.00  0.00    -0.354 N 
ATOM     66  C   UNL A   1      37.198  31.945  29.267  1.00  0.00     0.074 A 
ATOM     67  C   UNL A   1      36.507  30.731  28.965  1.00  0.00    -0.034 C 
ATOM     68  H   UNL A   1      37.142  28.700  28.861  1.00  0.00     0.065 H 
ATOM     69  C   UNL A   1      43.340  29.135  30.636  1.00  0.00    -0.036 A 
ATOM     70  H   UNL A   1      42.105  27.622  29.829  1.00  0.00     0.065 H 
ATOM     71  C   UNL A   1      43.133  30.537  30.934  1.00  0.00     0.049 A 
ATOM     72  H   UNL A   1      41.283  31.561  30.777  1.00  0.00     0.167 HD
ATOM     73  C   UNL A   1      36.709  33.182  29.584  1.00  0.00     0.037 A 
ATOM     74  H   UNL A   1      35.500  30.662  28.751  1.00  0.00     0.065 H 
ATOM     75  H   UNL A   1      44.218  28.616  30.798  1.00  0.00     0.065 H 
ATOM     76  C   UNL A   1      44.047  31.463  31.370  1.00  0.00     0.037 A 
ATOM     77  C   UNL A   1      37.787  34.061  29.876  1.00  0.00     0.049 A 
ATOM     78  C   UNL A   1      43.261  32.675  31.640  1.00  0.00     0.074 A 
ATOM     79  C   UNL A   1      38.717  34.662  29.071  1.00  0.00    -0.036 A 
ATOM     80  N   UNL A   1      38.211  34.112  31.180  1.00  0.00    -0.354 N 
ATOM     81  N   UNL A   1      42.452  32.820  32.646  1.00  0.00    -0.248 NA
ATOM     82  C   UNL A   1      43.316  33.778  30.673  1.00  0.00    -0.034 C 
ATOM     83  C   UNL A   1      39.889  34.620  29.849  1.00  0.00    -0.036 A 
ATOM     84  H   UNL A   1      38.590  35.051  28.124  1.00  0.00     0.065 H 
ATOM     85  C   UNL A   1      39.578  34.222  31.154  1.00  0.00     0.049 A 
ATOM     86  H   UNL A   1      37.642  34.077  31.982  1.00  0.00     0.167 HD
ATOM     87  C   UNL A   1      41.670  33.869  32.233  1.00  0.00     0.074 A 
ATOM     88  C   UNL A   1      42.425  34.591  31.233  1.00  0.00    -0.034 C 
ATOM     89  H   UNL A   1      43.879  33.890  29.815  1.00  0.00     0.065 H 
ATOM     90  H   UNL A   1      40.836  34.849  29.509  1.00  0.00     0.065 H 
ATOM     91  C   UNL A   1      40.320  33.748  32.295  1.00  0.00     0.037 A 
ATOM     92  H   UNL A   1      42.292  35.585  30.991  1.00  0.00     0.065 H 
BRANCH  73  93
ATOM     93  C   UNL A   1      35.325  33.697  29.874  1.00  0.00     0.064 A 
ATOM     94  C   UNL A   1      34.778  33.754  31.160  1.00  0.00     0.173 A 
ATOM     95  C   UNL A   1      34.683  34.492  28.888  1.00  0.00     0.173 A 
ATOM     96  F   UNL A   1      35.312  33.057  32.170  1.00  0.00    -0.203 F 
ATOM     97  C   UNL A   1      33.720  34.621  31.462  1.00  0.00     0.198 A 
ATOM     98  C   UNL A   1      33.664  35.388  29.202  1.00  0.00     0.198 A 
ATOM     99  F   UNL A   1      35.095  34.470  27.609  1.00  0.00    -0.203 F 
ATOM    100  F   UNL A   1      33.259  34.689  32.719  1.00  0.00    -0.200 F 
ATOM    101  C   UNL A   1      33.195  35.466  30.498  1.00  0.00     0.200 A 
ATOM    102  F   UNL A   1      33.191  36.221  28.264  1.00  0.00    -0.200 F 
ATOM    103  F   UNL A   1      32.265  36.374  30.824  1.00  0.00    -0.200 F 
ENDBRANCH  73  93
BRANCH  76 104
ATOM    104  C   UNL A   1      45.551  31.598  31.534  1.00  0.00     0.064 A 
ATOM    105  C   UNL A   1      46.402  31.462  30.395  1.00  0.00     0.173 A 
ATOM    106  C   UNL A   1      46.245  31.720  32.743  1.00  0.00     0.173 A 
ATOM    107  F   UNL A   1      45.922  31.517  29.146  1.00  0.00    -0.203 F 
ATOM    108  C   UNL A   1      47.778  31.247  30.477  1.00  0.00     0.198 A 
ATOM    109  C   UNL A   1      47.644  31.568  32.821  1.00  0.00     0.198 A 
ATOM    110  F   UNL A   1      45.606  31.998  33.884  1.00  0.00    -0.203 F 
ATOM    111  F   UNL A   1      48.477  30.982  29.364  1.00  0.00    -0.200 F 
ATOM    112  C   UNL A   1      48.399  31.277  31.699  1.00  0.00     0.200 A 
ATOM    113  F   UNL A   1      48.258  31.679  34.008  1.00  0.00    -0.200 F 
ATOM    114  F   UNL A   1      49.716  31.041  31.792  1.00  0.00    -0.200 F 
ENDBRANCH  76 104
BRANCH  91 115
ATOM    115  C   UNL A   1      39.829  32.788  33.358  1.00  0.00     0.064 A 
ATOM    116  C   UNL A   1      39.249  31.537  33.088  1.00  0.00     0.173 A 
ATOM    117  C   UNL A   1      40.043  33.087  34.712  1.00  0.00     0.173 A 
ATOM    118  F   UNL A   1      39.003  31.157  31.837  1.00  0.00    -0.203 F 
ATOM    119  C   UNL A   1      38.903  30.637  34.101  1.00  0.00     0.198 A 
ATOM    120  C   UNL A   1      39.704  32.188  35.727  1.00  0.00     0.198 A 
ATOM    121  F   UNL A   1      40.581  34.266  35.057  1.00  0.00    -0.203 F 
ATOM    122  F   UNL A   1      38.338  29.460  33.789  1.00  0.00    -0.200 F 
ATOM    123  C   UNL A   1      39.134  30.964  35.422  1.00  0.00     0.200 A 
ATOM    124  F   UNL A   1      39.922  32.517  37.008  1.00  0.00    -0.200 F 
ATOM    125  F   UNL A   1      38.793  30.110  36.397  1.00  0.00    -0.200 F 
ENDBRANCH  91 115
ENDBRANCH  56  59
ENDBRANCH  46  49
ENDBRANCH  42  45
ENDBRANCH  39  42
ENDBRANCH  36  39
ENDBRANCH   1  36
TORSDOF 15
ENDMDL
MODEL 5
REMARK VINA RESULT:     -11.7      4.657      7.503
REMARK SMILES O=C(Cc1ccn(-c2ccccc2F)c1)NCCCCCCNC(=O)c1ccc(-c2c3nc(c(-c4c(F)c(F)c(F)c(F)c4F)c4ccc([nH]4)c(-c4c(F)c(F)c(F)c(F)c4F)c4nc(c(-c5c(F)c(F)c(F)c(F)c5F)c5ccc2[nH]5)C=C4)C=C3)cc1
REMARK SMILES IDX 19 1 18 4 17 7 16 10 1 11 2 12 3 14 4 17 5 18 15 19 6 20
REMARK SMILES IDX 7 22 8 25 9 26 13 27 10 28 12 30 14 31 11 32 20 36 21 39
REMARK SMILES IDX 22 42 23 45 24 46 25 48 26 49 27 50 88 51 28 52 87 54 29 56
REMARK SMILES IDX 30 59 31 60 81 61 32 62 86 63 80 64 82 65 33 66 85 67 79 69
REMARK SMILES IDX 78 71 34 73 66 76 46 77 65 78 47 79 50 80 64 81 83 82 48 83
REMARK SMILES IDX 49 85 63 87 84 88 51 91 35 93 36 94 44 95 37 96 38 97 42 98
REMARK SMILES IDX 45 99 39 100 40 101 43 102 41 103 67 104 68 105 76 106
REMARK SMILES IDX 69 107 70 108 74 109 77 110 71 111 72 112 75 113 73 114
REMARK SMILES IDX 52 115 53 116 61 117 54 118 55 119 59 120 62 121 56 122
REMARK SMILES IDX 57 123 60 124 58 125
REMARK H PARENT 19 2 19 3 18 5 18 6 17 8 17 9 16 13 3 15 3 16 5 21 15 23 6 24
REMARK H PARENT 9 29 10 33 12 34 11 35 20 37 20 38 21 40 21 41 22 43 22 44
REMARK H PARENT 23 47 27 53 88 55 28 57 87 58 86 68 80 70 82 72 85 74 79 75
REMARK H PARENT 47 84 50 86 83 89 48 90 84 92
REMARK Flexibility Score: inf
ROOT
ATOM      1  C   UNL A   1      32.490  29.638  26.990  1.00  0.00    -0.052 C 
ATOM      2  H   UNL A   1      32.966  30.281  27.700  1.00  0.00     0.027 H 
ATOM      3  H   UNL A   1      31.887  28.875  27.438  1.00  0.00     0.027 H 
ENDROOT
BRANCH   1   4
ATOM      4  C   UNL A   1      33.585  28.905  26.203  1.00  0.00    -0.036 C 
ATOM      5  H   UNL A   1      33.583  29.279  25.200  1.00  0.00     0.028 H 
ATOM      6  H   UNL A   1      34.504  29.089  26.717  1.00  0.00     0.028 H 
BRANCH   4   7
ATOM      7  C   UNL A   1      33.415  27.387  26.146  1.00  0.00     0.017 C 
ATOM      8  H   UNL A   1      34.362  26.938  25.927  1.00  0.00     0.049 H 
ATOM      9  H   UNL A   1      33.047  27.053  27.094  1.00  0.00     0.049 H 
BRANCH   7  10
ATOM     10  N   UNL A   1      32.465  27.001  25.128  1.00  0.00    -0.356 N 
ATOM     11  O   UNL A   1      30.726  26.558  26.559  1.00  0.00    -0.275 OA
ATOM     12  C   UNL A   1      31.177  26.603  25.417  1.00  0.00     0.224 C 
ATOM     13  H   UNL A   1      32.749  27.023  24.186  1.00  0.00     0.163 HD
BRANCH  12  14
ATOM     14  C   UNL A   1      30.386  26.107  24.220  1.00  0.00     0.053 C 
ATOM     15  H   UNL A   1      29.852  25.226  24.511  1.00  0.00     0.042 H 
ATOM     16  H   UNL A   1      31.093  25.921  23.438  1.00  0.00     0.042 H 
BRANCH  14  17
ATOM     17  C   UNL A   1      29.401  27.099  23.687  1.00  0.00    -0.021 A 
ATOM     18  C   UNL A   1      27.986  27.031  23.786  1.00  0.00    -0.040 A 
ATOM     19  C   UNL A   1      29.688  28.286  23.037  1.00  0.00     0.013 A 
ATOM     20  C   UNL A   1      27.477  28.207  23.279  1.00  0.00     0.009 A 
ATOM     21  H   UNL A   1      27.439  26.245  24.169  1.00  0.00     0.064 H 
ATOM     22  N   UNL A   1      28.520  28.987  22.823  1.00  0.00    -0.321 N 
ATOM     23  H   UNL A   1      30.631  28.598  22.755  1.00  0.00     0.083 H 
ATOM     24  H   UNL A   1      26.478  28.463  23.246  1.00  0.00     0.082 H 
BRANCH  22  25
ATOM     25  C   UNL A   1      28.414  30.295  22.297  1.00  0.00     0.081 A 
ATOM     26  C   UNL A   1      28.050  30.478  20.955  1.00  0.00    -0.035 A 
ATOM     27  C   UNL A   1      28.636  31.408  23.110  1.00  0.00     0.147 A 
ATOM     28  C   UNL A   1      27.884  31.771  20.452  1.00  0.00    -0.060 A 
ATOM     29  H   UNL A   1      27.906  29.660  20.342  1.00  0.00     0.065 H 
ATOM     30  C   UNL A   1      28.509  32.696  22.594  1.00  0.00    -0.024 A 
ATOM     31  F   UNL A   1      29.045  31.274  24.379  1.00  0.00    -0.205 F 
ATOM     32  C   UNL A   1      28.121  32.878  21.268  1.00  0.00    -0.059 A 
ATOM     33  H   UNL A   1      27.587  31.907  19.473  1.00  0.00     0.062 H 
ATOM     34  H   UNL A   1      28.703  33.514  23.193  1.00  0.00     0.065 H 
ATOM     35  H   UNL A   1      28.009  33.832  20.889  1.00  0.00     0.062 H 
ENDBRANCH  22  25
ENDBRANCH  14  17
ENDBRANCH  12  14
ENDBRANCH   7  10
ENDBRANCH   4   7
ENDBRANCH   1   4
BRANCH   1  36
ATOM     36  C   UNL A   1      31.535  30.491  26.147  1.00  0.00    -0.052 C 
ATOM     37  H   UNL A   1      30.551  30.082  26.246  1.00  0.00     0.027 H 
ATOM     38  H   UNL A   1      31.913  30.458  25.145  1.00  0.00     0.027 H 
BRANCH  36  39
ATOM     39  C   UNL A   1      31.471  31.976  26.527  1.00  0.00    -0.036 C 
ATOM     40  H   UNL A   1      30.611  32.129  27.145  1.00  0.00     0.028 H 
ATOM     41  H   UNL A   1      31.424  32.530  25.613  1.00  0.00     0.028 H 
BRANCH  39  42
ATOM     42  C   UNL A   1      32.702  32.475  27.285  1.00  0.00     0.018 C 
ATOM     43  H   UNL A   1      33.570  32.335  26.676  1.00  0.00     0.049 H 
ATOM     44  H   UNL A   1      32.791  31.919  28.196  1.00  0.00     0.049 H 
BRANCH  42  45
ATOM     45  N   UNL A   1      32.573  33.884  27.613  1.00  0.00    -0.352 N 
ATOM     46  C   UNL A   1      33.162  34.618  28.610  1.00  0.00     0.251 C 
ATOM     47  H   UNL A   1      31.966  34.393  27.028  1.00  0.00     0.163 HD
ATOM     48  O   UNL A   1      32.655  35.681  28.948  1.00  0.00    -0.269 OA
BRANCH  46  49
ATOM     49  C   UNL A   1      34.390  34.156  29.292  1.00  0.00     0.039 A 
ATOM     50  C   UNL A   1      34.243  33.519  30.532  1.00  0.00    -0.049 A 
ATOM     51  C   UNL A   1      35.667  34.436  28.794  1.00  0.00    -0.049 A 
ATOM     52  C   UNL A   1      35.367  33.112  31.242  1.00  0.00    -0.053 A 
ATOM     53  H   UNL A   1      33.301  33.352  30.918  1.00  0.00     0.063 H 
ATOM     54  C   UNL A   1      36.795  34.011  29.490  1.00  0.00    -0.053 A 
ATOM     55  H   UNL A   1      35.772  34.958  27.909  1.00  0.00     0.063 H 
ATOM     56  C   UNL A   1      36.641  33.332  30.705  1.00  0.00    -0.014 A 
ATOM     57  H   UNL A   1      35.262  32.650  32.159  1.00  0.00     0.063 H 
ATOM     58  H   UNL A   1      37.738  34.194  29.113  1.00  0.00     0.063 H 
BRANCH  56  59
ATOM     59  C   UNL A   1      37.799  32.667  31.342  1.00  0.00     0.031 A 
ATOM     60  C   UNL A   1      38.168  31.355  30.609  1.00  0.00     0.074 A 
ATOM     61  C   UNL A   1      38.329  33.277  32.446  1.00  0.00     0.049 A 
ATOM     62  N   UNL A   1      38.829  30.317  31.024  1.00  0.00    -0.248 NA
ATOM     63  C   UNL A   1      37.692  31.148  29.210  1.00  0.00    -0.034 C 
ATOM     64  C   UNL A   1      37.875  34.578  32.982  1.00  0.00    -0.036 A 
ATOM     65  N   UNL A   1      39.333  32.954  33.342  1.00  0.00    -0.354 N 
ATOM     66  C   UNL A   1      39.006  29.445  29.923  1.00  0.00     0.074 A 
ATOM     67  C   UNL A   1      38.201  29.964  28.862  1.00  0.00    -0.034 C 
ATOM     68  H   UNL A   1      37.105  31.778  28.641  1.00  0.00     0.065 H 
ATOM     69  C   UNL A   1      38.519  34.884  34.128  1.00  0.00    -0.036 A 
ATOM     70  H   UNL A   1      37.159  35.175  32.538  1.00  0.00     0.065 H 
ATOM     71  C   UNL A   1      39.461  33.832  34.455  1.00  0.00     0.049 A 
ATOM     72  H   UNL A   1      39.916  32.171  33.218  1.00  0.00     0.167 HD
ATOM     73  C   UNL A   1      39.901  28.412  29.926  1.00  0.00     0.037 A 
ATOM     74  H   UNL A   1      38.037  29.491  27.960  1.00  0.00     0.065 H 
ATOM     75  H   UNL A   1      38.364  35.737  34.688  1.00  0.00     0.065 H 
ATOM     76  C   UNL A   1      40.233  33.694  35.581  1.00  0.00     0.037 A 
ATOM     77  C   UNL A   1      40.516  28.316  31.203  1.00  0.00     0.049 A 
ATOM     78  C   UNL A   1      41.092  32.533  35.312  1.00  0.00     0.074 A 
ATOM     79  C   UNL A   1      40.044  27.876  32.411  1.00  0.00    -0.036 A 
ATOM     80  N   UNL A   1      41.660  29.047  31.400  1.00  0.00    -0.354 N 
ATOM     81  N   UNL A   1      42.090  32.531  34.480  1.00  0.00    -0.248 NA
ATOM     82  C   UNL A   1      40.767  31.255  35.956  1.00  0.00    -0.034 C 
ATOM     83  C   UNL A   1      40.640  28.761  33.329  1.00  0.00    -0.036 A 
ATOM     84  H   UNL A   1      39.406  27.088  32.602  1.00  0.00     0.065 H 
ATOM     85  C   UNL A   1      41.613  29.532  32.681  1.00  0.00     0.049 A 
ATOM     86  H   UNL A   1      42.379  29.195  30.744  1.00  0.00     0.167 HD
ATOM     87  C   UNL A   1      42.272  31.189  34.258  1.00  0.00     0.074 A 
ATOM     88  C   UNL A   1      41.696  30.492  35.387  1.00  0.00    -0.034 C 
ATOM     89  H   UNL A   1      40.036  31.018  36.645  1.00  0.00     0.065 H 
ATOM     90  H   UNL A   1      40.397  28.832  34.329  1.00  0.00     0.065 H 
ATOM     91  C   UNL A   1      42.346  30.736  32.981  1.00  0.00     0.037 A 
ATOM     92  H   UNL A   1      41.966  29.548  35.703  1.00  0.00     0.065 H 
BRANCH  73  93
ATOM     93  C   UNL A   1      40.480  27.550  28.836  1.00  0.00     0.064 A 
ATOM     94  C   UNL A   1      39.960  26.299  28.485  1.00  0.00     0.173 A 
ATOM     95  C   UNL A   1      41.338  28.158  27.881  1.00  0.00     0.173 A 
ATOM     96  F   UNL A   1      39.129  25.642  29.303  1.00  0.00    -0.203 F 
ATOM     97  C   UNL A   1      40.204  25.738  27.225  1.00  0.00     0.198 A 
ATOM     98  C   UNL A   1      41.539  27.620  26.612  1.00  0.00     0.198 A 
ATOM     99  F   UNL A   1      41.932  29.335  28.140  1.00  0.00    -0.203 F 
ATOM    100  F   UNL A   1      39.643  24.564  26.904  1.00  0.00    -0.200 F 
ATOM    101  C   UNL A   1      40.954  26.416  26.277  1.00  0.00     0.200 A 
ATOM    102  F   UNL A   1      42.239  28.306  25.697  1.00  0.00    -0.200 F 
ATOM    103  F   UNL A   1      41.083  25.927  25.037  1.00  0.00    -0.200 F 
ENDBRANCH  73  93
BRANCH  76 104
ATOM    104  C   UNL A   1      40.356  34.305  36.966  1.00  0.00     0.064 A 
ATOM    105  C   UNL A   1      39.389  33.987  37.967  1.00  0.00     0.173 A 
ATOM    106  C   UNL A   1      41.275  35.283  37.362  1.00  0.00     0.173 A 
ATOM    107  F   UNL A   1      38.550  32.952  37.833  1.00  0.00    -0.203 F 
ATOM    108  C   UNL A   1      39.220  34.721  39.141  1.00  0.00     0.198 A 
ATOM    109  C   UNL A   1      41.145  35.982  38.578  1.00  0.00     0.198 A 
ATOM    110  F   UNL A   1      42.330  35.592  36.601  1.00  0.00    -0.203 F 
ATOM    111  F   UNL A   1      38.190  34.445  39.956  1.00  0.00    -0.200 F 
ATOM    112  C   UNL A   1      40.088  35.740  39.438  1.00  0.00     0.200 A 
ATOM    113  F   UNL A   1      42.045  36.922  38.903  1.00  0.00    -0.200 F 
ATOM    114  F   UNL A   1      39.917  36.470  40.548  1.00  0.00    -0.200 F 
ENDBRANCH  76 104
BRANCH  91 115
ATOM    115  C   UNL A   1      42.847  31.761  31.985  1.00  0.00     0.064 A 
ATOM    116  C   UNL A   1      42.033  32.421  31.050  1.00  0.00     0.173 A 
ATOM    117  C   UNL A   1      44.186  32.178  32.038  1.00  0.00     0.173 A 
ATOM    118  F   UNL A   1      40.749  32.099  30.918  1.00  0.00    -0.203 F 
ATOM    119  C   UNL A   1      42.518  33.434  30.217  1.00  0.00     0.198 A 
ATOM    120  C   UNL A   1      44.674  33.195  31.212  1.00  0.00     0.198 A 
ATOM    121  F   UNL A   1      45.033  31.591  32.896  1.00  0.00    -0.203 F 
ATOM    122  F   UNL A   1      41.701  34.023  29.330  1.00  0.00    -0.200 F 
ATOM    123  C   UNL A   1      43.840  33.822  30.302  1.00  0.00     0.200 A 
ATOM    124  F   UNL A   1      45.961  33.559  31.294  1.00  0.00    -0.200 F 
ATOM    125  F   UNL A   1      44.313  34.785  29.498  1.00  0.00    -0.200 F 
ENDBRANCH  91 115
ENDBRANCH  56  59
ENDBRANCH  46  49
ENDBRANCH  42  45
ENDBRANCH  39  42
ENDBRANCH  36  39
ENDBRANCH   1  36
TORSDOF 15
ENDMDL
MODEL 6
REMARK VINA RESULT:     -11.7      3.552      6.285
REMARK SMILES O=C(Cc1ccn(-c2ccccc2F)c1)NCCCCCCNC(=O)c1ccc(-c2c3nc(c(-c4c(F)c(F)c(F)c(F)c4F)c4ccc([nH]4)c(-c4c(F)c(F)c(F)c(F)c4F)c4nc(c(-c5c(F)c(F)c(F)c(F)c5F)c5ccc2[nH]5)C=C4)C=C3)cc1
REMARK SMILES IDX 19 1 18 4 17 7 16 10 1 11 2 12 3 14 4 17 5 18 15 19 6 20
REMARK SMILES IDX 7 22 8 25 9 26 13 27 10 28 12 30 14 31 11 32 20 36 21 39
REMARK SMILES IDX 22 42 23 45 24 46 25 48 26 49 27 50 88 51 28 52 87 54 29 56
REMARK SMILES IDX 30 59 31 60 81 61 32 62 86 63 80 64 82 65 33 66 85 67 79 69
REMARK SMILES IDX 78 71 34 73 66 76 46 77 65 78 47 79 50 80 64 81 83 82 48 83
REMARK SMILES IDX 49 85 63 87 84 88 51 91 35 93 36 94 44 95 37 96 38 97 42 98
REMARK SMILES IDX 45 99 39 100 40 101 43 102 41 103 67 104 68 105 76 106
REMARK SMILES IDX 69 107 70 108 74 109 77 110 71 111 72 112 75 113 73 114
REMARK SMILES IDX 52 115 53 116 61 117 54 118 55 119 59 120 62 121 56 122
REMARK SMILES IDX 57 123 60 124 58 125
REMARK H PARENT 19 2 19 3 18 5 18 6 17 8 17 9 16 13 3 15 3 16 5 21 15 23 6 24
REMARK H PARENT 9 29 10 33 12 34 11 35 20 37 20 38 21 40 21 41 22 43 22 44
REMARK H PARENT 23 47 27 53 88 55 28 57 87 58 86 68 80 70 82 72 85 74 79 75
REMARK H PARENT 47 84 50 86 83 89 48 90 84 92
REMARK Flexibility Score: inf
ROOT
ATOM      1  C   UNL A   1      36.054  31.566  31.700  1.00  0.00    -0.052 C 
ATOM      2  H   UNL A   1      35.932  30.614  31.227  1.00  0.00     0.027 H 
ATOM      3  H   UNL A   1      36.159  31.505  32.764  1.00  0.00     0.027 H 
ENDROOT
BRANCH   1   4
ATOM      4  C   UNL A   1      34.784  32.389  31.447  1.00  0.00    -0.036 C 
ATOM      5  H   UNL A   1      34.990  33.086  30.661  1.00  0.00     0.028 H 
ATOM      6  H   UNL A   1      34.014  31.691  31.196  1.00  0.00     0.028 H 
BRANCH   4   7
ATOM      7  C   UNL A   1      34.284  33.173  32.661  1.00  0.00     0.017 C 
ATOM      8  H   UNL A   1      34.206  34.208  32.399  1.00  0.00     0.049 H 
ATOM      9  H   UNL A   1      33.331  32.780  32.946  1.00  0.00     0.049 H 
BRANCH   7  10
ATOM     10  N   UNL A   1      35.186  33.037  33.782  1.00  0.00    -0.356 N 
ATOM     11  O   UNL A   1      35.550  35.283  34.087  1.00  0.00    -0.275 OA
ATOM     12  C   UNL A   1      35.764  34.118  34.414  1.00  0.00     0.224 C 
ATOM     13  H   UNL A   1      35.396  32.134  34.110  1.00  0.00     0.163 HD
BRANCH  12  14
ATOM     14  C   UNL A   1      36.786  33.755  35.476  1.00  0.00     0.053 C 
ATOM     15  H   UNL A   1      36.321  33.097  36.180  1.00  0.00     0.042 H 
ATOM     16  H   UNL A   1      37.107  34.674  35.921  1.00  0.00     0.042 H 
BRANCH  14  17
ATOM     17  C   UNL A   1      38.010  33.082  34.940  1.00  0.00    -0.021 A 
ATOM     18  C   UNL A   1      39.158  33.713  34.394  1.00  0.00    -0.040 A 
ATOM     19  C   UNL A   1      38.266  31.723  34.916  1.00  0.00     0.013 A 
ATOM     20  C   UNL A   1      40.093  32.733  34.145  1.00  0.00     0.009 A 
ATOM     21  H   UNL A   1      39.273  34.723  34.217  1.00  0.00     0.064 H 
ATOM     22  N   UNL A   1      39.553  31.505  34.471  1.00  0.00    -0.321 N 
ATOM     23  H   UNL A   1      37.596  30.985  35.188  1.00  0.00     0.083 H 
ATOM     24  H   UNL A   1      41.044  32.890  33.775  1.00  0.00     0.082 H 
BRANCH  22  25
ATOM     25  C   UNL A   1      40.222  30.261  34.422  1.00  0.00     0.081 A 
ATOM     26  C   UNL A   1      40.989  29.840  35.517  1.00  0.00    -0.035 A 
ATOM     27  C   UNL A   1      40.099  29.431  33.306  1.00  0.00     0.147 A 
ATOM     28  C   UNL A   1      41.598  28.582  35.495  1.00  0.00    -0.060 A 
ATOM     29  H   UNL A   1      41.102  30.457  36.337  1.00  0.00     0.065 H 
ATOM     30  C   UNL A   1      40.740  28.195  33.270  1.00  0.00    -0.024 A 
ATOM     31  F   UNL A   1      39.425  29.825  32.215  1.00  0.00    -0.205 F 
ATOM     32  C   UNL A   1      41.480  27.765  34.370  1.00  0.00    -0.059 A 
ATOM     33  H   UNL A   1      42.138  28.258  36.313  1.00  0.00     0.062 H 
ATOM     34  H   UNL A   1      40.668  27.600  32.430  1.00  0.00     0.065 H 
ATOM     35  H   UNL A   1      41.942  26.842  34.352  1.00  0.00     0.062 H 
ENDBRANCH  22  25
ENDBRANCH  14  17
ENDBRANCH  12  14
ENDBRANCH   7  10
ENDBRANCH   4   7
ENDBRANCH   1   4
BRANCH   1  36
ATOM     36  C   UNL A   1      37.355  32.189  31.182  1.00  0.00    -0.052 C 
ATOM     37  H   UNL A   1      37.951  31.407  30.758  1.00  0.00     0.027 H 
ATOM     38  H   UNL A   1      37.812  32.665  32.025  1.00  0.00     0.027 H 
BRANCH  36  39
ATOM     39  C   UNL A   1      37.182  33.282  30.120  1.00  0.00    -0.036 C 
ATOM     40  H   UNL A   1      37.904  34.050  30.305  1.00  0.00     0.028 H 
ATOM     41  H   UNL A   1      36.176  33.637  30.199  1.00  0.00     0.028 H 
BRANCH  39  42
ATOM     42  C   UNL A   1      37.365  32.786  28.685  1.00  0.00     0.018 C 
ATOM     43  H   UNL A   1      38.314  32.301  28.600  1.00  0.00     0.049 H 
ATOM     44  H   UNL A   1      37.314  33.626  28.024  1.00  0.00     0.049 H 
BRANCH  42  45
ATOM     45  N   UNL A   1      36.316  31.848  28.324  1.00  0.00    -0.352 N 
ATOM     46  C   UNL A   1      36.400  30.537  27.929  1.00  0.00     0.251 C 
ATOM     47  H   UNL A   1      35.402  32.209  28.370  1.00  0.00     0.163 HD
ATOM     48  O   UNL A   1      35.461  30.036  27.322  1.00  0.00    -0.269 OA
BRANCH  46  49
ATOM     49  C   UNL A   1      37.597  29.717  28.208  1.00  0.00     0.039 A 
ATOM     50  C   UNL A   1      38.608  29.691  27.238  1.00  0.00    -0.049 A 
ATOM     51  C   UNL A   1      37.690  28.898  29.339  1.00  0.00    -0.049 A 
ATOM     52  C   UNL A   1      39.732  28.893  27.424  1.00  0.00    -0.053 A 
ATOM     53  H   UNL A   1      38.518  30.263  26.384  1.00  0.00     0.063 H 
ATOM     54  C   UNL A   1      38.822  28.115  29.542  1.00  0.00    -0.053 A 
ATOM     55  H   UNL A   1      36.917  28.875  30.023  1.00  0.00     0.063 H 
ATOM     56  C   UNL A   1      39.851  28.129  28.592  1.00  0.00    -0.014 A 
ATOM     57  H   UNL A   1      40.474  28.866  26.708  1.00  0.00     0.063 H 
ATOM     58  H   UNL A   1      38.904  27.529  30.387  1.00  0.00     0.063 H 
BRANCH  56  59
ATOM     59  C   UNL A   1      41.156  27.499  28.893  1.00  0.00     0.031 A 
ATOM     60  C   UNL A   1      41.224  26.055  28.341  1.00  0.00     0.074 A 
ATOM     61  C   UNL A   1      42.053  28.251  29.600  1.00  0.00     0.049 A 
ATOM     62  N   UNL A   1      41.982  25.059  28.686  1.00  0.00    -0.248 NA
ATOM     63  C   UNL A   1      40.273  25.644  27.267  1.00  0.00    -0.034 C 
ATOM     64  C   UNL A   1      41.834  29.657  30.003  1.00  0.00    -0.036 A 
ATOM     65  N   UNL A   1      43.310  28.015  30.127  1.00  0.00    -0.354 N 
ATOM     66  C   UNL A   1      41.742  23.996  27.782  1.00  0.00     0.074 A 
ATOM     67  C   UNL A   1      40.613  24.381  26.995  1.00  0.00    -0.034 C 
ATOM     68  H   UNL A   1      39.525  26.206  26.834  1.00  0.00     0.065 H 
ATOM     69  C   UNL A   1      42.851  30.108  30.767  1.00  0.00    -0.036 A 
ATOM     70  H   UNL A   1      41.011  30.220  29.735  1.00  0.00     0.065 H 
ATOM     71  C   UNL A   1      43.839  29.062  30.934  1.00  0.00     0.049 A 
ATOM     72  H   UNL A   1      43.803  27.180  29.958  1.00  0.00     0.167 HD
ATOM     73  C   UNL A   1      42.570  22.915  27.665  1.00  0.00     0.037 A 
ATOM     74  H   UNL A   1      40.130  23.772  26.317  1.00  0.00     0.065 H 
ATOM     75  H   UNL A   1      42.915  31.056  31.172  1.00  0.00     0.065 H 
ATOM     76  C   UNL A   1      44.964  29.065  31.718  1.00  0.00     0.037 A 
ATOM     77  C   UNL A   1      43.604  22.997  28.636  1.00  0.00     0.049 A 
ATOM     78  C   UNL A   1      45.659  27.812  31.390  1.00  0.00     0.074 A 
ATOM     79  C   UNL A   1      43.598  22.813  29.993  1.00  0.00    -0.036 A 
ATOM     80  N   UNL A   1      44.748  23.663  28.272  1.00  0.00    -0.354 N 
ATOM     81  N   UNL A   1      46.289  27.589  30.276  1.00  0.00    -0.248 NA
ATOM     82  C   UNL A   1      45.579  26.695  32.339  1.00  0.00    -0.034 C 
ATOM     83  C   UNL A   1      44.492  23.797  30.454  1.00  0.00    -0.036 A 
ATOM     84  H   UNL A   1      43.065  22.122  30.544  1.00  0.00     0.065 H 
ATOM     85  C   UNL A   1      45.170  24.366  29.370  1.00  0.00     0.049 A 
ATOM     86  H   UNL A   1      45.182  23.638  27.390  1.00  0.00     0.167 HD
ATOM     87  C   UNL A   1      46.368  26.219  30.265  1.00  0.00     0.074 A 
ATOM     88  C   UNL A   1      46.234  25.777  31.635  1.00  0.00    -0.034 C 
ATOM     89  H   UNL A   1      45.145  26.639  33.273  1.00  0.00     0.065 H 
ATOM     90  H   UNL A   1      44.627  24.061  31.442  1.00  0.00     0.065 H 
ATOM     91  C   UNL A   1      45.972  25.545  29.155  1.00  0.00     0.037 A 
ATOM     92  H   UNL A   1      46.592  24.884  32.009  1.00  0.00     0.065 H 
BRANCH  73  93
ATOM     93  C   UNL A   1      42.709  21.834  26.626  1.00  0.00     0.064 A 
ATOM     94  C   UNL A   1      43.619  21.896  25.565  1.00  0.00     0.173 A 
ATOM     95  C   UNL A   1      42.180  20.549  26.919  1.00  0.00     0.173 A 
ATOM     96  F   UNL A   1      44.190  23.055  25.212  1.00  0.00    -0.203 F 
ATOM     97  C   UNL A   1      44.044  20.738  24.904  1.00  0.00     0.198 A 
ATOM     98  C   UNL A   1      42.642  19.394  26.292  1.00  0.00     0.198 A 
ATOM     99  F   UNL A   1      41.260  20.386  27.884  1.00  0.00    -0.203 F 
ATOM    100  F   UNL A   1      44.960  20.832  23.929  1.00  0.00    -0.200 F 
ATOM    101  C   UNL A   1      43.592  19.488  25.295  1.00  0.00     0.200 A 
ATOM    102  F   UNL A   1      42.218  18.191  26.706  1.00  0.00    -0.200 F 
ATOM    103  F   UNL A   1      44.094  18.378  24.736  1.00  0.00    -0.200 F 
ENDBRANCH  73  93
BRANCH  76 104
ATOM    104  C   UNL A   1      45.585  29.898  32.827  1.00  0.00     0.064 A 
ATOM    105  C   UNL A   1      45.191  29.676  34.182  1.00  0.00     0.173 A 
ATOM    106  C   UNL A   1      46.443  30.991  32.661  1.00  0.00     0.173 A 
ATOM    107  F   UNL A   1      44.525  28.575  34.551  1.00  0.00    -0.203 F 
ATOM    108  C   UNL A   1      45.444  30.575  35.218  1.00  0.00     0.198 A 
ATOM    109  C   UNL A   1      46.753  31.865  33.722  1.00  0.00     0.198 A 
ATOM    110  F   UNL A   1      47.018  31.248  31.483  1.00  0.00    -0.203 F 
ATOM    111  F   UNL A   1      44.910  30.360  36.430  1.00  0.00    -0.200 F 
ATOM    112  C   UNL A   1      46.209  31.688  34.983  1.00  0.00     0.200 A 
ATOM    113  F   UNL A   1      47.569  32.907  33.507  1.00  0.00    -0.200 F 
ATOM    114  F   UNL A   1      46.432  32.574  35.964  1.00  0.00    -0.200 F 
ENDBRANCH  76 104
BRANCH  91 115
ATOM    115  C   UNL A   1      46.087  26.338  27.871  1.00  0.00     0.064 A 
ATOM    116  C   UNL A   1      44.992  26.824  27.138  1.00  0.00     0.173 A 
ATOM    117  C   UNL A   1      47.356  26.719  27.406  1.00  0.00     0.173 A 
ATOM    118  F   UNL A   1      43.747  26.519  27.494  1.00  0.00    -0.203 F 
ATOM    119  C   UNL A   1      45.145  27.638  26.012  1.00  0.00     0.198 A 
ATOM    120  C   UNL A   1      47.513  27.539  26.284  1.00  0.00     0.198 A 
ATOM    121  F   UNL A   1      48.455  26.289  28.042  1.00  0.00    -0.203 F 
ATOM    122  F   UNL A   1      44.064  28.064  25.339  1.00  0.00    -0.200 F 
ATOM    123  C   UNL A   1      46.408  27.997  25.588  1.00  0.00     0.200 A 
ATOM    124  F   UNL A   1      48.743  27.875  25.873  1.00  0.00    -0.200 F 
ATOM    125  F   UNL A   1      46.561  28.769  24.502  1.00  0.00    -0.200 F 
ENDBRANCH  91 115
ENDBRANCH  56  59
ENDBRANCH  46  49
ENDBRANCH  42  45
ENDBRANCH  39  42
ENDBRANCH  36  39
ENDBRANCH   1  36
TORSDOF 15
ENDMDL
MODEL 7
REMARK VINA RESULT:     -11.7      4.423      9.423
REMARK SMILES O=C(Cc1ccn(-c2ccccc2F)c1)NCCCCCCNC(=O)c1ccc(-c2c3nc(c(-c4c(F)c(F)c(F)c(F)c4F)c4ccc([nH]4)c(-c4c(F)c(F)c(F)c(F)c4F)c4nc(c(-c5c(F)c(F)c(F)c(F)c5F)c5ccc2[nH]5)C=C4)C=C3)cc1
REMARK SMILES IDX 19 1 18 4 17 7 16 10 1 11 2 12 3 14 4 17 5 18 15 19 6 20
REMARK SMILES IDX 7 22 8 25 9 26 13 27 10 28 12 30 14 31 11 32 20 36 21 39
REMARK SMILES IDX 22 42 23 45 24 46 25 48 26 49 27 50 88 51 28 52 87 54 29 56
REMARK SMILES IDX 30 59 31 60 81 61 32 62 86 63 80 64 82 65 33 66 85 67 79 69
REMARK SMILES IDX 78 71 34 73 66 76 46 77 65 78 47 79 50 80 64 81 83 82 48 83
REMARK SMILES IDX 49 85 63 87 84 88 51 91 35 93 36 94 44 95 37 96 38 97 42 98
REMARK SMILES IDX 45 99 39 100 40 101 43 102 41 103 67 104 68 105 76 106
REMARK SMILES IDX 69 107 70 108 74 109 77 110 71 111 72 112 75 113 73 114
REMARK SMILES IDX 52 115 53 116 61 117 54 118 55 119 59 120 62 121 56 122
REMARK SMILES IDX 57 123 60 124 58 125
REMARK H PARENT 19 2 19 3 18 5 18 6 17 8 17 9 16 13 3 15 3 16 5 21 15 23 6 24
REMARK H PARENT 9 29 10 33 12 34 11 35 20 37 20 38 21 40 21 41 22 43 22 44
REMARK H PARENT 23 47 27 53 88 55 28 57 87 58 86 68 80 70 82 72 85 74 79 75
REMARK H PARENT 47 84 50 86 83 89 48 90 84 92
REMARK Flexibility Score: inf
ROOT
ATOM      1  C   UNL A   1      35.385  21.937  23.990  1.00  0.00    -0.052 C 
ATOM      2  H   UNL A   1      34.360  21.956  23.682  1.00  0.00     0.027 H 
ATOM      3  H   UNL A   1      36.070  21.742  23.191  1.00  0.00     0.027 H 
ENDROOT
BRANCH   1   4
ATOM      4  C   UNL A   1      35.560  20.785  24.988  1.00  0.00    -0.036 C 
ATOM      5  H   UNL A   1      36.373  20.175  24.654  1.00  0.00     0.028 H 
ATOM      6  H   UNL A   1      35.737  21.233  25.943  1.00  0.00     0.028 H 
BRANCH   4   7
ATOM      7  C   UNL A   1      34.329  19.892  25.148  1.00  0.00     0.017 C 
ATOM      8  H   UNL A   1      34.076  19.474  24.195  1.00  0.00     0.049 H 
ATOM      9  H   UNL A   1      34.561  19.120  25.851  1.00  0.00     0.049 H 
BRANCH   7  10
ATOM     10  N   UNL A   1      33.199  20.640  25.650  1.00  0.00    -0.356 N 
ATOM     11  O   UNL A   1      32.112  20.839  23.637  1.00  0.00    -0.275 OA
ATOM     12  C   UNL A   1      32.166  21.068  24.843  1.00  0.00     0.224 C 
ATOM     13  H   UNL A   1      33.164  20.853  26.610  1.00  0.00     0.163 HD
BRANCH  12  14
ATOM     14  C   UNL A   1      31.149  21.956  25.538  1.00  0.00     0.053 C 
ATOM     15  H   UNL A   1      31.231  21.800  26.593  1.00  0.00     0.042 H 
ATOM     16  H   UNL A   1      30.188  21.682  25.155  1.00  0.00     0.042 H 
BRANCH  14  17
ATOM     17  C   UNL A   1      31.325  23.416  25.263  1.00  0.00    -0.021 A 
ATOM     18  C   UNL A   1      30.742  24.159  24.203  1.00  0.00    -0.040 A 
ATOM     19  C   UNL A   1      32.055  24.320  26.015  1.00  0.00     0.013 A 
ATOM     20  C   UNL A   1      31.062  25.485  24.399  1.00  0.00     0.009 A 
ATOM     21  H   UNL A   1      30.180  23.776  23.427  1.00  0.00     0.064 H 
ATOM     22  N   UNL A   1      31.864  25.591  25.517  1.00  0.00    -0.321 N 
ATOM     23  H   UNL A   1      32.650  24.079  26.823  1.00  0.00     0.083 H 
ATOM     24  H   UNL A   1      30.752  26.271  23.807  1.00  0.00     0.082 H 
BRANCH  22  25
ATOM     25  C   UNL A   1      32.344  26.793  26.087  1.00  0.00     0.081 A 
ATOM     26  C   UNL A   1      31.472  27.615  26.816  1.00  0.00    -0.035 A 
ATOM     27  C   UNL A   1      33.687  27.153  25.959  1.00  0.00     0.147 A 
ATOM     28  C   UNL A   1      31.961  28.770  27.432  1.00  0.00    -0.060 A 
ATOM     29  H   UNL A   1      30.473  27.367  26.896  1.00  0.00     0.065 H 
ATOM     30  C   UNL A   1      34.162  28.326  26.541  1.00  0.00    -0.024 A 
ATOM     31  F   UNL A   1      34.536  26.426  25.220  1.00  0.00    -0.205 F 
ATOM     32  C   UNL A   1      33.302  29.129  27.288  1.00  0.00    -0.059 A 
ATOM     33  H   UNL A   1      31.327  29.359  27.994  1.00  0.00     0.062 H 
ATOM     34  H   UNL A   1      35.149  28.601  26.418  1.00  0.00     0.065 H 
ATOM     35  H   UNL A   1      33.656  29.990  27.735  1.00  0.00     0.062 H 
ENDBRANCH  22  25
ENDBRANCH  14  17
ENDBRANCH  12  14
ENDBRANCH   7  10
ENDBRANCH   4   7
ENDBRANCH   1   4
BRANCH   1  36
ATOM     36  C   UNL A   1      35.744  23.328  24.524  1.00  0.00    -0.052 C 
ATOM     37  H   UNL A   1      34.881  23.953  24.429  1.00  0.00     0.027 H 
ATOM     38  H   UNL A   1      36.580  23.662  23.944  1.00  0.00     0.027 H 
BRANCH  36  39
ATOM     39  C   UNL A   1      36.200  23.371  25.989  1.00  0.00    -0.036 C 
ATOM     40  H   UNL A   1      36.487  22.383  26.282  1.00  0.00     0.028 H 
ATOM     41  H   UNL A   1      35.378  23.747  26.560  1.00  0.00     0.028 H 
BRANCH  39  42
ATOM     42  C   UNL A   1      37.381  24.309  26.243  1.00  0.00     0.018 C 
ATOM     43  H   UNL A   1      37.058  25.121  26.860  1.00  0.00     0.049 H 
ATOM     44  H   UNL A   1      37.737  24.673  25.301  1.00  0.00     0.049 H 
BRANCH  42  45
ATOM     45  N   UNL A   1      38.466  23.607  26.908  1.00  0.00    -0.352 N 
ATOM     46  C   UNL A   1      39.581  24.097  27.538  1.00  0.00     0.251 C 
ATOM     47  H   UNL A   1      38.388  22.626  26.907  1.00  0.00     0.163 HD
ATOM     48  O   UNL A   1      40.544  23.358  27.707  1.00  0.00    -0.269 OA
BRANCH  46  49
ATOM     49  C   UNL A   1      39.654  25.496  28.012  1.00  0.00     0.039 A 
ATOM     50  C   UNL A   1      39.137  25.779  29.283  1.00  0.00    -0.049 A 
ATOM     51  C   UNL A   1      40.112  26.534  27.193  1.00  0.00    -0.049 A 
ATOM     52  C   UNL A   1      39.131  27.087  29.756  1.00  0.00    -0.053 A 
ATOM     53  H   UNL A   1      38.760  25.018  29.869  1.00  0.00     0.063 H 
ATOM     54  C   UNL A   1      40.129  27.842  27.670  1.00  0.00    -0.053 A 
ATOM     55  H   UNL A   1      40.437  26.329  26.235  1.00  0.00     0.063 H 
ATOM     56  C   UNL A   1      39.655  28.112  28.960  1.00  0.00    -0.014 A 
ATOM     57  H   UNL A   1      38.743  27.300  30.689  1.00  0.00     0.063 H 
ATOM     58  H   UNL A   1      40.489  28.606  27.078  1.00  0.00     0.063 H 
BRANCH  56  59
ATOM     59  C   UNL A   1      39.879  29.439  29.575  1.00  0.00     0.031 A 
ATOM     60  C   UNL A   1      38.641  30.352  29.413  1.00  0.00     0.074 A 
ATOM     61  C   UNL A   1      41.103  29.652  30.150  1.00  0.00     0.049 A 
ATOM     62  N   UNL A   1      38.538  31.645  29.456  1.00  0.00    -0.248 NA
ATOM     63  C   UNL A   1      37.317  29.731  29.115  1.00  0.00    -0.034 C 
ATOM     64  C   UNL A   1      42.164  28.628  30.263  1.00  0.00    -0.036 A 
ATOM     65  N   UNL A   1      41.715  30.739  30.747  1.00  0.00    -0.354 N 
ATOM     66  C   UNL A   1      37.164  31.976  29.382  1.00  0.00     0.074 A 
ATOM     67  C   UNL A   1      36.472  30.764  29.074  1.00  0.00    -0.034 C 
ATOM     68  H   UNL A   1      37.103  28.732  28.973  1.00  0.00     0.065 H 
ATOM     69  C   UNL A   1      43.290  29.151  30.792  1.00  0.00    -0.036 A 
ATOM     70  H   UNL A   1      42.058  27.642  29.975  1.00  0.00     0.065 H 
ATOM     71  C   UNL A   1      43.084  30.554  31.089  1.00  0.00     0.049 A 
ATOM     72  H   UNL A   1      41.238  31.582  30.920  1.00  0.00     0.167 HD
ATOM     73  C   UNL A   1      36.676  33.214  29.696  1.00  0.00     0.037 A 
ATOM     74  H   UNL A   1      35.466  30.698  28.853  1.00  0.00     0.065 H 
ATOM     75  H   UNL A   1      44.165  28.631  30.959  1.00  0.00     0.065 H 
ATOM     76  C   UNL A   1      43.997  31.478  31.532  1.00  0.00     0.037 A 
ATOM     77  C   UNL A   1      37.753  34.090  29.997  1.00  0.00     0.049 A 
ATOM     78  C   UNL A   1      43.212  32.691  31.798  1.00  0.00     0.074 A 
ATOM     79  C   UNL A   1      38.690  34.690  29.199  1.00  0.00    -0.036 A 
ATOM     80  N   UNL A   1      38.169  34.139  31.304  1.00  0.00    -0.354 N 
ATOM     81  N   UNL A   1      42.396  32.837  32.799  1.00  0.00    -0.248 NA
ATOM     82  C   UNL A   1      43.276  33.794  30.832  1.00  0.00    -0.034 C 
ATOM     83  C   UNL A   1      39.857  34.645  29.985  1.00  0.00    -0.036 A 
ATOM     84  H   UNL A   1      38.571  35.080  28.251  1.00  0.00     0.065 H 
ATOM     85  C   UNL A   1      39.535  34.246  31.288  1.00  0.00     0.049 A 
ATOM     86  H   UNL A   1      37.594  34.105  32.102  1.00  0.00     0.167 HD
ATOM     87  C   UNL A   1      41.619  33.888  32.381  1.00  0.00     0.074 A 
ATOM     88  C   UNL A   1      42.383  34.609  31.387  1.00  0.00    -0.034 C 
ATOM     89  H   UNL A   1      43.845  33.906  29.979  1.00  0.00     0.065 H 
ATOM     90  H   UNL A   1      40.807  34.872  29.652  1.00  0.00     0.065 H 
ATOM     91  C   UNL A   1      40.268  33.770  32.434  1.00  0.00     0.037 A 
ATOM     92  H   UNL A   1      42.254  35.604  31.145  1.00  0.00     0.065 H 
BRANCH  73  93
ATOM     93  C   UNL A   1      35.290  33.732  29.977  1.00  0.00     0.064 A 
ATOM     94  C   UNL A   1      34.740  33.803  31.262  1.00  0.00     0.173 A 
ATOM     95  C   UNL A   1      34.651  34.516  28.981  1.00  0.00     0.173 A 
ATOM     96  F   UNL A   1      35.272  33.116  32.280  1.00  0.00    -0.203 F 
ATOM     97  C   UNL A   1      33.681  34.672  31.551  1.00  0.00     0.198 A 
ATOM     98  C   UNL A   1      33.631  35.415  29.283  1.00  0.00     0.198 A 
ATOM     99  F   UNL A   1      35.067  34.480  27.704  1.00  0.00    -0.203 F 
ATOM    100  F   UNL A   1      33.217  34.754  32.806  1.00  0.00    -0.200 F 
ATOM    101  C   UNL A   1      33.158  35.507  30.576  1.00  0.00     0.200 A 
ATOM    102  F   UNL A   1      33.161  36.238  28.335  1.00  0.00    -0.200 F 
ATOM    103  F   UNL A   1      32.228  36.419  30.890  1.00  0.00    -0.200 F 
ENDBRANCH  73  93
BRANCH  76 104
ATOM    104  C   UNL A   1      45.500  31.608  31.708  1.00  0.00     0.064 A 
ATOM    105  C   UNL A   1      46.047  31.772  33.017  1.00  0.00     0.173 A 
ATOM    106  C   UNL A   1      46.448  31.718  30.684  1.00  0.00     0.173 A 
ATOM    107  F   UNL A   1      45.328  31.519  34.118  1.00  0.00    -0.203 F 
ATOM    108  C   UNL A   1      47.347  32.217  33.263  1.00  0.00     0.198 A 
ATOM    109  C   UNL A   1      47.779  32.104  30.936  1.00  0.00     0.198 A 
ATOM    110  F   UNL A   1      46.130  31.449  29.414  1.00  0.00    -0.203 F 
ATOM    111  F   UNL A   1      47.730  32.485  34.520  1.00  0.00    -0.200 F 
ATOM    112  C   UNL A   1      48.211  32.407  32.216  1.00  0.00     0.200 A 
ATOM    113  F   UNL A   1      48.644  32.210  29.917  1.00  0.00    -0.200 F 
ATOM    114  F   UNL A   1      49.451  32.863  32.439  1.00  0.00    -0.200 F 
ENDBRANCH  76 104
BRANCH  91 115
ATOM    115  C   UNL A   1      39.768  32.810  33.492  1.00  0.00     0.064 A 
ATOM    116  C   UNL A   1      39.798  33.067  34.873  1.00  0.00     0.173 A 
ATOM    117  C   UNL A   1      39.133  31.621  33.102  1.00  0.00     0.173 A 
ATOM    118  F   UNL A   1      40.378  34.166  35.348  1.00  0.00    -0.203 F 
ATOM    119  C   UNL A   1      39.233  32.197  35.810  1.00  0.00     0.198 A 
ATOM    120  C   UNL A   1      38.562  30.751  34.035  1.00  0.00     0.198 A 
ATOM    121  F   UNL A   1      39.071  31.294  31.802  1.00  0.00    -0.203 F 
ATOM    122  F   UNL A   1      39.302  32.483  37.120  1.00  0.00    -0.200 F 
ATOM    123  C   UNL A   1      38.612  31.039  35.388  1.00  0.00     0.200 A 
ATOM    124  F   UNL A   1      37.969  29.624  33.617  1.00  0.00    -0.200 F 
ATOM    125  F   UNL A   1      38.079  30.195  36.283  1.00  0.00    -0.200 F 
ENDBRANCH  91 115
ENDBRANCH  56  59
ENDBRANCH  46  49
ENDBRANCH  42  45
ENDBRANCH  39  42
ENDBRANCH  36  39
ENDBRANCH   1  36
TORSDOF 15
ENDMDL
MODEL 8
REMARK VINA RESULT:     -11.6      3.465      6.348
REMARK SMILES O=C(Cc1ccn(-c2ccccc2F)c1)NCCCCCCNC(=O)c1ccc(-c2c3nc(c(-c4c(F)c(F)c(F)c(F)c4F)c4ccc([nH]4)c(-c4c(F)c(F)c(F)c(F)c4F)c4nc(c(-c5c(F)c(F)c(F)c(F)c5F)c5ccc2[nH]5)C=C4)C=C3)cc1
REMARK SMILES IDX 19 1 18 4 17 7 16 10 1 11 2 12 3 14 4 17 5 18 15 19 6 20
REMARK SMILES IDX 7 22 8 25 9 26 13 27 10 28 12 30 14 31 11 32 20 36 21 39
REMARK SMILES IDX 22 42 23 45 24 46 25 48 26 49 27 50 88 51 28 52 87 54 29 56
REMARK SMILES IDX 30 59 31 60 81 61 32 62 86 63 80 64 82 65 33 66 85 67 79 69
REMARK SMILES IDX 78 71 34 73 66 76 46 77 65 78 47 79 50 80 64 81 83 82 48 83
REMARK SMILES IDX 49 85 63 87 84 88 51 91 35 93 36 94 44 95 37 96 38 97 42 98
REMARK SMILES IDX 45 99 39 100 40 101 43 102 41 103 67 104 68 105 76 106
REMARK SMILES IDX 69 107 70 108 74 109 77 110 71 111 72 112 75 113 73 114
REMARK SMILES IDX 52 115 53 116 61 117 54 118 55 119 59 120 62 121 56 122
REMARK SMILES IDX 57 123 60 124 58 125
REMARK H PARENT 19 2 19 3 18 5 18 6 17 8 17 9 16 13 3 15 3 16 5 21 15 23 6 24
REMARK H PARENT 9 29 10 33 12 34 11 35 20 37 20 38 21 40 21 41 22 43 22 44
REMARK H PARENT 23 47 27 53 88 55 28 57 87 58 86 68 80 70 82 72 85 74 79 75
REMARK H PARENT 47 84 50 86 83 89 48 90 84 92
REMARK Flexibility Score: inf
ROOT
ATOM      1  C   UNL A   1      33.643  34.819  29.077  1.00  0.00    -0.052 C 
ATOM      2  H   UNL A   1      32.746  34.319  28.777  1.00  0.00     0.027 H 
ATOM      3  H   UNL A   1      33.839  34.755  30.128  1.00  0.00     0.027 H 
ENDROOT
BRANCH   1   4
ATOM      4  C   UNL A   1      33.482  36.313  28.766  1.00  0.00    -0.036 C 
ATOM      5  H   UNL A   1      34.393  36.663  28.326  1.00  0.00     0.028 H 
ATOM      6  H   UNL A   1      32.640  36.399  28.112  1.00  0.00     0.028 H 
BRANCH   4   7
ATOM      7  C   UNL A   1      33.176  37.184  29.985  1.00  0.00     0.017 C 
ATOM      8  H   UNL A   1      33.510  38.183  29.792  1.00  0.00     0.049 H 
ATOM      9  H   UNL A   1      32.120  37.164  30.157  1.00  0.00     0.049 H 
BRANCH   7  10
ATOM     10  N   UNL A   1      33.840  36.686  31.168  1.00  0.00    -0.356 N 
ATOM     11  O   UNL A   1      32.188  37.271  32.651  1.00  0.00    -0.275 OA
ATOM     12  C   UNL A   1      33.291  36.775  32.429  1.00  0.00     0.224 C 
ATOM     13  H   UNL A   1      34.723  36.264  31.069  1.00  0.00     0.163 HD
BRANCH  12  14
ATOM     14  C   UNL A   1      34.208  36.320  33.551  1.00  0.00     0.053 C 
ATOM     15  H   UNL A   1      33.657  36.346  34.467  1.00  0.00     0.042 H 
ATOM     16  H   UNL A   1      35.045  36.987  33.554  1.00  0.00     0.042 H 
BRANCH  14  17
ATOM     17  C   UNL A   1      34.753  34.939  33.369  1.00  0.00    -0.021 A 
ATOM     18  C   UNL A   1      34.006  33.747  33.175  1.00  0.00    -0.040 A 
ATOM     19  C   UNL A   1      36.086  34.574  33.313  1.00  0.00     0.013 A 
ATOM     20  C   UNL A   1      34.902  32.731  32.923  1.00  0.00     0.009 A 
ATOM     21  H   UNL A   1      32.979  33.659  33.215  1.00  0.00     0.064 H 
ATOM     22  N   UNL A   1      36.184  33.235  32.999  1.00  0.00    -0.321 N 
ATOM     23  H   UNL A   1      36.885  35.207  33.481  1.00  0.00     0.083 H 
ATOM     24  H   UNL A   1      34.654  31.752  32.711  1.00  0.00     0.082 H 
BRANCH  22  25
ATOM     25  C   UNL A   1      37.377  32.523  32.734  1.00  0.00     0.081 A 
ATOM     26  C   UNL A   1      37.603  31.288  33.358  1.00  0.00    -0.035 A 
ATOM     27  C   UNL A   1      38.317  33.023  31.832  1.00  0.00     0.147 A 
ATOM     28  C   UNL A   1      38.752  30.555  33.048  1.00  0.00    -0.060 A 
ATOM     29  H   UNL A   1      36.923  30.923  34.043  1.00  0.00     0.065 H 
ATOM     30  C   UNL A   1      39.481  32.309  31.556  1.00  0.00    -0.024 A 
ATOM     31  F   UNL A   1      38.166  34.228  31.263  1.00  0.00    -0.205 F 
ATOM     32  C   UNL A   1      39.693  31.068  32.155  1.00  0.00    -0.059 A 
ATOM     33  H   UNL A   1      38.904  29.632  33.483  1.00  0.00     0.062 H 
ATOM     34  H   UNL A   1      40.185  32.698  30.909  1.00  0.00     0.065 H 
ATOM     35  H   UNL A   1      40.546  30.529  31.938  1.00  0.00     0.062 H 
ENDBRANCH  22  25
ENDBRANCH  14  17
ENDBRANCH  12  14
ENDBRANCH   7  10
ENDBRANCH   4   7
ENDBRANCH   1   4
BRANCH   1  36
ATOM     36  C   UNL A   1      34.824  34.128  28.385  1.00  0.00    -0.052 C 
ATOM     37  H   UNL A   1      35.433  34.884  27.937  1.00  0.00     0.027 H 
ATOM     38  H   UNL A   1      34.396  33.448  27.677  1.00  0.00     0.027 H 
BRANCH  36  39
ATOM     39  C   UNL A   1      35.717  33.281  29.301  1.00  0.00    -0.036 C 
ATOM     40  H   UNL A   1      35.092  32.771  30.004  1.00  0.00     0.028 H 
ATOM     41  H   UNL A   1      36.404  33.951  29.773  1.00  0.00     0.028 H 
BRANCH  39  42
ATOM     42  C   UNL A   1      36.554  32.239  28.559  1.00  0.00     0.018 C 
ATOM     43  H   UNL A   1      37.391  31.963  29.166  1.00  0.00     0.049 H 
ATOM     44  H   UNL A   1      36.888  32.663  27.634  1.00  0.00     0.049 H 
BRANCH  42  45
ATOM     45  N   UNL A   1      35.766  31.053  28.267  1.00  0.00    -0.352 N 
ATOM     46  C   UNL A   1      36.166  29.791  27.910  1.00  0.00     0.251 C 
ATOM     47  H   UNL A   1      34.792  31.175  28.336  1.00  0.00     0.163 HD
ATOM     48  O   UNL A   1      35.366  29.047  27.355  1.00  0.00    -0.269 OA
BRANCH  46  49
ATOM     49  C   UNL A   1      37.539  29.310  28.169  1.00  0.00     0.039 A 
ATOM     50  C   UNL A   1      37.814  28.782  29.439  1.00  0.00    -0.049 A 
ATOM     51  C   UNL A   1      38.571  29.470  27.238  1.00  0.00    -0.049 A 
ATOM     52  C   UNL A   1      39.102  28.364  29.755  1.00  0.00    -0.053 A 
ATOM     53  H   UNL A   1      37.061  28.705  30.139  1.00  0.00     0.063 H 
ATOM     54  C   UNL A   1      39.858  29.033  27.541  1.00  0.00    -0.053 A 
ATOM     55  H   UNL A   1      38.378  29.913  26.326  1.00  0.00     0.063 H 
ATOM     56  C   UNL A   1      40.116  28.463  28.794  1.00  0.00    -0.014 A 
ATOM     57  H   UNL A   1      39.309  27.983  30.691  1.00  0.00     0.063 H 
ATOM     58  H   UNL A   1      40.615  29.127  26.847  1.00  0.00     0.063 H 
BRANCH  56  59
ATOM     59  C   UNL A   1      41.402  27.779  29.053  1.00  0.00     0.031 A 
ATOM     60  C   UNL A   1      41.387  26.328  28.517  1.00  0.00     0.074 A 
ATOM     61  C   UNL A   1      42.358  28.498  29.718  1.00  0.00     0.049 A 
ATOM     62  N   UNL A   1      42.114  25.303  28.845  1.00  0.00    -0.248 NA
ATOM     63  C   UNL A   1      40.380  25.947  27.484  1.00  0.00    -0.034 C 
ATOM     64  C   UNL A   1      42.215  29.916  30.112  1.00  0.00    -0.036 A 
ATOM     65  N   UNL A   1      43.622  28.212  30.201  1.00  0.00    -0.354 N 
ATOM     66  C   UNL A   1      41.794  24.243  27.963  1.00  0.00     0.074 A 
ATOM     67  C   UNL A   1      40.654  24.669  27.214  1.00  0.00    -0.034 C 
ATOM     68  H   UNL A   1      39.641  26.538  27.072  1.00  0.00     0.065 H 
ATOM     69  C   UNL A   1      43.279  30.330  30.832  1.00  0.00    -0.036 A 
ATOM     70  H   UNL A   1      41.408  30.512  29.869  1.00  0.00     0.065 H 
ATOM     71  C   UNL A   1      44.225  29.243  30.975  1.00  0.00     0.049 A 
ATOM     72  H   UNL A   1      44.072  27.355  30.023  1.00  0.00     0.167 HD
ATOM     73  C   UNL A   1      42.570  23.125  27.828  1.00  0.00     0.037 A 
ATOM     74  H   UNL A   1      40.120  24.074  26.561  1.00  0.00     0.065 H 
ATOM     75  H   UNL A   1      43.399  31.278  31.223  1.00  0.00     0.065 H 
ATOM     76  C   UNL A   1      45.379  29.205  31.717  1.00  0.00     0.037 A 
ATOM     77  C   UNL A   1      43.642  23.172  28.759  1.00  0.00     0.049 A 
ATOM     78  C   UNL A   1      46.006  27.920  31.378  1.00  0.00     0.074 A 
ATOM     79  C   UNL A   1      43.678  23.002  30.117  1.00  0.00    -0.036 A 
ATOM     80  N   UNL A   1      44.799  23.782  28.345  1.00  0.00    -0.354 N 
ATOM     81  N   UNL A   1      46.583  27.658  30.244  1.00  0.00    -0.248 NA
ATOM     82  C   UNL A   1      45.913  26.817  32.342  1.00  0.00    -0.034 C 
ATOM     83  C   UNL A   1      44.631  23.951  30.533  1.00  0.00    -0.036 A 
ATOM     84  H   UNL A   1      43.138  22.340  30.696  1.00  0.00     0.065 H 
ATOM     85  C   UNL A   1      45.293  24.478  29.418  1.00  0.00     0.049 A 
ATOM     86  H   UNL A   1      45.198  23.730  27.448  1.00  0.00     0.167 HD
ATOM     87  C   UNL A   1      46.602  26.286  30.246  1.00  0.00     0.074 A 
ATOM     88  C   UNL A   1      46.500  25.864  31.625  1.00  0.00    -0.034 C 
ATOM     89  H   UNL A   1      45.512  26.790  33.293  1.00  0.00     0.065 H 
ATOM     90  H   UNL A   1      44.815  24.218  31.513  1.00  0.00     0.065 H 
ATOM     91  C   UNL A   1      46.135  25.619  29.160  1.00  0.00     0.037 A 
ATOM     92  H   UNL A   1      46.833  24.960  31.997  1.00  0.00     0.065 H 
BRANCH  73  93
ATOM     93  C   UNL A   1      42.622  22.028  26.798  1.00  0.00     0.064 A 
ATOM     94  C   UNL A   1      43.514  22.026  25.720  1.00  0.00     0.173 A 
ATOM     95  C   UNL A   1      42.021  20.781  27.113  1.00  0.00     0.173 A 
ATOM     96  F   UNL A   1      44.148  23.144  25.345  1.00  0.00    -0.203 F 
ATOM     97  C   UNL A   1      43.855  20.837  25.062  1.00  0.00     0.198 A 
ATOM     98  C   UNL A   1      42.400  19.594  26.489  1.00  0.00     0.198 A 
ATOM     99  F   UNL A   1      41.111  20.683  28.096  1.00  0.00    -0.203 F 
ATOM    100  F   UNL A   1      44.756  20.866  24.070  1.00  0.00    -0.200 F 
ATOM    101  C   UNL A   1      43.334  19.621  25.473  1.00  0.00     0.200 A 
ATOM    102  F   UNL A   1      41.911  18.424  26.922  1.00  0.00    -0.200 F 
ATOM    103  F   UNL A   1      43.757  18.478  24.917  1.00  0.00    -0.200 F 
ENDBRANCH  73  93
BRANCH  76 104
ATOM    104  C   UNL A   1      46.076  30.021  32.792  1.00  0.00     0.064 A 
ATOM    105  C   UNL A   1      45.469  30.163  34.077  1.00  0.00     0.173 A 
ATOM    106  C   UNL A   1      47.235  30.788  32.629  1.00  0.00     0.173 A 
ATOM    107  F   UNL A   1      44.463  29.372  34.473  1.00  0.00    -0.203 F 
ATOM    108  C   UNL A   1      45.847  31.130  35.009  1.00  0.00     0.198 A 
ATOM    109  C   UNL A   1      47.657  31.720  33.598  1.00  0.00     0.198 A 
ATOM    110  F   UNL A   1      48.003  30.662  31.543  1.00  0.00    -0.203 F 
ATOM    111  F   UNL A   1      45.126  31.291  36.129  1.00  0.00    -0.200 F 
ATOM    112  C   UNL A   1      46.932  31.929  34.759  1.00  0.00     0.200 A 
ATOM    113  F   UNL A   1      48.767  32.442  33.386  1.00  0.00    -0.200 F 
ATOM    114  F   UNL A   1      47.285  32.881  35.634  1.00  0.00    -0.200 F 
ENDBRANCH  76 104
BRANCH  91 115
ATOM    115  C   UNL A   1      46.237  26.393  27.863  1.00  0.00     0.064 A 
ATOM    116  C   UNL A   1      45.137  26.917  27.165  1.00  0.00     0.173 A 
ATOM    117  C   UNL A   1      47.502  26.715  27.348  1.00  0.00     0.173 A 
ATOM    118  F   UNL A   1      43.894  26.668  27.569  1.00  0.00    -0.203 F 
ATOM    119  C   UNL A   1      45.282  27.712  26.024  1.00  0.00     0.198 A 
ATOM    120  C   UNL A   1      47.653  27.515  26.212  1.00  0.00     0.198 A 
ATOM    121  F   UNL A   1      48.606  26.245  27.949  1.00  0.00    -0.203 F 
ATOM    122  F   UNL A   1      44.196  28.176  25.385  1.00  0.00    -0.200 F 
ATOM    123  C   UNL A   1      46.543  28.013  25.550  1.00  0.00     0.200 A 
ATOM    124  F   UNL A   1      48.880  27.795  25.753  1.00  0.00    -0.200 F 
ATOM    125  F   UNL A   1      46.688  28.766  24.451  1.00  0.00    -0.200 F 
ENDBRANCH  91 115
ENDBRANCH  56  59
ENDBRANCH  46  49
ENDBRANCH  42  45
ENDBRANCH  39  42
ENDBRANCH  36  39
ENDBRANCH   1  36
TORSDOF 15
ENDMDL
MODEL 9
REMARK VINA RESULT:     -11.5      3.593      6.484
REMARK SMILES O=C(Cc1ccn(-c2ccccc2F)c1)NCCCCCCNC(=O)c1ccc(-c2c3nc(c(-c4c(F)c(F)c(F)c(F)c4F)c4ccc([nH]4)c(-c4c(F)c(F)c(F)c(F)c4F)c4nc(c(-c5c(F)c(F)c(F)c(F)c5F)c5ccc2[nH]5)C=C4)C=C3)cc1
REMARK SMILES IDX 19 1 18 4 17 7 16 10 1 11 2 12 3 14 4 17 5 18 15 19 6 20
REMARK SMILES IDX 7 22 8 25 9 26 13 27 10 28 12 30 14 31 11 32 20 36 21 39
REMARK SMILES IDX 22 42 23 45 24 46 25 48 26 49 27 50 88 51 28 52 87 54 29 56
REMARK SMILES IDX 30 59 31 60 81 61 32 62 86 63 80 64 82 65 33 66 85 67 79 69
REMARK SMILES IDX 78 71 34 73 66 76 46 77 65 78 47 79 50 80 64 81 83 82 48 83
REMARK SMILES IDX 49 85 63 87 84 88 51 91 35 93 36 94 44 95 37 96 38 97 42 98
REMARK SMILES IDX 45 99 39 100 40 101 43 102 41 103 67 104 68 105 76 106
REMARK SMILES IDX 69 107 70 108 74 109 77 110 71 111 72 112 75 113 73 114
REMARK SMILES IDX 52 115 53 116 61 117 54 118 55 119 59 120 62 121 56 122
REMARK SMILES IDX 57 123 60 124 58 125
REMARK H PARENT 19 2 19 3 18 5 18 6 17 8 17 9 16 13 3 15 3 16 5 21 15 23 6 24
REMARK H PARENT 9 29 10 33 12 34 11 35 20 37 20 38 21 40 21 41 22 43 22 44
REMARK H PARENT 23 47 27 53 88 55 28 57 87 58 86 68 80 70 82 72 85 74 79 75
REMARK H PARENT 47 84 50 86 83 89 48 90 84 92
REMARK Flexibility Score: inf
ROOT
ATOM      1  C   UNL A   1      39.325  31.038  31.798  1.00  0.00    -0.052 C 
ATOM      2  H   UNL A   1      39.107  30.076  31.383  1.00  0.00     0.027 H 
ATOM      3  H   UNL A   1      40.346  31.154  32.099  1.00  0.00     0.027 H 
ENDROOT
BRANCH   1   4
ATOM      4  C   UNL A   1      38.487  31.205  33.074  1.00  0.00    -0.036 C 
ATOM      5  H   UNL A   1      38.577  32.219  33.402  1.00  0.00     0.028 H 
ATOM      6  H   UNL A   1      37.484  30.935  32.817  1.00  0.00     0.028 H 
BRANCH   4   7
ATOM      7  C   UNL A   1      38.901  30.291  34.228  1.00  0.00     0.017 C 
ATOM      8  H   UNL A   1      39.414  30.873  34.965  1.00  0.00     0.049 H 
ATOM      9  H   UNL A   1      38.019  29.848  34.641  1.00  0.00     0.049 H 
BRANCH   7  10
ATOM     10  N   UNL A   1      39.772  29.231  33.773  1.00  0.00    -0.356 N 
ATOM     11  O   UNL A   1      41.376  29.510  35.392  1.00  0.00    -0.275 OA
ATOM     12  C   UNL A   1      40.963  28.923  34.395  1.00  0.00     0.224 C 
ATOM     13  H   UNL A   1      39.503  28.706  32.986  1.00  0.00     0.163 HD
BRANCH  12  14
ATOM     14  C   UNL A   1      41.795  27.872  33.680  1.00  0.00     0.053 C 
ATOM     15  H   UNL A   1      42.729  28.313  33.404  1.00  0.00     0.042 H 
ATOM     16  H   UNL A   1      41.224  27.551  32.834  1.00  0.00     0.042 H 
BRANCH  14  17
ATOM     17  C   UNL A   1      42.074  26.654  34.502  1.00  0.00    -0.021 A 
ATOM     18  C   UNL A   1      41.181  26.008  35.398  1.00  0.00    -0.040 A 
ATOM     19  C   UNL A   1      43.238  25.907  34.510  1.00  0.00     0.013 A 
ATOM     20  C   UNL A   1      41.797  24.858  35.842  1.00  0.00     0.009 A 
ATOM     21  H   UNL A   1      40.242  26.339  35.667  1.00  0.00     0.064 H 
ATOM     22  N   UNL A   1      43.061  24.786  35.293  1.00  0.00    -0.321 N 
ATOM     23  H   UNL A   1      44.106  26.151  34.007  1.00  0.00     0.083 H 
ATOM     24  H   UNL A   1      41.380  24.163  36.481  1.00  0.00     0.082 H 
BRANCH  22  25
ATOM     25  C   UNL A   1      43.978  23.722  35.450  1.00  0.00     0.081 A 
ATOM     26  C   UNL A   1      44.814  23.685  36.575  1.00  0.00    -0.035 A 
ATOM     27  C   UNL A   1      44.036  22.689  34.512  1.00  0.00     0.147 A 
ATOM     28  C   UNL A   1      45.677  22.601  36.763  1.00  0.00    -0.060 A 
ATOM     29  H   UNL A   1      44.793  24.455  37.261  1.00  0.00     0.065 H 
ATOM     30  C   UNL A   1      44.925  21.630  34.682  1.00  0.00    -0.024 A 
ATOM     31  F   UNL A   1      43.297  22.720  33.394  1.00  0.00    -0.205 F 
ATOM     32  C   UNL A   1      45.737  21.579  35.814  1.00  0.00    -0.059 A 
ATOM     33  H   UNL A   1      46.270  22.557  37.605  1.00  0.00     0.062 H 
ATOM     34  H   UNL A   1      44.983  20.885  33.970  1.00  0.00     0.065 H 
ATOM     35  H   UNL A   1      46.384  20.787  35.950  1.00  0.00     0.062 H 
ENDBRANCH  22  25
ENDBRANCH  14  17
ENDBRANCH  12  14
ENDBRANCH   7  10
ENDBRANCH   4   7
ENDBRANCH   1   4
BRANCH   1  36
ATOM     36  C   UNL A   1      39.081  32.090  30.711  1.00  0.00    -0.052 C 
ATOM     37  H   UNL A   1      39.497  31.722  29.796  1.00  0.00     0.027 H 
ATOM     38  H   UNL A   1      39.544  32.990  31.060  1.00  0.00     0.027 H 
BRANCH  36  39
ATOM     39  C   UNL A   1      37.609  32.441  30.455  1.00  0.00    -0.036 C 
ATOM     40  H   UNL A   1      37.375  33.331  31.002  1.00  0.00     0.028 H 
ATOM     41  H   UNL A   1      37.029  31.600  30.771  1.00  0.00     0.028 H 
BRANCH  39  42
ATOM     42  C   UNL A   1      37.277  32.681  28.982  1.00  0.00     0.018 C 
ATOM     43  H   UNL A   1      38.163  32.554  28.397  1.00  0.00     0.049 H 
ATOM     44  H   UNL A   1      36.898  33.677  28.874  1.00  0.00     0.049 H 
BRANCH  42  45
ATOM     45  N   UNL A   1      36.263  31.747  28.521  1.00  0.00    -0.352 N 
ATOM     46  C   UNL A   1      36.392  30.475  28.029  1.00  0.00     0.251 C 
ATOM     47  H   UNL A   1      35.339  32.081  28.570  1.00  0.00     0.163 HD
ATOM     48  O   UNL A   1      35.482  29.999  27.360  1.00  0.00    -0.269 OA
BRANCH  46  49
ATOM     49  C   UNL A   1      37.604  29.665  28.276  1.00  0.00     0.039 A 
ATOM     50  C   UNL A   1      38.614  29.694  27.305  1.00  0.00    -0.049 A 
ATOM     51  C   UNL A   1      37.711  28.805  29.375  1.00  0.00    -0.049 A 
ATOM     52  C   UNL A   1      39.752  28.910  27.461  1.00  0.00    -0.053 A 
ATOM     53  H   UNL A   1      38.514  30.297  26.474  1.00  0.00     0.063 H 
ATOM     54  C   UNL A   1      38.858  28.034  29.547  1.00  0.00    -0.053 A 
ATOM     55  H   UNL A   1      36.939  28.742  30.058  1.00  0.00     0.063 H 
ATOM     56  C   UNL A   1      39.885  28.104  28.598  1.00  0.00    -0.014 A 
ATOM     57  H   UNL A   1      40.494  28.923  26.744  1.00  0.00     0.063 H 
ATOM     58  H   UNL A   1      38.951  27.418  30.369  1.00  0.00     0.063 H 
BRANCH  56  59
ATOM     59  C   UNL A   1      41.201  27.485  28.874  1.00  0.00     0.031 A 
ATOM     60  C   UNL A   1      41.265  26.036  28.339  1.00  0.00     0.074 A 
ATOM     61  C   UNL A   1      42.111  28.252  29.550  1.00  0.00     0.049 A 
ATOM     62  N   UNL A   1      42.038  25.048  28.677  1.00  0.00    -0.248 NA
ATOM     63  C   UNL A   1      40.291  25.605  27.294  1.00  0.00    -0.034 C 
ATOM     64  C   UNL A   1      41.892  29.661  29.942  1.00  0.00    -0.036 A 
ATOM     65  N   UNL A   1      43.382  28.029  30.050  1.00  0.00    -0.354 N 
ATOM     66  C   UNL A   1      41.783  23.973  27.792  1.00  0.00     0.074 A 
ATOM     67  C   UNL A   1      40.632  24.341  27.029  1.00  0.00    -0.034 C 
ATOM     68  H   UNL A   1      39.529  26.157  26.872  1.00  0.00     0.065 H 
ATOM     69  C   UNL A   1      42.925  30.128  30.675  1.00  0.00    -0.036 A 
ATOM     70  H   UNL A   1      41.059  30.215  29.688  1.00  0.00     0.065 H 
ATOM     71  C   UNL A   1      43.923  29.090  30.830  1.00  0.00     0.049 A 
ATOM     72  H   UNL A   1      43.876  27.196  29.878  1.00  0.00     0.167 HD
ATOM     73  C   UNL A   1      42.615  22.895  27.667  1.00  0.00     0.037 A 
ATOM     74  H   UNL A   1      40.137  23.721  26.369  1.00  0.00     0.065 H 
ATOM     75  H   UNL A   1      42.993  31.081  31.066  1.00  0.00     0.065 H 
ATOM     76  C   UNL A   1      45.067  29.110  31.586  1.00  0.00     0.037 A 
ATOM     77  C   UNL A   1      43.672  22.996  28.612  1.00  0.00     0.049 A 
ATOM     78  C   UNL A   1      45.762  27.857  31.256  1.00  0.00     0.074 A 
ATOM     79  C   UNL A   1      43.700  22.829  29.971  1.00  0.00    -0.036 A 
ATOM     80  N   UNL A   1      44.802  23.664  28.212  1.00  0.00    -0.354 N 
ATOM     81  N   UNL A   1      46.366  27.624  30.130  1.00  0.00    -0.248 NA
ATOM     82  C   UNL A   1      45.713  26.751  32.220  1.00  0.00    -0.034 C 
ATOM     83  C   UNL A   1      44.599  23.824  30.398  1.00  0.00    -0.036 A 
ATOM     84  H   UNL A   1      43.186  22.141  30.543  1.00  0.00     0.065 H 
ATOM     85  C   UNL A   1      45.247  24.384  29.291  1.00  0.00     0.049 A 
ATOM     86  H   UNL A   1      45.215  23.632  27.319  1.00  0.00     0.167 HD
ATOM     87  C   UNL A   1      46.453  26.255  30.133  1.00  0.00     0.074 A 
ATOM     88  C   UNL A   1      46.356  25.829  31.511  1.00  0.00    -0.034 C 
ATOM     89  H   UNL A   1      45.302  26.704  33.166  1.00  0.00     0.065 H 
ATOM     90  H   UNL A   1      44.757  24.100  31.379  1.00  0.00     0.065 H 
ATOM     91  C   UNL A   1      46.035  25.565  29.042  1.00  0.00     0.037 A 
ATOM     92  H   UNL A   1      46.729  24.943  31.888  1.00  0.00     0.065 H 
BRANCH  73  93
ATOM     93  C   UNL A   1      42.735  21.803  26.639  1.00  0.00     0.064 A 
ATOM     94  C   UNL A   1      43.629  21.852  25.563  1.00  0.00     0.173 A 
ATOM     95  C   UNL A   1      42.209  20.522  26.954  1.00  0.00     0.173 A 
ATOM     96  F   UNL A   1      44.197  23.005  25.189  1.00  0.00    -0.203 F 
ATOM     97  C   UNL A   1      44.042  20.685  24.908  1.00  0.00     0.198 A 
ATOM     98  C   UNL A   1      42.659  19.359  26.332  1.00  0.00     0.198 A 
ATOM     99  F   UNL A   1      41.304  20.372  27.935  1.00  0.00    -0.203 F 
ATOM    100  F   UNL A   1      44.942  20.766  23.918  1.00  0.00    -0.200 F 
ATOM    101  C   UNL A   1      43.593  19.440  25.320  1.00  0.00     0.200 A 
ATOM    102  F   UNL A   1      42.239  18.162  26.766  1.00  0.00    -0.200 F 
ATOM    103  F   UNL A   1      44.084  18.324  24.766  1.00  0.00    -0.200 F 
ENDBRANCH  73  93
BRANCH  76 104
ATOM    104  C   UNL A   1      45.709  29.959  32.669  1.00  0.00     0.064 A 
ATOM    105  C   UNL A   1      46.657  30.965  32.309  1.00  0.00     0.173 A 
ATOM    106  C   UNL A   1      45.572  29.785  34.051  1.00  0.00     0.173 A 
ATOM    107  F   UNL A   1      46.785  31.394  31.047  1.00  0.00    -0.203 F 
ATOM    108  C   UNL A   1      47.530  31.568  33.217  1.00  0.00     0.198 A 
ATOM    109  C   UNL A   1      46.409  30.442  34.975  1.00  0.00     0.198 A 
ATOM    110  F   UNL A   1      44.626  28.988  34.558  1.00  0.00    -0.203 F 
ATOM    111  F   UNL A   1      48.488  32.392  32.769  1.00  0.00    -0.200 F 
ATOM    112  C   UNL A   1      47.421  31.287  34.554  1.00  0.00     0.200 A 
ATOM    113  F   UNL A   1      46.245  30.227  36.288  1.00  0.00    -0.200 F 
ATOM    114  F   UNL A   1      48.273  31.837  35.430  1.00  0.00    -0.200 F 
ENDBRANCH  76 104
BRANCH  91 115
ATOM    115  C   UNL A   1      46.114  26.343  27.746  1.00  0.00     0.064 A 
ATOM    116  C   UNL A   1      44.997  26.809  27.032  1.00  0.00     0.173 A 
ATOM    117  C   UNL A   1      47.367  26.731  27.248  1.00  0.00     0.173 A 
ATOM    118  F   UNL A   1      43.764  26.496  27.419  1.00  0.00    -0.203 F 
ATOM    119  C   UNL A   1      45.117  27.610  25.893  1.00  0.00     0.198 A 
ATOM    120  C   UNL A   1      47.491  27.538  26.113  1.00  0.00     0.198 A 
ATOM    121  F   UNL A   1      48.485  26.319  27.864  1.00  0.00    -0.203 F 
ATOM    122  F   UNL A   1      44.017  28.017  25.238  1.00  0.00    -0.200 F 
ATOM    123  C   UNL A   1      46.367  27.977  25.436  1.00  0.00     0.200 A 
ATOM    124  F   UNL A   1      48.709  27.881  25.671  1.00  0.00    -0.200 F 
ATOM    125  F   UNL A   1      46.487  28.736  24.338  1.00  0.00    -0.200 F 
ENDBRANCH  91 115
ENDBRANCH  56  59
ENDBRANCH  46  49
ENDBRANCH  42  45
ENDBRANCH  39  42
ENDBRANCH  36  39
ENDBRANCH   1  36
TORSDOF 15
ENDMDL
MODEL 10
REMARK VINA RESULT:     -11.5      4.440      9.514
REMARK SMILES O=C(Cc1ccn(-c2ccccc2F)c1)NCCCCCCNC(=O)c1ccc(-c2c3nc(c(-c4c(F)c(F)c(F)c(F)c4F)c4ccc([nH]4)c(-c4c(F)c(F)c(F)c(F)c4F)c4nc(c(-c5c(F)c(F)c(F)c(F)c5F)c5ccc2[nH]5)C=C4)C=C3)cc1
REMARK SMILES IDX 19 1 18 4 17 7 16 10 1 11 2 12 3 14 4 17 5 18 15 19 6 20
REMARK SMILES IDX 7 22 8 25 9 26 13 27 10 28 12 30 14 31 11 32 20 36 21 39
REMARK SMILES IDX 22 42 23 45 24 46 25 48 26 49 27 50 88 51 28 52 87 54 29 56
REMARK SMILES IDX 30 59 31 60 81 61 32 62 86 63 80 64 82 65 33 66 85 67 79 69
REMARK SMILES IDX 78 71 34 73 66 76 46 77 65 78 47 79 50 80 64 81 83 82 48 83
REMARK SMILES IDX 49 85 63 87 84 88 51 91 35 93 36 94 44 95 37 96 38 97 42 98
REMARK SMILES IDX 45 99 39 100 40 101 43 102 41 103 67 104 68 105 76 106
REMARK SMILES IDX 69 107 70 108 74 109 77 110 71 111 72 112 75 113 73 114
REMARK SMILES IDX 52 115 53 116 61 117 54 118 55 119 59 120 62 121 56 122
REMARK SMILES IDX 57 123 60 124 58 125
REMARK H PARENT 19 2 19 3 18 5 18 6 17 8 17 9 16 13 3 15 3 16 5 21 15 23 6 24
REMARK H PARENT 9 29 10 33 12 34 11 35 20 37 20 38 21 40 21 41 22 43 22 44
REMARK H PARENT 23 47 27 53 88 55 28 57 87 58 86 68 80 70 82 72 85 74 79 75
REMARK H PARENT 47 84 50 86 83 89 48 90 84 92
REMARK Flexibility Score: inf
ROOT
ATOM      1  C   UNL A   1      35.958  21.252  25.427  1.00  0.00    -0.052 C 
ATOM      2  H   UNL A   1      36.344  20.258  25.517  1.00  0.00     0.027 H 
ATOM      3  H   UNL A   1      35.955  21.796  26.349  1.00  0.00     0.027 H 
ENDROOT
BRANCH   1   4
ATOM      4  C   UNL A   1      34.489  21.153  24.991  1.00  0.00    -0.036 C 
ATOM      5  H   UNL A   1      34.398  21.597  24.022  1.00  0.00     0.028 H 
ATOM      6  H   UNL A   1      34.239  20.113  25.001  1.00  0.00     0.028 H 
BRANCH   4   7
ATOM      7  C   UNL A   1      33.502  21.846  25.930  1.00  0.00     0.017 C 
ATOM      8  H   UNL A   1      32.508  21.538  25.679  1.00  0.00     0.049 H 
ATOM      9  H   UNL A   1      33.742  21.571  26.935  1.00  0.00     0.049 H 
BRANCH   7  10
ATOM     10  N   UNL A   1      33.591  23.285  25.818  1.00  0.00    -0.356 N 
ATOM     11  O   UNL A   1      31.792  23.756  27.164  1.00  0.00    -0.275 OA
ATOM     12  C   UNL A   1      32.713  24.141  26.447  1.00  0.00     0.224 C 
ATOM     13  H   UNL A   1      34.312  23.670  25.270  1.00  0.00     0.163 HD
BRANCH  12  14
ATOM     14  C   UNL A   1      32.894  25.606  26.090  1.00  0.00     0.053 C 
ATOM     15  H   UNL A   1      33.927  25.772  25.864  1.00  0.00     0.042 H 
ATOM     16  H   UNL A   1      32.561  26.172  26.935  1.00  0.00     0.042 H 
BRANCH  14  17
ATOM     17  C   UNL A   1      32.079  26.052  24.918  1.00  0.00    -0.021 A 
ATOM     18  C   UNL A   1      31.875  25.345  23.704  1.00  0.00    -0.040 A 
ATOM     19  C   UNL A   1      31.338  27.216  24.818  1.00  0.00     0.013 A 
ATOM     20  C   UNL A   1      30.959  26.055  22.958  1.00  0.00     0.009 A 
ATOM     21  H   UNL A   1      32.329  24.461  23.430  1.00  0.00     0.064 H 
ATOM     22  N   UNL A   1      30.618  27.204  23.642  1.00  0.00    -0.321 N 
ATOM     23  H   UNL A   1      31.326  27.977  25.517  1.00  0.00     0.083 H 
ATOM     24  H   UNL A   1      30.587  25.772  22.038  1.00  0.00     0.082 H 
BRANCH  22  25
ATOM     25  C   UNL A   1      29.656  28.158  23.241  1.00  0.00     0.081 A 
ATOM     26  C   UNL A   1      30.072  29.369  22.669  1.00  0.00    -0.035 A 
ATOM     27  C   UNL A   1      28.292  27.893  23.378  1.00  0.00     0.147 A 
ATOM     28  C   UNL A   1      29.120  30.285  22.214  1.00  0.00    -0.060 A 
ATOM     29  H   UNL A   1      31.079  29.581  22.584  1.00  0.00     0.065 H 
ATOM     30  C   UNL A   1      27.345  28.826  22.961  1.00  0.00    -0.024 A 
ATOM     31  F   UNL A   1      27.856  26.775  23.976  1.00  0.00    -0.205 F 
ATOM     32  C   UNL A   1      27.759  30.017  22.367  1.00  0.00    -0.059 A 
ATOM     33  H   UNL A   1      29.425  31.163  21.765  1.00  0.00     0.062 H 
ATOM     34  H   UNL A   1      26.339  28.635  23.091  1.00  0.00     0.065 H 
ATOM     35  H   UNL A   1      27.059  30.702  22.041  1.00  0.00     0.062 H 
ENDBRANCH  22  25
ENDBRANCH  14  17
ENDBRANCH  12  14
ENDBRANCH   7  10
ENDBRANCH   4   7
ENDBRANCH   1   4
BRANCH   1  36
ATOM     36  C   UNL A   1      36.873  22.032  24.477  1.00  0.00    -0.052 C 
ATOM     37  H   UNL A   1      36.529  21.869  23.477  1.00  0.00     0.027 H 
ATOM     38  H   UNL A   1      37.864  21.667  24.654  1.00  0.00     0.027 H 
BRANCH  36  39
ATOM     39  C   UNL A   1      36.930  23.546  24.717  1.00  0.00    -0.036 C 
ATOM     40  H   UNL A   1      35.961  23.955  24.522  1.00  0.00     0.028 H 
ATOM     41  H   UNL A   1      37.680  23.937  24.062  1.00  0.00     0.028 H 
BRANCH  39  42
ATOM     42  C   UNL A   1      37.337  23.933  26.139  1.00  0.00     0.018 C 
ATOM     43  H   UNL A   1      36.565  23.639  26.818  1.00  0.00     0.049 H 
ATOM     44  H   UNL A   1      37.484  24.993  26.177  1.00  0.00     0.049 H 
BRANCH  42  45
ATOM     45  N   UNL A   1      38.578  23.280  26.519  1.00  0.00    -0.352 N 
ATOM     46  C   UNL A   1      39.784  23.818  26.890  1.00  0.00     0.251 C 
ATOM     47  H   UNL A   1      38.549  22.296  26.508  1.00  0.00     0.163 HD
ATOM     48  O   UNL A   1      40.794  23.128  26.812  1.00  0.00    -0.269 OA
BRANCH  46  49
ATOM     49  C   UNL A   1      39.897  25.211  27.372  1.00  0.00     0.039 A 
ATOM     50  C   UNL A   1      39.495  25.477  28.688  1.00  0.00    -0.049 A 
ATOM     51  C   UNL A   1      40.279  26.260  26.529  1.00  0.00    -0.049 A 
ATOM     52  C   UNL A   1      39.530  26.779  29.176  1.00  0.00    -0.053 A 
ATOM     53  H   UNL A   1      39.173  24.708  29.295  1.00  0.00     0.063 H 
ATOM     54  C   UNL A   1      40.336  27.562  27.018  1.00  0.00    -0.053 A 
ATOM     55  H   UNL A   1      40.517  26.068  25.542  1.00  0.00     0.063 H 
ATOM     56  C   UNL A   1      39.979  27.815  28.348  1.00  0.00    -0.014 A 
ATOM     57  H   UNL A   1      39.227  26.980  30.142  1.00  0.00     0.063 H 
ATOM     58  H   UNL A   1      40.641  28.334  26.406  1.00  0.00     0.063 H 
BRANCH  56  59
ATOM     59  C   UNL A   1      40.256  29.135  28.958  1.00  0.00     0.031 A 
ATOM     60  C   UNL A   1      38.956  29.953  29.144  1.00  0.00     0.074 A 
ATOM     61  C   UNL A   1      41.565  29.424  29.232  1.00  0.00     0.049 A 
ATOM     62  N   UNL A   1      38.779  31.233  29.276  1.00  0.00    -0.248 NA
ATOM     63  C   UNL A   1      37.645  29.240  29.142  1.00  0.00    -0.034 C 
ATOM     64  C   UNL A   1      42.689  28.483  29.035  1.00  0.00    -0.036 A 
ATOM     65  N   UNL A   1      42.229  30.537  29.718  1.00  0.00    -0.354 N 
ATOM     66  C   UNL A   1      37.409  31.457  29.550  1.00  0.00     0.074 A 
ATOM     67  C   UNL A   1      36.747  30.205  29.358  1.00  0.00    -0.034 C 
ATOM     68  H   UNL A   1      37.471  28.233  29.005  1.00  0.00     0.065 H 
ATOM     69  C   UNL A   1      43.871  29.076  29.304  1.00  0.00    -0.036 A 
ATOM     70  H   UNL A   1      42.583  27.502  28.731  1.00  0.00     0.065 H 
ATOM     71  C   UNL A   1      43.650  30.448  29.712  1.00  0.00     0.049 A 
ATOM     72  H   UNL A   1      41.752  31.333  30.043  1.00  0.00     0.167 HD
ATOM     73  C   UNL A   1      36.929  32.642  30.035  1.00  0.00     0.037 A 
ATOM     74  H   UNL A   1      35.725  30.067  29.381  1.00  0.00     0.065 H 
ATOM     75  H   UNL A   1      44.795  28.620  29.229  1.00  0.00     0.065 H 
ATOM     76  C   UNL A   1      44.578  31.425  29.968  1.00  0.00     0.037 A 
ATOM     77  C   UNL A   1      37.985  33.590  30.112  1.00  0.00     0.049 A 
ATOM     78  C   UNL A   1      43.800  32.564  30.475  1.00  0.00     0.074 A 
ATOM     79  C   UNL A   1      38.657  34.287  29.143  1.00  0.00    -0.036 A 
ATOM     80  N   UNL A   1      38.702  33.629  31.281  1.00  0.00    -0.354 N 
ATOM     81  N   UNL A   1      43.245  32.613  31.649  1.00  0.00    -0.248 NA
ATOM     82  C   UNL A   1      43.552  33.700  29.579  1.00  0.00    -0.034 C 
ATOM     83  C   UNL A   1      39.980  34.307  29.622  1.00  0.00    -0.036 A 
ATOM     84  H   UNL A   1      38.284  34.696  28.273  1.00  0.00     0.065 H 
ATOM     85  C   UNL A   1      40.013  33.843  30.942  1.00  0.00     0.049 A 
ATOM     86  H   UNL A   1      38.342  33.524  32.191  1.00  0.00     0.167 HD
ATOM     87  C   UNL A   1      42.319  33.613  31.483  1.00  0.00     0.074 A 
ATOM     88  C   UNL A   1      42.767  34.423  30.372  1.00  0.00    -0.034 C 
ATOM     89  H   UNL A   1      43.887  33.883  28.621  1.00  0.00     0.065 H 
ATOM     90  H   UNL A   1      40.802  34.618  29.083  1.00  0.00     0.065 H 
ATOM     91  C   UNL A   1      41.033  33.389  31.853  1.00  0.00     0.037 A 
ATOM     92  H   UNL A   1      42.516  35.413  30.218  1.00  0.00     0.065 H 
BRANCH  73  93
ATOM     93  C   UNL A   1      35.622  33.041  30.666  1.00  0.00     0.064 A 
ATOM     94  C   UNL A   1      35.265  32.706  31.977  1.00  0.00     0.173 A 
ATOM     95  C   UNL A   1      34.879  34.093  30.068  1.00  0.00     0.173 A 
ATOM     96  F   UNL A   1      35.908  31.739  32.643  1.00  0.00    -0.203 F 
ATOM     97  C   UNL A   1      34.297  33.438  32.676  1.00  0.00     0.198 A 
ATOM     98  C   UNL A   1      33.953  34.849  30.782  1.00  0.00     0.198 A 
ATOM     99  F   UNL A   1      35.106  34.459  28.795  1.00  0.00    -0.203 F 
ATOM    100  F   UNL A   1      34.022  33.123  33.949  1.00  0.00    -0.200 F 
ATOM    101  C   UNL A   1      33.675  34.532  32.096  1.00  0.00     0.200 A 
ATOM    102  F   UNL A   1      33.386  35.924  30.215  1.00  0.00    -0.200 F 
ATOM    103  F   UNL A   1      32.839  35.296  32.811  1.00  0.00    -0.200 F 
ENDBRANCH  73  93
BRANCH  76 104
ATOM    104  C   UNL A   1      46.066  31.667  29.784  1.00  0.00     0.064 A 
ATOM    105  C   UNL A   1      46.593  31.861  28.470  1.00  0.00     0.173 A 
ATOM    106  C   UNL A   1      47.047  31.597  30.779  1.00  0.00     0.173 A 
ATOM    107  F   UNL A   1      45.800  32.133  27.426  1.00  0.00    -0.203 F 
ATOM    108  C   UNL A   1      47.950  31.768  28.159  1.00  0.00     0.198 A 
ATOM    109  C   UNL A   1      48.422  31.569  30.473  1.00  0.00     0.198 A 
ATOM    110  F   UNL A   1      46.719  31.563  32.074  1.00  0.00    -0.203 F 
ATOM    111  F   UNL A   1      48.342  31.815  26.878  1.00  0.00    -0.200 F 
ATOM    112  C   UNL A   1      48.868  31.598  29.163  1.00  0.00     0.200 A 
ATOM    113  F   UNL A   1      49.321  31.485  31.464  1.00  0.00    -0.200 F 
ATOM    114  F   UNL A   1      50.171  31.478  28.872  1.00  0.00    -0.200 F 
ENDBRANCH  76 104
BRANCH  91 115
ATOM    115  C   UNL A   1      40.872  32.359  32.951  1.00  0.00     0.064 A 
ATOM    116  C   UNL A   1      40.372  31.061  32.753  1.00  0.00     0.173 A 
ATOM    117  C   UNL A   1      41.337  32.647  34.243  1.00  0.00     0.173 A 
ATOM    118  F   UNL A   1      39.904  30.687  31.565  1.00  0.00    -0.203 F 
ATOM    119  C   UNL A   1      40.334  30.108  33.774  1.00  0.00     0.198 A 
ATOM    120  C   UNL A   1      41.308  31.695  35.266  1.00  0.00     0.198 A 
ATOM    121  F   UNL A   1      41.821  33.867  34.520  1.00  0.00    -0.203 F 
ATOM    122  F   UNL A   1      39.832  28.886  33.535  1.00  0.00    -0.200 F 
ATOM    123  C   UNL A   1      40.806  30.426  35.032  1.00  0.00     0.200 A 
ATOM    124  F   UNL A   1      41.758  32.016  36.487  1.00  0.00    -0.200 F 
ATOM    125  F   UNL A   1      40.762  29.520  36.018  1.00  0.00    -0.200 F 
ENDBRANCH  91 115
ENDBRANCH  56  59
ENDBRANCH  46  49
ENDBRANCH  42  45
ENDBRANCH  39  42
ENDBRANCH  36  39
ENDBRANCH   1  36
TORSDOF 15
ENDMDL
