MODEL 1
REMARK VINA RESULT:     -11.7      0.000      0.000
REMARK SMILES CC(C)(C)OC(=O)N1CCC[C@H]1C(=O)N[C@@H](Cc1ccccc1)C(=O)NCCCCCCNC(=O)c1ccc(-c2c3nc(c(-c4c(F)c(F)c(F)c(F)c4F)c4ccc([nH]4)c(-c4c(F)c(F)c(F)c(F)c4F)c4nc(c(-c5c(F)c(F)c(F)c(F)c5F)c5ccc2[nH]5)C=C4)C=C3)cc1
REMARK SMILES IDX 27 1 26 4 24 5 25 6 16 8 15 10 13 11 14 12 12 14 8 15 9 16
REMARK SMILES IDX 10 17 11 20 6 26 7 27 5 28 2 29 1 30 3 34 4 38 17 42 18 45
REMARK SMILES IDX 19 46 23 47 20 48 22 50 21 52 28 56 29 59 30 62 31 65 32 68
REMARK SMILES IDX 33 71 34 72 35 74 36 75 37 76 98 77 38 78 97 80 39 82 40 85
REMARK SMILES IDX 41 86 91 87 42 88 96 89 90 90 92 91 43 92 95 93 89 95 88 97
REMARK SMILES IDX 44 99 76 102 56 103 75 104 57 105 60 106 74 107 93 108
REMARK SMILES IDX 58 109 59 111 73 113 94 114 61 117 45 119 46 120 54 121
REMARK SMILES IDX 47 122 48 123 52 124 55 125 49 126 50 127 53 128 51 129
REMARK SMILES IDX 77 130 78 131 86 132 79 133 80 134 84 135 87 136 81 137
REMARK SMILES IDX 82 138 85 139 83 140 62 141 63 142 71 143 64 144 65 145
REMARK SMILES IDX 69 146 72 147 66 148 67 149 70 150 68 151
REMARK H PARENT 27 2 27 3 26 7 16 9 15 13 9 18 9 19 12 21 10 22 10 23 11 24
REMARK H PARENT 11 25 1 31 1 32 1 33 3 35 3 36 3 37 4 39 4 40 4 41 17 43 17 44
REMARK H PARENT 19 49 23 51 20 53 22 54 21 55 28 57 28 58 29 60 29 61 30 63
REMARK H PARENT 30 64 31 66 31 67 32 69 32 70 33 73 37 79 98 81 38 83 97 84
REMARK H PARENT 96 94 90 96 92 98 95 100 89 101 57 110 60 112 93 115 58 116
REMARK H PARENT 94 118
REMARK Flexibility Score: inf
ROOT
ATOM      1  C   UNL A   1      32.702  27.603  25.731  1.00  0.00     0.017 C 
ATOM      2  H   UNL A   1      32.985  26.657  26.139  1.00  0.00     0.049 H 
ATOM      3  H   UNL A   1      31.753  27.574  25.237  1.00  0.00     0.049 H 
ENDROOT
BRANCH   1   4
ATOM      4  N   UNL A   1      33.679  27.978  24.735  1.00  0.00    -0.354 N 
ATOM      5  C   UNL A   1      33.521  28.174  23.395  1.00  0.00     0.242 C 
ATOM      6  O   UNL A   1      34.373  28.875  22.832  1.00  0.00    -0.273 OA
ATOM      7  H   UNL A   1      34.593  28.112  25.074  1.00  0.00     0.163 HD
BRANCH   5   8
ATOM      8  C   UNL A   1      32.297  27.674  22.590  1.00  0.00     0.112 C 
ATOM      9  H   UNL A   1      32.063  28.512  21.968  1.00  0.00     0.064 H 
BRANCH   8  10
ATOM     10  N   UNL A   1      32.569  26.596  21.632  1.00  0.00    -0.342 N 
ATOM     11  C   UNL A   1      32.921  25.295  21.859  1.00  0.00     0.243 C 
ATOM     12  O   UNL A   1      33.145  24.588  20.875  1.00  0.00    -0.273 OA
ATOM     13  H   UNL A   1      32.484  26.848  20.684  1.00  0.00     0.164 HD
BRANCH  11  14
ATOM     14  C   UNL A   1      33.142  24.818  23.307  1.00  0.00     0.114 C 
ATOM     15  N   UNL A   1      32.405  23.605  23.629  1.00  0.00    -0.296 N 
ATOM     16  C   UNL A   1      33.286  22.481  23.853  1.00  0.00     0.025 C 
ATOM     17  C   UNL A   1      34.580  23.134  24.299  1.00  0.00    -0.033 C 
ATOM     18  H   UNL A   1      33.429  21.921  22.952  1.00  0.00     0.050 H 
ATOM     19  H   UNL A   1      32.901  21.781  24.567  1.00  0.00     0.050 H 
ATOM     20  C   UNL A   1      34.617  24.435  23.503  1.00  0.00    -0.022 C 
ATOM     21  H   UNL A   1      32.817  25.628  23.925  1.00  0.00     0.064 H 
ATOM     22  H   UNL A   1      35.421  22.517  24.063  1.00  0.00     0.029 H 
ATOM     23  H   UNL A   1      34.622  23.292  25.357  1.00  0.00     0.029 H 
ATOM     24  H   UNL A   1      35.096  24.285  22.559  1.00  0.00     0.029 H 
ATOM     25  H   UNL A   1      35.169  25.201  24.006  1.00  0.00     0.029 H 
BRANCH  15  26
ATOM     26  C   UNL A   1      31.046  23.634  23.813  1.00  0.00     0.410 C 
ATOM     27  O   UNL A   1      30.280  24.159  23.022  1.00  0.00    -0.224 OA
BRANCH  26  28
ATOM     28  O   UNL A   1      30.691  23.072  24.995  1.00  0.00    -0.444 OA
BRANCH  28  29
ATOM     29  C   UNL A   1      30.653  23.826  26.235  1.00  0.00     0.106 C 
BRANCH  29  30
ATOM     30  C   UNL A   1      29.829  22.953  27.194  1.00  0.00    -0.025 C 
ATOM     31  H   UNL A   1      30.087  21.924  27.051  1.00  0.00     0.027 H 
ATOM     32  H   UNL A   1      28.787  23.091  26.997  1.00  0.00     0.027 H 
ATOM     33  H   UNL A   1      30.041  23.235  28.204  1.00  0.00     0.027 H 
ENDBRANCH  29  30
BRANCH  29  34
ATOM     34  C   UNL A   1      29.914  25.141  25.979  1.00  0.00    -0.025 C 
ATOM     35  H   UNL A   1      29.123  24.976  25.278  1.00  0.00     0.027 H 
ATOM     36  H   UNL A   1      30.599  25.862  25.583  1.00  0.00     0.027 H 
ATOM     37  H   UNL A   1      29.506  25.505  26.899  1.00  0.00     0.027 H 
ENDBRANCH  29  34
BRANCH  29  38
ATOM     38  C   UNL A   1      32.024  24.072  26.879  1.00  0.00    -0.025 C 
ATOM     39  H   UNL A   1      32.784  23.599  26.294  1.00  0.00     0.027 H 
ATOM     40  H   UNL A   1      32.031  23.665  27.869  1.00  0.00     0.027 H 
ATOM     41  H   UNL A   1      32.213  25.124  26.925  1.00  0.00     0.027 H 
ENDBRANCH  29  38
ENDBRANCH  28  29
ENDBRANCH  26  28
ENDBRANCH  15  26
ENDBRANCH  11  14
ENDBRANCH   8  10
BRANCH   8  42
ATOM     42  C   UNL A   1      31.033  27.433  23.445  1.00  0.00     0.002 C 
ATOM     43  H   UNL A   1      31.318  27.530  24.472  1.00  0.00     0.034 H 
ATOM     44  H   UNL A   1      30.690  26.462  23.151  1.00  0.00     0.034 H 
BRANCH  42  45
ATOM     45  C   UNL A   1      29.846  28.339  23.220  1.00  0.00    -0.045 A 
ATOM     46  C   UNL A   1      30.042  29.704  22.960  1.00  0.00    -0.059 A 
ATOM     47  C   UNL A   1      28.535  27.844  23.267  1.00  0.00    -0.059 A 
ATOM     48  C   UNL A   1      28.951  30.561  22.802  1.00  0.00    -0.062 A 
ATOM     49  H   UNL A   1      31.001  30.078  22.885  1.00  0.00     0.063 H 
ATOM     50  C   UNL A   1      27.445  28.707  23.130  1.00  0.00    -0.062 A 
ATOM     51  H   UNL A   1      28.373  26.834  23.404  1.00  0.00     0.063 H 
ATOM     52  C   UNL A   1      27.653  30.065  22.902  1.00  0.00    -0.062 A 
ATOM     53  H   UNL A   1      29.106  31.563  22.611  1.00  0.00     0.062 H 
ATOM     54  H   UNL A   1      26.484  28.337  23.197  1.00  0.00     0.062 H 
ATOM     55  H   UNL A   1      26.848  30.703  22.806  1.00  0.00     0.062 H 
ENDBRANCH  42  45
ENDBRANCH   8  42
ENDBRANCH   5   8
ENDBRANCH   1   4
BRANCH   1  56
ATOM     56  C   UNL A   1      32.567  28.597  26.876  1.00  0.00    -0.036 C 
ATOM     57  H   UNL A   1      33.328  28.377  27.596  1.00  0.00     0.028 H 
ATOM     58  H   UNL A   1      31.574  28.481  27.255  1.00  0.00     0.028 H 
BRANCH  56  59
ATOM     59  C   UNL A   1      32.702  30.071  26.482  1.00  0.00    -0.052 C 
ATOM     60  H   UNL A   1      33.354  30.122  25.634  1.00  0.00     0.027 H 
ATOM     61  H   UNL A   1      33.071  30.566  27.355  1.00  0.00     0.027 H 
BRANCH  59  62
ATOM     62  C   UNL A   1      31.403  30.799  26.116  1.00  0.00    -0.052 C 
ATOM     63  H   UNL A   1      30.597  30.289  26.600  1.00  0.00     0.027 H 
ATOM     64  H   UNL A   1      31.361  30.782  25.047  1.00  0.00     0.027 H 
BRANCH  62  65
ATOM     65  C   UNL A   1      31.317  32.278  26.501  1.00  0.00    -0.036 C 
ATOM     66  H   UNL A   1      30.525  32.386  27.213  1.00  0.00     0.028 H 
ATOM     67  H   UNL A   1      31.156  32.807  25.585  1.00  0.00     0.028 H 
BRANCH  65  68
ATOM     68  C   UNL A   1      32.577  32.883  27.111  1.00  0.00     0.018 C 
ATOM     69  H   UNL A   1      33.336  32.925  26.358  1.00  0.00     0.049 H 
ATOM     70  H   UNL A   1      32.867  32.264  27.933  1.00  0.00     0.049 H 
BRANCH  68  71
ATOM     71  N   UNL A   1      32.362  34.223  27.628  1.00  0.00    -0.352 N 
ATOM     72  C   UNL A   1      32.983  34.893  28.651  1.00  0.00     0.251 C 
ATOM     73  H   UNL A   1      31.657  34.734  27.169  1.00  0.00     0.163 HD
ATOM     74  O   UNL A   1      32.542  35.980  29.018  1.00  0.00    -0.269 OA
BRANCH  72  75
ATOM     75  C   UNL A   1      34.163  34.320  29.338  1.00  0.00     0.039 A 
ATOM     76  C   UNL A   1      33.955  33.568  30.499  1.00  0.00    -0.049 A 
ATOM     77  C   UNL A   1      35.465  34.550  28.887  1.00  0.00    -0.049 A 
ATOM     78  C   UNL A   1      35.042  33.005  31.174  1.00  0.00    -0.053 A 
ATOM     79  H   UNL A   1      32.997  33.429  30.860  1.00  0.00     0.063 H 
ATOM     80  C   UNL A   1      36.543  33.930  29.519  1.00  0.00    -0.053 A 
ATOM     81  H   UNL A   1      35.629  35.178  28.085  1.00  0.00     0.063 H 
ATOM     82  C   UNL A   1      36.343  33.156  30.673  1.00  0.00    -0.014 A 
ATOM     83  H   UNL A   1      34.886  32.474  32.046  1.00  0.00     0.063 H 
ATOM     84  H   UNL A   1      37.495  34.041  29.136  1.00  0.00     0.063 H 
BRANCH  82  85
ATOM     85  C   UNL A   1      37.504  32.518  31.345  1.00  0.00     0.031 A 
ATOM     86  C   UNL A   1      38.224  31.371  30.695  1.00  0.00     0.074 A 
ATOM     87  C   UNL A   1      37.868  32.928  32.576  1.00  0.00     0.049 A 
ATOM     88  N   UNL A   1      39.212  30.643  31.155  1.00  0.00    -0.248 NA
ATOM     89  C   UNL A   1      37.753  30.966  29.361  1.00  0.00    -0.034 C 
ATOM     90  C   UNL A   1      37.216  33.993  33.338  1.00  0.00    -0.036 A 
ATOM     91  N   UNL A   1      38.866  32.486  33.409  1.00  0.00    -0.354 N 
ATOM     92  C   UNL A   1      39.463  29.685  30.182  1.00  0.00     0.074 A 
ATOM     93  C   UNL A   1      38.496  29.895  29.125  1.00  0.00    -0.034 C 
ATOM     94  H   UNL A   1      37.032  31.403  28.766  1.00  0.00     0.065 H 
ATOM     95  C   UNL A   1      37.836  34.131  34.520  1.00  0.00    -0.036 A 
ATOM     96  H   UNL A   1      36.409  34.550  33.017  1.00  0.00     0.065 H 
ATOM     97  C   UNL A   1      38.908  33.143  34.614  1.00  0.00     0.049 A 
ATOM     98  H   UNL A   1      39.491  31.765  33.166  1.00  0.00     0.167 HD
ATOM     99  C   UNL A   1      40.423  28.730  30.163  1.00  0.00     0.037 A 
ATOM    100  H   UNL A   1      38.399  29.289  28.295  1.00  0.00     0.065 H 
ATOM    101  H   UNL A   1      37.595  34.823  35.246  1.00  0.00     0.065 H 
ATOM    102  C   UNL A   1      39.714  32.966  35.677  1.00  0.00     0.037 A 
ATOM    103  C   UNL A   1      41.407  28.547  31.198  1.00  0.00     0.049 A 
ATOM    104  C   UNL A   1      40.790  31.917  35.622  1.00  0.00     0.074 A 
ATOM    105  C   UNL A   1      42.474  27.668  31.228  1.00  0.00    -0.036 A 
ATOM    106  N   UNL A   1      41.440  29.258  32.390  1.00  0.00    -0.354 N 
ATOM    107  N   UNL A   1      41.069  31.071  34.661  1.00  0.00    -0.248 NA
ATOM    108  C   UNL A   1      41.668  31.805  36.795  1.00  0.00    -0.034 C 
ATOM    109  C   UNL A   1      43.127  27.812  32.458  1.00  0.00    -0.036 A 
ATOM    110  H   UNL A   1      42.744  27.017  30.474  1.00  0.00     0.065 H 
ATOM    111  C   UNL A   1      42.494  28.817  33.173  1.00  0.00     0.049 A 
ATOM    112  H   UNL A   1      40.808  29.968  32.641  1.00  0.00     0.167 HD
ATOM    113  C   UNL A   1      42.165  30.341  35.102  1.00  0.00     0.074 A 
ATOM    114  C   UNL A   1      42.509  30.855  36.411  1.00  0.00    -0.034 C 
ATOM    115  H   UNL A   1      41.639  32.329  37.684  1.00  0.00     0.065 H 
ATOM    116  H   UNL A   1      43.941  27.265  32.777  1.00  0.00     0.065 H 
ATOM    117  C   UNL A   1      42.825  29.336  34.476  1.00  0.00     0.037 A 
ATOM    118  H   UNL A   1      43.308  30.523  36.974  1.00  0.00     0.065 H 
BRANCH  99 119
ATOM    119  C   UNL A   1      40.455  27.803  28.982  1.00  0.00     0.064 A 
ATOM    120  C   UNL A   1      41.263  28.058  27.864  1.00  0.00     0.173 A 
ATOM    121  C   UNL A   1      39.687  26.628  28.982  1.00  0.00     0.173 A 
ATOM    122  F   UNL A   1      42.010  29.171  27.811  1.00  0.00    -0.203 F 
ATOM    123  C   UNL A   1      41.275  27.190  26.775  1.00  0.00     0.198 A 
ATOM    124  C   UNL A   1      39.725  25.747  27.903  1.00  0.00     0.198 A 
ATOM    125  F   UNL A   1      38.903  26.332  30.028  1.00  0.00    -0.203 F 
ATOM    126  F   UNL A   1      42.015  27.482  25.696  1.00  0.00    -0.200 F 
ATOM    127  C   UNL A   1      40.512  26.032  26.798  1.00  0.00     0.200 A 
ATOM    128  F   UNL A   1      38.997  24.623  27.932  1.00  0.00    -0.200 F 
ATOM    129  F   UNL A   1      40.527  25.197  25.750  1.00  0.00    -0.200 F 
ENDBRANCH  99 119
BRANCH 102 130
ATOM    130  C   UNL A   1      39.544  33.824  36.878  1.00  0.00     0.064 A 
ATOM    131  C   UNL A   1      40.151  35.084  36.955  1.00  0.00     0.173 A 
ATOM    132  C   UNL A   1      38.754  33.411  37.961  1.00  0.00     0.173 A 
ATOM    133  F   UNL A   1      40.930  35.514  35.952  1.00  0.00    -0.203 F 
ATOM    134  C   UNL A   1      39.985  35.895  38.075  1.00  0.00     0.198 A 
ATOM    135  C   UNL A   1      38.568  34.234  39.070  1.00  0.00     0.198 A 
ATOM    136  F   UNL A   1      38.146  32.216  37.932  1.00  0.00    -0.203 F 
ATOM    137  F   UNL A   1      40.605  37.082  38.139  1.00  0.00    -0.200 F 
ATOM    138  C   UNL A   1      39.188  35.472  39.129  1.00  0.00     0.200 A 
ATOM    139  F   UNL A   1      37.785  33.827  40.079  1.00  0.00    -0.200 F 
ATOM    140  F   UNL A   1      39.020  36.257  40.202  1.00  0.00    -0.200 F 
ENDBRANCH 102 130
BRANCH 117 141
ATOM    141  C   UNL A   1      44.002  28.737  35.190  1.00  0.00     0.064 A 
ATOM    142  C   UNL A   1      45.297  29.248  35.027  1.00  0.00     0.173 A 
ATOM    143  C   UNL A   1      43.823  27.668  36.080  1.00  0.00     0.173 A 
ATOM    144  F   UNL A   1      45.522  30.260  34.175  1.00  0.00    -0.203 F 
ATOM    145  C   UNL A   1      46.376  28.695  35.713  1.00  0.00     0.198 A 
ATOM    146  C   UNL A   1      44.900  27.135  36.785  1.00  0.00     0.198 A 
ATOM    147  F   UNL A   1      42.603  27.145  36.275  1.00  0.00    -0.203 F 
ATOM    148  F   UNL A   1      47.612  29.172  35.510  1.00  0.00    -0.200 F 
ATOM    149  C   UNL A   1      46.175  27.645  36.596  1.00  0.00     0.200 A 
ATOM    150  F   UNL A   1      44.702  26.128  37.647  1.00  0.00    -0.200 F 
ATOM    151  F   UNL A   1      47.213  27.120  37.261  1.00  0.00    -0.200 F 
ENDBRANCH 117 141
ENDBRANCH  82  85
ENDBRANCH  72  75
ENDBRANCH  68  71
ENDBRANCH  65  68
ENDBRANCH  62  65
ENDBRANCH  59  62
ENDBRANCH  56  59
ENDBRANCH   1  56
TORSDOF 23
ENDMDL
MODEL 2
REMARK VINA RESULT:     -11.6      1.296      2.333
REMARK SMILES CC(C)(C)OC(=O)N1CCC[C@H]1C(=O)N[C@@H](Cc1ccccc1)C(=O)NCCCCCCNC(=O)c1ccc(-c2c3nc(c(-c4c(F)c(F)c(F)c(F)c4F)c4ccc([nH]4)c(-c4c(F)c(F)c(F)c(F)c4F)c4nc(c(-c5c(F)c(F)c(F)c(F)c5F)c5ccc2[nH]5)C=C4)C=C3)cc1
REMARK SMILES IDX 27 1 26 4 24 5 25 6 16 8 15 10 13 11 14 12 12 14 8 15 9 16
REMARK SMILES IDX 10 17 11 20 6 26 7 27 5 28 2 29 1 30 3 34 4 38 17 42 18 45
REMARK SMILES IDX 19 46 23 47 20 48 22 50 21 52 28 56 29 59 30 62 31 65 32 68
REMARK SMILES IDX 33 71 34 72 35 74 36 75 37 76 98 77 38 78 97 80 39 82 40 85
REMARK SMILES IDX 41 86 91 87 42 88 96 89 90 90 92 91 43 92 95 93 89 95 88 97
REMARK SMILES IDX 44 99 76 102 56 103 75 104 57 105 60 106 74 107 93 108
REMARK SMILES IDX 58 109 59 111 73 113 94 114 61 117 45 119 46 120 54 121
REMARK SMILES IDX 47 122 48 123 52 124 55 125 49 126 50 127 53 128 51 129
REMARK SMILES IDX 77 130 78 131 86 132 79 133 80 134 84 135 87 136 81 137
REMARK SMILES IDX 82 138 85 139 83 140 62 141 63 142 71 143 64 144 65 145
REMARK SMILES IDX 69 146 72 147 66 148 67 149 70 150 68 151
REMARK H PARENT 27 2 27 3 26 7 16 9 15 13 9 18 9 19 12 21 10 22 10 23 11 24
REMARK H PARENT 11 25 1 31 1 32 1 33 3 35 3 36 3 37 4 39 4 40 4 41 17 43 17 44
REMARK H PARENT 19 49 23 51 20 53 22 54 21 55 28 57 28 58 29 60 29 61 30 63
REMARK H PARENT 30 64 31 66 31 67 32 69 32 70 33 73 37 79 98 81 38 83 97 84
REMARK H PARENT 96 94 90 96 92 98 95 100 89 101 57 110 60 112 93 115 58 116
REMARK H PARENT 94 118
REMARK Flexibility Score: inf
ROOT
ATOM      1  C   UNL A   1      32.529  26.796  26.353  1.00  0.00     0.017 C 
ATOM      2  H   UNL A   1      33.133  26.178  25.723  1.00  0.00     0.049 H 
ATOM      3  H   UNL A   1      33.043  27.117  27.235  1.00  0.00     0.049 H 
ENDROOT
BRANCH   1   4
ATOM      4  N   UNL A   1      31.391  26.022  26.792  1.00  0.00    -0.354 N 
ATOM      5  C   UNL A   1      30.492  25.309  26.058  1.00  0.00     0.242 C 
ATOM      6  O   UNL A   1      29.874  24.414  26.652  1.00  0.00    -0.273 OA
ATOM      7  H   UNL A   1      31.245  26.008  27.765  1.00  0.00     0.163 HD
BRANCH   5   8
ATOM      8  C   UNL A   1      30.298  25.479  24.532  1.00  0.00     0.112 C 
ATOM      9  H   UNL A   1      31.159  26.044  24.244  1.00  0.00     0.064 H 
BRANCH   8  10
ATOM     10  N   UNL A   1      30.410  24.249  23.740  1.00  0.00    -0.342 N 
ATOM     11  C   UNL A   1      31.454  23.371  23.634  1.00  0.00     0.243 C 
ATOM     12  O   UNL A   1      31.321  22.425  22.856  1.00  0.00    -0.273 OA
ATOM     13  H   UNL A   1      29.615  24.020  23.206  1.00  0.00     0.164 HD
BRANCH  11  14
ATOM     14  C   UNL A   1      32.767  23.673  24.380  1.00  0.00     0.114 C 
ATOM     15  N   UNL A   1      33.600  22.494  24.571  1.00  0.00    -0.296 N 
ATOM     16  C   UNL A   1      34.823  22.566  23.803  1.00  0.00     0.025 C 
ATOM     17  C   UNL A   1      35.046  24.057  23.640  1.00  0.00    -0.033 C 
ATOM     18  H   UNL A   1      34.706  22.089  22.852  1.00  0.00     0.050 H 
ATOM     19  H   UNL A   1      35.645  22.067  24.275  1.00  0.00     0.050 H 
ATOM     20  C   UNL A   1      33.632  24.622  23.536  1.00  0.00    -0.022 C 
ATOM     21  H   UNL A   1      32.471  24.078  25.324  1.00  0.00     0.064 H 
ATOM     22  H   UNL A   1      35.607  24.265  22.754  1.00  0.00     0.029 H 
ATOM     23  H   UNL A   1      35.606  24.483  24.447  1.00  0.00     0.029 H 
ATOM     24  H   UNL A   1      33.303  24.627  22.519  1.00  0.00     0.029 H 
ATOM     25  H   UNL A   1      33.575  25.633  23.880  1.00  0.00     0.029 H 
BRANCH  15  26
ATOM     26  C   UNL A   1      33.262  21.533  25.490  1.00  0.00     0.410 C 
ATOM     27  O   UNL A   1      32.419  21.708  26.354  1.00  0.00    -0.224 OA
BRANCH  26  28
ATOM     28  O   UNL A   1      34.022  20.419  25.348  1.00  0.00    -0.444 OA
BRANCH  28  29
ATOM     29  C   UNL A   1      33.501  19.188  24.784  1.00  0.00     0.106 C 
BRANCH  29  30
ATOM     30  C   UNL A   1      32.713  18.538  25.932  1.00  0.00    -0.025 C 
ATOM     31  H   UNL A   1      33.215  18.724  26.859  1.00  0.00     0.027 H 
ATOM     32  H   UNL A   1      32.646  17.484  25.767  1.00  0.00     0.027 H 
ATOM     33  H   UNL A   1      31.729  18.957  25.971  1.00  0.00     0.027 H 
ENDBRANCH  29  30
BRANCH  29  34
ATOM     34  C   UNL A   1      34.680  18.292  24.403  1.00  0.00    -0.025 C 
ATOM     35  H   UNL A   1      34.736  18.208  23.338  1.00  0.00     0.027 H 
ATOM     36  H   UNL A   1      34.541  17.320  24.831  1.00  0.00     0.027 H 
ATOM     37  H   UNL A   1      35.587  18.718  24.776  1.00  0.00     0.027 H 
ENDBRANCH  29  34
BRANCH  29  38
ATOM     38  C   UNL A   1      32.541  19.380  23.602  1.00  0.00    -0.025 C 
ATOM     39  H   UNL A   1      31.877  18.544  23.541  1.00  0.00     0.027 H 
ATOM     40  H   UNL A   1      33.103  19.456  22.695  1.00  0.00     0.027 H 
ATOM     41  H   UNL A   1      31.974  20.276  23.745  1.00  0.00     0.027 H 
ENDBRANCH  29  38
ENDBRANCH  28  29
ENDBRANCH  26  28
ENDBRANCH  15  26
ENDBRANCH  11  14
ENDBRANCH   8  10
BRANCH   8  42
ATOM     42  C   UNL A   1      29.085  26.353  24.141  1.00  0.00     0.002 C 
ATOM     43  H   UNL A   1      28.596  26.645  25.047  1.00  0.00     0.034 H 
ATOM     44  H   UNL A   1      28.508  25.735  23.484  1.00  0.00     0.034 H 
BRANCH  42  45
ATOM     45  C   UNL A   1      29.348  27.610  23.347  1.00  0.00    -0.045 A 
ATOM     46  C   UNL A   1      30.627  27.857  22.825  1.00  0.00    -0.059 A 
ATOM     47  C   UNL A   1      28.333  28.550  23.117  1.00  0.00    -0.059 A 
ATOM     48  C   UNL A   1      30.896  29.041  22.134  1.00  0.00    -0.062 A 
ATOM     49  H   UNL A   1      31.376  27.159  22.953  1.00  0.00     0.063 H 
ATOM     50  C   UNL A   1      28.609  29.742  22.443  1.00  0.00    -0.062 A 
ATOM     51  H   UNL A   1      27.374  28.359  23.447  1.00  0.00     0.063 H 
ATOM     52  C   UNL A   1      29.891  29.989  21.956  1.00  0.00    -0.062 A 
ATOM     53  H   UNL A   1      31.840  29.213  21.754  1.00  0.00     0.062 H 
ATOM     54  H   UNL A   1      27.863  30.441  22.306  1.00  0.00     0.062 H 
ATOM     55  H   UNL A   1      30.096  30.873  21.464  1.00  0.00     0.062 H 
ENDBRANCH  42  45
ENDBRANCH   8  42
ENDBRANCH   5   8
ENDBRANCH   1   4
BRANCH   1  56
ATOM     56  C   UNL A   1      32.164  28.055  25.578  1.00  0.00    -0.036 C 
ATOM     57  H   UNL A   1      31.315  27.831  24.966  1.00  0.00     0.028 H 
ATOM     58  H   UNL A   1      33.036  28.323  25.018  1.00  0.00     0.028 H 
BRANCH  56  59
ATOM     59  C   UNL A   1      31.820  29.274  26.438  1.00  0.00    -0.052 C 
ATOM     60  H   UNL A   1      32.674  29.497  27.043  1.00  0.00     0.027 H 
ATOM     61  H   UNL A   1      30.946  28.996  26.988  1.00  0.00     0.027 H 
BRANCH  59  62
ATOM     62  C   UNL A   1      31.437  30.553  25.682  1.00  0.00    -0.052 C 
ATOM     63  H   UNL A   1      30.505  30.372  25.188  1.00  0.00     0.027 H 
ATOM     64  H   UNL A   1      32.258  30.749  25.025  1.00  0.00     0.027 H 
BRANCH  62  65
ATOM     65  C   UNL A   1      31.280  31.823  26.524  1.00  0.00    -0.036 C 
ATOM     66  H   UNL A   1      30.703  31.573  27.389  1.00  0.00     0.028 H 
ATOM     67  H   UNL A   1      30.815  32.541  25.881  1.00  0.00     0.028 H 
BRANCH  65  68
ATOM     68  C   UNL A   1      32.576  32.472  27.000  1.00  0.00     0.018 C 
ATOM     69  H   UNL A   1      33.271  32.485  26.187  1.00  0.00     0.049 H 
ATOM     70  H   UNL A   1      32.940  31.898  27.825  1.00  0.00     0.049 H 
BRANCH  68  71
ATOM     71  N   UNL A   1      32.382  33.834  27.466  1.00  0.00    -0.352 N 
ATOM     72  C   UNL A   1      33.035  34.542  28.441  1.00  0.00     0.251 C 
ATOM     73  H   UNL A   1      31.666  34.329  27.006  1.00  0.00     0.163 HD
ATOM     74  O   UNL A   1      32.610  35.645  28.775  1.00  0.00    -0.269 OA
BRANCH  72  75
ATOM     75  C   UNL A   1      34.231  33.991  29.118  1.00  0.00     0.039 A 
ATOM     76  C   UNL A   1      34.045  33.047  30.134  1.00  0.00    -0.049 A 
ATOM     77  C   UNL A   1      35.523  34.422  28.803  1.00  0.00    -0.049 A 
ATOM     78  C   UNL A   1      35.148  32.498  30.793  1.00  0.00    -0.053 A 
ATOM     79  H   UNL A   1      33.090  32.756  30.398  1.00  0.00     0.063 H 
ATOM     80  C   UNL A   1      36.626  33.823  29.411  1.00  0.00    -0.053 A 
ATOM     81  H   UNL A   1      35.660  35.183  28.120  1.00  0.00     0.063 H 
ATOM     82  C   UNL A   1      36.451  32.860  30.416  1.00  0.00    -0.014 A 
ATOM     83  H   UNL A   1      35.005  31.823  31.560  1.00  0.00     0.063 H 
ATOM     84  H   UNL A   1      37.580  34.091  29.119  1.00  0.00     0.063 H 
BRANCH  82  85
ATOM     85  C   UNL A   1      37.636  32.245  31.068  1.00  0.00     0.031 A 
ATOM     86  C   UNL A   1      38.413  31.165  30.370  1.00  0.00     0.074 A 
ATOM     87  C   UNL A   1      37.974  32.614  32.319  1.00  0.00     0.049 A 
ATOM     88  N   UNL A   1      39.431  30.464  30.803  1.00  0.00    -0.248 NA
ATOM     89  C   UNL A   1      37.969  30.802  29.015  1.00  0.00    -0.034 C 
ATOM     90  C   UNL A   1      37.269  33.611  33.124  1.00  0.00    -0.036 A 
ATOM     91  N   UNL A   1      38.987  32.180  33.138  1.00  0.00    -0.354 N 
ATOM     92  C   UNL A   1      39.732  29.565  29.788  1.00  0.00     0.074 A 
ATOM     93  C   UNL A   1      38.762  29.779  28.735  1.00  0.00    -0.034 C 
ATOM     94  H   UNL A   1      37.231  31.232  28.436  1.00  0.00     0.065 H 
ATOM     95  C   UNL A   1      37.875  33.721  34.317  1.00  0.00    -0.036 A 
ATOM     96  H   UNL A   1      36.438  34.144  32.824  1.00  0.00     0.065 H 
ATOM     97  C   UNL A   1      38.992  32.782  34.372  1.00  0.00     0.049 A 
ATOM     98  H   UNL A   1      39.647  31.501  32.866  1.00  0.00     0.167 HD
ATOM     99  C   UNL A   1      40.736  28.657  29.732  1.00  0.00     0.037 A 
ATOM    100  H   UNL A   1      38.698  29.209  27.877  1.00  0.00     0.065 H 
ATOM    101  H   UNL A   1      37.598  34.367  35.072  1.00  0.00     0.065 H 
ATOM    102  C   UNL A   1      39.800  32.592  35.433  1.00  0.00     0.037 A 
ATOM    103  C   UNL A   1      41.721  28.472  30.765  1.00  0.00     0.049 A 
ATOM    104  C   UNL A   1      40.923  31.599  35.337  1.00  0.00     0.074 A 
ATOM    105  C   UNL A   1      42.829  27.643  30.762  1.00  0.00    -0.036 A 
ATOM    106  N   UNL A   1      41.715  29.127  31.989  1.00  0.00    -0.354 N 
ATOM    107  N   UNL A   1      41.247  30.813  34.340  1.00  0.00    -0.248 NA
ATOM    108  C   UNL A   1      41.799  31.472  36.510  1.00  0.00    -0.034 C 
ATOM    109  C   UNL A   1      43.468  27.760  32.002  1.00  0.00    -0.036 A 
ATOM    110  H   UNL A   1      43.132  27.042  29.981  1.00  0.00     0.065 H 
ATOM    111  C   UNL A   1      42.784  28.699  32.759  1.00  0.00     0.049 A 
ATOM    112  H   UNL A   1      41.049  29.795  32.268  1.00  0.00     0.167 HD
ATOM    113  C   UNL A   1      42.373  30.114  34.755  1.00  0.00     0.074 A 
ATOM    114  C   UNL A   1      42.686  30.582  36.089  1.00  0.00    -0.034 C 
ATOM    115  H   UNL A   1      41.741  31.952  37.422  1.00  0.00     0.065 H 
ATOM    116  H   UNL A   1      44.304  27.237  32.302  1.00  0.00     0.065 H 
ATOM    117  C   UNL A   1      43.084  29.171  34.087  1.00  0.00     0.037 A 
ATOM    118  H   UNL A   1      43.497  30.261  36.642  1.00  0.00     0.065 H 
BRANCH  99 119
ATOM    119  C   UNL A   1      40.818  27.789  28.510  1.00  0.00     0.064 A 
ATOM    120  C   UNL A   1      40.117  26.577  28.415  1.00  0.00     0.173 A 
ATOM    121  C   UNL A   1      41.588  28.189  27.406  1.00  0.00     0.173 A 
ATOM    122  F   UNL A   1      39.374  26.145  29.446  1.00  0.00    -0.203 F 
ATOM    123  C   UNL A   1      40.211  25.781  27.276  1.00  0.00     0.198 A 
ATOM    124  C   UNL A   1      41.655  27.405  26.257  1.00  0.00     0.198 A 
ATOM    125  F   UNL A   1      42.272  29.341  27.441  1.00  0.00    -0.203 F 
ATOM    126  F   UNL A   1      39.574  24.603  27.230  1.00  0.00    -0.200 F 
ATOM    127  C   UNL A   1      40.974  26.199  26.196  1.00  0.00     0.200 A 
ATOM    128  F   UNL A   1      42.382  27.815  25.209  1.00  0.00    -0.200 F 
ATOM    129  F   UNL A   1      41.060  25.433  25.099  1.00  0.00    -0.200 F 
ENDBRANCH  99 119
BRANCH 102 130
ATOM    130  C   UNL A   1      39.582  33.384  36.670  1.00  0.00     0.064 A 
ATOM    131  C   UNL A   1      40.215  34.620  36.856  1.00  0.00     0.173 A 
ATOM    132  C   UNL A   1      38.722  32.932  37.682  1.00  0.00     0.173 A 
ATOM    133  F   UNL A   1      41.061  35.085  35.925  1.00  0.00    -0.203 F 
ATOM    134  C   UNL A   1      40.006  35.370  38.011  1.00  0.00     0.198 A 
ATOM    135  C   UNL A   1      38.494  33.694  38.826  1.00  0.00     0.198 A 
ATOM    136  F   UNL A   1      38.087  31.758  37.548  1.00  0.00    -0.203 F 
ATOM    137  F   UNL A   1      40.651  36.532  38.179  1.00  0.00    -0.200 F 
ATOM    138  C   UNL A   1      39.141  34.909  38.992  1.00  0.00     0.200 A 
ATOM    139  F   UNL A   1      37.645  33.252  39.764  1.00  0.00    -0.200 F 
ATOM    140  F   UNL A   1      38.932  35.635  40.099  1.00  0.00    -0.200 F 
ENDBRANCH 102 130
BRANCH 117 141
ATOM    141  C   UNL A   1      44.283  28.595  34.782  1.00  0.00     0.064 A 
ATOM    142  C   UNL A   1      45.544  29.202  34.694  1.00  0.00     0.173 A 
ATOM    143  C   UNL A   1      44.159  27.447  35.577  1.00  0.00     0.173 A 
ATOM    144  F   UNL A   1      45.716  30.294  33.933  1.00  0.00    -0.203 F 
ATOM    145  C   UNL A   1      46.643  28.667  35.362  1.00  0.00     0.198 A 
ATOM    146  C   UNL A   1      45.254  26.930  36.265  1.00  0.00     0.198 A 
ATOM    147  F   UNL A   1      42.973  26.830  35.697  1.00  0.00    -0.203 F 
ATOM    148  F   UNL A   1      47.848  29.240  35.231  1.00  0.00    -0.200 F 
ATOM    149  C   UNL A   1      46.495  27.538  36.152  1.00  0.00     0.200 A 
ATOM    150  F   UNL A   1      45.107  25.845  37.038  1.00  0.00    -0.200 F 
ATOM    151  F   UNL A   1      47.553  27.029  36.800  1.00  0.00    -0.200 F 
ENDBRANCH 117 141
ENDBRANCH  82  85
ENDBRANCH  72  75
ENDBRANCH  68  71
ENDBRANCH  65  68
ENDBRANCH  62  65
ENDBRANCH  59  62
ENDBRANCH  56  59
ENDBRANCH   1  56
TORSDOF 23
ENDMDL
MODEL 3
REMARK VINA RESULT:     -11.6      1.246      2.452
REMARK SMILES CC(C)(C)OC(=O)N1CCC[C@H]1C(=O)N[C@@H](Cc1ccccc1)C(=O)NCCCCCCNC(=O)c1ccc(-c2c3nc(c(-c4c(F)c(F)c(F)c(F)c4F)c4ccc([nH]4)c(-c4c(F)c(F)c(F)c(F)c4F)c4nc(c(-c5c(F)c(F)c(F)c(F)c5F)c5ccc2[nH]5)C=C4)C=C3)cc1
REMARK SMILES IDX 27 1 26 4 24 5 25 6 16 8 15 10 13 11 14 12 12 14 8 15 9 16
REMARK SMILES IDX 10 17 11 20 6 26 7 27 5 28 2 29 1 30 3 34 4 38 17 42 18 45
REMARK SMILES IDX 19 46 23 47 20 48 22 50 21 52 28 56 29 59 30 62 31 65 32 68
REMARK SMILES IDX 33 71 34 72 35 74 36 75 37 76 98 77 38 78 97 80 39 82 40 85
REMARK SMILES IDX 41 86 91 87 42 88 96 89 90 90 92 91 43 92 95 93 89 95 88 97
REMARK SMILES IDX 44 99 76 102 56 103 75 104 57 105 60 106 74 107 93 108
REMARK SMILES IDX 58 109 59 111 73 113 94 114 61 117 45 119 46 120 54 121
REMARK SMILES IDX 47 122 48 123 52 124 55 125 49 126 50 127 53 128 51 129
REMARK SMILES IDX 77 130 78 131 86 132 79 133 80 134 84 135 87 136 81 137
REMARK SMILES IDX 82 138 85 139 83 140 62 141 63 142 71 143 64 144 65 145
REMARK SMILES IDX 69 146 72 147 66 148 67 149 70 150 68 151
REMARK H PARENT 27 2 27 3 26 7 16 9 15 13 9 18 9 19 12 21 10 22 10 23 11 24
REMARK H PARENT 11 25 1 31 1 32 1 33 3 35 3 36 3 37 4 39 4 40 4 41 17 43 17 44
REMARK H PARENT 19 49 23 51 20 53 22 54 21 55 28 57 28 58 29 60 29 61 30 63
REMARK H PARENT 30 64 31 66 31 67 32 69 32 70 33 73 37 79 98 81 38 83 97 84
REMARK H PARENT 96 94 90 96 92 98 95 100 89 101 57 110 60 112 93 115 58 116
REMARK H PARENT 94 118
REMARK Flexibility Score: inf
ROOT
ATOM      1  C   UNL A   1      31.626  27.337  26.521  1.00  0.00     0.017 C 
ATOM      2  H   UNL A   1      31.568  26.471  27.146  1.00  0.00     0.049 H 
ATOM      3  H   UNL A   1      30.837  27.381  25.800  1.00  0.00     0.049 H 
ENDROOT
BRANCH   1   4
ATOM      4  N   UNL A   1      32.865  27.277  25.779  1.00  0.00    -0.354 N 
ATOM      5  C   UNL A   1      33.189  26.526  24.690  1.00  0.00     0.242 C 
ATOM      6  O   UNL A   1      34.128  26.934  23.993  1.00  0.00    -0.273 OA
ATOM      7  H   UNL A   1      33.580  27.867  26.111  1.00  0.00     0.163 HD
BRANCH   5   8
ATOM      8  C   UNL A   1      32.383  25.288  24.227  1.00  0.00     0.112 C 
ATOM      9  H   UNL A   1      33.146  24.626  23.876  1.00  0.00     0.064 H 
BRANCH   8  10
ATOM     10  N   UNL A   1      31.728  24.526  25.296  1.00  0.00    -0.342 N 
ATOM     11  C   UNL A   1      31.924  23.231  25.691  1.00  0.00     0.243 C 
ATOM     12  O   UNL A   1      31.206  22.800  26.595  1.00  0.00    -0.273 OA
ATOM     13  H   UNL A   1      31.047  25.020  25.806  1.00  0.00     0.164 HD
BRANCH  11  14
ATOM     14  C   UNL A   1      32.922  22.352  24.915  1.00  0.00     0.114 C 
ATOM     15  N   UNL A   1      33.622  21.396  25.761  1.00  0.00    -0.296 N 
ATOM     16  C   UNL A   1      33.245  20.032  25.462  1.00  0.00     0.025 C 
ATOM     17  C   UNL A   1      32.802  20.102  24.013  1.00  0.00    -0.033 C 
ATOM     18  H   UNL A   1      32.443  19.709  26.093  1.00  0.00     0.050 H 
ATOM     19  H   UNL A   1      34.038  19.333  25.625  1.00  0.00     0.050 H 
ATOM     20  C   UNL A   1      32.163  21.483  23.900  1.00  0.00    -0.022 C 
ATOM     21  H   UNL A   1      33.615  23.034  24.470  1.00  0.00     0.064 H 
ATOM     22  H   UNL A   1      32.092  19.334  23.793  1.00  0.00     0.029 H 
ATOM     23  H   UNL A   1      33.609  19.960  23.325  1.00  0.00     0.029 H 
ATOM     24  H   UNL A   1      31.123  21.438  24.146  1.00  0.00     0.029 H 
ATOM     25  H   UNL A   1      32.224  21.876  22.907  1.00  0.00     0.029 H 
BRANCH  15  26
ATOM     26  C   UNL A   1      34.606  21.806  26.624  1.00  0.00     0.410 C 
ATOM     27  O   UNL A   1      34.370  22.372  27.679  1.00  0.00    -0.224 OA
BRANCH  26  28
ATOM     28  O   UNL A   1      35.842  21.561  26.123  1.00  0.00    -0.444 OA
BRANCH  28  29
ATOM     29  C   UNL A   1      36.572  22.541  25.340  1.00  0.00     0.106 C 
BRANCH  29  30
ATOM     30  C   UNL A   1      38.041  22.345  25.745  1.00  0.00    -0.025 C 
ATOM     31  H   UNL A   1      38.634  23.134  25.329  1.00  0.00     0.027 H 
ATOM     32  H   UNL A   1      38.390  21.404  25.378  1.00  0.00     0.027 H 
ATOM     33  H   UNL A   1      38.122  22.365  26.812  1.00  0.00     0.027 H 
ENDBRANCH  29  30
BRANCH  29  34
ATOM     34  C   UNL A   1      36.108  23.937  25.756  1.00  0.00    -0.025 C 
ATOM     35  H   UNL A   1      36.877  24.649  25.537  1.00  0.00     0.027 H 
ATOM     36  H   UNL A   1      35.902  23.946  26.806  1.00  0.00     0.027 H 
ATOM     37  H   UNL A   1      35.221  24.194  25.217  1.00  0.00     0.027 H 
ENDBRANCH  29  34
BRANCH  29  38
ATOM     38  C   UNL A   1      36.472  22.349  23.820  1.00  0.00    -0.025 C 
ATOM     39  H   UNL A   1      36.148  23.261  23.365  1.00  0.00     0.027 H 
ATOM     40  H   UNL A   1      35.768  21.573  23.604  1.00  0.00     0.027 H 
ATOM     41  H   UNL A   1      37.432  22.078  23.431  1.00  0.00     0.027 H 
ENDBRANCH  29  38
ENDBRANCH  28  29
ENDBRANCH  26  28
ENDBRANCH  15  26
ENDBRANCH  11  14
ENDBRANCH   8  10
BRANCH   8  42
ATOM     42  C   UNL A   1      31.470  25.546  23.008  1.00  0.00     0.002 C 
ATOM     43  H   UNL A   1      30.823  24.699  22.909  1.00  0.00     0.034 H 
ATOM     44  H   UNL A   1      32.146  25.708  22.194  1.00  0.00     0.034 H 
BRANCH  42  45
ATOM     45  C   UNL A   1      30.598  26.779  23.028  1.00  0.00    -0.045 A 
ATOM     46  C   UNL A   1      29.310  26.720  23.581  1.00  0.00    -0.059 A 
ATOM     47  C   UNL A   1      31.049  27.996  22.498  1.00  0.00    -0.059 A 
ATOM     48  C   UNL A   1      28.475  27.840  23.558  1.00  0.00    -0.062 A 
ATOM     49  H   UNL A   1      28.975  25.842  24.009  1.00  0.00     0.063 H 
ATOM     50  C   UNL A   1      30.206  29.109  22.458  1.00  0.00    -0.062 A 
ATOM     51  H   UNL A   1      32.013  28.072  22.136  1.00  0.00     0.063 H 
ATOM     52  C   UNL A   1      28.918  29.029  22.984  1.00  0.00    -0.062 A 
ATOM     53  H   UNL A   1      27.530  27.786  23.968  1.00  0.00     0.062 H 
ATOM     54  H   UNL A   1      30.537  29.992  22.038  1.00  0.00     0.062 H 
ATOM     55  H   UNL A   1      28.293  29.850  22.948  1.00  0.00     0.062 H 
ENDBRANCH  42  45
ENDBRANCH   8  42
ENDBRANCH   5   8
ENDBRANCH   1   4
BRANCH   1  56
ATOM     56  C   UNL A   1      31.485  28.572  27.399  1.00  0.00    -0.036 C 
ATOM     57  H   UNL A   1      31.874  28.335  28.368  1.00  0.00     0.028 H 
ATOM     58  H   UNL A   1      30.443  28.815  27.406  1.00  0.00     0.028 H 
BRANCH  56  59
ATOM     59  C   UNL A   1      32.210  29.821  26.891  1.00  0.00    -0.052 C 
ATOM     60  H   UNL A   1      33.044  29.497  26.304  1.00  0.00     0.027 H 
ATOM     61  H   UNL A   1      32.472  30.373  27.769  1.00  0.00     0.027 H 
BRANCH  59  62
ATOM     62  C   UNL A   1      31.382  30.786  26.033  1.00  0.00    -0.052 C 
ATOM     63  H   UNL A   1      30.392  30.388  25.958  1.00  0.00     0.027 H 
ATOM     64  H   UNL A   1      31.905  30.856  25.102  1.00  0.00     0.027 H 
BRANCH  62  65
ATOM     65  C   UNL A   1      31.268  32.226  26.542  1.00  0.00    -0.036 C 
ATOM     66  H   UNL A   1      30.501  32.251  27.287  1.00  0.00     0.028 H 
ATOM     67  H   UNL A   1      31.057  32.822  25.678  1.00  0.00     0.028 H 
BRANCH  65  68
ATOM     68  C   UNL A   1      32.533  32.820  27.154  1.00  0.00     0.018 C 
ATOM     69  H   UNL A   1      33.306  32.814  26.415  1.00  0.00     0.049 H 
ATOM     70  H   UNL A   1      32.790  32.223  28.003  1.00  0.00     0.049 H 
BRANCH  68  71
ATOM     71  N   UNL A   1      32.344  34.183  27.618  1.00  0.00    -0.352 N 
ATOM     72  C   UNL A   1      32.987  34.884  28.606  1.00  0.00     0.251 C 
ATOM     73  H   UNL A   1      31.642  34.686  27.146  1.00  0.00     0.163 HD
ATOM     74  O   UNL A   1      32.567  35.991  28.934  1.00  0.00    -0.269 OA
BRANCH  72  75
ATOM     75  C   UNL A   1      34.165  34.320  29.304  1.00  0.00     0.039 A 
ATOM     76  C   UNL A   1      33.957  33.607  30.490  1.00  0.00    -0.049 A 
ATOM     77  C   UNL A   1      35.466  34.522  28.837  1.00  0.00    -0.049 A 
ATOM     78  C   UNL A   1      35.042  33.054  31.175  1.00  0.00    -0.053 A 
ATOM     79  H   UNL A   1      33.001  33.490  30.860  1.00  0.00     0.063 H 
ATOM     80  C   UNL A   1      36.542  33.911  29.482  1.00  0.00    -0.053 A 
ATOM     81  H   UNL A   1      35.631  35.123  28.015  1.00  0.00     0.063 H 
ATOM     82  C   UNL A   1      36.342  33.176  30.661  1.00  0.00    -0.014 A 
ATOM     83  H   UNL A   1      34.887  32.552  32.064  1.00  0.00     0.063 H 
ATOM     84  H   UNL A   1      37.492  34.000  29.089  1.00  0.00     0.063 H 
BRANCH  82  85
ATOM     85  C   UNL A   1      37.501  32.547  31.346  1.00  0.00     0.031 A 
ATOM     86  C   UNL A   1      38.213  31.381  30.721  1.00  0.00     0.074 A 
ATOM     87  C   UNL A   1      37.870  32.984  32.566  1.00  0.00     0.049 A 
ATOM     88  N   UNL A   1      39.198  30.659  31.196  1.00  0.00    -0.248 NA
ATOM     89  C   UNL A   1      37.737  30.948  29.398  1.00  0.00    -0.034 C 
ATOM     90  C   UNL A   1      37.225  34.070  33.304  1.00  0.00    -0.036 A 
ATOM     91  N   UNL A   1      38.866  32.556  33.407  1.00  0.00    -0.354 N 
ATOM     92  C   UNL A   1      39.441  29.677  30.245  1.00  0.00     0.074 A 
ATOM     93  C   UNL A   1      38.473  29.867  29.185  1.00  0.00    -0.034 C 
ATOM     94  H   UNL A   1      37.017  31.375  28.794  1.00  0.00     0.065 H 
ATOM     95  C   UNL A   1      37.848  34.231  34.482  1.00  0.00    -0.036 A 
ATOM     96  H   UNL A   1      36.420  34.624  32.972  1.00  0.00     0.065 H 
ATOM     97  C   UNL A   1      38.915  33.240  34.596  1.00  0.00     0.049 A 
ATOM     98  H   UNL A   1      39.487  31.825  33.179  1.00  0.00     0.167 HD
ATOM     99  C   UNL A   1      40.396  28.716  30.247  1.00  0.00     0.037 A 
ATOM    100  H   UNL A   1      38.372  29.243  28.370  1.00  0.00     0.065 H 
ATOM    101  H   UNL A   1      37.613  34.942  35.192  1.00  0.00     0.065 H 
ATOM    102  C   UNL A   1      39.723  33.083  35.662  1.00  0.00     0.037 A 
ATOM    103  C   UNL A   1      41.381  28.552  31.284  1.00  0.00     0.049 A 
ATOM    104  C   UNL A   1      40.792  32.028  35.629  1.00  0.00     0.074 A 
ATOM    105  C   UNL A   1      42.444  27.667  31.332  1.00  0.00    -0.036 A 
ATOM    106  N   UNL A   1      41.420  29.290  32.458  1.00  0.00    -0.354 N 
ATOM    107  N   UNL A   1      41.065  31.158  34.688  1.00  0.00    -0.248 NA
ATOM    108  C   UNL A   1      41.672  31.938  36.803  1.00  0.00    -0.034 C 
ATOM    109  C   UNL A   1      43.100  27.837  32.557  1.00  0.00    -0.036 A 
ATOM    110  H   UNL A   1      42.708  26.998  30.593  1.00  0.00     0.065 H 
ATOM    111  C   UNL A   1      42.474  28.861  33.250  1.00  0.00     0.049 A 
ATOM    112  H   UNL A   1      40.793  30.010  32.694  1.00  0.00     0.167 HD
ATOM    113  C   UNL A   1      42.157  30.432  35.144  1.00  0.00     0.074 A 
ATOM    114  C   UNL A   1      42.507  30.975  36.440  1.00  0.00    -0.034 C 
ATOM    115  H   UNL A   1      41.647  32.483  37.679  1.00  0.00     0.065 H 
ATOM    116  H   UNL A   1      43.911  27.293  32.887  1.00  0.00     0.065 H 
ATOM    117  C   UNL A   1      42.811  29.409  34.540  1.00  0.00     0.037 A 
ATOM    118  H   UNL A   1      43.305  30.651  37.009  1.00  0.00     0.065 H 
BRANCH  99 119
ATOM    119  C   UNL A   1      40.421  27.761  29.088  1.00  0.00     0.064 A 
ATOM    120  C   UNL A   1      41.244  27.974  27.972  1.00  0.00     0.173 A 
ATOM    121  C   UNL A   1      39.629  26.602  29.106  1.00  0.00     0.173 A 
ATOM    122  F   UNL A   1      42.013  29.071  27.901  1.00  0.00    -0.203 F 
ATOM    123  C   UNL A   1      41.249  27.082  26.903  1.00  0.00     0.198 A 
ATOM    124  C   UNL A   1      39.659  25.696  28.049  1.00  0.00     0.198 A 
ATOM    125  F   UNL A   1      38.829  26.346  30.152  1.00  0.00    -0.203 F 
ATOM    126  F   UNL A   1      42.005  27.334  25.825  1.00  0.00    -0.200 F 
ATOM    127  C   UNL A   1      40.462  25.940  26.945  1.00  0.00     0.200 A 
ATOM    128  F   UNL A   1      38.908  24.588  28.097  1.00  0.00    -0.200 F 
ATOM    129  F   UNL A   1      40.470  25.081  25.917  1.00  0.00    -0.200 F 
ENDBRANCH  99 119
BRANCH 102 130
ATOM    130  C   UNL A   1      39.559  33.970  36.843  1.00  0.00     0.064 A 
ATOM    131  C   UNL A   1      38.791  33.569  37.944  1.00  0.00     0.173 A 
ATOM    132  C   UNL A   1      40.183  35.225  36.902  1.00  0.00     0.173 A 
ATOM    133  F   UNL A   1      38.161  32.386  37.925  1.00  0.00    -0.203 F 
ATOM    134  C   UNL A   1      38.643  34.394  39.057  1.00  0.00     0.198 A 
ATOM    135  C   UNL A   1      40.054  36.039  38.026  1.00  0.00     0.198 A 
ATOM    136  F   UNL A   1      40.934  35.651  35.876  1.00  0.00    -0.203 F 
ATOM    137  F   UNL A   1      37.876  34.002  40.082  1.00  0.00    -0.200 F 
ATOM    138  C   UNL A   1      39.281  35.625  39.099  1.00  0.00     0.200 A 
ATOM    139  F   UNL A   1      40.684  37.221  38.069  1.00  0.00    -0.200 F 
ATOM    140  F   UNL A   1      39.147  36.415  40.174  1.00  0.00    -0.200 F 
ENDBRANCH 102 130
BRANCH 117 141
ATOM    141  C   UNL A   1      43.985  28.820  35.265  1.00  0.00     0.064 A 
ATOM    142  C   UNL A   1      45.287  29.300  35.064  1.00  0.00     0.173 A 
ATOM    143  C   UNL A   1      43.799  27.794  36.203  1.00  0.00     0.173 A 
ATOM    144  F   UNL A   1      45.519  30.270  34.167  1.00  0.00    -0.203 F 
ATOM    145  C   UNL A   1      46.364  28.757  35.762  1.00  0.00     0.198 A 
ATOM    146  C   UNL A   1      44.875  27.273  36.918  1.00  0.00     0.198 A 
ATOM    147  F   UNL A   1      42.572  27.303  36.435  1.00  0.00    -0.203 F 
ATOM    148  F   UNL A   1      47.606  29.202  35.523  1.00  0.00    -0.200 F 
ATOM    149  C   UNL A   1      46.156  27.751  36.692  1.00  0.00     0.200 A 
ATOM    150  F   UNL A   1      44.670  26.308  37.826  1.00  0.00    -0.200 F 
ATOM    151  F   UNL A   1      47.193  27.236  37.367  1.00  0.00    -0.200 F 
ENDBRANCH 117 141
ENDBRANCH  82  85
ENDBRANCH  72  75
ENDBRANCH  68  71
ENDBRANCH  65  68
ENDBRANCH  62  65
ENDBRANCH  59  62
ENDBRANCH  56  59
ENDBRANCH   1  56
TORSDOF 23
ENDMDL
MODEL 4
REMARK VINA RESULT:     -11.4      1.132      2.550
REMARK SMILES CC(C)(C)OC(=O)N1CCC[C@H]1C(=O)N[C@@H](Cc1ccccc1)C(=O)NCCCCCCNC(=O)c1ccc(-c2c3nc(c(-c4c(F)c(F)c(F)c(F)c4F)c4ccc([nH]4)c(-c4c(F)c(F)c(F)c(F)c4F)c4nc(c(-c5c(F)c(F)c(F)c(F)c5F)c5ccc2[nH]5)C=C4)C=C3)cc1
REMARK SMILES IDX 27 1 26 4 24 5 25 6 16 8 15 10 13 11 14 12 12 14 8 15 9 16
REMARK SMILES IDX 10 17 11 20 6 26 7 27 5 28 2 29 1 30 3 34 4 38 17 42 18 45
REMARK SMILES IDX 19 46 23 47 20 48 22 50 21 52 28 56 29 59 30 62 31 65 32 68
REMARK SMILES IDX 33 71 34 72 35 74 36 75 37 76 98 77 38 78 97 80 39 82 40 85
REMARK SMILES IDX 41 86 91 87 42 88 96 89 90 90 92 91 43 92 95 93 89 95 88 97
REMARK SMILES IDX 44 99 76 102 56 103 75 104 57 105 60 106 74 107 93 108
REMARK SMILES IDX 58 109 59 111 73 113 94 114 61 117 45 119 46 120 54 121
REMARK SMILES IDX 47 122 48 123 52 124 55 125 49 126 50 127 53 128 51 129
REMARK SMILES IDX 77 130 78 131 86 132 79 133 80 134 84 135 87 136 81 137
REMARK SMILES IDX 82 138 85 139 83 140 62 141 63 142 71 143 64 144 65 145
REMARK SMILES IDX 69 146 72 147 66 148 67 149 70 150 68 151
REMARK H PARENT 27 2 27 3 26 7 16 9 15 13 9 18 9 19 12 21 10 22 10 23 11 24
REMARK H PARENT 11 25 1 31 1 32 1 33 3 35 3 36 3 37 4 39 4 40 4 41 17 43 17 44
REMARK H PARENT 19 49 23 51 20 53 22 54 21 55 28 57 28 58 29 60 29 61 30 63
REMARK H PARENT 30 64 31 66 31 67 32 69 32 70 33 73 37 79 98 81 38 83 97 84
REMARK H PARENT 96 94 90 96 92 98 95 100 89 101 57 110 60 112 93 115 58 116
REMARK H PARENT 94 118
REMARK Flexibility Score: inf
ROOT
ATOM      1  C   UNL A   1      31.794  27.447  26.469  1.00  0.00     0.017 C 
ATOM      2  H   UNL A   1      31.841  26.562  27.068  1.00  0.00     0.049 H 
ATOM      3  H   UNL A   1      30.955  27.454  25.806  1.00  0.00     0.049 H 
ENDROOT
BRANCH   1   4
ATOM      4  N   UNL A   1      32.978  27.499  25.644  1.00  0.00    -0.354 N 
ATOM      5  C   UNL A   1      33.226  26.903  24.443  1.00  0.00     0.242 C 
ATOM      6  O   UNL A   1      34.115  27.409  23.745  1.00  0.00    -0.273 OA
ATOM      7  H   UNL A   1      33.715  28.045  26.001  1.00  0.00     0.163 HD
BRANCH   5   8
ATOM      8  C   UNL A   1      32.390  25.731  23.875  1.00  0.00     0.112 C 
ATOM      9  H   UNL A   1      33.139  25.056  23.518  1.00  0.00     0.064 H 
BRANCH   8  10
ATOM     10  N   UNL A   1      31.656  24.939  24.870  1.00  0.00    -0.342 N 
ATOM     11  C   UNL A   1      31.744  23.606  25.161  1.00  0.00     0.243 C 
ATOM     12  O   UNL A   1      30.977  23.161  26.016  1.00  0.00    -0.273 OA
ATOM     13  H   UNL A   1      31.004  25.443  25.407  1.00  0.00     0.164 HD
BRANCH  11  14
ATOM     14  C   UNL A   1      32.688  22.716  24.331  1.00  0.00     0.114 C 
ATOM     15  N   UNL A   1      33.272  21.627  25.101  1.00  0.00    -0.296 N 
ATOM     16  C   UNL A   1      32.789  20.336  24.663  1.00  0.00     0.025 C 
ATOM     17  C   UNL A   1      32.405  20.580  23.217  1.00  0.00    -0.033 C 
ATOM     18  H   UNL A   1      31.941  20.030  25.239  1.00  0.00     0.050 H 
ATOM     19  H   UNL A   1      33.513  19.556  24.780  1.00  0.00     0.050 H 
ATOM     20  C   UNL A   1      31.892  22.017  23.219  1.00  0.00    -0.022 C 
ATOM     21  H   UNL A   1      33.453  23.371  23.973  1.00  0.00     0.064 H 
ATOM     22  H   UNL A   1      31.639  19.902  22.905  1.00  0.00     0.029 H 
ATOM     23  H   UNL A   1      33.220  20.430  22.540  1.00  0.00     0.029 H 
ATOM     24  H   UNL A   1      30.845  22.042  23.432  1.00  0.00     0.029 H 
ATOM     25  H   UNL A   1      32.022  22.493  22.270  1.00  0.00     0.029 H 
BRANCH  15  26
ATOM     26  C   UNL A   1      34.258  21.865  26.026  1.00  0.00     0.410 C 
ATOM     27  O   UNL A   1      34.215  21.437  27.167  1.00  0.00    -0.224 OA
BRANCH  26  28
ATOM     28  O   UNL A   1      35.223  22.676  25.527  1.00  0.00    -0.444 OA
BRANCH  28  29
ATOM     29  C   UNL A   1      36.466  22.162  24.982  1.00  0.00     0.106 C 
BRANCH  29  30
ATOM     30  C   UNL A   1      36.467  22.623  23.516  1.00  0.00    -0.025 C 
ATOM     31  H   UNL A   1      35.597  23.218  23.329  1.00  0.00     0.027 H 
ATOM     32  H   UNL A   1      36.461  21.769  22.873  1.00  0.00     0.027 H 
ATOM     33  H   UNL A   1      37.344  23.206  23.326  1.00  0.00     0.027 H 
ENDBRANCH  29  30
BRANCH  29  34
ATOM     34  C   UNL A   1      36.423  20.634  25.036  1.00  0.00    -0.025 C 
ATOM     35  H   UNL A   1      36.776  20.234  24.108  1.00  0.00     0.027 H 
ATOM     36  H   UNL A   1      35.416  20.311  25.204  1.00  0.00     0.027 H 
ATOM     37  H   UNL A   1      37.046  20.288  25.834  1.00  0.00     0.027 H 
ENDBRANCH  29  34
BRANCH  29  38
ATOM     38  C   UNL A   1      37.735  22.709  25.650  1.00  0.00    -0.025 C 
ATOM     39  H   UNL A   1      37.584  23.732  25.919  1.00  0.00     0.027 H 
ATOM     40  H   UNL A   1      38.556  22.637  24.968  1.00  0.00     0.027 H 
ATOM     41  H   UNL A   1      37.950  22.136  26.528  1.00  0.00     0.027 H 
ENDBRANCH  29  38
ENDBRANCH  28  29
ENDBRANCH  26  28
ENDBRANCH  15  26
ENDBRANCH  11  14
ENDBRANCH   8  10
BRANCH   8  42
ATOM     42  C   UNL A   1      31.544  26.098  22.636  1.00  0.00     0.002 C 
ATOM     43  H   UNL A   1      30.962  25.237  22.380  1.00  0.00     0.034 H 
ATOM     44  H   UNL A   1      32.260  26.406  21.903  1.00  0.00     0.034 H 
BRANCH  42  45
ATOM     45  C   UNL A   1      30.594  27.265  22.752  1.00  0.00    -0.045 A 
ATOM     46  C   UNL A   1      30.986  28.539  22.313  1.00  0.00    -0.059 A 
ATOM     47  C   UNL A   1      29.311  27.107  23.298  1.00  0.00    -0.059 A 
ATOM     48  C   UNL A   1      30.135  29.636  22.464  1.00  0.00    -0.062 A 
ATOM     49  H   UNL A   1      31.913  28.667  21.875  1.00  0.00     0.063 H 
ATOM     50  C   UNL A   1      28.470  28.209  23.466  1.00  0.00    -0.062 A 
ATOM     51  H   UNL A   1      28.986  26.168  23.577  1.00  0.00     0.063 H 
ATOM     52  C   UNL A   1      28.884  29.474  23.054  1.00  0.00    -0.062 A 
ATOM     53  H   UNL A   1      30.434  30.568  22.137  1.00  0.00     0.062 H 
ATOM     54  H   UNL A   1      27.541  28.087  23.897  1.00  0.00     0.062 H 
ATOM     55  H   UNL A   1      28.265  30.289  23.184  1.00  0.00     0.062 H 
ENDBRANCH  42  45
ENDBRANCH   8  42
ENDBRANCH   5   8
ENDBRANCH   1   4
BRANCH   1  56
ATOM     56  C   UNL A   1      31.628  28.643  27.396  1.00  0.00    -0.036 C 
ATOM     57  H   UNL A   1      32.081  28.399  28.335  1.00  0.00     0.028 H 
ATOM     58  H   UNL A   1      30.576  28.824  27.464  1.00  0.00     0.028 H 
BRANCH  56  59
ATOM     59  C   UNL A   1      32.252  29.949  26.896  1.00  0.00    -0.052 C 
ATOM     60  H   UNL A   1      33.106  29.695  26.302  1.00  0.00     0.027 H 
ATOM     61  H   UNL A   1      32.477  30.512  27.777  1.00  0.00     0.027 H 
BRANCH  59  62
ATOM     62  C   UNL A   1      31.349  30.855  26.050  1.00  0.00    -0.052 C 
ATOM     63  H   UNL A   1      30.354  30.464  26.105  1.00  0.00     0.027 H 
ATOM     64  H   UNL A   1      31.776  30.844  25.070  1.00  0.00     0.027 H 
BRANCH  62  65
ATOM     65  C   UNL A   1      31.293  32.331  26.452  1.00  0.00    -0.036 C 
ATOM     66  H   UNL A   1      30.443  32.466  27.087  1.00  0.00     0.028 H 
ATOM     67  H   UNL A   1      31.243  32.879  25.534  1.00  0.00     0.028 H 
BRANCH  65  68
ATOM     68  C   UNL A   1      32.516  32.869  27.188  1.00  0.00     0.018 C 
ATOM     69  H   UNL A   1      33.354  32.844  26.524  1.00  0.00     0.049 H 
ATOM     70  H   UNL A   1      32.672  32.252  28.047  1.00  0.00     0.049 H 
BRANCH  68  71
ATOM     71  N   UNL A   1      32.335  34.232  27.655  1.00  0.00    -0.352 N 
ATOM     72  C   UNL A   1      32.988  34.931  28.637  1.00  0.00     0.251 C 
ATOM     73  H   UNL A   1      31.628  34.737  27.190  1.00  0.00     0.163 HD
ATOM     74  O   UNL A   1      32.573  36.039  28.970  1.00  0.00    -0.269 OA
BRANCH  72  75
ATOM     75  C   UNL A   1      34.172  34.364  29.323  1.00  0.00     0.039 A 
ATOM     76  C   UNL A   1      33.979  33.679  30.527  1.00  0.00    -0.049 A 
ATOM     77  C   UNL A   1      35.467  34.539  28.826  1.00  0.00    -0.049 A 
ATOM     78  C   UNL A   1      35.070  33.124  31.201  1.00  0.00    -0.053 A 
ATOM     79  H   UNL A   1      33.029  33.583  30.919  1.00  0.00     0.063 H 
ATOM     80  C   UNL A   1      36.547  33.925  29.461  1.00  0.00    -0.053 A 
ATOM     81  H   UNL A   1      35.623  35.120  27.988  1.00  0.00     0.063 H 
ATOM     82  C   UNL A   1      36.361  33.217  30.659  1.00  0.00    -0.014 A 
ATOM     83  H   UNL A   1      34.926  32.644  32.103  1.00  0.00     0.063 H 
ATOM     84  H   UNL A   1      37.490  33.992  29.048  1.00  0.00     0.063 H 
BRANCH  82  85
ATOM     85  C   UNL A   1      37.524  32.586  31.333  1.00  0.00     0.031 A 
ATOM     86  C   UNL A   1      38.247  31.437  30.688  1.00  0.00     0.074 A 
ATOM     87  C   UNL A   1      37.889  33.004  32.561  1.00  0.00     0.049 A 
ATOM     88  N   UNL A   1      39.237  30.715  31.151  1.00  0.00    -0.248 NA
ATOM     89  C   UNL A   1      37.775  31.024  29.357  1.00  0.00    -0.034 C 
ATOM     90  C   UNL A   1      37.235  34.071  33.318  1.00  0.00    -0.036 A 
ATOM     91  N   UNL A   1      38.889  32.569  33.395  1.00  0.00    -0.354 N 
ATOM     92  C   UNL A   1      39.489  29.753  30.182  1.00  0.00     0.074 A 
ATOM     93  C   UNL A   1      38.521  29.954  29.125  1.00  0.00    -0.034 C 
ATOM     94  H   UNL A   1      37.052  31.456  28.761  1.00  0.00     0.065 H 
ATOM     95  C   UNL A   1      37.856  34.217  34.499  1.00  0.00    -0.036 A 
ATOM     96  H   UNL A   1      36.425  34.624  32.996  1.00  0.00     0.065 H 
ATOM     97  C   UNL A   1      38.931  33.233  34.596  1.00  0.00     0.049 A 
ATOM     98  H   UNL A   1      39.516  31.848  33.155  1.00  0.00     0.167 HD
ATOM     99  C   UNL A   1      40.452  28.800  30.167  1.00  0.00     0.037 A 
ATOM    100  H   UNL A   1      38.424  29.344  28.299  1.00  0.00     0.065 H 
ATOM    101  H   UNL A   1      37.614  34.912  35.222  1.00  0.00     0.065 H 
ATOM    102  C   UNL A   1      39.739  33.063  35.660  1.00  0.00     0.037 A 
ATOM    103  C   UNL A   1      41.438  28.625  31.202  1.00  0.00     0.049 A 
ATOM    104  C   UNL A   1      40.817  32.018  35.609  1.00  0.00     0.074 A 
ATOM    105  C   UNL A   1      42.508  27.749  31.235  1.00  0.00    -0.036 A 
ATOM    106  N   UNL A   1      41.471  29.342  32.390  1.00  0.00    -0.354 N 
ATOM    107  N   UNL A   1      41.098  31.167  34.652  1.00  0.00    -0.248 NA
ATOM    108  C   UNL A   1      41.697  31.914  36.781  1.00  0.00    -0.034 C 
ATOM    109  C   UNL A   1      43.162  27.902  32.463  1.00  0.00    -0.036 A 
ATOM    110  H   UNL A   1      42.778  27.095  30.485  1.00  0.00     0.065 H 
ATOM    111  C   UNL A   1      42.527  28.909  33.174  1.00  0.00     0.049 A 
ATOM    112  H   UNL A   1      40.837  30.053  32.638  1.00  0.00     0.167 HD
ATOM    113  C   UNL A   1      42.196  30.442  35.096  1.00  0.00     0.074 A 
ATOM    114  C   UNL A   1      42.541  30.965  36.402  1.00  0.00    -0.034 C 
ATOM    115  H   UNL A   1      41.667  32.443  37.667  1.00  0.00     0.065 H 
ATOM    116  H   UNL A   1      43.978  27.359  32.784  1.00  0.00     0.065 H 
ATOM    117  C   UNL A   1      42.859  29.436  34.474  1.00  0.00     0.037 A 
ATOM    118  H   UNL A   1      43.341  30.638  36.965  1.00  0.00     0.065 H 
BRANCH  99 119
ATOM    119  C   UNL A   1      40.486  27.867  28.991  1.00  0.00     0.064 A 
ATOM    120  C   UNL A   1      39.706  26.700  28.950  1.00  0.00     0.173 A 
ATOM    121  C   UNL A   1      41.289  28.157  27.878  1.00  0.00     0.173 A 
ATOM    122  F   UNL A   1      38.929  26.372  29.993  1.00  0.00    -0.203 F 
ATOM    123  C   UNL A   1      39.755  25.843  27.855  1.00  0.00     0.198 A 
ATOM    124  C   UNL A   1      41.312  27.313  26.770  1.00  0.00     0.198 A 
ATOM    125  F   UNL A   1      42.048  29.262  27.861  1.00  0.00    -0.203 F 
ATOM    126  F   UNL A   1      39.041  24.708  27.862  1.00  0.00    -0.200 F 
ATOM    127  C   UNL A   1      40.552  26.153  26.763  1.00  0.00     0.200 A 
ATOM    128  F   UNL A   1      42.073  27.620  25.711  1.00  0.00    -0.200 F 
ATOM    129  F   UNL A   1      40.596  25.328  25.707  1.00  0.00    -0.200 F 
ENDBRANCH  99 119
BRANCH 102 130
ATOM    130  C   UNL A   1      39.567  33.927  36.856  1.00  0.00     0.064 A 
ATOM    131  C   UNL A   1      40.153  35.198  36.917  1.00  0.00     0.173 A 
ATOM    132  C   UNL A   1      38.797  33.509  37.952  1.00  0.00     0.173 A 
ATOM    133  F   UNL A   1      40.914  35.633  35.902  1.00  0.00    -0.203 F 
ATOM    134  C   UNL A   1      39.987  36.015  38.033  1.00  0.00     0.198 A 
ATOM    135  C   UNL A   1      38.610  34.337  39.056  1.00  0.00     0.198 A 
ATOM    136  F   UNL A   1      38.209  32.303  37.938  1.00  0.00    -0.203 F 
ATOM    137  F   UNL A   1      40.587  37.212  38.081  1.00  0.00    -0.200 F 
ATOM    138  C   UNL A   1      39.210  35.586  39.099  1.00  0.00     0.200 A 
ATOM    139  F   UNL A   1      37.846  33.924  40.078  1.00  0.00    -0.200 F 
ATOM    140  F   UNL A   1      39.041  36.376  40.169  1.00  0.00    -0.200 F 
ENDBRANCH 102 130
BRANCH 117 141
ATOM    141  C   UNL A   1      44.038  28.844  35.190  1.00  0.00     0.064 A 
ATOM    142  C   UNL A   1      43.892  27.773  36.083  1.00  0.00     0.173 A 
ATOM    143  C   UNL A   1      45.331  29.326  34.946  1.00  0.00     0.173 A 
ATOM    144  F   UNL A   1      42.673  27.287  36.361  1.00  0.00    -0.203 F 
ATOM    145  C   UNL A   1      44.998  27.220  36.723  1.00  0.00     0.198 A 
ATOM    146  C   UNL A   1      46.438  28.753  35.567  1.00  0.00     0.198 A 
ATOM    147  F   UNL A   1      45.525  30.346  34.096  1.00  0.00    -0.203 F 
ATOM    148  F   UNL A   1      44.831  26.225  37.605  1.00  0.00    -0.200 F 
ATOM    149  C   UNL A   1      46.270  27.705  36.459  1.00  0.00     0.200 A 
ATOM    150  F   UNL A   1      47.668  29.215  35.301  1.00  0.00    -0.200 F 
ATOM    151  F   UNL A   1      47.334  27.166  37.070  1.00  0.00    -0.200 F 
ENDBRANCH 117 141
ENDBRANCH  82  85
ENDBRANCH  72  75
ENDBRANCH  68  71
ENDBRANCH  65  68
ENDBRANCH  62  65
ENDBRANCH  59  62
ENDBRANCH  56  59
ENDBRANCH   1  56
TORSDOF 23
ENDMDL
MODEL 5
REMARK VINA RESULT:     -11.4      5.341     10.955
REMARK SMILES CC(C)(C)OC(=O)N1CCC[C@H]1C(=O)N[C@@H](Cc1ccccc1)C(=O)NCCCCCCNC(=O)c1ccc(-c2c3nc(c(-c4c(F)c(F)c(F)c(F)c4F)c4ccc([nH]4)c(-c4c(F)c(F)c(F)c(F)c4F)c4nc(c(-c5c(F)c(F)c(F)c(F)c5F)c5ccc2[nH]5)C=C4)C=C3)cc1
REMARK SMILES IDX 27 1 26 4 24 5 25 6 16 8 15 10 13 11 14 12 12 14 8 15 9 16
REMARK SMILES IDX 10 17 11 20 6 26 7 27 5 28 2 29 1 30 3 34 4 38 17 42 18 45
REMARK SMILES IDX 19 46 23 47 20 48 22 50 21 52 28 56 29 59 30 62 31 65 32 68
REMARK SMILES IDX 33 71 34 72 35 74 36 75 37 76 98 77 38 78 97 80 39 82 40 85
REMARK SMILES IDX 41 86 91 87 42 88 96 89 90 90 92 91 43 92 95 93 89 95 88 97
REMARK SMILES IDX 44 99 76 102 56 103 75 104 57 105 60 106 74 107 93 108
REMARK SMILES IDX 58 109 59 111 73 113 94 114 61 117 45 119 46 120 54 121
REMARK SMILES IDX 47 122 48 123 52 124 55 125 49 126 50 127 53 128 51 129
REMARK SMILES IDX 77 130 78 131 86 132 79 133 80 134 84 135 87 136 81 137
REMARK SMILES IDX 82 138 85 139 83 140 62 141 63 142 71 143 64 144 65 145
REMARK SMILES IDX 69 146 72 147 66 148 67 149 70 150 68 151
REMARK H PARENT 27 2 27 3 26 7 16 9 15 13 9 18 9 19 12 21 10 22 10 23 11 24
REMARK H PARENT 11 25 1 31 1 32 1 33 3 35 3 36 3 37 4 39 4 40 4 41 17 43 17 44
REMARK H PARENT 19 49 23 51 20 53 22 54 21 55 28 57 28 58 29 60 29 61 30 63
REMARK H PARENT 30 64 31 66 31 67 32 69 32 70 33 73 37 79 98 81 38 83 97 84
REMARK H PARENT 96 94 90 96 92 98 95 100 89 101 57 110 60 112 93 115 58 116
REMARK H PARENT 94 118
REMARK Flexibility Score: inf
ROOT
ATOM      1  C   UNL A   1      34.479  22.521  25.417  1.00  0.00     0.017 C 
ATOM      2  H   UNL A   1      33.473  22.207  25.595  1.00  0.00     0.049 H 
ATOM      3  H   UNL A   1      34.716  23.446  25.900  1.00  0.00     0.049 H 
ENDROOT
BRANCH   1   4
ATOM      4  N   UNL A   1      34.643  22.738  23.998  1.00  0.00    -0.354 N 
ATOM      5  C   UNL A   1      33.711  22.722  23.005  1.00  0.00     0.242 C 
ATOM      6  O   UNL A   1      33.998  23.328  21.964  1.00  0.00    -0.273 OA
ATOM      7  H   UNL A   1      35.565  22.925  23.707  1.00  0.00     0.163 HD
BRANCH   5   8
ATOM      8  C   UNL A   1      32.301  22.101  23.157  1.00  0.00     0.112 C 
ATOM      9  H   UNL A   1      32.223  21.943  24.211  1.00  0.00     0.064 H 
BRANCH   8  10
ATOM     10  N   UNL A   1      31.180  23.001  22.858  1.00  0.00    -0.342 N 
ATOM     11  C   UNL A   1      30.708  24.071  23.565  1.00  0.00     0.243 C 
ATOM     12  O   UNL A   1      29.710  24.645  23.125  1.00  0.00    -0.273 OA
ATOM     13  H   UNL A   1      30.697  22.804  22.023  1.00  0.00     0.164 HD
BRANCH  11  14
ATOM     14  C   UNL A   1      31.355  24.423  24.917  1.00  0.00     0.114 C 
ATOM     15  N   UNL A   1      31.877  25.781  24.967  1.00  0.00    -0.296 N 
ATOM     16  C   UNL A   1      31.134  26.613  25.886  1.00  0.00     0.025 C 
ATOM     17  C   UNL A   1      30.564  25.616  26.877  1.00  0.00    -0.033 C 
ATOM     18  H   UNL A   1      30.352  27.140  25.379  1.00  0.00     0.050 H 
ATOM     19  H   UNL A   1      31.735  27.368  26.349  1.00  0.00     0.050 H 
ATOM     20  C   UNL A   1      30.290  24.380  26.024  1.00  0.00    -0.022 C 
ATOM     21  H   UNL A   1      32.145  23.714  25.047  1.00  0.00     0.064 H 
ATOM     22  H   UNL A   1      29.661  25.985  27.315  1.00  0.00     0.029 H 
ATOM     23  H   UNL A   1      31.225  25.419  27.694  1.00  0.00     0.029 H 
ATOM     24  H   UNL A   1      29.308  24.423  25.604  1.00  0.00     0.029 H 
ATOM     25  H   UNL A   1      30.338  23.477  26.595  1.00  0.00     0.029 H 
BRANCH  15  26
ATOM     26  C   UNL A   1      33.024  26.121  24.294  1.00  0.00     0.410 C 
ATOM     27  O   UNL A   1      34.138  25.823  24.690  1.00  0.00    -0.224 OA
BRANCH  26  28
ATOM     28  O   UNL A   1      32.754  26.870  23.196  1.00  0.00    -0.444 OA
BRANCH  28  29
ATOM     29  C   UNL A   1      33.001  28.299  23.149  1.00  0.00     0.106 C 
BRANCH  29  30
ATOM     30  C   UNL A   1      31.650  28.913  22.753  1.00  0.00    -0.025 C 
ATOM     31  H   UNL A   1      30.913  28.140  22.682  1.00  0.00     0.027 H 
ATOM     32  H   UNL A   1      31.745  29.404  21.807  1.00  0.00     0.027 H 
ATOM     33  H   UNL A   1      31.350  29.623  23.495  1.00  0.00     0.027 H 
ENDBRANCH  29  30
BRANCH  29  34
ATOM     34  C   UNL A   1      34.030  28.577  22.053  1.00  0.00    -0.025 C 
ATOM     35  H   UNL A   1      34.092  29.631  21.881  1.00  0.00     0.027 H 
ATOM     36  H   UNL A   1      33.730  28.085  21.150  1.00  0.00     0.027 H 
ATOM     37  H   UNL A   1      34.986  28.208  22.359  1.00  0.00     0.027 H 
ENDBRANCH  29  34
BRANCH  29  38
ATOM     38  C   UNL A   1      33.428  28.920  24.486  1.00  0.00    -0.025 C 
ATOM     39  H   UNL A   1      32.614  28.876  25.178  1.00  0.00     0.027 H 
ATOM     40  H   UNL A   1      33.709  29.941  24.331  1.00  0.00     0.027 H 
ATOM     41  H   UNL A   1      34.262  28.378  24.881  1.00  0.00     0.027 H 
ENDBRANCH  29  38
ENDBRANCH  28  29
ENDBRANCH  26  28
ENDBRANCH  15  26
ENDBRANCH  11  14
ENDBRANCH   8  10
BRANCH   8  42
ATOM     42  C   UNL A   1      32.153  20.702  22.520  1.00  0.00     0.002 C 
ATOM     43  H   UNL A   1      32.769  20.682  21.644  1.00  0.00     0.034 H 
ATOM     44  H   UNL A   1      31.103  20.594  22.347  1.00  0.00     0.034 H 
BRANCH  42  45
ATOM     45  C   UNL A   1      32.525  19.503  23.359  1.00  0.00    -0.045 A 
ATOM     46  C   UNL A   1      32.891  18.298  22.740  1.00  0.00    -0.059 A 
ATOM     47  C   UNL A   1      32.511  19.564  24.760  1.00  0.00    -0.059 A 
ATOM     48  C   UNL A   1      33.186  17.167  23.506  1.00  0.00    -0.062 A 
ATOM     49  H   UNL A   1      32.943  18.245  21.710  1.00  0.00     0.063 H 
ATOM     50  C   UNL A   1      32.786  18.427  25.523  1.00  0.00    -0.062 A 
ATOM     51  H   UNL A   1      32.296  20.456  25.231  1.00  0.00     0.063 H 
ATOM     52  C   UNL A   1      33.120  17.228  24.896  1.00  0.00    -0.062 A 
ATOM     53  H   UNL A   1      33.455  16.286  23.041  1.00  0.00     0.062 H 
ATOM     54  H   UNL A   1      32.743  18.474  26.553  1.00  0.00     0.062 H 
ATOM     55  H   UNL A   1      33.317  16.386  25.459  1.00  0.00     0.062 H 
ENDBRANCH  42  45
ENDBRANCH   8  42
ENDBRANCH   5   8
ENDBRANCH   1   4
BRANCH   1  56
ATOM     56  C   UNL A   1      35.417  21.472  25.999  1.00  0.00    -0.036 C 
ATOM     57  H   UNL A   1      34.894  20.956  26.777  1.00  0.00     0.028 H 
ATOM     58  H   UNL A   1      36.280  22.004  26.344  1.00  0.00     0.028 H 
BRANCH  56  59
ATOM     59  C   UNL A   1      35.931  20.430  25.002  1.00  0.00    -0.052 C 
ATOM     60  H   UNL A   1      35.345  20.517  24.110  1.00  0.00     0.027 H 
ATOM     61  H   UNL A   1      35.840  19.489  25.503  1.00  0.00     0.027 H 
BRANCH  59  62
ATOM     62  C   UNL A   1      37.408  20.540  24.603  1.00  0.00    -0.052 C 
ATOM     63  H   UNL A   1      37.803  21.423  25.060  1.00  0.00     0.027 H 
ATOM     64  H   UNL A   1      37.412  20.553  23.533  1.00  0.00     0.027 H 
BRANCH  62  65
ATOM     65  C   UNL A   1      38.311  19.367  24.996  1.00  0.00    -0.036 C 
ATOM     66  H   UNL A   1      38.881  19.091  24.134  1.00  0.00     0.028 H 
ATOM     67  H   UNL A   1      37.652  18.600  25.347  1.00  0.00     0.028 H 
BRANCH  65  68
ATOM     68  C   UNL A   1      39.287  19.629  26.137  1.00  0.00     0.018 C 
ATOM     69  H   UNL A   1      38.801  19.400  27.062  1.00  0.00     0.049 H 
ATOM     70  H   UNL A   1      39.577  20.656  26.084  1.00  0.00     0.049 H 
BRANCH  68  71
ATOM     71  N   UNL A   1      40.495  18.828  26.038  1.00  0.00    -0.352 N 
ATOM     72  C   UNL A   1      41.814  19.201  26.051  1.00  0.00     0.251 C 
ATOM     73  H   UNL A   1      40.341  17.860  25.946  1.00  0.00     0.163 HD
ATOM     74  O   UNL A   1      42.681  18.366  25.807  1.00  0.00    -0.269 OA
BRANCH  72  75
ATOM     75  C   UNL A   1      42.212  20.599  26.333  1.00  0.00     0.039 A 
ATOM     76  C   UNL A   1      42.332  21.000  27.668  1.00  0.00    -0.049 A 
ATOM     77  C   UNL A   1      42.421  21.528  25.310  1.00  0.00    -0.049 A 
ATOM     78  C   UNL A   1      42.712  22.309  27.976  1.00  0.00    -0.053 A 
ATOM     79  H   UNL A   1      42.140  20.328  28.428  1.00  0.00     0.063 H 
ATOM     80  C   UNL A   1      42.868  22.814  25.615  1.00  0.00    -0.053 A 
ATOM     81  H   UNL A   1      42.245  21.263  24.329  1.00  0.00     0.063 H 
ATOM     82  C   UNL A   1      43.012  23.220  26.951  1.00  0.00    -0.014 A 
ATOM     83  H   UNL A   1      42.773  22.608  28.962  1.00  0.00     0.063 H 
ATOM     84  H   UNL A   1      43.094  23.472  24.854  1.00  0.00     0.063 H 
BRANCH  82  85
ATOM     85  C   UNL A   1      43.471  24.599  27.260  1.00  0.00     0.031 A 
ATOM     86  C   UNL A   1      42.501  25.629  27.767  1.00  0.00     0.074 A 
ATOM     87  C   UNL A   1      44.752  24.943  27.021  1.00  0.00     0.049 A 
ATOM     88  N   UNL A   1      42.699  26.897  28.026  1.00  0.00    -0.248 NA
ATOM     89  C   UNL A   1      41.116  25.182  27.981  1.00  0.00    -0.034 C 
ATOM     90  C   UNL A   1      45.778  24.052  26.480  1.00  0.00    -0.036 A 
ATOM     91  N   UNL A   1      45.404  26.139  27.187  1.00  0.00    -0.354 N 
ATOM     92  C   UNL A   1      41.464  27.402  28.411  1.00  0.00     0.074 A 
ATOM     93  C   UNL A   1      40.513  26.315  28.308  1.00  0.00    -0.034 C 
ATOM     94  H   UNL A   1      40.719  24.233  27.898  1.00  0.00     0.065 H 
ATOM     95  C   UNL A   1      46.932  24.728  26.368  1.00  0.00    -0.036 A 
ATOM     96  H   UNL A   1      45.637  23.062  26.224  1.00  0.00     0.065 H 
ATOM     97  C   UNL A   1      46.720  26.107  26.800  1.00  0.00     0.049 A 
ATOM     98  H   UNL A   1      44.968  26.945  27.549  1.00  0.00     0.167 HD
ATOM     99  C   UNL A   1      41.154  28.653  28.828  1.00  0.00     0.037 A 
ATOM    100  H   UNL A   1      39.499  26.411  28.470  1.00  0.00     0.065 H 
ATOM    101  H   UNL A   1      47.826  24.336  26.032  1.00  0.00     0.065 H 
ATOM    102  C   UNL A   1      47.651  27.080  26.787  1.00  0.00     0.037 A 
ATOM    103  C   UNL A   1      42.108  29.723  28.965  1.00  0.00     0.049 A 
ATOM    104  C   UNL A   1      47.291  28.453  27.280  1.00  0.00     0.074 A 
ATOM    105  C   UNL A   1      41.910  30.997  29.465  1.00  0.00    -0.036 A 
ATOM    106  N   UNL A   1      43.443  29.641  28.596  1.00  0.00    -0.354 N 
ATOM    107  N   UNL A   1      46.139  28.897  27.718  1.00  0.00    -0.248 NA
ATOM    108  C   UNL A   1      48.363  29.459  27.286  1.00  0.00    -0.034 C 
ATOM    109  C   UNL A   1      43.113  31.704  29.356  1.00  0.00    -0.036 A 
ATOM    110  H   UNL A   1      41.027  31.365  29.852  1.00  0.00     0.065 H 
ATOM    111  C   UNL A   1      44.074  30.852  28.833  1.00  0.00     0.049 A 
ATOM    112  H   UNL A   1      43.878  28.842  28.222  1.00  0.00     0.167 HD
ATOM    113  C   UNL A   1      46.349  30.223  28.070  1.00  0.00     0.074 A 
ATOM    114  C   UNL A   1      47.745  30.507  27.810  1.00  0.00    -0.034 C 
ATOM    115  H   UNL A   1      49.341  29.370  26.967  1.00  0.00     0.065 H 
ATOM    116  H   UNL A   1      43.260  32.689  29.621  1.00  0.00     0.065 H 
ATOM    117  C   UNL A   1      45.464  31.123  28.567  1.00  0.00     0.037 A 
ATOM    118  H   UNL A   1      48.200  31.413  28.006  1.00  0.00     0.065 H 
BRANCH  99 119
ATOM    119  C   UNL A   1      39.719  28.936  29.166  1.00  0.00     0.064 A 
ATOM    120  C   UNL A   1      39.215  28.754  30.464  1.00  0.00     0.173 A 
ATOM    121  C   UNL A   1      38.841  29.422  28.185  1.00  0.00     0.173 A 
ATOM    122  F   UNL A   1      40.010  28.283  31.436  1.00  0.00    -0.203 F 
ATOM    123  C   UNL A   1      37.879  29.015  30.758  1.00  0.00     0.198 A 
ATOM    124  C   UNL A   1      37.513  29.711  28.490  1.00  0.00     0.198 A 
ATOM    125  F   UNL A   1      39.272  29.621  26.931  1.00  0.00    -0.203 F 
ATOM    126  F   UNL A   1      37.409  28.783  31.991  1.00  0.00    -0.200 F 
ATOM    127  C   UNL A   1      37.031  29.499  29.773  1.00  0.00     0.200 A 
ATOM    128  F   UNL A   1      36.698  30.190  27.541  1.00  0.00    -0.200 F 
ATOM    129  F   UNL A   1      35.746  29.752  30.058  1.00  0.00    -0.200 F 
ENDBRANCH  99 119
BRANCH 102 130
ATOM    130  C   UNL A   1      49.024  26.775  26.307  1.00  0.00     0.064 A 
ATOM    131  C   UNL A   1      49.383  26.985  24.969  1.00  0.00     0.173 A 
ATOM    132  C   UNL A   1      50.008  26.288  27.180  1.00  0.00     0.173 A 
ATOM    133  F   UNL A   1      48.470  27.430  24.094  1.00  0.00    -0.203 F 
ATOM    134  C   UNL A   1      50.671  26.708  24.518  1.00  0.00     0.198 A 
ATOM    135  C   UNL A   1      51.304  26.036  26.733  1.00  0.00     0.198 A 
ATOM    136  F   UNL A   1      49.716  26.078  28.472  1.00  0.00    -0.203 F 
ATOM    137  F   UNL A   1      50.980  26.885  23.226  1.00  0.00    -0.200 F 
ATOM    138  C   UNL A   1      51.632  26.241  25.402  1.00  0.00     0.200 A 
ATOM    139  F   UNL A   1      52.233  25.599  27.595  1.00  0.00    -0.200 F 
ATOM    140  F   UNL A   1      52.875  25.985  24.970  1.00  0.00    -0.200 F 
ENDBRANCH 102 130
BRANCH 117 141
ATOM    141  C   UNL A   1      45.982  32.496  28.880  1.00  0.00     0.064 A 
ATOM    142  C   UNL A   1      46.546  32.801  30.127  1.00  0.00     0.173 A 
ATOM    143  C   UNL A   1      45.953  33.505  27.907  1.00  0.00     0.173 A 
ATOM    144  F   UNL A   1      46.583  31.874  31.096  1.00  0.00    -0.203 F 
ATOM    145  C   UNL A   1      47.043  34.074  30.395  1.00  0.00     0.198 A 
ATOM    146  C   UNL A   1      46.475  34.769  28.169  1.00  0.00     0.198 A 
ATOM    147  F   UNL A   1      45.428  33.263  26.696  1.00  0.00    -0.203 F 
ATOM    148  F   UNL A   1      47.539  34.356  31.608  1.00  0.00    -0.200 F 
ATOM    149  C   UNL A   1      47.013  35.054  29.414  1.00  0.00     0.200 A 
ATOM    150  F   UNL A   1      46.456  35.712  27.216  1.00  0.00    -0.200 F 
ATOM    151  F   UNL A   1      47.499  36.276  29.672  1.00  0.00    -0.200 F 
ENDBRANCH 117 141
ENDBRANCH  82  85
ENDBRANCH  72  75
ENDBRANCH  68  71
ENDBRANCH  65  68
ENDBRANCH  62  65
ENDBRANCH  59  62
ENDBRANCH  56  59
ENDBRANCH   1  56
TORSDOF 23
ENDMDL
MODEL 6
REMARK VINA RESULT:     -10.9      5.946     10.365
REMARK SMILES CC(C)(C)OC(=O)N1CCC[C@H]1C(=O)N[C@@H](Cc1ccccc1)C(=O)NCCCCCCNC(=O)c1ccc(-c2c3nc(c(-c4c(F)c(F)c(F)c(F)c4F)c4ccc([nH]4)c(-c4c(F)c(F)c(F)c(F)c4F)c4nc(c(-c5c(F)c(F)c(F)c(F)c5F)c5ccc2[nH]5)C=C4)C=C3)cc1
REMARK SMILES IDX 27 1 26 4 24 5 25 6 16 8 15 10 13 11 14 12 12 14 8 15 9 16
REMARK SMILES IDX 10 17 11 20 6 26 7 27 5 28 2 29 1 30 3 34 4 38 17 42 18 45
REMARK SMILES IDX 19 46 23 47 20 48 22 50 21 52 28 56 29 59 30 62 31 65 32 68
REMARK SMILES IDX 33 71 34 72 35 74 36 75 37 76 98 77 38 78 97 80 39 82 40 85
REMARK SMILES IDX 41 86 91 87 42 88 96 89 90 90 92 91 43 92 95 93 89 95 88 97
REMARK SMILES IDX 44 99 76 102 56 103 75 104 57 105 60 106 74 107 93 108
REMARK SMILES IDX 58 109 59 111 73 113 94 114 61 117 45 119 46 120 54 121
REMARK SMILES IDX 47 122 48 123 52 124 55 125 49 126 50 127 53 128 51 129
REMARK SMILES IDX 77 130 78 131 86 132 79 133 80 134 84 135 87 136 81 137
REMARK SMILES IDX 82 138 85 139 83 140 62 141 63 142 71 143 64 144 65 145
REMARK SMILES IDX 69 146 72 147 66 148 67 149 70 150 68 151
REMARK H PARENT 27 2 27 3 26 7 16 9 15 13 9 18 9 19 12 21 10 22 10 23 11 24
REMARK H PARENT 11 25 1 31 1 32 1 33 3 35 3 36 3 37 4 39 4 40 4 41 17 43 17 44
REMARK H PARENT 19 49 23 51 20 53 22 54 21 55 28 57 28 58 29 60 29 61 30 63
REMARK H PARENT 30 64 31 66 31 67 32 69 32 70 33 73 37 79 98 81 38 83 97 84
REMARK H PARENT 96 94 90 96 92 98 95 100 89 101 57 110 60 112 93 115 58 116
REMARK H PARENT 94 118
REMARK Flexibility Score: inf
ROOT
ATOM      1  C   UNL A   1      38.628  31.085  35.180  1.00  0.00     0.017 C 
ATOM      2  H   UNL A   1      38.999  31.755  34.435  1.00  0.00     0.049 H 
ATOM      3  H   UNL A   1      39.408  30.564  35.694  1.00  0.00     0.049 H 
ENDROOT
BRANCH   1   4
ATOM      4  N   UNL A   1      37.818  30.083  34.527  1.00  0.00    -0.354 N 
ATOM      5  C   UNL A   1      37.777  29.721  33.214  1.00  0.00     0.242 C 
ATOM      6  O   UNL A   1      37.331  28.594  32.961  1.00  0.00    -0.273 OA
ATOM      7  H   UNL A   1      37.206  29.589  35.118  1.00  0.00     0.163 HD
BRANCH   5   8
ATOM      8  C   UNL A   1      38.356  30.583  32.065  1.00  0.00     0.112 C 
ATOM      9  H   UNL A   1      37.673  30.401  31.263  1.00  0.00     0.064 H 
BRANCH   8  10
ATOM     10  N   UNL A   1      38.278  32.035  32.264  1.00  0.00    -0.342 N 
ATOM     11  C   UNL A   1      37.470  32.956  31.658  1.00  0.00     0.243 C 
ATOM     12  O   UNL A   1      37.629  34.139  31.965  1.00  0.00    -0.273 OA
ATOM     13  H   UNL A   1      38.900  32.400  32.934  1.00  0.00     0.164 HD
BRANCH  11  14
ATOM     14  C   UNL A   1      36.506  32.495  30.548  1.00  0.00     0.114 C 
ATOM     15  N   UNL A   1      35.395  33.412  30.338  1.00  0.00    -0.296 N 
ATOM     16  C   UNL A   1      35.470  34.066  29.050  1.00  0.00     0.025 C 
ATOM     17  C   UNL A   1      36.264  33.086  28.207  1.00  0.00    -0.033 C 
ATOM     18  H   UNL A   1      35.977  35.005  29.127  1.00  0.00     0.050 H 
ATOM     19  H   UNL A   1      34.508  34.292  28.637  1.00  0.00     0.050 H 
ATOM     20  C   UNL A   1      37.245  32.471  29.202  1.00  0.00    -0.022 C 
ATOM     21  H   UNL A   1      36.145  31.539  30.864  1.00  0.00     0.064 H 
ATOM     22  H   UNL A   1      36.784  33.592  27.422  1.00  0.00     0.029 H 
ATOM     23  H   UNL A   1      35.646  32.357  27.727  1.00  0.00     0.029 H 
ATOM     24  H   UNL A   1      38.141  33.051  29.253  1.00  0.00     0.029 H 
ATOM     25  H   UNL A   1      37.537  31.481  28.920  1.00  0.00     0.029 H 
BRANCH  15  26
ATOM     26  C   UNL A   1      34.366  33.494  31.242  1.00  0.00     0.410 C 
ATOM     27  O   UNL A   1      34.245  32.725  32.181  1.00  0.00    -0.224 OA
BRANCH  26  28
ATOM     28  O   UNL A   1      33.492  34.478  30.915  1.00  0.00    -0.444 OA
BRANCH  28  29
ATOM     29  C   UNL A   1      33.311  35.662  31.736  1.00  0.00     0.106 C 
BRANCH  29  30
ATOM     30  C   UNL A   1      33.283  36.827  30.735  1.00  0.00    -0.025 C 
ATOM     31  H   UNL A   1      32.336  36.846  30.236  1.00  0.00     0.027 H 
ATOM     32  H   UNL A   1      34.063  36.698  30.015  1.00  0.00     0.027 H 
ATOM     33  H   UNL A   1      33.428  37.749  31.257  1.00  0.00     0.027 H 
ENDBRANCH  29  30
BRANCH  29  34
ATOM     34  C   UNL A   1      34.526  35.806  32.653  1.00  0.00    -0.025 C 
ATOM     35  H   UNL A   1      35.253  36.437  32.186  1.00  0.00     0.027 H 
ATOM     36  H   UNL A   1      34.954  34.841  32.832  1.00  0.00     0.027 H 
ATOM     37  H   UNL A   1      34.222  36.239  33.583  1.00  0.00     0.027 H 
ENDBRANCH  29  34
BRANCH  29  38
ATOM     38  C   UNL A   1      32.001  35.693  32.535  1.00  0.00    -0.025 C 
ATOM     39  H   UNL A   1      31.178  35.832  31.867  1.00  0.00     0.027 H 
ATOM     40  H   UNL A   1      32.031  36.501  33.236  1.00  0.00     0.027 H 
ATOM     41  H   UNL A   1      31.882  34.769  33.061  1.00  0.00     0.027 H 
ENDBRANCH  29  38
ENDBRANCH  28  29
ENDBRANCH  26  28
ENDBRANCH  15  26
ENDBRANCH  11  14
ENDBRANCH   8  10
BRANCH   8  42
ATOM     42  C   UNL A   1      39.732  30.106  31.548  1.00  0.00     0.002 C 
ATOM     43  H   UNL A   1      40.194  29.549  32.337  1.00  0.00     0.034 H 
ATOM     44  H   UNL A   1      40.238  31.004  31.260  1.00  0.00     0.034 H 
BRANCH  42  45
ATOM     45  C   UNL A   1      39.759  29.242  30.311  1.00  0.00    -0.045 A 
ATOM     46  C   UNL A   1      39.397  29.781  29.067  1.00  0.00    -0.059 A 
ATOM     47  C   UNL A   1      40.140  27.893  30.374  1.00  0.00    -0.059 A 
ATOM     48  C   UNL A   1      39.368  28.978  27.925  1.00  0.00    -0.062 A 
ATOM     49  H   UNL A   1      39.149  30.781  28.996  1.00  0.00     0.063 H 
ATOM     50  C   UNL A   1      40.090  27.087  29.235  1.00  0.00    -0.062 A 
ATOM     51  H   UNL A   1      40.461  27.493  31.270  1.00  0.00     0.063 H 
ATOM     52  C   UNL A   1      39.700  27.628  28.012  1.00  0.00    -0.062 A 
ATOM     53  H   UNL A   1      39.100  29.385  27.016  1.00  0.00     0.062 H 
ATOM     54  H   UNL A   1      40.343  26.088  29.299  1.00  0.00     0.062 H 
ATOM     55  H   UNL A   1      39.657  27.031  27.172  1.00  0.00     0.062 H 
ENDBRANCH  42  45
ENDBRANCH   8  42
ENDBRANCH   5   8
ENDBRANCH   1   4
BRANCH   1  56
ATOM     56  C   UNL A   1      37.884  31.900  36.228  1.00  0.00    -0.036 C 
ATOM     57  H   UNL A   1      37.072  31.306  36.595  1.00  0.00     0.028 H 
ATOM     58  H   UNL A   1      37.568  32.798  35.738  1.00  0.00     0.028 H 
BRANCH  56  59
ATOM     59  C   UNL A   1      38.724  32.345  37.428  1.00  0.00    -0.052 C 
ATOM     60  H   UNL A   1      39.164  33.291  37.185  1.00  0.00     0.027 H 
ATOM     61  H   UNL A   1      39.429  31.557  37.589  1.00  0.00     0.027 H 
BRANCH  59  62
ATOM     62  C   UNL A   1      37.979  32.506  38.759  1.00  0.00    -0.052 C 
ATOM     63  H   UNL A   1      38.434  31.848  39.469  1.00  0.00     0.027 H 
ATOM     64  H   UNL A   1      36.956  32.283  38.539  1.00  0.00     0.027 H 
BRANCH  62  65
ATOM     65  C   UNL A   1      37.964  33.911  39.369  1.00  0.00    -0.036 C 
ATOM     66  H   UNL A   1      37.248  33.915  40.164  1.00  0.00     0.028 H 
ATOM     67  H   UNL A   1      37.724  34.573  38.563  1.00  0.00     0.028 H 
BRANCH  65  68
ATOM     68  C   UNL A   1      39.290  34.408  39.933  1.00  0.00     0.018 C 
ATOM     69  H   UNL A   1      40.085  33.858  39.473  1.00  0.00     0.049 H 
ATOM     70  H   UNL A   1      39.266  34.261  40.991  1.00  0.00     0.049 H 
BRANCH  68  71
ATOM     71  N   UNL A   1      39.506  35.824  39.693  1.00  0.00    -0.352 N 
ATOM     72  C   UNL A   1      40.131  36.466  38.655  1.00  0.00     0.251 C 
ATOM     73  H   UNL A   1      39.145  36.420  40.388  1.00  0.00     0.163 HD
ATOM     74  O   UNL A   1      40.329  37.676  38.724  1.00  0.00    -0.269 OA
BRANCH  72  75
ATOM     75  C   UNL A   1      40.593  35.722  37.460  1.00  0.00     0.039 A 
ATOM     76  C   UNL A   1      41.902  35.231  37.448  1.00  0.00    -0.049 A 
ATOM     77  C   UNL A   1      39.776  35.545  36.339  1.00  0.00    -0.049 A 
ATOM     78  C   UNL A   1      42.374  34.519  36.342  1.00  0.00    -0.053 A 
ATOM     79  H   UNL A   1      42.522  35.395  38.257  1.00  0.00     0.063 H 
ATOM     80  C   UNL A   1      40.223  34.774  35.266  1.00  0.00    -0.053 A 
ATOM     81  H   UNL A   1      38.843  35.983  36.307  1.00  0.00     0.063 H 
ATOM     82  C   UNL A   1      41.528  34.259  35.253  1.00  0.00    -0.014 A 
ATOM     83  H   UNL A   1      43.349  34.182  36.326  1.00  0.00     0.063 H 
ATOM     84  H   UNL A   1      39.589  34.582  34.474  1.00  0.00     0.063 H 
BRANCH  82  85
ATOM     85  C   UNL A   1      41.995  33.456  34.093  1.00  0.00     0.031 A 
ATOM     86  C   UNL A   1      42.180  31.970  34.222  1.00  0.00     0.074 A 
ATOM     87  C   UNL A   1      42.317  34.075  32.941  1.00  0.00     0.049 A 
ATOM     88  N   UNL A   1      42.642  31.113  33.345  1.00  0.00    -0.248 NA
ATOM     89  C   UNL A   1      41.828  31.370  35.518  1.00  0.00    -0.034 C 
ATOM     90  C   UNL A   1      42.234  35.517  32.706  1.00  0.00    -0.036 A 
ATOM     91  N   UNL A   1      42.796  33.572  31.757  1.00  0.00    -0.354 N 
ATOM     92  C   UNL A   1      42.658  29.883  33.990  1.00  0.00     0.074 A 
ATOM     93  C   UNL A   1      42.201  30.111  35.344  1.00  0.00    -0.034 C 
ATOM     94  H   UNL A   1      41.402  31.815  36.346  1.00  0.00     0.065 H 
ATOM     95  C   UNL A   1      42.637  35.782  31.453  1.00  0.00    -0.036 A 
ATOM     96  H   UNL A   1      41.917  36.218  33.394  1.00  0.00     0.065 H 
ATOM     97  C   UNL A   1      43.035  34.534  30.807  1.00  0.00     0.049 A 
ATOM     98  H   UNL A   1      42.953  32.612  31.603  1.00  0.00     0.167 HD
ATOM     99  C   UNL A   1      43.004  28.672  33.492  1.00  0.00     0.037 A 
ATOM    100  H   UNL A   1      42.170  29.387  36.078  1.00  0.00     0.065 H 
ATOM    101  H   UNL A   1      42.659  36.717  31.017  1.00  0.00     0.065 H 
ATOM    102  C   UNL A   1      43.528  34.426  29.559  1.00  0.00     0.037 A 
ATOM    103  C   UNL A   1      43.423  28.442  32.134  1.00  0.00     0.049 A 
ATOM    104  C   UNL A   1      43.879  33.068  29.019  1.00  0.00     0.074 A 
ATOM    105  C   UNL A   1      43.707  27.239  31.510  1.00  0.00    -0.036 A 
ATOM    106  N   UNL A   1      43.619  29.438  31.189  1.00  0.00    -0.354 N 
ATOM    107  N   UNL A   1      43.813  31.901  29.612  1.00  0.00    -0.248 NA
ATOM    108  C   UNL A   1      44.367  33.010  27.634  1.00  0.00    -0.034 C 
ATOM    109  C   UNL A   1      44.121  27.511  30.201  1.00  0.00    -0.036 A 
ATOM    110  H   UNL A   1      43.628  26.304  31.936  1.00  0.00     0.065 H 
ATOM    111  C   UNL A   1      44.047  28.880  29.995  1.00  0.00     0.049 A 
ATOM    112  H   UNL A   1      43.476  30.399  31.344  1.00  0.00     0.167 HD
ATOM    113  C   UNL A   1      44.228  30.970  28.670  1.00  0.00     0.074 A 
ATOM    114  C   UNL A   1      44.530  31.706  27.460  1.00  0.00    -0.034 C 
ATOM    115  H   UNL A   1      44.536  33.782  26.970  1.00  0.00     0.065 H 
ATOM    116  H   UNL A   1      44.428  26.812  29.508  1.00  0.00     0.065 H 
ATOM    117  C   UNL A   1      44.346  29.625  28.798  1.00  0.00     0.037 A 
ATOM    118  H   UNL A   1      44.834  31.270  26.575  1.00  0.00     0.065 H 
BRANCH  99 119
ATOM    119  C   UNL A   1      42.948  27.497  34.425  1.00  0.00     0.064 A 
ATOM    120  C   UNL A   1      41.763  26.775  34.634  1.00  0.00     0.173 A 
ATOM    121  C   UNL A   1      44.103  27.070  35.099  1.00  0.00     0.173 A 
ATOM    122  F   UNL A   1      40.629  27.147  34.021  1.00  0.00    -0.203 F 
ATOM    123  C   UNL A   1      41.727  25.692  35.509  1.00  0.00     0.198 A 
ATOM    124  C   UNL A   1      44.070  25.967  35.950  1.00  0.00     0.198 A 
ATOM    125  F   UNL A   1      45.264  27.719  34.930  1.00  0.00    -0.203 F 
ATOM    126  F   UNL A   1      40.571  25.051  35.733  1.00  0.00    -0.200 F 
ATOM    127  C   UNL A   1      42.882  25.285  36.161  1.00  0.00     0.200 A 
ATOM    128  F   UNL A   1      45.189  25.568  36.569  1.00  0.00    -0.200 F 
ATOM    129  F   UNL A   1      42.847  24.241  37.000  1.00  0.00    -0.200 F 
ENDBRANCH  99 119
BRANCH 102 130
ATOM    130  C   UNL A   1      43.694  35.646  28.727  1.00  0.00     0.064 A 
ATOM    131  C   UNL A   1      44.935  36.290  28.632  1.00  0.00     0.173 A 
ATOM    132  C   UNL A   1      42.622  36.179  27.996  1.00  0.00     0.173 A 
ATOM    133  F   UNL A   1      45.983  35.827  29.328  1.00  0.00    -0.203 F 
ATOM    134  C   UNL A   1      45.096  37.428  27.846  1.00  0.00     0.198 A 
ATOM    135  C   UNL A   1      42.791  37.303  27.191  1.00  0.00     0.198 A 
ATOM    136  F   UNL A   1      41.416  35.595  28.049  1.00  0.00    -0.203 F 
ATOM    137  F   UNL A   1      46.285  38.045  27.799  1.00  0.00    -0.200 F 
ATOM    138  C   UNL A   1      44.026  37.930  27.121  1.00  0.00     0.200 A 
ATOM    139  F   UNL A   1      41.758  37.776  26.480  1.00  0.00    -0.200 F 
ATOM    140  F   UNL A   1      44.184  39.020  26.357  1.00  0.00    -0.200 F 
ENDBRANCH 102 130
BRANCH 117 141
ATOM    141  C   UNL A   1      44.804  28.857  27.592  1.00  0.00     0.064 A 
ATOM    142  C   UNL A   1      43.891  28.323  26.672  1.00  0.00     0.173 A 
ATOM    143  C   UNL A   1      46.172  28.692  27.333  1.00  0.00     0.173 A 
ATOM    144  F   UNL A   1      42.572  28.441  26.884  1.00  0.00    -0.203 F 
ATOM    145  C   UNL A   1      44.332  27.632  25.546  1.00  0.00     0.198 A 
ATOM    146  C   UNL A   1      46.610  28.025  26.192  1.00  0.00     0.198 A 
ATOM    147  F   UNL A   1      47.087  29.189  28.180  1.00  0.00    -0.203 F 
ATOM    148  F   UNL A   1      43.441  27.093  24.702  1.00  0.00    -0.200 F 
ATOM    149  C   UNL A   1      45.690  27.490  25.304  1.00  0.00     0.200 A 
ATOM    150  F   UNL A   1      47.923  27.899  25.953  1.00  0.00    -0.200 F 
ATOM    151  F   UNL A   1      46.111  26.831  24.216  1.00  0.00    -0.200 F 
ENDBRANCH 117 141
ENDBRANCH  82  85
ENDBRANCH  72  75
ENDBRANCH  68  71
ENDBRANCH  65  68
ENDBRANCH  62  65
ENDBRANCH  59  62
ENDBRANCH  56  59
ENDBRANCH   1  56
TORSDOF 23
ENDMDL
MODEL 7
REMARK VINA RESULT:     -10.8      4.866      8.980
REMARK SMILES CC(C)(C)OC(=O)N1CCC[C@H]1C(=O)N[C@@H](Cc1ccccc1)C(=O)NCCCCCCNC(=O)c1ccc(-c2c3nc(c(-c4c(F)c(F)c(F)c(F)c4F)c4ccc([nH]4)c(-c4c(F)c(F)c(F)c(F)c4F)c4nc(c(-c5c(F)c(F)c(F)c(F)c5F)c5ccc2[nH]5)C=C4)C=C3)cc1
REMARK SMILES IDX 27 1 26 4 24 5 25 6 16 8 15 10 13 11 14 12 12 14 8 15 9 16
REMARK SMILES IDX 10 17 11 20 6 26 7 27 5 28 2 29 1 30 3 34 4 38 17 42 18 45
REMARK SMILES IDX 19 46 23 47 20 48 22 50 21 52 28 56 29 59 30 62 31 65 32 68
REMARK SMILES IDX 33 71 34 72 35 74 36 75 37 76 98 77 38 78 97 80 39 82 40 85
REMARK SMILES IDX 41 86 91 87 42 88 96 89 90 90 92 91 43 92 95 93 89 95 88 97
REMARK SMILES IDX 44 99 76 102 56 103 75 104 57 105 60 106 74 107 93 108
REMARK SMILES IDX 58 109 59 111 73 113 94 114 61 117 45 119 46 120 54 121
REMARK SMILES IDX 47 122 48 123 52 124 55 125 49 126 50 127 53 128 51 129
REMARK SMILES IDX 77 130 78 131 86 132 79 133 80 134 84 135 87 136 81 137
REMARK SMILES IDX 82 138 85 139 83 140 62 141 63 142 71 143 64 144 65 145
REMARK SMILES IDX 69 146 72 147 66 148 67 149 70 150 68 151
REMARK H PARENT 27 2 27 3 26 7 16 9 15 13 9 18 9 19 12 21 10 22 10 23 11 24
REMARK H PARENT 11 25 1 31 1 32 1 33 3 35 3 36 3 37 4 39 4 40 4 41 17 43 17 44
REMARK H PARENT 19 49 23 51 20 53 22 54 21 55 28 57 28 58 29 60 29 61 30 63
REMARK H PARENT 30 64 31 66 31 67 32 69 32 70 33 73 37 79 98 81 38 83 97 84
REMARK H PARENT 96 94 90 96 92 98 95 100 89 101 57 110 60 112 93 115 58 116
REMARK H PARENT 94 118
REMARK Flexibility Score: inf
ROOT
ATOM      1  C   UNL A   1      34.737  24.843  24.774  1.00  0.00     0.017 C 
ATOM      2  H   UNL A   1      34.119  25.485  25.363  1.00  0.00     0.049 H 
ATOM      3  H   UNL A   1      35.483  25.376  24.222  1.00  0.00     0.049 H 
ENDROOT
BRANCH   1   4
ATOM      4  N   UNL A   1      33.901  24.174  23.804  1.00  0.00    -0.354 N 
ATOM      5  C   UNL A   1      32.555  23.964  23.817  1.00  0.00     0.242 C 
ATOM      6  O   UNL A   1      32.015  23.749  22.723  1.00  0.00    -0.273 OA
ATOM      7  H   UNL A   1      34.374  23.817  23.018  1.00  0.00     0.163 HD
BRANCH   5   8
ATOM      8  C   UNL A   1      31.675  24.097  25.083  1.00  0.00     0.112 C 
ATOM      9  H   UNL A   1      32.212  24.810  25.673  1.00  0.00     0.064 H 
BRANCH   8  10
ATOM     10  N   UNL A   1      30.367  24.731  24.879  1.00  0.00    -0.342 N 
ATOM     11  C   UNL A   1      30.067  26.023  24.546  1.00  0.00     0.243 C 
ATOM     12  O   UNL A   1      28.875  26.328  24.480  1.00  0.00    -0.273 OA
ATOM     13  H   UNL A   1      29.591  24.139  25.001  1.00  0.00     0.164 HD
BRANCH  11  14
ATOM     14  C   UNL A   1      31.208  27.046  24.397  1.00  0.00     0.114 C 
ATOM     15  N   UNL A   1      30.735  28.412  24.230  1.00  0.00    -0.296 N 
ATOM     16  C   UNL A   1      31.064  29.242  25.368  1.00  0.00     0.025 C 
ATOM     17  C   UNL A   1      32.289  28.565  25.951  1.00  0.00    -0.033 C 
ATOM     18  H   UNL A   1      30.261  29.256  26.076  1.00  0.00     0.050 H 
ATOM     19  H   UNL A   1      31.234  30.265  25.106  1.00  0.00     0.050 H 
ATOM     20  C   UNL A   1      32.038  27.082  25.690  1.00  0.00    -0.022 C 
ATOM     21  H   UNL A   1      31.759  26.734  23.536  1.00  0.00     0.064 H 
ATOM     22  H   UNL A   1      32.372  28.760  26.998  1.00  0.00     0.029 H 
ATOM     23  H   UNL A   1      33.202  28.915  25.516  1.00  0.00     0.029 H 
ATOM     24  H   UNL A   1      31.494  26.645  26.500  1.00  0.00     0.029 H 
ATOM     25  H   UNL A   1      32.949  26.528  25.600  1.00  0.00     0.029 H 
BRANCH  15  26
ATOM     26  C   UNL A   1      30.170  28.824  23.049  1.00  0.00     0.410 C 
ATOM     27  O   UNL A   1      30.306  28.216  22.001  1.00  0.00    -0.224 OA
BRANCH  26  28
ATOM     28  O   UNL A   1      29.515  30.002  23.195  1.00  0.00    -0.444 OA
BRANCH  28  29
ATOM     29  C   UNL A   1      28.155  30.199  22.728  1.00  0.00     0.106 C 
BRANCH  29  30
ATOM     30  C   UNL A   1      27.655  31.432  23.496  1.00  0.00    -0.025 C 
ATOM     31  H   UNL A   1      26.728  31.200  23.979  1.00  0.00     0.027 H 
ATOM     32  H   UNL A   1      27.509  32.243  22.814  1.00  0.00     0.027 H 
ATOM     33  H   UNL A   1      28.380  31.711  24.232  1.00  0.00     0.027 H 
ENDBRANCH  29  30
BRANCH  29  34
ATOM     34  C   UNL A   1      27.324  28.978  23.126  1.00  0.00    -0.025 C 
ATOM     35  H   UNL A   1      27.547  28.164  22.468  1.00  0.00     0.027 H 
ATOM     36  H   UNL A   1      26.283  29.218  23.057  1.00  0.00     0.027 H 
ATOM     37  H   UNL A   1      27.560  28.699  24.132  1.00  0.00     0.027 H 
ENDBRANCH  29  34
BRANCH  29  38
ATOM     38  C   UNL A   1      28.028  30.495  21.227  1.00  0.00    -0.025 C 
ATOM     39  H   UNL A   1      28.458  31.450  21.014  1.00  0.00     0.027 H 
ATOM     40  H   UNL A   1      26.994  30.499  20.950  1.00  0.00     0.027 H 
ATOM     41  H   UNL A   1      28.543  29.739  20.670  1.00  0.00     0.027 H 
ENDBRANCH  29  38
ENDBRANCH  28  29
ENDBRANCH  26  28
ENDBRANCH  15  26
ENDBRANCH  11  14
ENDBRANCH   8  10
BRANCH   8  42
ATOM     42  C   UNL A   1      31.609  22.817  25.947  1.00  0.00     0.002 C 
ATOM     43  H   UNL A   1      30.576  22.561  26.060  1.00  0.00     0.034 H 
ATOM     44  H   UNL A   1      32.123  23.075  26.850  1.00  0.00     0.034 H 
BRANCH  42  45
ATOM     45  C   UNL A   1      32.325  21.588  25.440  1.00  0.00    -0.045 A 
ATOM     46  C   UNL A   1      33.521  21.171  26.044  1.00  0.00    -0.059 A 
ATOM     47  C   UNL A   1      31.819  20.844  24.364  1.00  0.00    -0.059 A 
ATOM     48  C   UNL A   1      34.219  20.066  25.550  1.00  0.00    -0.062 A 
ATOM     49  H   UNL A   1      33.889  21.685  26.860  1.00  0.00     0.063 H 
ATOM     50  C   UNL A   1      32.529  19.752  23.860  1.00  0.00    -0.062 A 
ATOM     51  H   UNL A   1      30.913  21.105  23.942  1.00  0.00     0.063 H 
ATOM     52  C   UNL A   1      33.730  19.366  24.450  1.00  0.00    -0.062 A 
ATOM     53  H   UNL A   1      35.097  19.768  26.002  1.00  0.00     0.062 H 
ATOM     54  H   UNL A   1      32.162  19.230  23.048  1.00  0.00     0.062 H 
ATOM     55  H   UNL A   1      34.258  18.564  24.072  1.00  0.00     0.062 H 
ENDBRANCH  42  45
ENDBRANCH   8  42
ENDBRANCH   5   8
ENDBRANCH   1   4
BRANCH   1  56
ATOM     56  C   UNL A   1      35.479  23.900  25.711  1.00  0.00    -0.036 C 
ATOM     57  H   UNL A   1      34.901  23.004  25.805  1.00  0.00     0.028 H 
ATOM     58  H   UNL A   1      35.597  24.430  26.633  1.00  0.00     0.028 H 
BRANCH  56  59
ATOM     59  C   UNL A   1      36.889  23.508  25.263  1.00  0.00    -0.052 C 
ATOM     60  H   UNL A   1      37.498  23.424  26.139  1.00  0.00     0.027 H 
ATOM     61  H   UNL A   1      37.194  24.275  24.583  1.00  0.00     0.027 H 
BRANCH  59  62
ATOM     62  C   UNL A   1      37.014  22.195  24.480  1.00  0.00    -0.052 C 
ATOM     63  H   UNL A   1      37.642  22.378  23.634  1.00  0.00     0.027 H 
ATOM     64  H   UNL A   1      36.010  21.915  24.236  1.00  0.00     0.027 H 
BRANCH  62  65
ATOM     65  C   UNL A   1      37.593  20.999  25.241  1.00  0.00    -0.036 C 
ATOM     66  H   UNL A   1      37.110  20.115  24.879  1.00  0.00     0.028 H 
ATOM     67  H   UNL A   1      37.415  21.201  26.277  1.00  0.00     0.028 H 
BRANCH  65  68
ATOM     68  C   UNL A   1      39.099  20.792  25.114  1.00  0.00     0.018 C 
ATOM     69  H   UNL A   1      39.572  21.750  25.062  1.00  0.00     0.049 H 
ATOM     70  H   UNL A   1      39.271  20.216  24.229  1.00  0.00     0.049 H 
BRANCH  68  71
ATOM     71  N   UNL A   1      39.661  20.055  26.232  1.00  0.00    -0.352 N 
ATOM     72  C   UNL A   1      40.508  20.462  27.230  1.00  0.00     0.251 C 
ATOM     73  H   UNL A   1      39.388  19.110  26.281  1.00  0.00     0.163 HD
ATOM     74  O   UNL A   1      40.977  19.629  28.002  1.00  0.00    -0.269 OA
BRANCH  72  75
ATOM     75  C   UNL A   1      40.887  21.885  27.381  1.00  0.00     0.039 A 
ATOM     76  C   UNL A   1      41.903  22.210  28.286  1.00  0.00    -0.049 A 
ATOM     77  C   UNL A   1      40.228  22.903  26.686  1.00  0.00    -0.049 A 
ATOM     78  C   UNL A   1      42.294  23.541  28.454  1.00  0.00    -0.053 A 
ATOM     79  H   UNL A   1      42.364  21.465  28.833  1.00  0.00     0.063 H 
ATOM     80  C   UNL A   1      40.666  24.222  26.799  1.00  0.00    -0.053 A 
ATOM     81  H   UNL A   1      39.419  22.678  26.087  1.00  0.00     0.063 H 
ATOM     82  C   UNL A   1      41.699  24.557  27.689  1.00  0.00    -0.014 A 
ATOM     83  H   UNL A   1      43.025  23.779  29.143  1.00  0.00     0.063 H 
ATOM     84  H   UNL A   1      40.227  24.959  26.226  1.00  0.00     0.063 H 
BRANCH  82  85
ATOM     85  C   UNL A   1      42.141  25.970  27.813  1.00  0.00     0.031 A 
ATOM     86  C   UNL A   1      43.454  26.410  27.231  1.00  0.00     0.074 A 
ATOM     87  C   UNL A   1      41.389  26.844  28.511  1.00  0.00     0.049 A 
ATOM     88  N   UNL A   1      44.039  27.580  27.296  1.00  0.00    -0.248 NA
ATOM     89  C   UNL A   1      44.228  25.393  26.503  1.00  0.00    -0.034 C 
ATOM     90  C   UNL A   1      40.122  26.528  29.171  1.00  0.00    -0.036 A 
ATOM     91  N   UNL A   1      41.590  28.171  28.795  1.00  0.00    -0.354 N 
ATOM     92  C   UNL A   1      45.255  27.433  26.641  1.00  0.00     0.074 A 
ATOM     93  C   UNL A   1      45.344  26.049  26.224  1.00  0.00    -0.034 C 
ATOM     94  H   UNL A   1      43.969  24.421  26.272  1.00  0.00     0.065 H 
ATOM     95  C   UNL A   1      39.653  27.632  29.773  1.00  0.00    -0.036 A 
ATOM     96  H   UNL A   1      39.662  25.604  29.173  1.00  0.00     0.065 H 
ATOM     97  C   UNL A   1      40.600  28.724  29.569  1.00  0.00     0.049 A 
ATOM     98  H   UNL A   1      42.371  28.679  28.474  1.00  0.00     0.167 HD
ATOM     99  C   UNL A   1      46.202  28.370  26.395  1.00  0.00     0.037 A 
ATOM    100  H   UNL A   1      46.169  25.630  25.768  1.00  0.00     0.065 H 
ATOM    101  H   UNL A   1      38.765  27.698  30.295  1.00  0.00     0.065 H 
ATOM    102  C   UNL A   1      40.473  29.970  30.065  1.00  0.00     0.037 A 
ATOM    103  C   UNL A   1      46.094  29.753  26.778  1.00  0.00     0.049 A 
ATOM    104  C   UNL A   1      41.523  30.999  29.755  1.00  0.00     0.074 A 
ATOM    105  C   UNL A   1      46.958  30.797  26.495  1.00  0.00    -0.036 A 
ATOM    106  N   UNL A   1      45.058  30.285  27.532  1.00  0.00    -0.354 N 
ATOM    107  N   UNL A   1      42.629  30.868  29.065  1.00  0.00    -0.248 NA
ATOM    108  C   UNL A   1      41.304  32.352  30.286  1.00  0.00    -0.034 C 
ATOM    109  C   UNL A   1      46.468  31.952  27.116  1.00  0.00    -0.036 A 
ATOM    110  H   UNL A   1      47.815  30.735  25.924  1.00  0.00     0.065 H 
ATOM    111  C   UNL A   1      45.274  31.637  27.746  1.00  0.00     0.049 A 
ATOM    112  H   UNL A   1      44.284  29.777  27.865  1.00  0.00     0.167 HD
ATOM    113  C   UNL A   1      43.227  32.121  29.060  1.00  0.00     0.074 A 
ATOM    114  C   UNL A   1      42.352  33.004  29.803  1.00  0.00    -0.034 C 
ATOM    115  H   UNL A   1      40.534  32.703  30.877  1.00  0.00     0.065 H 
ATOM    116  H   UNL A   1      46.920  32.879  27.106  1.00  0.00     0.065 H 
ATOM    117  C   UNL A   1      44.396  32.504  28.489  1.00  0.00     0.037 A 
ATOM    118  H   UNL A   1      42.523  34.012  29.939  1.00  0.00     0.065 H 
BRANCH  99 119
ATOM    119  C   UNL A   1      47.444  27.927  25.676  1.00  0.00     0.064 A 
ATOM    120  C   UNL A   1      47.493  27.829  24.277  1.00  0.00     0.173 A 
ATOM    121  C   UNL A   1      48.610  27.624  26.396  1.00  0.00     0.173 A 
ATOM    122  F   UNL A   1      46.403  28.099  23.543  1.00  0.00    -0.203 F 
ATOM    123  C   UNL A   1      48.652  27.410  23.628  1.00  0.00     0.198 A 
ATOM    124  C   UNL A   1      49.777  27.235  25.741  1.00  0.00     0.198 A 
ATOM    125  F   UNL A   1      48.621  27.709  27.734  1.00  0.00    -0.203 F 
ATOM    126  F   UNL A   1      48.658  27.273  22.294  1.00  0.00    -0.200 F 
ATOM    127  C   UNL A   1      49.794  27.120  24.359  1.00  0.00     0.200 A 
ATOM    128  F   UNL A   1      50.883  26.967  26.447  1.00  0.00    -0.200 F 
ATOM    129  F   UNL A   1      50.909  26.721  23.732  1.00  0.00    -0.200 F 
ENDBRANCH  99 119
BRANCH 102 130
ATOM    130  C   UNL A   1      39.286  30.312  30.890  1.00  0.00     0.064 A 
ATOM    131  C   UNL A   1      39.296  30.125  32.279  1.00  0.00     0.173 A 
ATOM    132  C   UNL A   1      38.128  30.852  30.312  1.00  0.00     0.173 A 
ATOM    133  F   UNL A   1      40.374  29.593  32.875  1.00  0.00    -0.203 F 
ATOM    134  C   UNL A   1      38.188  30.453  33.057  1.00  0.00     0.198 A 
ATOM    135  C   UNL A   1      37.031  31.204  31.094  1.00  0.00     0.198 A 
ATOM    136  F   UNL A   1      38.073  31.057  28.987  1.00  0.00    -0.203 F 
ATOM    137  F   UNL A   1      38.210  30.232  34.379  1.00  0.00    -0.200 F 
ATOM    138  C   UNL A   1      37.059  30.999  32.465  1.00  0.00     0.200 A 
ATOM    139  F   UNL A   1      35.947  31.745  30.519  1.00  0.00    -0.200 F 
ATOM    140  F   UNL A   1      35.997  31.325  33.215  1.00  0.00    -0.200 F 
ENDBRANCH 102 130
BRANCH 117 141
ATOM    141  C   UNL A   1      44.788  33.946  28.627  1.00  0.00     0.064 A 
ATOM    142  C   UNL A   1      44.366  34.913  27.704  1.00  0.00     0.173 A 
ATOM    143  C   UNL A   1      45.560  34.371  29.718  1.00  0.00     0.173 A 
ATOM    144  F   UNL A   1      43.639  34.555  26.635  1.00  0.00    -0.203 F 
ATOM    145  C   UNL A   1      44.720  36.251  27.858  1.00  0.00     0.198 A 
ATOM    146  C   UNL A   1      45.889  35.714  29.884  1.00  0.00     0.198 A 
ATOM    147  F   UNL A   1      45.985  33.485  30.633  1.00  0.00    -0.203 F 
ATOM    148  F   UNL A   1      44.341  37.153  26.940  1.00  0.00    -0.200 F 
ATOM    149  C   UNL A   1      45.474  36.651  28.951  1.00  0.00     0.200 A 
ATOM    150  F   UNL A   1      46.608  36.100  30.947  1.00  0.00    -0.200 F 
ATOM    151  F   UNL A   1      45.807  37.940  29.100  1.00  0.00    -0.200 F 
ENDBRANCH 117 141
ENDBRANCH  82  85
ENDBRANCH  72  75
ENDBRANCH  68  71
ENDBRANCH  65  68
ENDBRANCH  62  65
ENDBRANCH  59  62
ENDBRANCH  56  59
ENDBRANCH   1  56
TORSDOF 23
ENDMDL
MODEL 8
REMARK VINA RESULT:     -10.7      1.932      7.490
REMARK SMILES CC(C)(C)OC(=O)N1CCC[C@H]1C(=O)N[C@@H](Cc1ccccc1)C(=O)NCCCCCCNC(=O)c1ccc(-c2c3nc(c(-c4c(F)c(F)c(F)c(F)c4F)c4ccc([nH]4)c(-c4c(F)c(F)c(F)c(F)c4F)c4nc(c(-c5c(F)c(F)c(F)c(F)c5F)c5ccc2[nH]5)C=C4)C=C3)cc1
REMARK SMILES IDX 27 1 26 4 24 5 25 6 16 8 15 10 13 11 14 12 12 14 8 15 9 16
REMARK SMILES IDX 10 17 11 20 6 26 7 27 5 28 2 29 1 30 3 34 4 38 17 42 18 45
REMARK SMILES IDX 19 46 23 47 20 48 22 50 21 52 28 56 29 59 30 62 31 65 32 68
REMARK SMILES IDX 33 71 34 72 35 74 36 75 37 76 98 77 38 78 97 80 39 82 40 85
REMARK SMILES IDX 41 86 91 87 42 88 96 89 90 90 92 91 43 92 95 93 89 95 88 97
REMARK SMILES IDX 44 99 76 102 56 103 75 104 57 105 60 106 74 107 93 108
REMARK SMILES IDX 58 109 59 111 73 113 94 114 61 117 45 119 46 120 54 121
REMARK SMILES IDX 47 122 48 123 52 124 55 125 49 126 50 127 53 128 51 129
REMARK SMILES IDX 77 130 78 131 86 132 79 133 80 134 84 135 87 136 81 137
REMARK SMILES IDX 82 138 85 139 83 140 62 141 63 142 71 143 64 144 65 145
REMARK SMILES IDX 69 146 72 147 66 148 67 149 70 150 68 151
REMARK H PARENT 27 2 27 3 26 7 16 9 15 13 9 18 9 19 12 21 10 22 10 23 11 24
REMARK H PARENT 11 25 1 31 1 32 1 33 3 35 3 36 3 37 4 39 4 40 4 41 17 43 17 44
REMARK H PARENT 19 49 23 51 20 53 22 54 21 55 28 57 28 58 29 60 29 61 30 63
REMARK H PARENT 30 64 31 66 31 67 32 69 32 70 33 73 37 79 98 81 38 83 97 84
REMARK H PARENT 96 94 90 96 92 98 95 100 89 101 57 110 60 112 93 115 58 116
REMARK H PARENT 94 118
REMARK Flexibility Score: inf
ROOT
ATOM      1  C   UNL A   1      34.240  28.533  26.896  1.00  0.00     0.017 C 
ATOM      2  H   UNL A   1      34.230  28.890  25.888  1.00  0.00     0.049 H 
ATOM      3  H   UNL A   1      34.509  27.500  26.966  1.00  0.00     0.049 H 
ENDROOT
BRANCH   1   4
ATOM      4  N   UNL A   1      32.904  28.653  27.433  1.00  0.00    -0.354 N 
ATOM      5  C   UNL A   1      31.864  27.774  27.378  1.00  0.00     0.242 C 
ATOM      6  O   UNL A   1      30.982  27.903  28.237  1.00  0.00    -0.273 OA
ATOM      7  H   UNL A   1      32.718  29.495  27.908  1.00  0.00     0.163 HD
BRANCH   5   8
ATOM      8  C   UNL A   1      31.796  26.581  26.394  1.00  0.00     0.112 C 
ATOM      9  H   UNL A   1      32.827  26.340  26.240  1.00  0.00     0.064 H 
BRANCH   8  10
ATOM     10  N   UNL A   1      31.229  25.343  26.942  1.00  0.00    -0.342 N 
ATOM     11  C   UNL A   1      31.367  24.054  26.509  1.00  0.00     0.243 C 
ATOM     12  O   UNL A   1      30.745  23.182  27.117  1.00  0.00    -0.273 OA
ATOM     13  H   UNL A   1      30.666  25.458  27.741  1.00  0.00     0.164 HD
BRANCH  11  14
ATOM     14  C   UNL A   1      32.176  23.774  25.228  1.00  0.00     0.114 C 
ATOM     15  N   UNL A   1      33.038  22.605  25.339  1.00  0.00    -0.296 N 
ATOM     16  C   UNL A   1      32.603  21.530  24.475  1.00  0.00     0.025 C 
ATOM     17  C   UNL A   1      31.863  22.251  23.365  1.00  0.00    -0.033 C 
ATOM     18  H   UNL A   1      31.953  20.859  24.998  1.00  0.00     0.050 H 
ATOM     19  H   UNL A   1      33.412  20.926  24.118  1.00  0.00     0.050 H 
ATOM     20  C   UNL A   1      31.217  23.437  24.076  1.00  0.00    -0.022 C 
ATOM     21  H   UNL A   1      32.761  24.654  25.064  1.00  0.00     0.064 H 
ATOM     22  H   UNL A   1      31.121  21.618  22.927  1.00  0.00     0.029 H 
ATOM     23  H   UNL A   1      32.505  22.547  22.562  1.00  0.00     0.029 H 
ATOM     24  H   UNL A   1      30.254  23.169  24.455  1.00  0.00     0.029 H 
ATOM     25  H   UNL A   1      31.067  24.268  23.420  1.00  0.00     0.029 H 
BRANCH  15  26
ATOM     26  C   UNL A   1      34.184  22.642  26.093  1.00  0.00     0.410 C 
ATOM     27  O   UNL A   1      34.282  23.293  27.119  1.00  0.00    -0.224 OA
BRANCH  26  28
ATOM     28  O   UNL A   1      35.182  21.928  25.516  1.00  0.00    -0.444 OA
BRANCH  28  29
ATOM     29  C   UNL A   1      36.326  22.560  24.885  1.00  0.00     0.106 C 
BRANCH  29  30
ATOM     30  C   UNL A   1      35.773  23.145  23.577  1.00  0.00    -0.025 C 
ATOM     31  H   UNL A   1      36.444  23.895  23.209  1.00  0.00     0.027 H 
ATOM     32  H   UNL A   1      34.814  23.583  23.759  1.00  0.00     0.027 H 
ATOM     33  H   UNL A   1      35.678  22.366  22.850  1.00  0.00     0.027 H 
ENDBRANCH  29  30
BRANCH  29  34
ATOM     34  C   UNL A   1      37.360  21.480  24.564  1.00  0.00    -0.025 C 
ATOM     35  H   UNL A   1      38.284  21.714  25.051  1.00  0.00     0.027 H 
ATOM     36  H   UNL A   1      37.515  21.438  23.506  1.00  0.00     0.027 H 
ATOM     37  H   UNL A   1      37.005  20.532  24.910  1.00  0.00     0.027 H 
ENDBRANCH  29  34
BRANCH  29  38
ATOM     38  C   UNL A   1      36.949  23.709  25.690  1.00  0.00    -0.025 C 
ATOM     39  H   UNL A   1      36.287  24.548  25.686  1.00  0.00     0.027 H 
ATOM     40  H   UNL A   1      37.883  23.989  25.247  1.00  0.00     0.027 H 
ATOM     41  H   UNL A   1      37.115  23.389  26.698  1.00  0.00     0.027 H 
ENDBRANCH  29  38
ENDBRANCH  28  29
ENDBRANCH  26  28
ENDBRANCH  15  26
ENDBRANCH  11  14
ENDBRANCH   8  10
BRANCH   8  42
ATOM     42  C   UNL A   1      31.247  26.943  24.996  1.00  0.00     0.002 C 
ATOM     43  H   UNL A   1      30.553  27.748  25.124  1.00  0.00     0.034 H 
ATOM     44  H   UNL A   1      30.830  26.030  24.625  1.00  0.00     0.034 H 
BRANCH  42  45
ATOM     45  C   UNL A   1      32.237  27.367  23.938  1.00  0.00    -0.045 A 
ATOM     46  C   UNL A   1      32.649  28.705  23.855  1.00  0.00    -0.059 A 
ATOM     47  C   UNL A   1      32.759  26.443  23.020  1.00  0.00    -0.059 A 
ATOM     48  C   UNL A   1      33.524  29.118  22.848  1.00  0.00    -0.062 A 
ATOM     49  H   UNL A   1      32.303  29.391  24.545  1.00  0.00     0.063 H 
ATOM     50  C   UNL A   1      33.618  26.862  22.002  1.00  0.00    -0.062 A 
ATOM     51  H   UNL A   1      32.508  25.445  23.099  1.00  0.00     0.063 H 
ATOM     52  C   UNL A   1      33.996  28.200  21.913  1.00  0.00    -0.062 A 
ATOM     53  H   UNL A   1      33.821  30.105  22.797  1.00  0.00     0.062 H 
ATOM     54  H   UNL A   1      33.972  26.180  21.313  1.00  0.00     0.062 H 
ATOM     55  H   UNL A   1      34.625  28.511  21.156  1.00  0.00     0.062 H 
ENDBRANCH  42  45
ENDBRANCH   8  42
ENDBRANCH   5   8
ENDBRANCH   1   4
BRANCH   1  56
ATOM     56  C   UNL A   1      35.294  29.313  27.669  1.00  0.00    -0.036 C 
ATOM     57  H   UNL A   1      36.144  29.440  27.031  1.00  0.00     0.028 H 
ATOM     58  H   UNL A   1      35.502  28.740  28.548  1.00  0.00     0.028 H 
BRANCH  56  59
ATOM     59  C   UNL A   1      34.856  30.697  28.156  1.00  0.00    -0.052 C 
ATOM     60  H   UNL A   1      35.741  31.271  28.341  1.00  0.00     0.027 H 
ATOM     61  H   UNL A   1      34.256  30.516  29.022  1.00  0.00     0.027 H 
BRANCH  59  62
ATOM     62  C   UNL A   1      33.967  31.504  27.202  1.00  0.00    -0.052 C 
ATOM     63  H   UNL A   1      33.366  30.810  26.652  1.00  0.00     0.027 H 
ATOM     64  H   UNL A   1      34.643  32.078  26.603  1.00  0.00     0.027 H 
BRANCH  62  65
ATOM     65  C   UNL A   1      33.028  32.528  27.846  1.00  0.00    -0.036 C 
ATOM     66  H   UNL A   1      33.101  32.417  28.907  1.00  0.00     0.028 H 
ATOM     67  H   UNL A   1      32.055  32.317  27.451  1.00  0.00     0.028 H 
BRANCH  65  68
ATOM     68  C   UNL A   1      33.302  33.990  27.509  1.00  0.00     0.018 C 
ATOM     69  H   UNL A   1      32.748  34.249  26.632  1.00  0.00     0.049 H 
ATOM     70  H   UNL A   1      34.356  34.093  27.358  1.00  0.00     0.049 H 
BRANCH  68  71
ATOM     71  N   UNL A   1      32.923  34.893  28.581  1.00  0.00    -0.352 N 
ATOM     72  C   UNL A   1      33.380  34.986  29.870  1.00  0.00     0.251 C 
ATOM     73  H   UNL A   1      32.225  35.546  28.343  1.00  0.00     0.163 HD
ATOM     74  O   UNL A   1      32.814  35.737  30.660  1.00  0.00    -0.269 OA
BRANCH  72  75
ATOM     75  C   UNL A   1      34.532  34.179  30.335  1.00  0.00     0.039 A 
ATOM     76  C   UNL A   1      35.807  34.506  29.863  1.00  0.00    -0.049 A 
ATOM     77  C   UNL A   1      34.369  33.083  31.186  1.00  0.00    -0.049 A 
ATOM     78  C   UNL A   1      36.920  33.773  30.283  1.00  0.00    -0.053 A 
ATOM     79  H   UNL A   1      35.927  35.290  29.202  1.00  0.00     0.063 H 
ATOM     80  C   UNL A   1      35.487  32.396  31.661  1.00  0.00    -0.053 A 
ATOM     81  H   UNL A   1      33.422  32.782  31.465  1.00  0.00     0.063 H 
ATOM     82  C   UNL A   1      36.773  32.729  31.209  1.00  0.00    -0.014 A 
ATOM     83  H   UNL A   1      37.855  34.000  29.910  1.00  0.00     0.063 H 
ATOM     84  H   UNL A   1      35.367  31.636  32.349  1.00  0.00     0.063 H 
BRANCH  82  85
ATOM     85  C   UNL A   1      37.952  31.975  31.709  1.00  0.00     0.031 A 
ATOM     86  C   UNL A   1      38.545  32.294  33.052  1.00  0.00     0.074 A 
ATOM     87  C   UNL A   1      38.530  31.046  30.923  1.00  0.00     0.049 A 
ATOM     88  N   UNL A   1      39.610  31.794  33.628  1.00  0.00    -0.248 NA
ATOM     89  C   UNL A   1      37.871  33.336  33.842  1.00  0.00    -0.034 C 
ATOM     90  C   UNL A   1      38.084  30.683  29.578  1.00  0.00    -0.036 A 
ATOM     91  N   UNL A   1      39.629  30.251  31.135  1.00  0.00    -0.354 N 
ATOM     92  C   UNL A   1      39.745  32.474  34.831  1.00  0.00     0.074 A 
ATOM     93  C   UNL A   1      38.679  33.453  34.884  1.00  0.00    -0.034 C 
ATOM     94  H   UNL A   1      36.995  33.843  33.636  1.00  0.00     0.065 H 
ATOM     95  C   UNL A   1      38.893  29.729  29.089  1.00  0.00    -0.036 A 
ATOM     96  H   UNL A   1      37.276  31.093  29.084  1.00  0.00     0.065 H 
ATOM     97  C   UNL A   1      39.933  29.437  30.073  1.00  0.00     0.049 A 
ATOM     98  H   UNL A   1      40.150  30.264  31.971  1.00  0.00     0.167 HD
ATOM     99  C   UNL A   1      40.662  32.287  35.811  1.00  0.00     0.037 A 
ATOM    100  H   UNL A   1      38.565  34.150  35.636  1.00  0.00     0.065 H 
ATOM    101  H   UNL A   1      38.795  29.275  28.168  1.00  0.00     0.065 H 
ATOM    102  C   UNL A   1      40.940  28.559  29.905  1.00  0.00     0.037 A 
ATOM    103  C   UNL A   1      41.698  31.289  35.772  1.00  0.00     0.049 A 
ATOM    104  C   UNL A   1      41.929  28.350  31.016  1.00  0.00     0.074 A 
ATOM    105  C   UNL A   1      42.618  30.961  36.753  1.00  0.00    -0.036 A 
ATOM    106  N   UNL A   1      41.953  30.456  34.692  1.00  0.00    -0.354 N 
ATOM    107  N   UNL A   1      41.998  28.941  32.183  1.00  0.00    -0.248 NA
ATOM    108  C   UNL A   1      42.977  27.344  30.791  1.00  0.00    -0.034 C 
ATOM    109  C   UNL A   1      43.459  29.962  36.249  1.00  0.00    -0.036 A 
ATOM    110  H   UNL A   1      42.674  31.380  37.694  1.00  0.00     0.065 H 
ATOM    111  C   UNL A   1      43.032  29.634  34.972  1.00  0.00     0.049 A 
ATOM    112  H   UNL A   1      41.442  30.451  33.851  1.00  0.00     0.167 HD
ATOM    113  C   UNL A   1      43.079  28.368  32.839  1.00  0.00     0.074 A 
ATOM    114  C   UNL A   1      43.627  27.369  31.946  1.00  0.00    -0.034 C 
ATOM    115  H   UNL A   1      43.158  26.767  29.954  1.00  0.00     0.065 H 
ATOM    116  H   UNL A   1      44.260  29.542  36.745  1.00  0.00     0.065 H 
ATOM    117  C   UNL A   1      43.570  28.645  34.073  1.00  0.00     0.037 A 
ATOM    118  H   UNL A   1      44.424  26.756  32.179  1.00  0.00     0.065 H 
BRANCH  99 119
ATOM    119  C   UNL A   1      40.588  33.187  37.011  1.00  0.00     0.064 A 
ATOM    120  C   UNL A   1      39.642  32.988  38.027  1.00  0.00     0.173 A 
ATOM    121  C   UNL A   1      41.495  34.248  37.158  1.00  0.00     0.173 A 
ATOM    122  F   UNL A   1      38.747  31.993  37.929  1.00  0.00    -0.203 F 
ATOM    123  C   UNL A   1      39.584  33.836  39.130  1.00  0.00     0.198 A 
ATOM    124  C   UNL A   1      41.454  35.076  38.278  1.00  0.00     0.198 A 
ATOM    125  F   UNL A   1      42.425  34.479  36.220  1.00  0.00    -0.203 F 
ATOM    126  F   UNL A   1      38.637  33.657  40.061  1.00  0.00    -0.200 F 
ATOM    127  C   UNL A   1      40.493  34.876  39.258  1.00  0.00     0.200 A 
ATOM    128  F   UNL A   1      42.341  36.072  38.406  1.00  0.00    -0.200 F 
ATOM    129  F   UNL A   1      40.438  35.689  40.321  1.00  0.00    -0.200 F 
ENDBRANCH  99 119
BRANCH 102 130
ATOM    130  C   UNL A   1      41.043  27.796  28.635  1.00  0.00     0.064 A 
ATOM    131  C   UNL A   1      41.869  28.239  27.593  1.00  0.00     0.173 A 
ATOM    132  C   UNL A   1      40.335  26.599  28.445  1.00  0.00     0.173 A 
ATOM    133  F   UNL A   1      42.549  29.387  27.721  1.00  0.00    -0.203 F 
ATOM    134  C   UNL A   1      41.975  27.521  26.404  1.00  0.00     0.198 A 
ATOM    135  C   UNL A   1      40.462  25.869  27.265  1.00  0.00     0.198 A 
ATOM    136  F   UNL A   1      39.537  26.130  29.415  1.00  0.00    -0.203 F 
ATOM    137  F   UNL A   1      42.744  27.984  25.410  1.00  0.00    -0.200 F 
ATOM    138  C   UNL A   1      41.276  26.333  26.244  1.00  0.00     0.200 A 
ATOM    139  F   UNL A   1      39.797  24.714  27.121  1.00  0.00    -0.200 F 
ATOM    140  F   UNL A   1      41.387  25.637  25.104  1.00  0.00    -0.200 F 
ENDBRANCH 102 130
BRANCH 117 141
ATOM    141  C   UNL A   1      44.750  27.843  34.539  1.00  0.00     0.064 A 
ATOM    142  C   UNL A   1      46.065  28.292  34.344  1.00  0.00     0.173 A 
ATOM    143  C   UNL A   1      44.561  26.635  35.224  1.00  0.00     0.173 A 
ATOM    144  F   UNL A   1      46.297  29.434  33.680  1.00  0.00    -0.203 F 
ATOM    145  C   UNL A   1      47.149  27.546  34.801  1.00  0.00     0.198 A 
ATOM    146  C   UNL A   1      45.647  25.906  35.704  1.00  0.00     0.198 A 
ATOM    147  F   UNL A   1      43.323  26.164  35.440  1.00  0.00    -0.203 F 
ATOM    148  F   UNL A   1      48.398  27.973  34.568  1.00  0.00    -0.200 F 
ATOM    149  C   UNL A   1      46.939  26.360  35.487  1.00  0.00     0.200 A 
ATOM    150  F   UNL A   1      45.441  24.765  36.376  1.00  0.00    -0.200 F 
ATOM    151  F   UNL A   1      47.984  25.649  35.932  1.00  0.00    -0.200 F 
ENDBRANCH 117 141
ENDBRANCH  82  85
ENDBRANCH  72  75
ENDBRANCH  68  71
ENDBRANCH  65  68
ENDBRANCH  62  65
ENDBRANCH  59  62
ENDBRANCH  56  59
ENDBRANCH   1  56
TORSDOF 23
ENDMDL
MODEL 9
REMARK VINA RESULT:     -10.6      6.693     12.061
REMARK SMILES CC(C)(C)OC(=O)N1CCC[C@H]1C(=O)N[C@@H](Cc1ccccc1)C(=O)NCCCCCCNC(=O)c1ccc(-c2c3nc(c(-c4c(F)c(F)c(F)c(F)c4F)c4ccc([nH]4)c(-c4c(F)c(F)c(F)c(F)c4F)c4nc(c(-c5c(F)c(F)c(F)c(F)c5F)c5ccc2[nH]5)C=C4)C=C3)cc1
REMARK SMILES IDX 27 1 26 4 24 5 25 6 16 8 15 10 13 11 14 12 12 14 8 15 9 16
REMARK SMILES IDX 10 17 11 20 6 26 7 27 5 28 2 29 1 30 3 34 4 38 17 42 18 45
REMARK SMILES IDX 19 46 23 47 20 48 22 50 21 52 28 56 29 59 30 62 31 65 32 68
REMARK SMILES IDX 33 71 34 72 35 74 36 75 37 76 98 77 38 78 97 80 39 82 40 85
REMARK SMILES IDX 41 86 91 87 42 88 96 89 90 90 92 91 43 92 95 93 89 95 88 97
REMARK SMILES IDX 44 99 76 102 56 103 75 104 57 105 60 106 74 107 93 108
REMARK SMILES IDX 58 109 59 111 73 113 94 114 61 117 45 119 46 120 54 121
REMARK SMILES IDX 47 122 48 123 52 124 55 125 49 126 50 127 53 128 51 129
REMARK SMILES IDX 77 130 78 131 86 132 79 133 80 134 84 135 87 136 81 137
REMARK SMILES IDX 82 138 85 139 83 140 62 141 63 142 71 143 64 144 65 145
REMARK SMILES IDX 69 146 72 147 66 148 67 149 70 150 68 151
REMARK H PARENT 27 2 27 3 26 7 16 9 15 13 9 18 9 19 12 21 10 22 10 23 11 24
REMARK H PARENT 11 25 1 31 1 32 1 33 3 35 3 36 3 37 4 39 4 40 4 41 17 43 17 44
REMARK H PARENT 19 49 23 51 20 53 22 54 21 55 28 57 28 58 29 60 29 61 30 63
REMARK H PARENT 30 64 31 66 31 67 32 69 32 70 33 73 37 79 98 81 38 83 97 84
REMARK H PARENT 96 94 90 96 92 98 95 100 89 101 57 110 60 112 93 115 58 116
REMARK H PARENT 94 118
REMARK Flexibility Score: inf
ROOT
ATOM      1  C   UNL A   1      46.245  27.496  25.449  1.00  0.00     0.017 C 
ATOM      2  H   UNL A   1      46.237  26.661  26.117  1.00  0.00     0.049 H 
ATOM      3  H   UNL A   1      46.361  28.430  25.957  1.00  0.00     0.049 H 
ENDROOT
BRANCH   1   4
ATOM      4  N   UNL A   1      44.971  27.546  24.770  1.00  0.00    -0.354 N 
ATOM      5  C   UNL A   1      43.719  27.318  25.256  1.00  0.00     0.242 C 
ATOM      6  O   UNL A   1      42.778  27.812  24.620  1.00  0.00    -0.273 OA
ATOM      7  H   UNL A   1      45.015  27.779  23.814  1.00  0.00     0.163 HD
BRANCH   5   8
ATOM      8  C   UNL A   1      43.433  26.594  26.593  1.00  0.00     0.112 C 
ATOM      9  H   UNL A   1      42.539  26.046  26.381  1.00  0.00     0.064 H 
BRANCH   8  10
ATOM     10  N   UNL A   1      44.398  25.553  26.966  1.00  0.00    -0.342 N 
ATOM     11  C   UNL A   1      44.232  24.198  27.046  1.00  0.00     0.243 C 
ATOM     12  O   UNL A   1      45.193  23.532  27.435  1.00  0.00    -0.273 OA
ATOM     13  H   UNL A   1      45.299  25.879  27.192  1.00  0.00     0.164 HD
BRANCH  11  14
ATOM     14  C   UNL A   1      42.842  23.594  26.776  1.00  0.00     0.114 C 
ATOM     15  N   UNL A   1      42.893  22.196  26.372  1.00  0.00    -0.296 N 
ATOM     16  C   UNL A   1      42.320  21.323  27.371  1.00  0.00     0.025 C 
ATOM     17  C   UNL A   1      41.341  22.222  28.101  1.00  0.00    -0.033 C 
ATOM     18  H   UNL A   1      43.074  20.956  28.037  1.00  0.00     0.050 H 
ATOM     19  H   UNL A   1      41.859  20.452  26.953  1.00  0.00     0.050 H 
ATOM     20  C   UNL A   1      42.021  23.588  28.075  1.00  0.00    -0.022 C 
ATOM     21  H   UNL A   1      42.419  24.192  25.997  1.00  0.00     0.064 H 
ATOM     22  H   UNL A   1      41.191  21.889  29.106  1.00  0.00     0.029 H 
ATOM     23  H   UNL A   1      40.371  22.232  27.649  1.00  0.00     0.029 H 
ATOM     24  H   UNL A   1      42.660  23.706  28.925  1.00  0.00     0.029 H 
ATOM     25  H   UNL A   1      41.316  24.391  28.110  1.00  0.00     0.029 H 
BRANCH  15  26
ATOM     26  C   UNL A   1      43.327  21.839  25.120  1.00  0.00     0.410 C 
ATOM     27  O   UNL A   1      43.512  22.648  24.226  1.00  0.00    -0.224 OA
BRANCH  26  28
ATOM     28  O   UNL A   1      43.451  20.494  25.001  1.00  0.00    -0.444 OA
BRANCH  28  29
ATOM     29  C   UNL A   1      44.740  19.843  24.850  1.00  0.00     0.106 C 
BRANCH  29  30
ATOM     30  C   UNL A   1      44.810  19.462  23.363  1.00  0.00    -0.025 C 
ATOM     31  H   UNL A   1      43.855  19.100  23.042  1.00  0.00     0.027 H 
ATOM     32  H   UNL A   1      45.546  18.698  23.225  1.00  0.00     0.027 H 
ATOM     33  H   UNL A   1      45.077  20.323  22.787  1.00  0.00     0.027 H 
ENDBRANCH  29  30
BRANCH  29  34
ATOM     34  C   UNL A   1      44.743  18.574  25.703  1.00  0.00    -0.025 C 
ATOM     35  H   UNL A   1      45.748  18.225  25.821  1.00  0.00     0.027 H 
ATOM     36  H   UNL A   1      44.158  17.818  25.220  1.00  0.00     0.027 H 
ATOM     37  H   UNL A   1      44.325  18.788  26.664  1.00  0.00     0.027 H 
ENDBRANCH  29  34
BRANCH  29  38
ATOM     38  C   UNL A   1      45.949  20.733  25.168  1.00  0.00    -0.025 C 
ATOM     39  H   UNL A   1      46.583  20.794  24.308  1.00  0.00     0.027 H 
ATOM     40  H   UNL A   1      46.497  20.311  25.985  1.00  0.00     0.027 H 
ATOM     41  H   UNL A   1      45.611  21.713  25.433  1.00  0.00     0.027 H 
ENDBRANCH  29  38
ENDBRANCH  28  29
ENDBRANCH  26  28
ENDBRANCH  15  26
ENDBRANCH  11  14
ENDBRANCH   8  10
BRANCH   8  42
ATOM     42  C   UNL A   1      43.066  27.539  27.760  1.00  0.00     0.002 C 
ATOM     43  H   UNL A   1      43.528  28.484  27.562  1.00  0.00     0.034 H 
ATOM     44  H   UNL A   1      43.412  27.032  28.636  1.00  0.00     0.034 H 
BRANCH  42  45
ATOM     45  C   UNL A   1      41.603  27.799  28.023  1.00  0.00    -0.045 A 
ATOM     46  C   UNL A   1      40.966  28.900  27.430  1.00  0.00    -0.059 A 
ATOM     47  C   UNL A   1      40.854  26.958  28.859  1.00  0.00    -0.059 A 
ATOM     48  C   UNL A   1      39.626  29.181  27.708  1.00  0.00    -0.062 A 
ATOM     49  H   UNL A   1      41.492  29.509  26.783  1.00  0.00     0.063 H 
ATOM     50  C   UNL A   1      39.520  27.252  29.151  1.00  0.00    -0.062 A 
ATOM     51  H   UNL A   1      41.292  26.114  29.261  1.00  0.00     0.063 H 
ATOM     52  C   UNL A   1      38.908  28.366  28.579  1.00  0.00    -0.062 A 
ATOM     53  H   UNL A   1      39.168  29.993  27.266  1.00  0.00     0.062 H 
ATOM     54  H   UNL A   1      38.987  26.644  29.792  1.00  0.00     0.062 H 
ATOM     55  H   UNL A   1      37.925  28.586  28.801  1.00  0.00     0.062 H 
ENDBRANCH  42  45
ENDBRANCH   8  42
ENDBRANCH   5   8
ENDBRANCH   1   4
BRANCH   1  56
ATOM     56  C   UNL A   1      47.441  27.353  24.519  1.00  0.00    -0.036 C 
ATOM     57  H   UNL A   1      47.380  28.124  23.780  1.00  0.00     0.028 H 
ATOM     58  H   UNL A   1      47.385  26.365  24.111  1.00  0.00     0.028 H 
BRANCH  56  59
ATOM     59  C   UNL A   1      48.811  27.455  25.196  1.00  0.00    -0.052 C 
ATOM     60  H   UNL A   1      48.889  26.649  25.897  1.00  0.00     0.027 H 
ATOM     61  H   UNL A   1      48.838  28.430  25.636  1.00  0.00     0.027 H 
BRANCH  59  62
ATOM     62  C   UNL A   1      50.033  27.389  24.272  1.00  0.00    -0.052 C 
ATOM     63  H   UNL A   1      50.061  28.295  23.704  1.00  0.00     0.027 H 
ATOM     64  H   UNL A   1      49.899  26.502  23.688  1.00  0.00     0.027 H 
BRANCH  62  65
ATOM     65  C   UNL A   1      51.396  27.222  24.952  1.00  0.00    -0.036 C 
ATOM     66  H   UNL A   1      51.333  27.666  25.923  1.00  0.00     0.028 H 
ATOM     67  H   UNL A   1      52.103  27.693  24.301  1.00  0.00     0.028 H 
BRANCH  65  68
ATOM     68  C   UNL A   1      51.884  25.788  25.126  1.00  0.00     0.018 C 
ATOM     69  H   UNL A   1      52.310  25.457  24.202  1.00  0.00     0.049 H 
ATOM     70  H   UNL A   1      51.042  25.193  25.410  1.00  0.00     0.049 H 
BRANCH  68  71
ATOM     71  N   UNL A   1      52.884  25.658  26.171  1.00  0.00    -0.352 N 
ATOM     72  C   UNL A   1      52.821  25.965  27.506  1.00  0.00     0.251 C 
ATOM     73  H   UNL A   1      53.747  25.289  25.872  1.00  0.00     0.163 HD
ATOM     74  O   UNL A   1      53.842  25.910  28.187  1.00  0.00    -0.269 OA
BRANCH  72  75
ATOM     75  C   UNL A   1      51.549  26.386  28.137  1.00  0.00     0.039 A 
ATOM     76  C   UNL A   1      51.528  27.586  28.854  1.00  0.00    -0.049 A 
ATOM     77  C   UNL A   1      50.397  25.597  28.074  1.00  0.00    -0.049 A 
ATOM     78  C   UNL A   1      50.346  28.022  29.460  1.00  0.00    -0.053 A 
ATOM     79  H   UNL A   1      52.388  28.153  28.938  1.00  0.00     0.063 H 
ATOM     80  C   UNL A   1      49.200  26.065  28.617  1.00  0.00    -0.053 A 
ATOM     81  H   UNL A   1      50.432  24.670  27.624  1.00  0.00     0.063 H 
ATOM     82  C   UNL A   1      49.164  27.279  29.321  1.00  0.00    -0.014 A 
ATOM     83  H   UNL A   1      50.342  28.894  30.011  1.00  0.00     0.063 H 
ATOM     84  H   UNL A   1      48.335  25.515  28.501  1.00  0.00     0.063 H 
BRANCH  82  85
ATOM     85  C   UNL A   1      47.885  27.754  29.910  1.00  0.00     0.031 A 
ATOM     86  C   UNL A   1      47.259  27.022  31.063  1.00  0.00     0.074 A 
ATOM     87  C   UNL A   1      47.252  28.810  29.362  1.00  0.00     0.049 A 
ATOM     88  N   UNL A   1      46.117  27.244  31.665  1.00  0.00    -0.248 NA
ATOM     89  C   UNL A   1      48.000  25.866  31.591  1.00  0.00    -0.034 C 
ATOM     90  C   UNL A   1      47.728  29.573  28.208  1.00  0.00    -0.036 A 
ATOM     91  N   UNL A   1      46.064  29.413  29.693  1.00  0.00    -0.354 N 
ATOM     92  C   UNL A   1      45.993  26.246  32.622  1.00  0.00     0.074 A 
ATOM     93  C   UNL A   1      47.154  25.391  32.493  1.00  0.00    -0.034 C 
ATOM     94  H   UNL A   1      48.934  25.516  31.326  1.00  0.00     0.065 H 
ATOM     95  C   UNL A   1      46.847  30.549  27.933  1.00  0.00    -0.036 A 
ATOM     96  H   UNL A   1      48.600  29.390  27.688  1.00  0.00     0.065 H 
ATOM     97  C   UNL A   1      45.731  30.461  28.871  1.00  0.00     0.049 A 
ATOM     98  H   UNL A   1      45.504  29.121  30.449  1.00  0.00     0.167 HD
ATOM     99  C   UNL A   1      45.010  26.070  33.538  1.00  0.00     0.037 A 
ATOM    100  H   UNL A   1      47.303  24.525  33.033  1.00  0.00     0.065 H 
ATOM    101  H   UNL A   1      46.944  31.249  27.181  1.00  0.00     0.065 H 
ATOM    102  C   UNL A   1      44.646  31.257  28.868  1.00  0.00     0.037 A 
ATOM    103  C   UNL A   1      43.876  26.943  33.689  1.00  0.00     0.049 A 
ATOM    104  C   UNL A   1      43.581  31.059  29.910  1.00  0.00     0.074 A 
ATOM    105  C   UNL A   1      42.876  26.900  34.644  1.00  0.00    -0.036 A 
ATOM    106  N   UNL A   1      43.591  28.018  32.859  1.00  0.00    -0.354 N 
ATOM    107  N   UNL A   1      43.515  30.162  30.863  1.00  0.00    -0.248 NA
ATOM    108  C   UNL A   1      42.445  31.990  29.884  1.00  0.00    -0.034 C 
ATOM    109  C   UNL A   1      41.959  27.921  34.365  1.00  0.00    -0.036 A 
ATOM    110  H   UNL A   1      42.815  26.232  35.428  1.00  0.00     0.065 H 
ATOM    111  C   UNL A   1      42.415  28.629  33.264  1.00  0.00     0.049 A 
ATOM    112  H   UNL A   1      44.142  28.303  32.096  1.00  0.00     0.167 HD
ATOM    113  C   UNL A   1      42.345  30.430  31.560  1.00  0.00     0.074 A 
ATOM    114  C   UNL A   1      41.740  31.586  30.931  1.00  0.00    -0.034 C 
ATOM    115  H   UNL A   1      42.247  32.759  29.223  1.00  0.00     0.065 H 
ATOM    116  H   UNL A   1      41.092  28.113  34.889  1.00  0.00     0.065 H 
ATOM    117  C   UNL A   1      41.822  29.777  32.627  1.00  0.00     0.037 A 
ATOM    118  H   UNL A   1      40.870  32.036  31.257  1.00  0.00     0.065 H 
BRANCH  99 119
ATOM    119  C   UNL A   1      45.117  24.881  34.449  1.00  0.00     0.064 A 
ATOM    120  C   UNL A   1      45.693  24.977  35.726  1.00  0.00     0.173 A 
ATOM    121  C   UNL A   1      44.611  23.634  34.051  1.00  0.00     0.173 A 
ATOM    122  F   UNL A   1      46.200  26.145  36.150  1.00  0.00    -0.203 F 
ATOM    123  C   UNL A   1      45.790  23.863  36.555  1.00  0.00     0.198 A 
ATOM    124  C   UNL A   1      44.682  22.528  34.896  1.00  0.00     0.198 A 
ATOM    125  F   UNL A   1      44.044  23.488  32.845  1.00  0.00    -0.203 F 
ATOM    126  F   UNL A   1      46.392  23.968  37.748  1.00  0.00    -0.200 F 
ATOM    127  C   UNL A   1      45.279  22.641  36.142  1.00  0.00     0.200 A 
ATOM    128  F   UNL A   1      44.177  21.352  34.501  1.00  0.00    -0.200 F 
ATOM    129  F   UNL A   1      45.370  21.571  36.943  1.00  0.00    -0.200 F 
ENDBRANCH  99 119
BRANCH 102 130
ATOM    130  C   UNL A   1      44.528  32.332  27.849  1.00  0.00     0.064 A 
ATOM    131  C   UNL A   1      44.960  33.637  28.125  1.00  0.00     0.173 A 
ATOM    132  C   UNL A   1      44.003  32.073  26.574  1.00  0.00     0.173 A 
ATOM    133  F   UNL A   1      45.451  33.936  29.336  1.00  0.00    -0.203 F 
ATOM    134  C   UNL A   1      44.860  34.645  27.169  1.00  0.00     0.198 A 
ATOM    135  C   UNL A   1      43.927  33.077  25.611  1.00  0.00     0.198 A 
ATOM    136  F   UNL A   1      43.583  30.839  26.260  1.00  0.00    -0.203 F 
ATOM    137  F   UNL A   1      45.247  35.892  27.470  1.00  0.00    -0.200 F 
ATOM    138  C   UNL A   1      44.349  34.362  25.911  1.00  0.00     0.200 A 
ATOM    139  F   UNL A   1      43.447  32.795  24.391  1.00  0.00    -0.200 F 
ATOM    140  F   UNL A   1      44.263  35.330  24.988  1.00  0.00    -0.200 F 
ENDBRANCH 102 130
BRANCH 117 141
ATOM    141  C   UNL A   1      40.539  30.309  33.197  1.00  0.00     0.064 A 
ATOM    142  C   UNL A   1      39.296  29.777  32.825  1.00  0.00     0.173 A 
ATOM    143  C   UNL A   1      40.557  31.332  34.155  1.00  0.00     0.173 A 
ATOM    144  F   UNL A   1      39.225  28.808  31.901  1.00  0.00    -0.203 F 
ATOM    145  C   UNL A   1      38.115  30.266  33.379  1.00  0.00     0.198 A 
ATOM    146  C   UNL A   1      39.377  31.800  34.727  1.00  0.00     0.198 A 
ATOM    147  F   UNL A   1      41.721  31.872  34.548  1.00  0.00    -0.203 F 
ATOM    148  F   UNL A   1      36.935  29.772  32.978  1.00  0.00    -0.200 F 
ATOM    149  C   UNL A   1      38.157  31.271  34.333  1.00  0.00     0.200 A 
ATOM    150  F   UNL A   1      39.420  32.763  35.658  1.00  0.00    -0.200 F 
ATOM    151  F   UNL A   1      37.020  31.735  34.870  1.00  0.00    -0.200 F 
ENDBRANCH 117 141
ENDBRANCH  82  85
ENDBRANCH  72  75
ENDBRANCH  68  71
ENDBRANCH  65  68
ENDBRANCH  62  65
ENDBRANCH  59  62
ENDBRANCH  56  59
ENDBRANCH   1  56
TORSDOF 23
ENDMDL
MODEL 10
REMARK VINA RESULT:     -10.6      7.558     11.656
REMARK SMILES CC(C)(C)OC(=O)N1CCC[C@H]1C(=O)N[C@@H](Cc1ccccc1)C(=O)NCCCCCCNC(=O)c1ccc(-c2c3nc(c(-c4c(F)c(F)c(F)c(F)c4F)c4ccc([nH]4)c(-c4c(F)c(F)c(F)c(F)c4F)c4nc(c(-c5c(F)c(F)c(F)c(F)c5F)c5ccc2[nH]5)C=C4)C=C3)cc1
REMARK SMILES IDX 27 1 26 4 24 5 25 6 16 8 15 10 13 11 14 12 12 14 8 15 9 16
REMARK SMILES IDX 10 17 11 20 6 26 7 27 5 28 2 29 1 30 3 34 4 38 17 42 18 45
REMARK SMILES IDX 19 46 23 47 20 48 22 50 21 52 28 56 29 59 30 62 31 65 32 68
REMARK SMILES IDX 33 71 34 72 35 74 36 75 37 76 98 77 38 78 97 80 39 82 40 85
REMARK SMILES IDX 41 86 91 87 42 88 96 89 90 90 92 91 43 92 95 93 89 95 88 97
REMARK SMILES IDX 44 99 76 102 56 103 75 104 57 105 60 106 74 107 93 108
REMARK SMILES IDX 58 109 59 111 73 113 94 114 61 117 45 119 46 120 54 121
REMARK SMILES IDX 47 122 48 123 52 124 55 125 49 126 50 127 53 128 51 129
REMARK SMILES IDX 77 130 78 131 86 132 79 133 80 134 84 135 87 136 81 137
REMARK SMILES IDX 82 138 85 139 83 140 62 141 63 142 71 143 64 144 65 145
REMARK SMILES IDX 69 146 72 147 66 148 67 149 70 150 68 151
REMARK H PARENT 27 2 27 3 26 7 16 9 15 13 9 18 9 19 12 21 10 22 10 23 11 24
REMARK H PARENT 11 25 1 31 1 32 1 33 3 35 3 36 3 37 4 39 4 40 4 41 17 43 17 44
REMARK H PARENT 19 49 23 51 20 53 22 54 21 55 28 57 28 58 29 60 29 61 30 63
REMARK H PARENT 30 64 31 66 31 67 32 69 32 70 33 73 37 79 98 81 38 83 97 84
REMARK H PARENT 96 94 90 96 92 98 95 100 89 101 57 110 60 112 93 115 58 116
REMARK H PARENT 94 118
REMARK Flexibility Score: inf
ROOT
ATOM      1  C   UNL A   1      38.683  28.947  28.081  1.00  0.00     0.017 C 
ATOM      2  H   UNL A   1      38.381  29.814  27.533  1.00  0.00     0.049 H 
ATOM      3  H   UNL A   1      38.358  28.035  27.625  1.00  0.00     0.049 H 
ENDROOT
BRANCH   1   4
ATOM      4  N   UNL A   1      38.072  29.000  29.389  1.00  0.00    -0.354 N 
ATOM      5  C   UNL A   1      36.926  29.622  29.786  1.00  0.00     0.242 C 
ATOM      6  O   UNL A   1      36.394  29.198  30.821  1.00  0.00    -0.273 OA
ATOM      7  H   UNL A   1      38.554  28.517  30.097  1.00  0.00     0.163 HD
BRANCH   5   8
ATOM      8  C   UNL A   1      36.213  30.723  28.964  1.00  0.00     0.112 C 
ATOM      9  H   UNL A   1      35.280  30.834  29.473  1.00  0.00     0.064 H 
BRANCH   8  10
ATOM     10  N   UNL A   1      36.814  32.059  29.045  1.00  0.00    -0.342 N 
ATOM     11  C   UNL A   1      36.225  33.266  29.303  1.00  0.00     0.243 C 
ATOM     12  O   UNL A   1      36.944  34.266  29.269  1.00  0.00    -0.273 OA
ATOM     13  H   UNL A   1      37.785  32.092  28.890  1.00  0.00     0.164 HD
BRANCH  11  14
ATOM     14  C   UNL A   1      34.698  33.332  29.495  1.00  0.00     0.114 C 
ATOM     15  N   UNL A   1      34.298  34.156  30.626  1.00  0.00    -0.296 N 
ATOM     16  C   UNL A   1      33.605  35.353  30.205  1.00  0.00     0.025 C 
ATOM     17  C   UNL A   1      33.014  34.960  28.865  1.00  0.00    -0.033 C 
ATOM     18  H   UNL A   1      34.287  36.172  30.099  1.00  0.00     0.050 H 
ATOM     19  H   UNL A   1      32.869  35.682  30.909  1.00  0.00     0.050 H 
ATOM     20  C   UNL A   1      34.055  34.012  28.277  1.00  0.00    -0.022 C 
ATOM     21  H   UNL A   1      34.387  32.319  29.642  1.00  0.00     0.064 H 
ATOM     22  H   UNL A   1      32.882  35.817  28.240  1.00  0.00     0.029 H 
ATOM     23  H   UNL A   1      32.046  34.512  28.954  1.00  0.00     0.029 H 
ATOM     24  H   UNL A   1      34.787  34.557  27.720  1.00  0.00     0.029 H 
ATOM     25  H   UNL A   1      33.622  33.305  27.602  1.00  0.00     0.029 H 
BRANCH  15  26
ATOM     26  C   UNL A   1      34.473  33.718  31.915  1.00  0.00     0.410 C 
ATOM     27  O   UNL A   1      33.763  32.871  32.431  1.00  0.00    -0.224 OA
BRANCH  26  28
ATOM     28  O   UNL A   1      35.474  34.389  32.537  1.00  0.00    -0.444 OA
BRANCH  28  29
ATOM     29  C   UNL A   1      36.501  33.713  33.309  1.00  0.00     0.106 C 
BRANCH  29  30
ATOM     30  C   UNL A   1      37.781  34.518  33.039  1.00  0.00    -0.025 C 
ATOM     31  H   UNL A   1      38.530  33.872  32.631  1.00  0.00     0.027 H 
ATOM     32  H   UNL A   1      38.136  34.943  33.954  1.00  0.00     0.027 H 
ATOM     33  H   UNL A   1      37.570  35.301  32.341  1.00  0.00     0.027 H 
ENDBRANCH  29  30
BRANCH  29  34
ATOM     34  C   UNL A   1      36.665  32.295  32.761  1.00  0.00    -0.025 C 
ATOM     35  H   UNL A   1      36.109  32.197  31.852  1.00  0.00     0.027 H 
ATOM     36  H   UNL A   1      36.300  31.591  33.480  1.00  0.00     0.027 H 
ATOM     37  H   UNL A   1      37.700  32.104  32.569  1.00  0.00     0.027 H 
ENDBRANCH  29  34
BRANCH  29  38
ATOM     38  C   UNL A   1      36.261  33.702  34.825  1.00  0.00    -0.025 C 
ATOM     39  H   UNL A   1      35.291  34.099  35.036  1.00  0.00     0.027 H 
ATOM     40  H   UNL A   1      37.005  34.301  35.308  1.00  0.00     0.027 H 
ATOM     41  H   UNL A   1      36.323  32.697  35.188  1.00  0.00     0.027 H 
ENDBRANCH  29  38
ENDBRANCH  28  29
ENDBRANCH  26  28
ENDBRANCH  15  26
ENDBRANCH  11  14
ENDBRANCH   8  10
BRANCH   8  42
ATOM     42  C   UNL A   1      35.847  30.300  27.524  1.00  0.00     0.002 C 
ATOM     43  H   UNL A   1      36.524  29.522  27.237  1.00  0.00     0.034 H 
ATOM     44  H   UNL A   1      35.912  31.202  26.953  1.00  0.00     0.034 H 
BRANCH  42  45
ATOM     45  C   UNL A   1      34.447  29.792  27.273  1.00  0.00    -0.045 A 
ATOM     46  C   UNL A   1      34.233  28.437  26.976  1.00  0.00    -0.059 A 
ATOM     47  C   UNL A   1      33.341  30.652  27.328  1.00  0.00    -0.059 A 
ATOM     48  C   UNL A   1      32.949  27.967  26.691  1.00  0.00    -0.062 A 
ATOM     49  H   UNL A   1      35.031  27.782  26.967  1.00  0.00     0.063 H 
ATOM     50  C   UNL A   1      32.061  30.184  27.023  1.00  0.00    -0.062 A 
ATOM     51  H   UNL A   1      33.474  31.640  27.597  1.00  0.00     0.063 H 
ATOM     52  C   UNL A   1      31.866  28.843  26.699  1.00  0.00    -0.062 A 
ATOM     53  H   UNL A   1      32.802  26.969  26.474  1.00  0.00     0.062 H 
ATOM     54  H   UNL A   1      31.258  30.832  27.036  1.00  0.00     0.062 H 
ATOM     55  H   UNL A   1      30.921  28.498  26.468  1.00  0.00     0.062 H 
ENDBRANCH  42  45
ENDBRANCH   8  42
ENDBRANCH   5   8
ENDBRANCH   1   4
BRANCH   1  56
ATOM     56  C   UNL A   1      40.204  28.904  28.106  1.00  0.00    -0.036 C 
ATOM     57  H   UNL A   1      40.526  29.158  29.095  1.00  0.00     0.028 H 
ATOM     58  H   UNL A   1      40.534  29.596  27.359  1.00  0.00     0.028 H 
BRANCH  56  59
ATOM     59  C   UNL A   1      40.826  27.554  27.740  1.00  0.00    -0.052 C 
ATOM     60  H   UNL A   1      41.890  27.668  27.764  1.00  0.00     0.027 H 
ATOM     61  H   UNL A   1      40.428  27.310  26.777  1.00  0.00     0.027 H 
BRANCH  59  62
ATOM     62  C   UNL A   1      40.463  26.369  28.644  1.00  0.00    -0.052 C 
ATOM     63  H   UNL A   1      39.925  26.755  29.484  1.00  0.00     0.027 H 
ATOM     64  H   UNL A   1      41.395  25.904  28.888  1.00  0.00     0.027 H 
BRANCH  62  65
ATOM     65  C   UNL A   1      39.612  25.263  28.012  1.00  0.00    -0.036 C 
ATOM     66  H   UNL A   1      38.587  25.567  28.068  1.00  0.00     0.028 H 
ATOM     67  H   UNL A   1      39.835  24.375  28.566  1.00  0.00     0.028 H 
BRANCH  65  68
ATOM     68  C   UNL A   1      39.922  24.932  26.556  1.00  0.00     0.018 C 
ATOM     69  H   UNL A   1      40.441  25.759  26.120  1.00  0.00     0.049 H 
ATOM     70  H   UNL A   1      38.992  24.741  26.064  1.00  0.00     0.049 H 
BRANCH  68  71
ATOM     71  N   UNL A   1      40.743  23.742  26.415  1.00  0.00    -0.352 N 
ATOM     72  C   UNL A   1      42.092  23.611  26.206  1.00  0.00     0.251 C 
ATOM     73  H   UNL A   1      40.251  22.891  26.480  1.00  0.00     0.163 HD
ATOM     74  O   UNL A   1      42.563  22.501  25.971  1.00  0.00    -0.269 OA
BRANCH  72  75
ATOM     75  C   UNL A   1      42.990  24.788  26.237  1.00  0.00     0.039 A 
ATOM     76  C   UNL A   1      43.659  25.084  27.429  1.00  0.00    -0.049 A 
ATOM     77  C   UNL A   1      43.145  25.627  25.130  1.00  0.00    -0.049 A 
ATOM     78  C   UNL A   1      44.520  26.182  27.497  1.00  0.00    -0.053 A 
ATOM     79  H   UNL A   1      43.515  24.490  28.262  1.00  0.00     0.063 H 
ATOM     80  C   UNL A   1      44.058  26.681  25.176  1.00  0.00    -0.053 A 
ATOM     81  H   UNL A   1      42.586  25.466  24.278  1.00  0.00     0.063 H 
ATOM     82  C   UNL A   1      44.750  26.974  26.361  1.00  0.00    -0.014 A 
ATOM     83  H   UNL A   1      44.990  26.413  28.387  1.00  0.00     0.063 H 
ATOM     84  H   UNL A   1      44.226  27.251  24.332  1.00  0.00     0.063 H 
BRANCH  82  85
ATOM     85  C   UNL A   1      45.705  28.111  26.400  1.00  0.00     0.031 A 
ATOM     86  C   UNL A   1      47.177  27.876  26.210  1.00  0.00     0.074 A 
ATOM     87  C   UNL A   1      45.253  29.351  26.673  1.00  0.00     0.049 A 
ATOM     88  N   UNL A   1      48.169  28.730  26.277  1.00  0.00    -0.248 NA
ATOM     89  C   UNL A   1      47.595  26.492  25.938  1.00  0.00    -0.034 C 
ATOM     90  C   UNL A   1      43.856  29.702  26.931  1.00  0.00    -0.036 A 
ATOM     91  N   UNL A   1      45.923  30.542  26.796  1.00  0.00    -0.354 N 
ATOM     92  C   UNL A   1      49.324  27.985  26.080  1.00  0.00     0.074 A 
ATOM     93  C   UNL A   1      48.915  26.603  25.934  1.00  0.00    -0.034 C 
ATOM     94  H   UNL A   1      47.011  25.654  25.789  1.00  0.00     0.065 H 
ATOM     95  C   UNL A   1      43.771  31.020  27.170  1.00  0.00    -0.036 A 
ATOM     96  H   UNL A   1      43.063  29.042  26.929  1.00  0.00     0.065 H 
ATOM     97  C   UNL A   1      45.110  31.601  27.114  1.00  0.00     0.049 A 
ATOM     98  H   UNL A   1      46.897  30.629  26.669  1.00  0.00     0.167 HD
ATOM     99  C   UNL A   1      50.606  28.416  26.009  1.00  0.00     0.037 A 
ATOM    100  H   UNL A   1      49.567  25.810  25.839  1.00  0.00     0.065 H 
ATOM    101  H   UNL A   1      42.900  31.539  27.362  1.00  0.00     0.065 H 
ATOM    102  C   UNL A   1      45.408  32.894  27.343  1.00  0.00     0.037 A 
ATOM    103  C   UNL A   1      51.007  29.794  26.117  1.00  0.00     0.049 A 
ATOM    104  C   UNL A   1      46.835  33.353  27.232  1.00  0.00     0.074 A 
ATOM    105  C   UNL A   1      52.269  30.340  25.968  1.00  0.00    -0.036 A 
ATOM    106  N   UNL A   1      50.148  30.845  26.404  1.00  0.00    -0.354 N 
ATOM    107  N   UNL A   1      47.909  32.652  26.964  1.00  0.00    -0.248 NA
ATOM    108  C   UNL A   1      47.091  34.785  27.446  1.00  0.00    -0.034 C 
ATOM    109  C   UNL A   1      52.184  31.716  26.211  1.00  0.00    -0.036 A 
ATOM    110  H   UNL A   1      53.126  29.823  25.721  1.00  0.00     0.065 H 
ATOM    111  C   UNL A   1      50.858  32.034  26.464  1.00  0.00     0.049 A 
ATOM    112  H   UNL A   1      49.178  30.759  26.545  1.00  0.00     0.167 HD
ATOM    113  C   UNL A   1      48.963  33.556  26.957  1.00  0.00     0.074 A 
ATOM    114  C   UNL A   1      48.396  34.860  27.231  1.00  0.00    -0.034 C 
ATOM    115  H   UNL A   1      46.427  35.535  27.696  1.00  0.00     0.065 H 
ATOM    116  H   UNL A   1      52.973  32.380  26.203  1.00  0.00     0.065 H 
ATOM    117  C   UNL A   1      50.282  33.325  26.740  1.00  0.00     0.037 A 
ATOM    118  H   UNL A   1      48.940  35.737  27.257  1.00  0.00     0.065 H 
BRANCH  99 119
ATOM    119  C   UNL A   1      51.675  27.380  25.806  1.00  0.00     0.064 A 
ATOM    120  C   UNL A   1      52.034  26.929  24.527  1.00  0.00     0.173 A 
ATOM    121  C   UNL A   1      52.369  26.852  26.906  1.00  0.00     0.173 A 
ATOM    122  F   UNL A   1      51.395  27.395  23.444  1.00  0.00    -0.203 F 
ATOM    123  C   UNL A   1      53.023  25.963  24.359  1.00  0.00     0.198 A 
ATOM    124  C   UNL A   1      53.379  25.909  26.732  1.00  0.00     0.198 A 
ATOM    125  F   UNL A   1      52.071  27.254  28.151  1.00  0.00    -0.203 F 
ATOM    126  F   UNL A   1      53.311  25.509  23.131  1.00  0.00    -0.200 F 
ATOM    127  C   UNL A   1      53.699  25.459  25.460  1.00  0.00     0.200 A 
ATOM    128  F   UNL A   1      54.039  25.432  27.795  1.00  0.00    -0.200 F 
ATOM    129  F   UNL A   1      54.652  24.532  25.296  1.00  0.00    -0.200 F 
ENDBRANCH  99 119
BRANCH 102 130
ATOM    130  C   UNL A   1      44.321  33.849  27.679  1.00  0.00     0.064 A 
ATOM    131  C   UNL A   1      43.826  33.948  28.986  1.00  0.00     0.173 A 
ATOM    132  C   UNL A   1      43.771  34.697  26.706  1.00  0.00     0.173 A 
ATOM    133  F   UNL A   1      44.309  33.145  29.946  1.00  0.00    -0.203 F 
ATOM    134  C   UNL A   1      42.814  34.849  29.306  1.00  0.00     0.198 A 
ATOM    135  C   UNL A   1      42.776  35.615  27.033  1.00  0.00     0.198 A 
ATOM    136  F   UNL A   1      44.216  34.645  25.441  1.00  0.00    -0.203 F 
ATOM    137  F   UNL A   1      42.334  34.899  30.556  1.00  0.00    -0.200 F 
ATOM    138  C   UNL A   1      42.294  35.686  28.330  1.00  0.00     0.200 A 
ATOM    139  F   UNL A   1      42.287  36.433  26.090  1.00  0.00    -0.200 F 
ATOM    140  F   UNL A   1      41.326  36.560  28.641  1.00  0.00    -0.200 F 
ENDBRANCH 102 130
BRANCH 117 141
ATOM    141  C   UNL A   1      51.202  34.510  26.771  1.00  0.00     0.064 A 
ATOM    142  C   UNL A   1      51.891  34.873  27.937  1.00  0.00     0.173 A 
ATOM    143  C   UNL A   1      51.429  35.264  25.611  1.00  0.00     0.173 A 
ATOM    144  F   UNL A   1      51.696  34.193  29.077  1.00  0.00    -0.203 F 
ATOM    145  C   UNL A   1      52.759  35.963  27.945  1.00  0.00     0.198 A 
ATOM    146  C   UNL A   1      52.318  36.336  25.615  1.00  0.00     0.198 A 
ATOM    147  F   UNL A   1      50.797  34.955  24.468  1.00  0.00    -0.203 F 
ATOM    148  F   UNL A   1      53.375  36.318  29.081  1.00  0.00    -0.200 F 
ATOM    149  C   UNL A   1      52.976  36.688  26.783  1.00  0.00     0.200 A 
ATOM    150  F   UNL A   1      52.536  37.028  24.488  1.00  0.00    -0.200 F 
ATOM    151  F   UNL A   1      53.817  37.731  26.791  1.00  0.00    -0.200 F 
ENDBRANCH 117 141
ENDBRANCH  82  85
ENDBRANCH  72  75
ENDBRANCH  68  71
ENDBRANCH  65  68
ENDBRANCH  62  65
ENDBRANCH  59  62
ENDBRANCH  56  59
ENDBRANCH   1  56
TORSDOF 23
ENDMDL
