MODEL 1
REMARK VINA RESULT:     -13.2      0.000      0.000
REMARK SMILES [NH3+][C@@H](Cc1cn(-c2nc(Cl)nc(N3CCOCC3)n2)c2ccccc12)C(=O)NCCCCCCNC(=O)c1ccc(-c2c3nc(c(-c4c(F)c(F)c(F)c(F)c4F)c4ccc([nH]4)c(-c4c(F)c(F)c(F)c(F)c4F)c4nc(c(-c5c(F)c(F)c(F)c(F)c5F)c5ccc2[nH]5)C=C4)C=C3)cc1
REMARK SMILES IDX 30 1 29 4 28 7 26 8 27 9 2 11 1 13 3 17 4 20 5 21 25 22 6 23
REMARK SMILES IDX 20 25 24 26 21 27 23 28 22 30 7 34 8 35 19 36 9 37 12 38
REMARK SMILES IDX 10 39 11 40 13 41 14 42 18 43 15 44 17 47 16 50 31 55 32 58
REMARK SMILES IDX 33 61 34 64 35 67 36 68 37 70 38 71 39 72 100 73 40 74 99 76
REMARK SMILES IDX 41 78 42 81 43 82 93 83 44 84 98 85 92 86 94 87 45 88 97 89
REMARK SMILES IDX 91 91 90 93 46 95 78 98 58 99 77 100 59 101 62 102 76 103
REMARK SMILES IDX 95 104 60 105 61 107 75 109 96 110 63 113 47 115 48 116
REMARK SMILES IDX 56 117 49 118 50 119 54 120 57 121 51 122 52 123 55 124
REMARK SMILES IDX 53 125 79 126 80 127 88 128 81 129 82 130 86 131 89 132
REMARK SMILES IDX 83 133 84 134 87 135 85 136 64 137 65 138 73 139 66 140
REMARK SMILES IDX 67 141 71 142 74 143 68 144 69 145 72 146 70 147
REMARK H PARENT 30 2 30 3 29 5 29 6 28 10 2 12 1 14 1 15 1 16 3 18 3 19 5 24
REMARK H PARENT 24 29 21 31 23 32 22 33 14 45 14 46 18 48 18 49 15 51 15 52
REMARK H PARENT 17 53 17 54 31 56 31 57 32 59 32 60 33 62 33 63 34 65 34 66
REMARK H PARENT 35 69 39 75 100 77 40 79 99 80 98 90 92 92 94 94 97 96 91 97
REMARK H PARENT 59 106 62 108 95 111 60 112 96 114
REMARK Flexibility Score: inf
ROOT
ATOM      1  C   UNL A   1      40.911  21.294  25.875  1.00  0.00    -0.036 C 
ATOM      2  H   UNL A   1      41.426  22.205  26.099  1.00  0.00     0.028 H 
ATOM      3  H   UNL A   1      41.054  20.945  24.874  1.00  0.00     0.028 H 
ENDROOT
BRANCH   1   4
ATOM      4  C   UNL A   1      39.427  21.558  26.006  1.00  0.00     0.018 C 
ATOM      5  H   UNL A   1      38.946  21.119  25.157  1.00  0.00     0.049 H 
ATOM      6  H   UNL A   1      39.153  21.133  26.949  1.00  0.00     0.049 H 
BRANCH   4   7
ATOM      7  N   UNL A   1      39.013  22.928  26.078  1.00  0.00    -0.351 N 
ATOM      8  C   UNL A   1      37.738  23.419  25.975  1.00  0.00     0.278 C 
ATOM      9  O   UNL A   1      37.563  24.590  26.332  1.00  0.00    -0.268 OA
ATOM     10  H   UNL A   1      39.725  23.592  26.219  1.00  0.00     0.163 HD
BRANCH   8  11
ATOM     11  C   UNL A   1      36.545  22.582  25.418  1.00  0.00     0.168 C 
ATOM     12  H   UNL A   1      36.997  21.906  24.723  1.00  0.00     0.107 H 
BRANCH  11  13
ATOM     13  N   UNL A   1      35.924  21.743  26.470  1.00  0.00    -0.347 N 
ATOM     14  H   UNL A   1      36.065  22.181  27.380  1.00  0.00     0.345 HD
ATOM     15  H   UNL A   1      36.354  20.819  26.466  1.00  0.00     0.345 HD
ATOM     16  H   UNL A   1      34.925  21.654  26.287  1.00  0.00     0.345 HD
ENDBRANCH  11  13
BRANCH  11  17
ATOM     17  C   UNL A   1      35.568  23.289  24.448  1.00  0.00     0.036 C 
ATOM     18  H   UNL A   1      35.127  22.526  23.840  1.00  0.00     0.038 H 
ATOM     19  H   UNL A   1      36.184  24.008  23.950  1.00  0.00     0.038 H 
BRANCH  17  20
ATOM     20  C   UNL A   1      34.435  24.115  25.007  1.00  0.00    -0.015 A 
ATOM     21  C   UNL A   1      34.360  25.492  25.161  1.00  0.00     0.017 A 
ATOM     22  C   UNL A   1      33.168  23.601  25.441  1.00  0.00     0.004 A 
ATOM     23  N   UNL A   1      33.072  25.852  25.527  1.00  0.00    -0.285 N 
ATOM     24  H   UNL A   1      35.146  26.147  25.025  1.00  0.00     0.083 H 
ATOM     25  C   UNL A   1      32.355  24.685  25.807  1.00  0.00     0.056 A 
ATOM     26  C   UNL A   1      32.626  22.295  25.477  1.00  0.00    -0.053 A 
ATOM     27  C   UNL A   1      31.017  24.484  26.206  1.00  0.00    -0.037 A 
ATOM     28  C   UNL A   1      31.291  22.100  25.835  1.00  0.00    -0.062 A 
ATOM     29  H   UNL A   1      33.218  21.485  25.237  1.00  0.00     0.063 H 
ATOM     30  C   UNL A   1      30.498  23.183  26.194  1.00  0.00    -0.060 A 
ATOM     31  H   UNL A   1      30.431  25.280  26.503  1.00  0.00     0.065 H 
ATOM     32  H   UNL A   1      30.892  21.149  25.835  1.00  0.00     0.062 H 
ATOM     33  H   UNL A   1      29.512  23.027  26.454  1.00  0.00     0.062 H 
BRANCH  23  34
ATOM     34  C   UNL A   1      32.532  27.186  25.454  1.00  0.00     0.240 A 
ATOM     35  N   UNL A   1      32.852  28.039  26.414  1.00  0.00    -0.181 NA
ATOM     36  N   UNL A   1      31.683  27.474  24.447  1.00  0.00    -0.176 NA
ATOM     37  C   UNL A   1      32.319  29.241  26.233  1.00  0.00     0.228 A 
ATOM     38  C   UNL A   1      31.104  28.685  24.454  1.00  0.00     0.231 A 
ATOM     39  Cl  UNL A   1      32.873  30.457  27.298  1.00  0.00    -0.041 Cl
ATOM     40  N   UNL A   1      31.432  29.625  25.321  1.00  0.00    -0.182 NA
BRANCH  38  41
ATOM     41  N   UNL A   1      30.181  28.959  23.477  1.00  0.00    -0.336 N 
ATOM     42  C   UNL A   1      30.542  29.531  22.175  1.00  0.00     0.044 C 
ATOM     43  C   UNL A   1      29.045  28.050  23.324  1.00  0.00     0.044 C 
ATOM     44  C   UNL A   1      29.361  30.397  21.720  1.00  0.00     0.064 C 
ATOM     45  H   UNL A   1      30.718  28.748  21.466  1.00  0.00     0.052 H 
ATOM     46  H   UNL A   1      31.436  30.114  22.250  1.00  0.00     0.052 H 
ATOM     47  C   UNL A   1      27.864  28.881  22.771  1.00  0.00     0.064 C 
ATOM     48  H   UNL A   1      28.785  27.627  24.271  1.00  0.00     0.052 H 
ATOM     49  H   UNL A   1      29.289  27.249  22.658  1.00  0.00     0.052 H 
ATOM     50  O   UNL A   1      28.192  29.579  21.551  1.00  0.00    -0.378 OA
ATOM     51  H   UNL A   1      29.603  30.866  20.788  1.00  0.00     0.059 H 
ATOM     52  H   UNL A   1      29.165  31.144  22.461  1.00  0.00     0.059 H 
ATOM     53  H   UNL A   1      27.044  28.221  22.579  1.00  0.00     0.059 H 
ATOM     54  H   UNL A   1      27.618  29.618  23.507  1.00  0.00     0.059 H 
ENDBRANCH  38  41
ENDBRANCH  23  34
ENDBRANCH  17  20
ENDBRANCH  11  17
ENDBRANCH   8  11
ENDBRANCH   4   7
ENDBRANCH   1   4
BRANCH   1  55
ATOM     55  C   UNL A   1      41.478  20.203  26.777  1.00  0.00    -0.052 C 
ATOM     56  H   UNL A   1      40.728  19.972  27.504  1.00  0.00     0.027 H 
ATOM     57  H   UNL A   1      42.386  20.622  27.159  1.00  0.00     0.027 H 
BRANCH  55  58
ATOM     58  C   UNL A   1      41.913  18.875  26.130  1.00  0.00    -0.052 C 
ATOM     59  H   UNL A   1      42.146  19.082  25.107  1.00  0.00     0.027 H 
ATOM     60  H   UNL A   1      41.086  18.218  26.302  1.00  0.00     0.027 H 
BRANCH  58  61
ATOM     61  C   UNL A   1      43.112  18.128  26.724  1.00  0.00    -0.036 C 
ATOM     62  H   UNL A   1      42.918  17.079  26.649  1.00  0.00     0.028 H 
ATOM     63  H   UNL A   1      43.207  18.475  27.732  1.00  0.00     0.028 H 
BRANCH  61  64
ATOM     64  C   UNL A   1      44.439  18.405  26.060  1.00  0.00     0.018 C 
ATOM     65  H   UNL A   1      45.025  17.513  26.119  1.00  0.00     0.049 H 
ATOM     66  H   UNL A   1      44.849  19.242  26.586  1.00  0.00     0.049 H 
BRANCH  64  67
ATOM     67  N   UNL A   1      44.395  18.812  24.671  1.00  0.00    -0.352 N 
ATOM     68  C   UNL A   1      44.706  19.953  23.990  1.00  0.00     0.251 C 
ATOM     69  H   UNL A   1      44.064  18.098  24.080  1.00  0.00     0.163 HD
ATOM     70  O   UNL A   1      44.784  19.863  22.761  1.00  0.00    -0.269 OA
BRANCH  68  71
ATOM     71  C   UNL A   1      44.799  21.290  24.616  1.00  0.00     0.039 A 
ATOM     72  C   UNL A   1      45.538  21.592  25.754  1.00  0.00    -0.049 A 
ATOM     73  C   UNL A   1      43.982  22.284  24.049  1.00  0.00    -0.049 A 
ATOM     74  C   UNL A   1      45.276  22.761  26.449  1.00  0.00    -0.053 A 
ATOM     75  H   UNL A   1      46.278  20.950  26.078  1.00  0.00     0.063 H 
ATOM     76  C   UNL A   1      43.767  23.485  24.703  1.00  0.00    -0.053 A 
ATOM     77  H   UNL A   1      43.537  22.117  23.132  1.00  0.00     0.063 H 
ATOM     78  C   UNL A   1      44.335  23.672  25.954  1.00  0.00    -0.014 A 
ATOM     79  H   UNL A   1      45.773  22.959  27.332  1.00  0.00     0.063 H 
ATOM     80  H   UNL A   1      43.195  24.226  24.269  1.00  0.00     0.063 H 
BRANCH  78  81
ATOM     81  C   UNL A   1      44.096  24.893  26.712  1.00  0.00     0.031 A 
ATOM     82  C   UNL A   1      45.163  25.908  26.501  1.00  0.00     0.074 A 
ATOM     83  C   UNL A   1      43.010  25.104  27.487  1.00  0.00     0.049 A 
ATOM     84  N   UNL A   1      46.035  26.306  27.366  1.00  0.00    -0.248 NA
ATOM     85  C   UNL A   1      45.424  26.375  25.129  1.00  0.00    -0.034 C 
ATOM     86  C   UNL A   1      41.813  24.275  27.643  1.00  0.00    -0.036 A 
ATOM     87  N   UNL A   1      42.734  26.171  28.294  1.00  0.00    -0.354 N 
ATOM     88  C   UNL A   1      46.840  27.226  26.702  1.00  0.00     0.074 A 
ATOM     89  C   UNL A   1      46.524  27.109  25.303  1.00  0.00    -0.034 C 
ATOM     90  H   UNL A   1      44.896  26.185  24.263  1.00  0.00     0.065 H 
ATOM     91  C   UNL A   1      40.854  24.972  28.300  1.00  0.00    -0.036 A 
ATOM     92  H   UNL A   1      41.714  23.306  27.304  1.00  0.00     0.065 H 
ATOM     93  C   UNL A   1      41.416  26.233  28.749  1.00  0.00     0.049 A 
ATOM     94  H   UNL A   1      43.411  26.844  28.534  1.00  0.00     0.167 HD
ATOM     95  C   UNL A   1      47.518  28.176  27.401  1.00  0.00     0.037 A 
ATOM     96  H   UNL A   1      47.073  27.535  24.539  1.00  0.00     0.065 H 
ATOM     97  H   UNL A   1      39.884  24.659  28.456  1.00  0.00     0.065 H 
ATOM     98  C   UNL A   1      40.844  27.263  29.433  1.00  0.00     0.037 A 
ATOM     99  C   UNL A   1      47.672  27.785  28.780  1.00  0.00     0.049 A 
ATOM    100  C   UNL A   1      41.951  28.021  30.068  1.00  0.00     0.074 A 
ATOM    101  C   UNL A   1      48.327  26.759  29.433  1.00  0.00    -0.036 A 
ATOM    102  N   UNL A   1      46.770  28.287  29.682  1.00  0.00    -0.354 N 
ATOM    103  N   UNL A   1      42.692  27.534  31.024  1.00  0.00    -0.248 NA
ATOM    104  C   UNL A   1      42.542  29.101  29.291  1.00  0.00    -0.034 C 
ATOM    105  C   UNL A   1      47.460  26.390  30.504  1.00  0.00    -0.036 A 
ATOM    106  H   UNL A   1      49.244  26.349  29.198  1.00  0.00     0.065 H 
ATOM    107  C   UNL A   1      46.370  27.259  30.495  1.00  0.00     0.049 A 
ATOM    108  H   UNL A   1      46.463  29.220  29.737  1.00  0.00     0.167 HD
ATOM    109  C   UNL A   1      43.980  27.923  30.693  1.00  0.00     0.074 A 
ATOM    110  C   UNL A   1      43.820  28.921  29.635  1.00  0.00    -0.034 C 
ATOM    111  H   UNL A   1      42.105  29.795  28.666  1.00  0.00     0.065 H 
ATOM    112  H   UNL A   1      47.613  25.616  31.168  1.00  0.00     0.065 H 
ATOM    113  C   UNL A   1      45.058  27.187  31.090  1.00  0.00     0.037 A 
ATOM    114  H   UNL A   1      44.607  29.430  29.203  1.00  0.00     0.065 H 
BRANCH  95 115
ATOM    115  C   UNL A   1      47.643  29.612  26.954  1.00  0.00     0.064 A 
ATOM    116  C   UNL A   1      48.880  30.270  27.112  1.00  0.00     0.173 A 
ATOM    117  C   UNL A   1      46.539  30.452  26.691  1.00  0.00     0.173 A 
ATOM    118  F   UNL A   1      49.995  29.575  27.385  1.00  0.00    -0.203 F 
ATOM    119  C   UNL A   1      48.982  31.664  27.098  1.00  0.00     0.198 A 
ATOM    120  C   UNL A   1      46.653  31.839  26.629  1.00  0.00     0.198 A 
ATOM    121  F   UNL A   1      45.289  29.985  26.597  1.00  0.00    -0.203 F 
ATOM    122  F   UNL A   1      50.153  32.248  27.387  1.00  0.00    -0.200 F 
ATOM    123  C   UNL A   1      47.866  32.447  26.865  1.00  0.00     0.200 A 
ATOM    124  F   UNL A   1      45.555  32.580  26.426  1.00  0.00    -0.200 F 
ATOM    125  F   UNL A   1      47.948  33.782  26.917  1.00  0.00    -0.200 F 
ENDBRANCH  95 115
BRANCH  98 126
ATOM    126  C   UNL A   1      39.495  27.868  29.261  1.00  0.00     0.064 A 
ATOM    127  C   UNL A   1      38.634  28.058  30.360  1.00  0.00     0.173 A 
ATOM    128  C   UNL A   1      39.154  28.562  28.084  1.00  0.00     0.173 A 
ATOM    129  F   UNL A   1      38.907  27.476  31.538  1.00  0.00    -0.203 F 
ATOM    130  C   UNL A   1      37.525  28.912  30.294  1.00  0.00     0.198 A 
ATOM    131  C   UNL A   1      38.049  29.414  28.019  1.00  0.00     0.198 A 
ATOM    132  F   UNL A   1      39.947  28.506  27.004  1.00  0.00    -0.203 F 
ATOM    133  F   UNL A   1      36.769  29.116  31.382  1.00  0.00    -0.200 F 
ATOM    134  C   UNL A   1      37.242  29.601  29.128  1.00  0.00     0.200 A 
ATOM    135  F   UNL A   1      37.809  30.108  26.897  1.00  0.00    -0.200 F 
ATOM    136  F   UNL A   1      36.224  30.472  29.082  1.00  0.00    -0.200 F 
ENDBRANCH  98 126
BRANCH 113 137
ATOM    137  C   UNL A   1      44.830  26.078  32.078  1.00  0.00     0.064 A 
ATOM    138  C   UNL A   1      44.739  26.266  33.470  1.00  0.00     0.173 A 
ATOM    139  C   UNL A   1      44.509  24.810  31.577  1.00  0.00     0.173 A 
ATOM    140  F   UNL A   1      44.947  27.470  34.018  1.00  0.00    -0.203 F 
ATOM    141  C   UNL A   1      44.357  25.224  34.315  1.00  0.00     0.198 A 
ATOM    142  C   UNL A   1      44.097  23.782  32.420  1.00  0.00     0.198 A 
ATOM    143  F   UNL A   1      44.533  24.588  30.253  1.00  0.00    -0.203 F 
ATOM    144  F   UNL A   1      44.263  25.429  35.638  1.00  0.00    -0.200 F 
ATOM    145  C   UNL A   1      44.025  23.987  33.788  1.00  0.00     0.200 A 
ATOM    146  F   UNL A   1      43.729  22.604  31.898  1.00  0.00    -0.200 F 
ATOM    147  F   UNL A   1      43.601  23.002  34.592  1.00  0.00    -0.200 F 
ENDBRANCH 113 137
ENDBRANCH  78  81
ENDBRANCH  68  71
ENDBRANCH  64  67
ENDBRANCH  61  64
ENDBRANCH  58  61
ENDBRANCH  55  58
ENDBRANCH   1  55
TORSDOF 18
ENDMDL
MODEL 2
REMARK VINA RESULT:     -12.7      1.902      2.577
REMARK SMILES [NH3+][C@@H](Cc1cn(-c2nc(Cl)nc(N3CCOCC3)n2)c2ccccc12)C(=O)NCCCCCCNC(=O)c1ccc(-c2c3nc(c(-c4c(F)c(F)c(F)c(F)c4F)c4ccc([nH]4)c(-c4c(F)c(F)c(F)c(F)c4F)c4nc(c(-c5c(F)c(F)c(F)c(F)c5F)c5ccc2[nH]5)C=C4)C=C3)cc1
REMARK SMILES IDX 30 1 29 4 28 7 26 8 27 9 2 11 1 13 3 17 4 20 5 21 25 22 6 23
REMARK SMILES IDX 20 25 24 26 21 27 23 28 22 30 7 34 8 35 19 36 9 37 12 38
REMARK SMILES IDX 10 39 11 40 13 41 14 42 18 43 15 44 17 47 16 50 31 55 32 58
REMARK SMILES IDX 33 61 34 64 35 67 36 68 37 70 38 71 39 72 100 73 40 74 99 76
REMARK SMILES IDX 41 78 42 81 43 82 93 83 44 84 98 85 92 86 94 87 45 88 97 89
REMARK SMILES IDX 91 91 90 93 46 95 78 98 58 99 77 100 59 101 62 102 76 103
REMARK SMILES IDX 95 104 60 105 61 107 75 109 96 110 63 113 47 115 48 116
REMARK SMILES IDX 56 117 49 118 50 119 54 120 57 121 51 122 52 123 55 124
REMARK SMILES IDX 53 125 79 126 80 127 88 128 81 129 82 130 86 131 89 132
REMARK SMILES IDX 83 133 84 134 87 135 85 136 64 137 65 138 73 139 66 140
REMARK SMILES IDX 67 141 71 142 74 143 68 144 69 145 72 146 70 147
REMARK H PARENT 30 2 30 3 29 5 29 6 28 10 2 12 1 14 1 15 1 16 3 18 3 19 5 24
REMARK H PARENT 24 29 21 31 23 32 22 33 14 45 14 46 18 48 18 49 15 51 15 52
REMARK H PARENT 17 53 17 54 31 56 31 57 32 59 32 60 33 62 33 63 34 65 34 66
REMARK H PARENT 35 69 39 75 100 77 40 79 99 80 98 90 92 92 94 94 97 96 91 97
REMARK H PARENT 59 106 62 108 95 111 60 112 96 114
REMARK Flexibility Score: inf
ROOT
ATOM      1  C   UNL A   1      40.702  21.687  27.626  1.00  0.00    -0.036 C 
ATOM      2  H   UNL A   1      40.001  21.060  28.137  1.00  0.00     0.028 H 
ATOM      3  H   UNL A   1      40.826  22.654  28.067  1.00  0.00     0.028 H 
ENDROOT
BRANCH   1   4
ATOM      4  C   UNL A   1      40.167  21.938  26.234  1.00  0.00     0.018 C 
ATOM      5  H   UNL A   1      39.760  22.928  26.219  1.00  0.00     0.049 H 
ATOM      6  H   UNL A   1      41.004  21.784  25.585  1.00  0.00     0.049 H 
BRANCH   4   7
ATOM      7  N   UNL A   1      39.153  21.046  25.754  1.00  0.00    -0.351 N 
ATOM      8  C   UNL A   1      37.882  21.367  25.358  1.00  0.00     0.278 C 
ATOM      9  O   UNL A   1      37.261  20.502  24.729  1.00  0.00    -0.268 OA
ATOM     10  H   UNL A   1      39.399  20.094  25.702  1.00  0.00     0.163 HD
BRANCH   8  11
ATOM     11  C   UNL A   1      37.206  22.735  25.687  1.00  0.00     0.168 C 
ATOM     12  H   UNL A   1      37.712  23.075  26.566  1.00  0.00     0.107 H 
BRANCH  11  13
ATOM     13  N   UNL A   1      37.471  23.745  24.636  1.00  0.00    -0.347 N 
ATOM     14  H   UNL A   1      38.471  23.771  24.434  1.00  0.00     0.345 HD
ATOM     15  H   UNL A   1      37.165  24.661  24.961  1.00  0.00     0.345 HD
ATOM     16  H   UNL A   1      36.960  23.496  23.789  1.00  0.00     0.345 HD
ENDBRANCH  11  13
BRANCH  11  17
ATOM     17  C   UNL A   1      35.765  22.702  26.250  1.00  0.00     0.036 C 
ATOM     18  H   UNL A   1      35.710  23.455  27.009  1.00  0.00     0.038 H 
ATOM     19  H   UNL A   1      35.640  21.688  26.565  1.00  0.00     0.038 H 
BRANCH  17  20
ATOM     20  C   UNL A   1      34.599  22.933  25.319  1.00  0.00    -0.015 A 
ATOM     21  C   UNL A   1      34.094  24.135  24.844  1.00  0.00     0.017 A 
ATOM     22  C   UNL A   1      33.816  21.904  24.698  1.00  0.00     0.004 A 
ATOM     23  N   UNL A   1      33.147  23.888  23.861  1.00  0.00    -0.285 N 
ATOM     24  H   UNL A   1      34.380  25.070  25.173  1.00  0.00     0.083 H 
ATOM     25  C   UNL A   1      32.889  22.514  23.838  1.00  0.00     0.056 A 
ATOM     26  C   UNL A   1      33.879  20.492  24.746  1.00  0.00    -0.053 A 
ATOM     27  C   UNL A   1      32.030  21.738  23.032  1.00  0.00    -0.037 A 
ATOM     28  C   UNL A   1      33.055  19.725  23.921  1.00  0.00    -0.062 A 
ATOM     29  H   UNL A   1      34.536  20.027  25.393  1.00  0.00     0.063 H 
ATOM     30  C   UNL A   1      32.144  20.343  23.074  1.00  0.00    -0.060 A 
ATOM     31  H   UNL A   1      31.330  22.190  22.423  1.00  0.00     0.065 H 
ATOM     32  H   UNL A   1      33.123  18.695  23.940  1.00  0.00     0.062 H 
ATOM     33  H   UNL A   1      31.543  19.765  22.466  1.00  0.00     0.062 H 
BRANCH  23  34
ATOM     34  C   UNL A   1      32.657  24.862  22.919  1.00  0.00     0.240 A 
ATOM     35  N   UNL A   1      32.965  24.701  21.642  1.00  0.00    -0.181 NA
ATOM     36  N   UNL A   1      31.964  25.915  23.396  1.00  0.00    -0.176 NA
ATOM     37  C   UNL A   1      32.443  25.641  20.864  1.00  0.00     0.228 A 
ATOM     38  C   UNL A   1      31.608  26.868  22.521  1.00  0.00     0.231 A 
ATOM     39  Cl  UNL A   1      32.600  25.373  19.184  1.00  0.00    -0.041 Cl
ATOM     40  N   UNL A   1      31.797  26.747  21.220  1.00  0.00    -0.182 NA
BRANCH  38  41
ATOM     41  N   UNL A   1      30.970  27.980  23.010  1.00  0.00    -0.336 N 
ATOM     42  C   UNL A   1      29.658  28.426  22.524  1.00  0.00     0.044 C 
ATOM     43  C   UNL A   1      31.102  28.284  24.434  1.00  0.00     0.044 C 
ATOM     44  C   UNL A   1      29.632  29.956  22.638  1.00  0.00     0.064 C 
ATOM     45  H   UNL A   1      28.881  28.000  23.123  1.00  0.00     0.052 H 
ATOM     46  H   UNL A   1      29.502  28.117  21.512  1.00  0.00     0.052 H 
ATOM     47  C   UNL A   1      30.981  29.818  24.589  1.00  0.00     0.064 C 
ATOM     48  H   UNL A   1      32.055  27.953  24.792  1.00  0.00     0.052 H 
ATOM     49  H   UNL A   1      30.344  27.785  25.000  1.00  0.00     0.052 H 
ATOM     50  O   UNL A   1      29.767  30.345  24.014  1.00  0.00    -0.378 OA
ATOM     51  H   UNL A   1      28.704  30.325  22.253  1.00  0.00     0.059 H 
ATOM     52  H   UNL A   1      30.445  30.366  22.074  1.00  0.00     0.059 H 
ATOM     53  H   UNL A   1      30.999  30.057  25.631  1.00  0.00     0.059 H 
ATOM     54  H   UNL A   1      31.803  30.260  24.065  1.00  0.00     0.059 H 
ENDBRANCH  38  41
ENDBRANCH  23  34
ENDBRANCH  17  20
ENDBRANCH  11  17
ENDBRANCH   8  11
ENDBRANCH   4   7
ENDBRANCH   1   4
BRANCH   1  55
ATOM     55  C   UNL A   1      42.070  21.019  27.707  1.00  0.00    -0.052 C 
ATOM     56  H   UNL A   1      42.345  20.983  28.741  1.00  0.00     0.027 H 
ATOM     57  H   UNL A   1      42.694  21.618  27.077  1.00  0.00     0.027 H 
BRANCH  55  58
ATOM     58  C   UNL A   1      42.219  19.592  27.145  1.00  0.00    -0.052 C 
ATOM     59  H   UNL A   1      41.267  19.114  27.241  1.00  0.00     0.027 H 
ATOM     60  H   UNL A   1      43.019  19.169  27.716  1.00  0.00     0.027 H 
BRANCH  58  61
ATOM     61  C   UNL A   1      42.668  19.420  25.691  1.00  0.00    -0.036 C 
ATOM     62  H   UNL A   1      42.573  20.366  25.201  1.00  0.00     0.028 H 
ATOM     63  H   UNL A   1      42.042  18.658  25.276  1.00  0.00     0.028 H 
BRANCH  61  64
ATOM     64  C   UNL A   1      44.087  18.940  25.506  1.00  0.00     0.018 C 
ATOM     65  H   UNL A   1      44.046  17.952  25.100  1.00  0.00     0.049 H 
ATOM     66  H   UNL A   1      44.536  19.005  26.475  1.00  0.00     0.049 H 
BRANCH  64  67
ATOM     67  N   UNL A   1      44.932  19.736  24.640  1.00  0.00    -0.352 N 
ATOM     68  C   UNL A   1      45.360  21.033  24.637  1.00  0.00     0.251 C 
ATOM     69  H   UNL A   1      45.278  19.223  23.876  1.00  0.00     0.163 HD
ATOM     70  O   UNL A   1      46.288  21.310  23.871  1.00  0.00    -0.269 OA
BRANCH  68  71
ATOM     71  C   UNL A   1      44.686  22.127  25.369  1.00  0.00     0.039 A 
ATOM     72  C   UNL A   1      43.623  22.880  24.883  1.00  0.00    -0.049 A 
ATOM     73  C   UNL A   1      45.259  22.472  26.607  1.00  0.00    -0.049 A 
ATOM     74  C   UNL A   1      43.309  24.087  25.485  1.00  0.00    -0.053 A 
ATOM     75  H   UNL A   1      43.071  22.542  24.080  1.00  0.00     0.063 H 
ATOM     76  C   UNL A   1      44.901  23.644  27.251  1.00  0.00    -0.053 A 
ATOM     77  H   UNL A   1      45.953  21.844  27.040  1.00  0.00     0.063 H 
ATOM     78  C   UNL A   1      44.003  24.499  26.630  1.00  0.00    -0.014 A 
ATOM     79  H   UNL A   1      42.566  24.684  25.089  1.00  0.00     0.063 H 
ATOM     80  H   UNL A   1      45.297  23.878  28.175  1.00  0.00     0.063 H 
BRANCH  78  81
ATOM     81  C   UNL A   1      43.635  25.771  27.237  1.00  0.00     0.031 A 
ATOM     82  C   UNL A   1      44.588  26.859  26.892  1.00  0.00     0.074 A 
ATOM     83  C   UNL A   1      42.532  25.958  27.994  1.00  0.00     0.049 A 
ATOM     84  N   UNL A   1      45.412  27.450  27.692  1.00  0.00    -0.248 NA
ATOM     85  C   UNL A   1      44.799  27.181  25.471  1.00  0.00    -0.034 C 
ATOM     86  C   UNL A   1      41.430  25.032  28.263  1.00  0.00    -0.036 A 
ATOM     87  N   UNL A   1      42.143  27.080  28.669  1.00  0.00    -0.354 N 
ATOM     88  C   UNL A   1      46.115  28.362  26.912  1.00  0.00     0.074 A 
ATOM     89  C   UNL A   1      45.814  28.043  25.541  1.00  0.00    -0.034 C 
ATOM     90  H   UNL A   1      44.295  26.832  24.640  1.00  0.00     0.065 H 
ATOM     91  C   UNL A   1      40.402  25.699  28.843  1.00  0.00    -0.036 A 
ATOM     92  H   UNL A   1      41.435  24.024  28.045  1.00  0.00     0.065 H 
ATOM     93  C   UNL A   1      40.826  27.058  29.129  1.00  0.00     0.049 A 
ATOM     94  H   UNL A   1      42.744  27.845  28.818  1.00  0.00     0.167 HD
ATOM     95  C   UNL A   1      46.687  29.456  27.483  1.00  0.00     0.037 A 
ATOM     96  H   UNL A   1      46.316  28.429  24.725  1.00  0.00     0.065 H 
ATOM     97  H   UNL A   1      39.470  25.306  29.047  1.00  0.00     0.065 H 
ATOM     98  C   UNL A   1      40.147  28.096  29.691  1.00  0.00     0.037 A 
ATOM     99  C   UNL A   1      46.880  29.254  28.896  1.00  0.00     0.049 A 
ATOM    100  C   UNL A   1      41.166  29.039  30.215  1.00  0.00     0.074 A 
ATOM    101  C   UNL A   1      47.640  28.391  29.662  1.00  0.00    -0.036 A 
ATOM    102  N   UNL A   1      45.929  29.765  29.742  1.00  0.00    -0.354 N 
ATOM    103  N   UNL A   1      41.954  28.753  31.214  1.00  0.00    -0.248 NA
ATOM    104  C   UNL A   1      41.639  30.073  29.307  1.00  0.00    -0.034 C 
ATOM    105  C   UNL A   1      46.817  28.065  30.779  1.00  0.00    -0.036 A 
ATOM    106  H   UNL A   1      48.597  28.055  29.466  1.00  0.00     0.065 H 
ATOM    107  C   UNL A   1      45.640  28.806  30.678  1.00  0.00     0.049 A 
ATOM    108  H   UNL A   1      45.525  30.660  29.687  1.00  0.00     0.167 HD
ATOM    109  C   UNL A   1      43.194  29.233  30.823  1.00  0.00     0.074 A 
ATOM    110  C   UNL A   1      42.929  30.072  29.654  1.00  0.00    -0.034 C 
ATOM    111  H   UNL A   1      41.131  30.636  28.607  1.00  0.00     0.065 H 
ATOM    112  H   UNL A   1      47.051  27.398  31.531  1.00  0.00     0.065 H 
ATOM    113  C   UNL A   1      44.343  28.669  31.294  1.00  0.00     0.037 A 
ATOM    114  H   UNL A   1      43.657  30.605  29.155  1.00  0.00     0.065 H 
BRANCH  95 115
ATOM    115  C   UNL A   1      46.659  30.833  26.864  1.00  0.00     0.064 A 
ATOM    116  C   UNL A   1      47.837  31.607  26.869  1.00  0.00     0.173 A 
ATOM    117  C   UNL A   1      45.472  31.538  26.570  1.00  0.00     0.173 A 
ATOM    118  F   UNL A   1      49.023  31.047  27.154  1.00  0.00    -0.203 F 
ATOM    119  C   UNL A   1      47.812  32.993  26.685  1.00  0.00     0.198 A 
ATOM    120  C   UNL A   1      45.456  32.912  26.340  1.00  0.00     0.198 A 
ATOM    121  F   UNL A   1      44.266  30.960  26.608  1.00  0.00    -0.203 F 
ATOM    122  F   UNL A   1      48.937  33.704  26.832  1.00  0.00    -0.200 F 
ATOM    123  C   UNL A   1      46.620  33.644  26.430  1.00  0.00     0.200 A 
ATOM    124  F   UNL A   1      44.287  33.528  26.118  1.00  0.00    -0.200 F 
ATOM    125  F   UNL A   1      46.582  34.978  26.319  1.00  0.00    -0.200 F 
ENDBRANCH  95 115
BRANCH  98 126
ATOM    126  C   UNL A   1      38.741  28.530  29.462  1.00  0.00     0.064 A 
ATOM    127  C   UNL A   1      37.881  28.815  30.541  1.00  0.00     0.173 A 
ATOM    128  C   UNL A   1      38.316  28.981  28.198  1.00  0.00     0.173 A 
ATOM    129  F   UNL A   1      38.227  28.467  31.790  1.00  0.00    -0.203 F 
ATOM    130  C   UNL A   1      36.690  29.534  30.370  1.00  0.00     0.198 A 
ATOM    131  C   UNL A   1      37.128  29.699  28.028  1.00  0.00     0.198 A 
ATOM    132  F   UNL A   1      39.094  28.824  27.119  1.00  0.00    -0.203 F 
ATOM    133  F   UNL A   1      35.932  29.842  31.432  1.00  0.00    -0.200 F 
ATOM    134  C   UNL A   1      36.322  29.988  29.115  1.00  0.00     0.200 A 
ATOM    135  F   UNL A   1      36.804  30.170  26.815  1.00  0.00    -0.200 F 
ATOM    136  F   UNL A   1      35.221  30.736  28.958  1.00  0.00    -0.200 F 
ENDBRANCH  98 126
BRANCH 113 137
ATOM    137  C   UNL A   1      44.233  27.670  32.412  1.00  0.00     0.064 A 
ATOM    138  C   UNL A   1      44.129  26.280  32.221  1.00  0.00     0.173 A 
ATOM    139  C   UNL A   1      44.427  28.129  33.720  1.00  0.00     0.173 A 
ATOM    140  F   UNL A   1      44.027  25.758  30.992  1.00  0.00    -0.203 F 
ATOM    141  C   UNL A   1      44.203  25.397  33.298  1.00  0.00     0.198 A 
ATOM    142  C   UNL A   1      44.532  27.244  34.789  1.00  0.00     0.198 A 
ATOM    143  F   UNL A   1      44.580  29.442  33.954  1.00  0.00    -0.203 F 
ATOM    144  F   UNL A   1      44.116  24.074  33.093  1.00  0.00    -0.200 F 
ATOM    145  C   UNL A   1      44.417  25.879  34.579  1.00  0.00     0.200 A 
ATOM    146  F   UNL A   1      44.789  27.714  36.017  1.00  0.00    -0.200 F 
ATOM    147  F   UNL A   1      44.546  25.029  35.607  1.00  0.00    -0.200 F 
ENDBRANCH 113 137
ENDBRANCH  78  81
ENDBRANCH  68  71
ENDBRANCH  64  67
ENDBRANCH  61  64
ENDBRANCH  58  61
ENDBRANCH  55  58
ENDBRANCH   1  55
TORSDOF 18
ENDMDL
MODEL 3
REMARK VINA RESULT:     -12.7      2.991      9.183
REMARK SMILES [NH3+][C@@H](Cc1cn(-c2nc(Cl)nc(N3CCOCC3)n2)c2ccccc12)C(=O)NCCCCCCNC(=O)c1ccc(-c2c3nc(c(-c4c(F)c(F)c(F)c(F)c4F)c4ccc([nH]4)c(-c4c(F)c(F)c(F)c(F)c4F)c4nc(c(-c5c(F)c(F)c(F)c(F)c5F)c5ccc2[nH]5)C=C4)C=C3)cc1
REMARK SMILES IDX 30 1 29 4 28 7 26 8 27 9 2 11 1 13 3 17 4 20 5 21 25 22 6 23
REMARK SMILES IDX 20 25 24 26 21 27 23 28 22 30 7 34 8 35 19 36 9 37 12 38
REMARK SMILES IDX 10 39 11 40 13 41 14 42 18 43 15 44 17 47 16 50 31 55 32 58
REMARK SMILES IDX 33 61 34 64 35 67 36 68 37 70 38 71 39 72 100 73 40 74 99 76
REMARK SMILES IDX 41 78 42 81 43 82 93 83 44 84 98 85 92 86 94 87 45 88 97 89
REMARK SMILES IDX 91 91 90 93 46 95 78 98 58 99 77 100 59 101 62 102 76 103
REMARK SMILES IDX 95 104 60 105 61 107 75 109 96 110 63 113 47 115 48 116
REMARK SMILES IDX 56 117 49 118 50 119 54 120 57 121 51 122 52 123 55 124
REMARK SMILES IDX 53 125 79 126 80 127 88 128 81 129 82 130 86 131 89 132
REMARK SMILES IDX 83 133 84 134 87 135 85 136 64 137 65 138 73 139 66 140
REMARK SMILES IDX 67 141 71 142 74 143 68 144 69 145 72 146 70 147
REMARK H PARENT 30 2 30 3 29 5 29 6 28 10 2 12 1 14 1 15 1 16 3 18 3 19 5 24
REMARK H PARENT 24 29 21 31 23 32 22 33 14 45 14 46 18 48 18 49 15 51 15 52
REMARK H PARENT 17 53 17 54 31 56 31 57 32 59 32 60 33 62 33 63 34 65 34 66
REMARK H PARENT 35 69 39 75 100 77 40 79 99 80 98 90 92 92 94 94 97 96 91 97
REMARK H PARENT 59 106 62 108 95 111 60 112 96 114
REMARK Flexibility Score: inf
ROOT
ATOM      1  C   UNL A   1      32.356  28.907  26.086  1.00  0.00    -0.036 C 
ATOM      2  H   UNL A   1      31.462  28.544  26.550  1.00  0.00     0.028 H 
ATOM      3  H   UNL A   1      32.184  29.552  25.250  1.00  0.00     0.028 H 
ENDROOT
BRANCH   1   4
ATOM      4  C   UNL A   1      33.107  27.716  25.534  1.00  0.00     0.018 C 
ATOM      5  H   UNL A   1      33.767  27.368  26.301  1.00  0.00     0.049 H 
ATOM      6  H   UNL A   1      32.347  27.021  25.243  1.00  0.00     0.049 H 
BRANCH   4   7
ATOM      7  N   UNL A   1      33.890  27.929  24.352  1.00  0.00    -0.351 N 
ATOM      8  C   UNL A   1      33.435  28.224  23.094  1.00  0.00     0.278 C 
ATOM      9  O   UNL A   1      34.274  28.633  22.282  1.00  0.00    -0.268 OA
ATOM     10  H   UNL A   1      34.866  27.857  24.457  1.00  0.00     0.163 HD
BRANCH   8  11
ATOM     11  C   UNL A   1      31.947  28.043  22.661  1.00  0.00     0.168 C 
ATOM     12  H   UNL A   1      31.409  27.981  23.584  1.00  0.00     0.107 H 
BRANCH  11  13
ATOM     13  N   UNL A   1      31.430  29.240  21.958  1.00  0.00    -0.347 N 
ATOM     14  H   UNL A   1      32.120  29.989  22.010  1.00  0.00     0.345 HD
ATOM     15  H   UNL A   1      30.563  29.545  22.399  1.00  0.00     0.345 HD
ATOM     16  H   UNL A   1      31.252  29.010  20.981  1.00  0.00     0.345 HD
ENDBRANCH  11  13
BRANCH  11  17
ATOM     17  C   UNL A   1      31.538  26.675  22.065  1.00  0.00     0.036 C 
ATOM     18  H   UNL A   1      32.142  26.521  21.195  1.00  0.00     0.038 H 
ATOM     19  H   UNL A   1      30.484  26.772  21.911  1.00  0.00     0.038 H 
BRANCH  17  20
ATOM     20  C   UNL A   1      31.661  25.430  22.911  1.00  0.00    -0.015 A 
ATOM     21  C   UNL A   1      32.510  24.347  22.740  1.00  0.00     0.017 A 
ATOM     22  C   UNL A   1      30.929  25.170  24.117  1.00  0.00     0.004 A 
ATOM     23  N   UNL A   1      32.437  23.516  23.848  1.00  0.00    -0.285 N 
ATOM     24  H   UNL A   1      33.104  24.184  21.912  1.00  0.00     0.083 H 
ATOM     25  C   UNL A   1      31.386  23.958  24.657  1.00  0.00     0.056 A 
ATOM     26  C   UNL A   1      29.963  25.917  24.831  1.00  0.00    -0.053 A 
ATOM     27  C   UNL A   1      30.894  23.484  25.891  1.00  0.00    -0.037 A 
ATOM     28  C   UNL A   1      29.505  25.467  26.070  1.00  0.00    -0.062 A 
ATOM     29  H   UNL A   1      29.597  26.797  24.436  1.00  0.00     0.063 H 
ATOM     30  C   UNL A   1      29.967  24.266  26.592  1.00  0.00    -0.060 A 
ATOM     31  H   UNL A   1      31.210  22.578  26.270  1.00  0.00     0.065 H 
ATOM     32  H   UNL A   1      28.820  26.028  26.600  1.00  0.00     0.062 H 
ATOM     33  H   UNL A   1      29.624  23.945  27.511  1.00  0.00     0.062 H 
BRANCH  23  34
ATOM     34  C   UNL A   1      33.395  22.493  24.181  1.00  0.00     0.240 A 
ATOM     35  N   UNL A   1      32.978  21.236  24.209  1.00  0.00    -0.181 NA
ATOM     36  N   UNL A   1      34.647  22.875  24.505  1.00  0.00    -0.176 NA
ATOM     37  C   UNL A   1      33.947  20.379  24.504  1.00  0.00     0.228 A 
ATOM     38  C   UNL A   1      35.497  21.921  24.917  1.00  0.00     0.231 A 
ATOM     39  Cl  UNL A   1      33.543  18.728  24.331  1.00  0.00    -0.041 Cl
ATOM     40  N   UNL A   1      35.192  20.637  24.892  1.00  0.00    -0.182 NA
BRANCH  38  41
ATOM     41  N   UNL A   1      36.748  22.311  25.321  1.00  0.00    -0.336 N 
ATOM     42  C   UNL A   1      37.962  21.546  25.011  1.00  0.00     0.044 C 
ATOM     43  C   UNL A   1      37.054  23.741  25.345  1.00  0.00     0.044 C 
ATOM     44  C   UNL A   1      38.936  21.755  26.177  1.00  0.00     0.064 C 
ATOM     45  H   UNL A   1      38.397  21.902  24.100  1.00  0.00     0.052 H 
ATOM     46  H   UNL A   1      37.736  20.508  24.885  1.00  0.00     0.052 H 
ATOM     47  C   UNL A   1      38.111  23.966  26.450  1.00  0.00     0.064 C 
ATOM     48  H   UNL A   1      36.169  24.301  25.564  1.00  0.00     0.052 H 
ATOM     49  H   UNL A   1      37.424  24.065  24.395  1.00  0.00     0.052 H 
ATOM     50  O   UNL A   1      39.286  23.145  26.279  1.00  0.00    -0.378 OA
ATOM     51  H   UNL A   1      39.822  21.178  26.008  1.00  0.00     0.059 H 
ATOM     52  H   UNL A   1      38.470  21.441  27.088  1.00  0.00     0.059 H 
ATOM     53  H   UNL A   1      38.407  24.994  26.435  1.00  0.00     0.059 H 
ATOM     54  H   UNL A   1      37.663  23.695  27.384  1.00  0.00     0.059 H 
ENDBRANCH  38  41
ENDBRANCH  23  34
ENDBRANCH  17  20
ENDBRANCH  11  17
ENDBRANCH   8  11
ENDBRANCH   4   7
ENDBRANCH   1   4
BRANCH   1  55
ATOM     55  C   UNL A   1      33.103  29.752  27.111  1.00  0.00    -0.052 C 
ATOM     56  H   UNL A   1      32.478  29.825  27.977  1.00  0.00     0.027 H 
ATOM     57  H   UNL A   1      33.305  30.670  26.600  1.00  0.00     0.027 H 
BRANCH  55  58
ATOM     58  C   UNL A   1      34.486  29.267  27.586  1.00  0.00    -0.052 C 
ATOM     59  H   UNL A   1      34.723  28.388  27.026  1.00  0.00     0.027 H 
ATOM     60  H   UNL A   1      34.369  29.138  28.642  1.00  0.00     0.027 H 
BRANCH  58  61
ATOM     61  C   UNL A   1      35.680  30.220  27.459  1.00  0.00    -0.036 C 
ATOM     62  H   UNL A   1      35.962  30.259  26.427  1.00  0.00     0.028 H 
ATOM     63  H   UNL A   1      36.443  29.826  28.097  1.00  0.00     0.028 H 
BRANCH  61  64
ATOM     64  C   UNL A   1      35.432  31.632  27.928  1.00  0.00     0.018 C 
ATOM     65  H   UNL A   1      34.679  32.057  27.297  1.00  0.00     0.049 H 
ATOM     66  H   UNL A   1      36.383  32.119  27.875  1.00  0.00     0.049 H 
BRANCH  64  67
ATOM     67  N   UNL A   1      34.997  31.791  29.300  1.00  0.00    -0.352 N 
ATOM     68  C   UNL A   1      35.604  31.709  30.520  1.00  0.00     0.251 C 
ATOM     69  H   UNL A   1      34.040  32.011  29.369  1.00  0.00     0.163 HD
ATOM     70  O   UNL A   1      34.977  32.157  31.485  1.00  0.00    -0.269 OA
BRANCH  68  71
ATOM     71  C   UNL A   1      36.872  30.989  30.764  1.00  0.00     0.039 A 
ATOM     72  C   UNL A   1      38.131  31.577  30.815  1.00  0.00    -0.049 A 
ATOM     73  C   UNL A   1      36.770  29.588  30.845  1.00  0.00    -0.049 A 
ATOM     74  C   UNL A   1      39.261  30.786  30.692  1.00  0.00    -0.053 A 
ATOM     75  H   UNL A   1      38.223  32.597  30.943  1.00  0.00     0.063 H 
ATOM     76  C   UNL A   1      37.899  28.790  30.792  1.00  0.00    -0.053 A 
ATOM     77  H   UNL A   1      35.840  29.150  30.946  1.00  0.00     0.063 H 
ATOM     78  C   UNL A   1      39.134  29.393  30.608  1.00  0.00    -0.014 A 
ATOM     79  H   UNL A   1      40.196  31.222  30.660  1.00  0.00     0.063 H 
ATOM     80  H   UNL A   1      37.823  27.764  30.887  1.00  0.00     0.063 H 
BRANCH  78  81
ATOM     81  C   UNL A   1      40.348  28.598  30.489  1.00  0.00     0.031 A 
ATOM     82  C   UNL A   1      41.062  28.457  31.787  1.00  0.00     0.074 A 
ATOM     83  C   UNL A   1      40.763  28.015  29.343  1.00  0.00     0.049 A 
ATOM     84  N   UNL A   1      42.201  28.975  32.104  1.00  0.00    -0.248 NA
ATOM     85  C   UNL A   1      40.341  27.854  32.920  1.00  0.00    -0.034 C 
ATOM     86  C   UNL A   1      40.076  27.926  28.053  1.00  0.00    -0.036 A 
ATOM     87  N   UNL A   1      41.918  27.324  29.109  1.00  0.00    -0.354 N 
ATOM     88  C   UNL A   1      42.437  28.600  33.423  1.00  0.00     0.074 A 
ATOM     89  C   UNL A   1      41.201  28.056  33.920  1.00  0.00    -0.034 C 
ATOM     90  H   UNL A   1      39.416  27.397  32.938  1.00  0.00     0.065 H 
ATOM     91  C   UNL A   1      40.714  27.033  27.256  1.00  0.00    -0.036 A 
ATOM     92  H   UNL A   1      39.235  28.460  27.790  1.00  0.00     0.065 H 
ATOM     93  C   UNL A   1      41.936  26.607  27.912  1.00  0.00     0.049 A 
ATOM     94  H   UNL A   1      42.676  27.330  29.737  1.00  0.00     0.167 HD
ATOM     95  C   UNL A   1      43.709  28.548  33.905  1.00  0.00     0.037 A 
ATOM     96  H   UNL A   1      41.008  27.849  34.913  1.00  0.00     0.065 H 
ATOM     97  H   UNL A   1      40.384  26.710  26.333  1.00  0.00     0.065 H 
ATOM     98  C   UNL A   1      42.892  25.722  27.513  1.00  0.00     0.037 A 
ATOM     99  C   UNL A   1      44.594  29.354  33.102  1.00  0.00     0.049 A 
ATOM    100  C   UNL A   1      44.124  26.053  28.272  1.00  0.00     0.074 A 
ATOM    101  C   UNL A   1      44.698  30.702  32.822  1.00  0.00    -0.036 A 
ATOM    102  N   UNL A   1      45.325  28.714  32.134  1.00  0.00    -0.354 N 
ATOM    103  N   UNL A   1      44.792  27.160  28.098  1.00  0.00    -0.248 NA
ATOM    104  C   UNL A   1      44.304  25.396  29.558  1.00  0.00    -0.034 C 
ATOM    105  C   UNL A   1      45.072  30.767  31.447  1.00  0.00    -0.036 A 
ATOM    106  H   UNL A   1      44.538  31.492  33.467  1.00  0.00     0.065 H 
ATOM    107  C   UNL A   1      45.255  29.463  30.989  1.00  0.00     0.049 A 
ATOM    108  H   UNL A   1      45.814  27.866  32.242  1.00  0.00     0.167 HD
ATOM    109  C   UNL A   1      45.118  27.570  29.380  1.00  0.00     0.074 A 
ATOM    110  C   UNL A   1      44.825  26.421  30.238  1.00  0.00    -0.034 C 
ATOM    111  H   UNL A   1      44.095  24.430  29.853  1.00  0.00     0.065 H 
ATOM    112  H   UNL A   1      45.187  31.628  30.890  1.00  0.00     0.065 H 
ATOM    113  C   UNL A   1      45.307  28.890  29.666  1.00  0.00     0.037 A 
ATOM    114  H   UNL A   1      45.002  26.404  31.254  1.00  0.00     0.065 H 
BRANCH  95 115
ATOM    115  C   UNL A   1      44.217  27.448  34.804  1.00  0.00     0.064 A 
ATOM    116  C   UNL A   1      44.052  26.107  34.402  1.00  0.00     0.173 A 
ATOM    117  C   UNL A   1      44.551  27.636  36.163  1.00  0.00     0.173 A 
ATOM    118  F   UNL A   1      43.715  25.809  33.138  1.00  0.00    -0.203 F 
ATOM    119  C   UNL A   1      44.127  25.048  35.311  1.00  0.00     0.198 A 
ATOM    120  C   UNL A   1      44.672  26.574  37.057  1.00  0.00     0.198 A 
ATOM    121  F   UNL A   1      44.660  28.850  36.714  1.00  0.00    -0.203 F 
ATOM    122  F   UNL A   1      43.831  23.805  34.910  1.00  0.00    -0.200 F 
ATOM    123  C   UNL A   1      44.428  25.284  36.639  1.00  0.00     0.200 A 
ATOM    124  F   UNL A   1      44.941  26.827  38.346  1.00  0.00    -0.200 F 
ATOM    125  F   UNL A   1      44.435  24.281  37.526  1.00  0.00    -0.200 F 
ENDBRANCH  95 115
BRANCH  98 126
ATOM    126  C   UNL A   1      42.726  24.399  26.852  1.00  0.00     0.064 A 
ATOM    127  C   UNL A   1      43.218  24.165  25.553  1.00  0.00     0.173 A 
ATOM    128  C   UNL A   1      42.375  23.254  27.594  1.00  0.00     0.173 A 
ATOM    129  F   UNL A   1      43.624  25.192  24.791  1.00  0.00    -0.203 F 
ATOM    130  C   UNL A   1      43.380  22.869  25.043  1.00  0.00     0.198 A 
ATOM    131  C   UNL A   1      42.538  21.962  27.086  1.00  0.00     0.198 A 
ATOM    132  F   UNL A   1      41.965  23.363  28.865  1.00  0.00    -0.203 F 
ATOM    133  F   UNL A   1      43.914  22.687  23.827  1.00  0.00    -0.200 F 
ATOM    134  C   UNL A   1      43.053  21.769  25.816  1.00  0.00     0.200 A 
ATOM    135  F   UNL A   1      42.257  20.903  27.859  1.00  0.00    -0.200 F 
ATOM    136  F   UNL A   1      43.272  20.527  25.360  1.00  0.00    -0.200 F 
ENDBRANCH  98 126
BRANCH 113 137
ATOM    137  C   UNL A   1      45.375  29.858  28.518  1.00  0.00     0.064 A 
ATOM    138  C   UNL A   1      44.258  30.520  27.977  1.00  0.00     0.173 A 
ATOM    139  C   UNL A   1      46.640  30.265  28.078  1.00  0.00     0.173 A 
ATOM    140  F   UNL A   1      43.019  30.248  28.408  1.00  0.00    -0.203 F 
ATOM    141  C   UNL A   1      44.408  31.532  27.029  1.00  0.00     0.198 A 
ATOM    142  C   UNL A   1      46.789  31.296  27.156  1.00  0.00     0.198 A 
ATOM    143  F   UNL A   1      47.742  29.700  28.596  1.00  0.00    -0.203 F 
ATOM    144  F   UNL A   1      43.330  32.161  26.536  1.00  0.00    -0.200 F 
ATOM    145  C   UNL A   1      45.674  31.928  26.629  1.00  0.00     0.200 A 
ATOM    146  F   UNL A   1      48.017  31.707  26.812  1.00  0.00    -0.200 F 
ATOM    147  F   UNL A   1      45.823  32.939  25.762  1.00  0.00    -0.200 F 
ENDBRANCH 113 137
ENDBRANCH  78  81
ENDBRANCH  68  71
ENDBRANCH  64  67
ENDBRANCH  61  64
ENDBRANCH  58  61
ENDBRANCH  55  58
ENDBRANCH   1  55
TORSDOF 18
ENDMDL
MODEL 4
REMARK VINA RESULT:     -12.4      3.162      4.614
REMARK SMILES [NH3+][C@@H](Cc1cn(-c2nc(Cl)nc(N3CCOCC3)n2)c2ccccc12)C(=O)NCCCCCCNC(=O)c1ccc(-c2c3nc(c(-c4c(F)c(F)c(F)c(F)c4F)c4ccc([nH]4)c(-c4c(F)c(F)c(F)c(F)c4F)c4nc(c(-c5c(F)c(F)c(F)c(F)c5F)c5ccc2[nH]5)C=C4)C=C3)cc1
REMARK SMILES IDX 30 1 29 4 28 7 26 8 27 9 2 11 1 13 3 17 4 20 5 21 25 22 6 23
REMARK SMILES IDX 20 25 24 26 21 27 23 28 22 30 7 34 8 35 19 36 9 37 12 38
REMARK SMILES IDX 10 39 11 40 13 41 14 42 18 43 15 44 17 47 16 50 31 55 32 58
REMARK SMILES IDX 33 61 34 64 35 67 36 68 37 70 38 71 39 72 100 73 40 74 99 76
REMARK SMILES IDX 41 78 42 81 43 82 93 83 44 84 98 85 92 86 94 87 45 88 97 89
REMARK SMILES IDX 91 91 90 93 46 95 78 98 58 99 77 100 59 101 62 102 76 103
REMARK SMILES IDX 95 104 60 105 61 107 75 109 96 110 63 113 47 115 48 116
REMARK SMILES IDX 56 117 49 118 50 119 54 120 57 121 51 122 52 123 55 124
REMARK SMILES IDX 53 125 79 126 80 127 88 128 81 129 82 130 86 131 89 132
REMARK SMILES IDX 83 133 84 134 87 135 85 136 64 137 65 138 73 139 66 140
REMARK SMILES IDX 67 141 71 142 74 143 68 144 69 145 72 146 70 147
REMARK H PARENT 30 2 30 3 29 5 29 6 28 10 2 12 1 14 1 15 1 16 3 18 3 19 5 24
REMARK H PARENT 24 29 21 31 23 32 22 33 14 45 14 46 18 48 18 49 15 51 15 52
REMARK H PARENT 17 53 17 54 31 56 31 57 32 59 32 60 33 62 33 63 34 65 34 66
REMARK H PARENT 35 69 39 75 100 77 40 79 99 80 98 90 92 92 94 94 97 96 91 97
REMARK H PARENT 59 106 62 108 95 111 60 112 96 114
REMARK Flexibility Score: inf
ROOT
ATOM      1  C   UNL A   1      36.103  21.811  24.296  1.00  0.00    -0.036 C 
ATOM      2  H   UNL A   1      35.253  22.042  23.688  1.00  0.00     0.028 H 
ATOM      3  H   UNL A   1      36.766  21.091  23.866  1.00  0.00     0.028 H 
ENDROOT
BRANCH   1   4
ATOM      4  C   UNL A   1      35.598  21.187  25.577  1.00  0.00     0.018 C 
ATOM      5  H   UNL A   1      36.358  20.522  25.933  1.00  0.00     0.049 H 
ATOM      6  H   UNL A   1      35.384  22.013  26.222  1.00  0.00     0.049 H 
BRANCH   4   7
ATOM      7  N   UNL A   1      34.374  20.444  25.503  1.00  0.00    -0.351 N 
ATOM      8  C   UNL A   1      33.112  20.887  25.799  1.00  0.00     0.278 C 
ATOM      9  O   UNL A   1      32.171  20.182  25.414  1.00  0.00    -0.268 OA
ATOM     10  H   UNL A   1      34.449  19.509  25.203  1.00  0.00     0.163 HD
BRANCH   8  11
ATOM     11  C   UNL A   1      32.835  22.196  26.601  1.00  0.00     0.168 C 
ATOM     12  H   UNL A   1      31.876  22.521  26.254  1.00  0.00     0.107 H 
BRANCH  11  13
ATOM     13  N   UNL A   1      32.685  21.931  28.051  1.00  0.00    -0.347 N 
ATOM     14  H   UNL A   1      33.592  21.690  28.448  1.00  0.00     0.345 HD
ATOM     15  H   UNL A   1      32.036  21.157  28.189  1.00  0.00     0.345 HD
ATOM     16  H   UNL A   1      32.322  22.765  28.513  1.00  0.00     0.345 HD
ENDBRANCH  11  13
BRANCH  11  17
ATOM     17  C   UNL A   1      33.653  23.453  26.221  1.00  0.00     0.036 C 
ATOM     18  H   UNL A   1      34.482  23.119  25.632  1.00  0.00     0.038 H 
ATOM     19  H   UNL A   1      33.880  23.902  27.165  1.00  0.00     0.038 H 
BRANCH  17  20
ATOM     20  C   UNL A   1      32.987  24.567  25.449  1.00  0.00    -0.015 A 
ATOM     21  C   UNL A   1      32.415  25.735  25.932  1.00  0.00     0.017 A 
ATOM     22  C   UNL A   1      32.876  24.636  24.020  1.00  0.00     0.004 A 
ATOM     23  N   UNL A   1      32.095  26.572  24.873  1.00  0.00    -0.285 N 
ATOM     24  H   UNL A   1      32.253  25.947  26.929  1.00  0.00     0.083 H 
ATOM     25  C   UNL A   1      32.277  25.860  23.684  1.00  0.00     0.056 A 
ATOM     26  C   UNL A   1      33.313  23.779  22.983  1.00  0.00    -0.053 A 
ATOM     27  C   UNL A   1      32.107  26.236  22.335  1.00  0.00    -0.037 A 
ATOM     28  C   UNL A   1      33.179  24.169  21.650  1.00  0.00    -0.062 A 
ATOM     29  H   UNL A   1      33.731  22.864  23.213  1.00  0.00     0.063 H 
ATOM     30  C   UNL A   1      32.585  25.383  21.332  1.00  0.00    -0.060 A 
ATOM     31  H   UNL A   1      31.639  27.123  22.091  1.00  0.00     0.065 H 
ATOM     32  H   UNL A   1      33.523  23.552  20.897  1.00  0.00     0.062 H 
ATOM     33  H   UNL A   1      32.495  25.662  20.343  1.00  0.00     0.062 H 
BRANCH  23  34
ATOM     34  C   UNL A   1      31.801  27.978  24.987  1.00  0.00     0.240 A 
ATOM     35  N   UNL A   1      32.363  28.652  25.978  1.00  0.00    -0.181 NA
ATOM     36  N   UNL A   1      30.923  28.516  24.118  1.00  0.00    -0.176 NA
ATOM     37  C   UNL A   1      32.041  29.939  25.973  1.00  0.00     0.228 A 
ATOM     38  C   UNL A   1      30.576  29.799  24.304  1.00  0.00     0.231 A 
ATOM     39  Cl  UNL A   1      32.908  30.917  27.074  1.00  0.00    -0.041 Cl
ATOM     40  N   UNL A   1      31.152  30.567  25.210  1.00  0.00    -0.182 NA
BRANCH  38  41
ATOM     41  N   UNL A   1      29.626  30.333  23.471  1.00  0.00    -0.336 N 
ATOM     42  C   UNL A   1      28.717  29.510  22.665  1.00  0.00     0.044 C 
ATOM     43  C   UNL A   1      28.948  31.560  23.890  1.00  0.00     0.044 C 
ATOM     44  C   UNL A   1      28.418  30.293  21.381  1.00  0.00     0.064 C 
ATOM     45  H   UNL A   1      27.810  29.330  23.205  1.00  0.00     0.052 H 
ATOM     46  H   UNL A   1      29.160  28.562  22.440  1.00  0.00     0.052 H 
ATOM     47  C   UNL A   1      28.548  32.324  22.607  1.00  0.00     0.064 C 
ATOM     48  H   UNL A   1      29.608  32.158  24.483  1.00  0.00     0.052 H 
ATOM     49  H   UNL A   1      28.086  31.332  24.481  1.00  0.00     0.052 H 
ATOM     50  O   UNL A   1      27.754  31.526  21.703  1.00  0.00    -0.378 OA
ATOM     51  H   UNL A   1      27.787  29.706  20.746  1.00  0.00     0.059 H 
ATOM     52  H   UNL A   1      29.337  30.509  20.877  1.00  0.00     0.059 H 
ATOM     53  H   UNL A   1      27.982  33.188  22.888  1.00  0.00     0.059 H 
ATOM     54  H   UNL A   1      29.450  32.588  22.095  1.00  0.00     0.059 H 
ENDBRANCH  38  41
ENDBRANCH  23  34
ENDBRANCH  17  20
ENDBRANCH  11  17
ENDBRANCH   8  11
ENDBRANCH   4   7
ENDBRANCH   1   4
BRANCH   1  55
ATOM     55  C   UNL A   1      36.923  23.087  24.452  1.00  0.00    -0.052 C 
ATOM     56  H   UNL A   1      36.443  23.846  23.871  1.00  0.00     0.027 H 
ATOM     57  H   UNL A   1      37.907  22.808  24.136  1.00  0.00     0.027 H 
BRANCH  55  58
ATOM     58  C   UNL A   1      37.125  23.655  25.870  1.00  0.00    -0.052 C 
ATOM     59  H   UNL A   1      36.699  22.954  26.556  1.00  0.00     0.027 H 
ATOM     60  H   UNL A   1      36.663  24.620  25.833  1.00  0.00     0.027 H 
BRANCH  58  61
ATOM     61  C   UNL A   1      38.552  23.944  26.348  1.00  0.00    -0.036 C 
ATOM     62  H   UNL A   1      38.493  24.614  27.180  1.00  0.00     0.028 H 
ATOM     63  H   UNL A   1      39.070  24.352  25.505  1.00  0.00     0.028 H 
BRANCH  61  64
ATOM     64  C   UNL A   1      39.346  22.735  26.779  1.00  0.00     0.018 C 
ATOM     65  H   UNL A   1      38.779  21.865  26.520  1.00  0.00     0.049 H 
ATOM     66  H   UNL A   1      39.509  22.863  27.828  1.00  0.00     0.049 H 
BRANCH  64  67
ATOM     67  N   UNL A   1      40.665  22.587  26.202  1.00  0.00    -0.352 N 
ATOM     68  C   UNL A   1      41.861  23.228  26.353  1.00  0.00     0.251 C 
ATOM     69  H   UNL A   1      40.711  21.853  25.549  1.00  0.00     0.163 HD
ATOM     70  O   UNL A   1      42.855  22.669  25.881  1.00  0.00    -0.269 OA
BRANCH  68  71
ATOM     71  C   UNL A   1      42.003  24.595  26.900  1.00  0.00     0.039 A 
ATOM     72  C   UNL A   1      42.387  24.902  28.201  1.00  0.00    -0.049 A 
ATOM     73  C   UNL A   1      41.611  25.637  26.040  1.00  0.00    -0.049 A 
ATOM     74  C   UNL A   1      42.144  26.169  28.704  1.00  0.00    -0.053 A 
ATOM     75  H   UNL A   1      42.849  24.190  28.787  1.00  0.00     0.063 H 
ATOM     76  C   UNL A   1      41.432  26.923  26.520  1.00  0.00    -0.053 A 
ATOM     77  H   UNL A   1      41.456  25.441  25.039  1.00  0.00     0.063 H 
ATOM     78  C   UNL A   1      41.598  27.157  27.876  1.00  0.00    -0.014 A 
ATOM     79  H   UNL A   1      42.364  26.383  29.690  1.00  0.00     0.063 H 
ATOM     80  H   UNL A   1      41.178  27.692  25.880  1.00  0.00     0.063 H 
BRANCH  78  81
ATOM     81  C   UNL A   1      41.368  28.479  28.443  1.00  0.00     0.031 A 
ATOM     82  C   UNL A   1      42.402  29.463  28.025  1.00  0.00     0.074 A 
ATOM     83  C   UNL A   1      40.313  28.794  29.227  1.00  0.00     0.049 A 
ATOM     84  N   UNL A   1      43.303  30.005  28.774  1.00  0.00    -0.248 NA
ATOM     85  C   UNL A   1      42.591  29.711  26.586  1.00  0.00    -0.034 C 
ATOM     86  C   UNL A   1      39.143  27.983  29.567  1.00  0.00    -0.036 A 
ATOM     87  N   UNL A   1      40.051  29.971  29.869  1.00  0.00    -0.354 N 
ATOM     88  C   UNL A   1      44.057  30.820  27.937  1.00  0.00     0.074 A 
ATOM     89  C   UNL A   1      43.682  30.479  26.590  1.00  0.00    -0.034 C 
ATOM     90  H   UNL A   1      42.029  29.380  25.787  1.00  0.00     0.065 H 
ATOM     91  C   UNL A   1      38.200  28.762  30.153  1.00  0.00    -0.036 A 
ATOM     92  H   UNL A   1      39.049  26.971  29.390  1.00  0.00     0.065 H 
ATOM     93  C   UNL A   1      38.754  30.086  30.371  1.00  0.00     0.049 A 
ATOM     94  H   UNL A   1      40.724  30.683  29.968  1.00  0.00     0.167 HD
ATOM     95  C   UNL A   1      44.746  31.877  28.445  1.00  0.00     0.037 A 
ATOM     96  H   UNL A   1      44.186  30.787  25.744  1.00  0.00     0.065 H 
ATOM     97  H   UNL A   1      37.244  28.463  30.402  1.00  0.00     0.065 H 
ATOM     98  C   UNL A   1      38.191  31.202  30.912  1.00  0.00     0.037 A 
ATOM     99  C   UNL A   1      44.970  31.711  29.859  1.00  0.00     0.049 A 
ATOM    100  C   UNL A   1      39.309  32.067  31.366  1.00  0.00     0.074 A 
ATOM    101  C   UNL A   1      45.675  30.810  30.633  1.00  0.00    -0.036 A 
ATOM    102  N   UNL A   1      44.099  32.336  30.714  1.00  0.00    -0.354 N 
ATOM    103  N   UNL A   1      40.103  31.746  32.350  1.00  0.00    -0.248 NA
ATOM    104  C   UNL A   1      39.841  33.018  30.403  1.00  0.00    -0.034 C 
ATOM    105  C   UNL A   1      44.866  30.602  31.789  1.00  0.00    -0.036 A 
ATOM    106  H   UNL A   1      46.590  30.381  30.421  1.00  0.00     0.065 H 
ATOM    107  C   UNL A   1      43.758  31.443  31.696  1.00  0.00     0.049 A 
ATOM    108  H   UNL A   1      43.775  33.262  30.636  1.00  0.00     0.167 HD
ATOM    109  C   UNL A   1      41.366  32.096  31.901  1.00  0.00     0.074 A 
ATOM    110  C   UNL A   1      41.137  32.913  30.708  1.00  0.00    -0.034 C 
ATOM    111  H   UNL A   1      39.362  33.599  29.698  1.00  0.00     0.065 H 
ATOM    112  H   UNL A   1      45.066  29.945  32.558  1.00  0.00     0.065 H 
ATOM    113  C   UNL A   1      42.476  31.447  32.357  1.00  0.00     0.037 A 
ATOM    114  H   UNL A   1      41.893  33.359  30.166  1.00  0.00     0.065 H 
BRANCH  95 115
ATOM    115  C   UNL A   1      44.820  33.227  27.773  1.00  0.00     0.064 A 
ATOM    116  C   UNL A   1      46.060  33.671  27.270  1.00  0.00     0.173 A 
ATOM    117  C   UNL A   1      43.825  34.221  27.894  1.00  0.00     0.173 A 
ATOM    118  F   UNL A   1      47.087  32.818  27.130  1.00  0.00    -0.203 F 
ATOM    119  C   UNL A   1      46.307  35.020  26.998  1.00  0.00     0.198 A 
ATOM    120  C   UNL A   1      44.059  35.557  27.576  1.00  0.00     0.198 A 
ATOM    121  F   UNL A   1      42.625  33.972  28.431  1.00  0.00    -0.203 F 
ATOM    122  F   UNL A   1      47.539  35.413  26.650  1.00  0.00    -0.200 F 
ATOM    123  C   UNL A   1      45.308  35.962  27.160  1.00  0.00     0.200 A 
ATOM    124  F   UNL A   1      43.085  36.458  27.763  1.00  0.00    -0.200 F 
ATOM    125  F   UNL A   1      45.560  37.262  26.964  1.00  0.00    -0.200 F 
ENDBRANCH  95 115
BRANCH  98 126
ATOM    126  C   UNL A   1      36.823  31.753  30.711  1.00  0.00     0.064 A 
ATOM    127  C   UNL A   1      35.982  32.035  31.806  1.00  0.00     0.173 A 
ATOM    128  C   UNL A   1      36.439  32.313  29.478  1.00  0.00     0.173 A 
ATOM    129  F   UNL A   1      36.296  31.585  33.030  1.00  0.00    -0.203 F 
ATOM    130  C   UNL A   1      34.849  32.851  31.680  1.00  0.00     0.198 A 
ATOM    131  C   UNL A   1      35.309  33.128  29.353  1.00  0.00     0.198 A 
ATOM    132  F   UNL A   1      37.208  32.165  28.391  1.00  0.00    -0.203 F 
ATOM    133  F   UNL A   1      34.112  33.148  32.760  1.00  0.00    -0.200 F 
ATOM    134  C   UNL A   1      34.522  33.408  30.456  1.00  0.00     0.200 A 
ATOM    135  F   UNL A   1      35.027  33.696  28.172  1.00  0.00    -0.200 F 
ATOM    136  F   UNL A   1      33.481  34.245  30.346  1.00  0.00    -0.200 F 
ENDBRANCH  98 126
BRANCH 113 137
ATOM    137  C   UNL A   1      42.316  30.505  33.517  1.00  0.00     0.064 A 
ATOM    138  C   UNL A   1      42.382  30.895  34.867  1.00  0.00     0.173 A 
ATOM    139  C   UNL A   1      41.899  29.196  33.244  1.00  0.00     0.173 A 
ATOM    140  F   UNL A   1      42.691  32.153  35.206  1.00  0.00    -0.203 F 
ATOM    141  C   UNL A   1      42.057  30.007  35.891  1.00  0.00     0.198 A 
ATOM    142  C   UNL A   1      41.545  28.322  34.267  1.00  0.00     0.198 A 
ATOM    143  F   UNL A   1      41.773  28.785  31.972  1.00  0.00    -0.203 F 
ATOM    144  F   UNL A   1      42.113  30.404  37.172  1.00  0.00    -0.200 F 
ATOM    145  C   UNL A   1      41.627  28.725  35.590  1.00  0.00     0.200 A 
ATOM    146  F   UNL A   1      41.081  27.101  33.965  1.00  0.00    -0.200 F 
ATOM    147  F   UNL A   1      41.258  27.889  36.570  1.00  0.00    -0.200 F 
ENDBRANCH 113 137
ENDBRANCH  78  81
ENDBRANCH  68  71
ENDBRANCH  64  67
ENDBRANCH  61  64
ENDBRANCH  58  61
ENDBRANCH  55  58
ENDBRANCH   1  55
TORSDOF 18
ENDMDL
MODEL 5
REMARK VINA RESULT:     -12.3      4.304     10.312
REMARK SMILES [NH3+][C@@H](Cc1cn(-c2nc(Cl)nc(N3CCOCC3)n2)c2ccccc12)C(=O)NCCCCCCNC(=O)c1ccc(-c2c3nc(c(-c4c(F)c(F)c(F)c(F)c4F)c4ccc([nH]4)c(-c4c(F)c(F)c(F)c(F)c4F)c4nc(c(-c5c(F)c(F)c(F)c(F)c5F)c5ccc2[nH]5)C=C4)C=C3)cc1
REMARK SMILES IDX 30 1 29 4 28 7 26 8 27 9 2 11 1 13 3 17 4 20 5 21 25 22 6 23
REMARK SMILES IDX 20 25 24 26 21 27 23 28 22 30 7 34 8 35 19 36 9 37 12 38
REMARK SMILES IDX 10 39 11 40 13 41 14 42 18 43 15 44 17 47 16 50 31 55 32 58
REMARK SMILES IDX 33 61 34 64 35 67 36 68 37 70 38 71 39 72 100 73 40 74 99 76
REMARK SMILES IDX 41 78 42 81 43 82 93 83 44 84 98 85 92 86 94 87 45 88 97 89
REMARK SMILES IDX 91 91 90 93 46 95 78 98 58 99 77 100 59 101 62 102 76 103
REMARK SMILES IDX 95 104 60 105 61 107 75 109 96 110 63 113 47 115 48 116
REMARK SMILES IDX 56 117 49 118 50 119 54 120 57 121 51 122 52 123 55 124
REMARK SMILES IDX 53 125 79 126 80 127 88 128 81 129 82 130 86 131 89 132
REMARK SMILES IDX 83 133 84 134 87 135 85 136 64 137 65 138 73 139 66 140
REMARK SMILES IDX 67 141 71 142 74 143 68 144 69 145 72 146 70 147
REMARK H PARENT 30 2 30 3 29 5 29 6 28 10 2 12 1 14 1 15 1 16 3 18 3 19 5 24
REMARK H PARENT 24 29 21 31 23 32 22 33 14 45 14 46 18 48 18 49 15 51 15 52
REMARK H PARENT 17 53 17 54 31 56 31 57 32 59 32 60 33 62 33 63 34 65 34 66
REMARK H PARENT 35 69 39 75 100 77 40 79 99 80 98 90 92 92 94 94 97 96 91 97
REMARK H PARENT 59 106 62 108 95 111 60 112 96 114
REMARK Flexibility Score: inf
ROOT
ATOM      1  C   UNL A   1      34.743  31.375  27.591  1.00  0.00    -0.036 C 
ATOM      2  H   UNL A   1      34.912  31.633  26.566  1.00  0.00     0.028 H 
ATOM      3  H   UNL A   1      35.567  30.877  28.058  1.00  0.00     0.028 H 
ENDROOT
BRANCH   1   4
ATOM      4  C   UNL A   1      33.594  30.394  27.637  1.00  0.00     0.018 C 
ATOM      5  H   UNL A   1      33.987  29.451  27.957  1.00  0.00     0.049 H 
ATOM      6  H   UNL A   1      32.880  30.834  28.302  1.00  0.00     0.049 H 
BRANCH   4   7
ATOM      7  N   UNL A   1      32.878  30.171  26.415  1.00  0.00    -0.351 N 
ATOM      8  C   UNL A   1      31.962  29.186  26.155  1.00  0.00     0.278 C 
ATOM      9  O   UNL A   1      31.266  29.328  25.143  1.00  0.00    -0.268 OA
ATOM     10  H   UNL A   1      33.064  30.797  25.680  1.00  0.00     0.163 HD
BRANCH   8  11
ATOM     11  C   UNL A   1      31.793  27.920  27.052  1.00  0.00     0.168 C 
ATOM     12  H   UNL A   1      32.795  27.623  27.281  1.00  0.00     0.107 H 
BRANCH  11  13
ATOM     13  N   UNL A   1      31.148  28.246  28.345  1.00  0.00    -0.347 N 
ATOM     14  H   UNL A   1      31.817  28.108  29.103  1.00  0.00     0.345 HD
ATOM     15  H   UNL A   1      30.343  27.637  28.487  1.00  0.00     0.345 HD
ATOM     16  H   UNL A   1      30.841  29.218  28.336  1.00  0.00     0.345 HD
ENDBRANCH  11  13
BRANCH  11  17
ATOM     17  C   UNL A   1      31.319  26.616  26.366  1.00  0.00     0.036 C 
ATOM     18  H   UNL A   1      30.512  26.882  25.715  1.00  0.00     0.038 H 
ATOM     19  H   UNL A   1      31.087  25.970  27.186  1.00  0.00     0.038 H 
BRANCH  17  20
ATOM     20  C   UNL A   1      32.298  25.812  25.545  1.00  0.00    -0.015 A 
ATOM     21  C   UNL A   1      33.256  24.907  25.979  1.00  0.00     0.017 A 
ATOM     22  C   UNL A   1      32.372  25.805  24.112  1.00  0.00     0.004 A 
ATOM     23  N   UNL A   1      33.804  24.247  24.890  1.00  0.00    -0.285 N 
ATOM     24  H   UNL A   1      33.520  24.750  26.965  1.00  0.00     0.083 H 
ATOM     25  C   UNL A   1      33.343  24.868  23.725  1.00  0.00     0.056 A 
ATOM     26  C   UNL A   1      31.627  26.472  23.111  1.00  0.00    -0.053 A 
ATOM     27  C   UNL A   1      33.581  24.592  22.363  1.00  0.00    -0.037 A 
ATOM     28  C   UNL A   1      31.836  26.171  21.765  1.00  0.00    -0.062 A 
ATOM     29  H   UNL A   1      30.929  27.183  23.378  1.00  0.00     0.063 H 
ATOM     30  C   UNL A   1      32.800  25.241  21.398  1.00  0.00    -0.060 A 
ATOM     31  H   UNL A   1      34.316  23.925  22.082  1.00  0.00     0.065 H 
ATOM     32  H   UNL A   1      31.272  26.641  21.039  1.00  0.00     0.062 H 
ATOM     33  H   UNL A   1      32.943  25.024  20.399  1.00  0.00     0.062 H 
BRANCH  23  34
ATOM     34  C   UNL A   1      34.569  23.028  24.959  1.00  0.00     0.240 A 
ATOM     35  N   UNL A   1      35.862  23.120  25.227  1.00  0.00    -0.181 NA
ATOM     36  N   UNL A   1      33.940  21.867  24.686  1.00  0.00    -0.176 NA
ATOM     37  C   UNL A   1      36.460  21.937  25.288  1.00  0.00     0.228 A 
ATOM     38  C   UNL A   1      34.689  20.753  24.648  1.00  0.00     0.231 A 
ATOM     39  Cl  UNL A   1      38.071  21.958  25.858  1.00  0.00    -0.041 Cl
ATOM     40  N   UNL A   1      35.964  20.741  24.987  1.00  0.00    -0.182 NA
BRANCH  38  41
ATOM     41  N   UNL A   1      34.072  19.579  24.296  1.00  0.00    -0.336 N 
ATOM     42  C   UNL A   1      34.511  18.268  24.788  1.00  0.00     0.044 C 
ATOM     43  C   UNL A   1      32.619  19.585  24.124  1.00  0.00     0.044 C 
ATOM     44  C   UNL A   1      34.208  17.248  23.683  1.00  0.00     0.064 C 
ATOM     45  H   UNL A   1      33.977  18.013  25.680  1.00  0.00     0.052 H 
ATOM     46  H   UNL A   1      35.555  18.279  25.020  1.00  0.00     0.052 H 
ATOM     47  C   UNL A   1      32.276  18.495  23.084  1.00  0.00     0.064 C 
ATOM     48  H   UNL A   1      32.296  20.543  23.773  1.00  0.00     0.052 H 
ATOM     49  H   UNL A   1      32.127  19.391  25.054  1.00  0.00     0.052 H 
ATOM     50  O   UNL A   1      32.792  17.195  23.442  1.00  0.00    -0.378 OA
ATOM     51  H   UNL A   1      34.552  16.281  23.988  1.00  0.00     0.059 H 
ATOM     52  H   UNL A   1      34.708  17.543  22.783  1.00  0.00     0.059 H 
ATOM     53  H   UNL A   1      31.212  18.429  22.998  1.00  0.00     0.059 H 
ATOM     54  H   UNL A   1      32.733  18.778  22.158  1.00  0.00     0.059 H 
ENDBRANCH  38  41
ENDBRANCH  23  34
ENDBRANCH  17  20
ENDBRANCH  11  17
ENDBRANCH   8  11
ENDBRANCH   4   7
ENDBRANCH   1   4
BRANCH   1  55
ATOM     55  C   UNL A   1      34.548  32.670  28.372  1.00  0.00    -0.052 C 
ATOM     56  H   UNL A   1      35.281  33.366  28.020  1.00  0.00     0.027 H 
ATOM     57  H   UNL A   1      34.636  32.376  29.397  1.00  0.00     0.027 H 
BRANCH  55  58
ATOM     58  C   UNL A   1      33.178  33.371  28.292  1.00  0.00    -0.052 C 
ATOM     59  H   UNL A   1      32.610  33.052  29.140  1.00  0.00     0.027 H 
ATOM     60  H   UNL A   1      32.796  33.087  27.334  1.00  0.00     0.027 H 
BRANCH  58  61
ATOM     61  C   UNL A   1      33.138  34.902  28.271  1.00  0.00    -0.036 C 
ATOM     62  H   UNL A   1      32.117  35.205  28.169  1.00  0.00     0.028 H 
ATOM     63  H   UNL A   1      33.759  35.203  27.453  1.00  0.00     0.028 H 
BRANCH  61  64
ATOM     64  C   UNL A   1      33.704  35.579  29.496  1.00  0.00     0.018 C 
ATOM     65  H   UNL A   1      33.620  36.636  29.351  1.00  0.00     0.049 H 
ATOM     66  H   UNL A   1      34.709  35.220  29.579  1.00  0.00     0.049 H 
BRANCH  64  67
ATOM     67  N   UNL A   1      33.078  35.257  30.761  1.00  0.00    -0.352 N 
ATOM     68  C   UNL A   1      33.514  34.754  31.953  1.00  0.00     0.251 C 
ATOM     69  H   UNL A   1      32.112  35.446  30.762  1.00  0.00     0.163 HD
ATOM     70  O   UNL A   1      32.742  34.845  32.911  1.00  0.00    -0.269 OA
BRANCH  68  71
ATOM     71  C   UNL A   1      34.767  33.985  32.116  1.00  0.00     0.039 A 
ATOM     72  C   UNL A   1      36.034  34.539  32.261  1.00  0.00    -0.049 A 
ATOM     73  C   UNL A   1      34.641  32.588  32.008  1.00  0.00    -0.049 A 
ATOM     74  C   UNL A   1      37.153  33.751  32.048  1.00  0.00    -0.053 A 
ATOM     75  H   UNL A   1      36.140  35.531  32.525  1.00  0.00     0.063 H 
ATOM     76  C   UNL A   1      35.758  31.784  31.864  1.00  0.00    -0.053 A 
ATOM     77  H   UNL A   1      33.703  32.157  32.037  1.00  0.00     0.063 H 
ATOM     78  C   UNL A   1      37.005  32.385  31.778  1.00  0.00    -0.014 A 
ATOM     79  H   UNL A   1      38.095  34.171  32.088  1.00  0.00     0.063 H 
ATOM     80  H   UNL A   1      35.665  30.757  31.820  1.00  0.00     0.063 H 
BRANCH  78  81
ATOM     81  C   UNL A   1      38.208  31.591  31.571  1.00  0.00     0.031 A 
ATOM     82  C   UNL A   1      38.948  31.342  32.837  1.00  0.00     0.074 A 
ATOM     83  C   UNL A   1      38.593  31.097  30.373  1.00  0.00     0.049 A 
ATOM     84  N   UNL A   1      40.099  31.823  33.169  1.00  0.00    -0.248 NA
ATOM     85  C   UNL A   1      38.245  30.658  33.935  1.00  0.00    -0.034 C 
ATOM     86  C   UNL A   1      37.878  31.115  29.096  1.00  0.00    -0.036 A 
ATOM     87  N   UNL A   1      39.735  30.416  30.061  1.00  0.00    -0.354 N 
ATOM     88  C   UNL A   1      40.359  31.344  34.449  1.00  0.00     0.074 A 
ATOM     89  C   UNL A   1      39.128  30.773  34.928  1.00  0.00    -0.034 C 
ATOM     90  H   UNL A   1      37.316  30.209  33.937  1.00  0.00     0.065 H 
ATOM     91  C   UNL A   1      38.489  30.283  28.217  1.00  0.00    -0.036 A 
ATOM     92  H   UNL A   1      37.036  31.676  28.894  1.00  0.00     0.065 H 
ATOM     93  C   UNL A   1      39.721  29.796  28.811  1.00  0.00     0.049 A 
ATOM     94  H   UNL A   1      40.507  30.366  30.670  1.00  0.00     0.167 HD
ATOM     95  C   UNL A   1      41.640  31.243  34.897  1.00  0.00     0.037 A 
ATOM     96  H   UNL A   1      38.954  30.490  35.906  1.00  0.00     0.065 H 
ATOM     97  H   UNL A   1      38.137  30.036  27.279  1.00  0.00     0.065 H 
ATOM     98  C   UNL A   1      40.659  28.937  28.322  1.00  0.00     0.037 A 
ATOM     99  C   UNL A   1      42.516  32.102  34.141  1.00  0.00     0.049 A 
ATOM    100  C   UNL A   1      41.910  29.197  29.078  1.00  0.00     0.074 A 
ATOM    101  C   UNL A   1      42.628  33.467  33.966  1.00  0.00    -0.036 A 
ATOM    102  N   UNL A   1      43.220  31.534  33.110  1.00  0.00    -0.354 N 
ATOM    103  N   UNL A   1      42.585  30.308  28.977  1.00  0.00    -0.248 NA
ATOM    104  C   UNL A   1      42.111  28.438  30.303  1.00  0.00    -0.034 C 
ATOM    105  C   UNL A   1      42.973  33.637  32.593  1.00  0.00    -0.036 A 
ATOM    106  H   UNL A   1      42.490  34.205  34.675  1.00  0.00     0.065 H 
ATOM    107  C   UNL A   1      43.133  32.372  32.029  1.00  0.00     0.049 A 
ATOM    108  H   UNL A   1      43.702  30.676  33.140  1.00  0.00     0.167 HD
ATOM    109  C   UNL A   1      42.943  30.613  30.280  1.00  0.00     0.074 A 
ATOM    110  C   UNL A   1      42.656  29.402  31.051  1.00  0.00    -0.034 C 
ATOM    111  H   UNL A   1      41.897  27.454  30.527  1.00  0.00     0.065 H 
ATOM    112  H   UNL A   1      43.086  34.538  32.103  1.00  0.00     0.065 H 
ATOM    113  C   UNL A   1      43.152  31.905  30.664  1.00  0.00     0.037 A 
ATOM    114  H   UNL A   1      42.854  29.304  32.058  1.00  0.00     0.065 H 
BRANCH  95 115
ATOM    115  C   UNL A   1      42.155  30.071  35.696  1.00  0.00     0.064 A 
ATOM    116  C   UNL A   1      43.090  30.305  36.725  1.00  0.00     0.173 A 
ATOM    117  C   UNL A   1      42.029  28.725  35.288  1.00  0.00     0.173 A 
ATOM    118  F   UNL A   1      43.309  31.549  37.181  1.00  0.00    -0.203 F 
ATOM    119  C   UNL A   1      43.896  29.285  37.238  1.00  0.00     0.198 A 
ATOM    120  C   UNL A   1      42.801  27.702  35.835  1.00  0.00     0.198 A 
ATOM    121  F   UNL A   1      41.245  28.356  34.269  1.00  0.00    -0.203 F 
ATOM    122  F   UNL A   1      44.862  29.580  38.118  1.00  0.00    -0.200 F 
ATOM    123  C   UNL A   1      43.756  27.987  36.785  1.00  0.00     0.200 A 
ATOM    124  F   UNL A   1      42.666  26.455  35.365  1.00  0.00    -0.200 F 
ATOM    125  F   UNL A   1      44.572  27.020  37.225  1.00  0.00    -0.200 F 
ENDBRANCH  95 115
BRANCH  98 126
ATOM    126  C   UNL A   1      40.465  27.671  27.564  1.00  0.00     0.064 A 
ATOM    127  C   UNL A   1      41.273  27.355  26.453  1.00  0.00     0.173 A 
ATOM    128  C   UNL A   1      39.712  26.610  28.100  1.00  0.00     0.173 A 
ATOM    129  F   UNL A   1      42.064  28.291  25.907  1.00  0.00    -0.203 F 
ATOM    130  C   UNL A   1      41.347  26.054  25.936  1.00  0.00     0.198 A 
ATOM    131  C   UNL A   1      39.786  25.312  27.584  1.00  0.00     0.198 A 
ATOM    132  F   UNL A   1      38.966  26.788  29.199  1.00  0.00    -0.203 F 
ATOM    133  F   UNL A   1      42.178  25.781  24.920  1.00  0.00    -0.200 F 
ATOM    134  C   UNL A   1      40.614  25.031  26.512  1.00  0.00     0.200 A 
ATOM    135  F   UNL A   1      39.104  24.321  28.176  1.00  0.00    -0.200 F 
ATOM    136  F   UNL A   1      40.735  23.773  26.065  1.00  0.00    -0.200 F 
ENDBRANCH  98 126
BRANCH 113 137
ATOM    137  C   UNL A   1      43.205  32.960  29.595  1.00  0.00     0.064 A 
ATOM    138  C   UNL A   1      42.151  33.846  29.307  1.00  0.00     0.173 A 
ATOM    139  C   UNL A   1      44.435  33.197  28.970  1.00  0.00     0.173 A 
ATOM    140  F   UNL A   1      40.969  33.737  29.928  1.00  0.00    -0.203 F 
ATOM    141  C   UNL A   1      42.324  34.910  28.423  1.00  0.00     0.198 A 
ATOM    142  C   UNL A   1      44.614  34.278  28.113  1.00  0.00     0.198 A 
ATOM    143  F   UNL A   1      45.488  32.410  29.244  1.00  0.00    -0.203 F 
ATOM    144  F   UNL A   1      41.310  35.753  28.173  1.00  0.00    -0.200 F 
ATOM    145  C   UNL A   1      43.559  35.132  27.836  1.00  0.00     0.200 A 
ATOM    146  F   UNL A   1      45.824  34.515  27.589  1.00  0.00    -0.200 F 
ATOM    147  F   UNL A   1      43.744  36.188  27.031  1.00  0.00    -0.200 F 
ENDBRANCH 113 137
ENDBRANCH  78  81
ENDBRANCH  68  71
ENDBRANCH  64  67
ENDBRANCH  61  64
ENDBRANCH  58  61
ENDBRANCH  55  58
ENDBRANCH   1  55
TORSDOF 18
ENDMDL
MODEL 6
REMARK VINA RESULT:     -12.3      1.593      2.383
REMARK SMILES [NH3+][C@@H](Cc1cn(-c2nc(Cl)nc(N3CCOCC3)n2)c2ccccc12)C(=O)NCCCCCCNC(=O)c1ccc(-c2c3nc(c(-c4c(F)c(F)c(F)c(F)c4F)c4ccc([nH]4)c(-c4c(F)c(F)c(F)c(F)c4F)c4nc(c(-c5c(F)c(F)c(F)c(F)c5F)c5ccc2[nH]5)C=C4)C=C3)cc1
REMARK SMILES IDX 30 1 29 4 28 7 26 8 27 9 2 11 1 13 3 17 4 20 5 21 25 22 6 23
REMARK SMILES IDX 20 25 24 26 21 27 23 28 22 30 7 34 8 35 19 36 9 37 12 38
REMARK SMILES IDX 10 39 11 40 13 41 14 42 18 43 15 44 17 47 16 50 31 55 32 58
REMARK SMILES IDX 33 61 34 64 35 67 36 68 37 70 38 71 39 72 100 73 40 74 99 76
REMARK SMILES IDX 41 78 42 81 43 82 93 83 44 84 98 85 92 86 94 87 45 88 97 89
REMARK SMILES IDX 91 91 90 93 46 95 78 98 58 99 77 100 59 101 62 102 76 103
REMARK SMILES IDX 95 104 60 105 61 107 75 109 96 110 63 113 47 115 48 116
REMARK SMILES IDX 56 117 49 118 50 119 54 120 57 121 51 122 52 123 55 124
REMARK SMILES IDX 53 125 79 126 80 127 88 128 81 129 82 130 86 131 89 132
REMARK SMILES IDX 83 133 84 134 87 135 85 136 64 137 65 138 73 139 66 140
REMARK SMILES IDX 67 141 71 142 74 143 68 144 69 145 72 146 70 147
REMARK H PARENT 30 2 30 3 29 5 29 6 28 10 2 12 1 14 1 15 1 16 3 18 3 19 5 24
REMARK H PARENT 24 29 21 31 23 32 22 33 14 45 14 46 18 48 18 49 15 51 15 52
REMARK H PARENT 17 53 17 54 31 56 31 57 32 59 32 60 33 62 33 63 34 65 34 66
REMARK H PARENT 35 69 39 75 100 77 40 79 99 80 98 90 92 92 94 94 97 96 91 97
REMARK H PARENT 59 106 62 108 95 111 60 112 96 114
REMARK Flexibility Score: inf
ROOT
ATOM      1  C   UNL A   1      39.301  22.548  26.422  1.00  0.00    -0.036 C 
ATOM      2  H   UNL A   1      39.123  22.783  27.451  1.00  0.00     0.028 H 
ATOM      3  H   UNL A   1      39.834  23.306  25.887  1.00  0.00     0.028 H 
ENDROOT
BRANCH   1   4
ATOM      4  C   UNL A   1      37.958  22.432  25.736  1.00  0.00     0.018 C 
ATOM      5  H   UNL A   1      38.023  22.963  24.809  1.00  0.00     0.049 H 
ATOM      6  H   UNL A   1      37.785  21.381  25.643  1.00  0.00     0.049 H 
BRANCH   4   7
ATOM      7  N   UNL A   1      36.818  22.937  26.444  1.00  0.00    -0.351 N 
ATOM      8  C   UNL A   1      35.497  22.708  26.166  1.00  0.00     0.278 C 
ATOM      9  O   UNL A   1      34.683  23.008  27.047  1.00  0.00    -0.268 OA
ATOM     10  H   UNL A   1      37.007  23.513  27.220  1.00  0.00     0.163 HD
BRANCH   8  11
ATOM     11  C   UNL A   1      35.001  22.122  24.807  1.00  0.00     0.168 C 
ATOM     12  H   UNL A   1      35.886  22.055  24.209  1.00  0.00     0.107 H 
BRANCH  11  13
ATOM     13  N   UNL A   1      34.494  20.738  24.958  1.00  0.00    -0.347 N 
ATOM     14  H   UNL A   1      34.139  20.608  25.905  1.00  0.00     0.345 HD
ATOM     15  H   UNL A   1      35.252  20.078  24.785  1.00  0.00     0.345 HD
ATOM     16  H   UNL A   1      33.743  20.576  24.288  1.00  0.00     0.345 HD
ENDBRANCH  11  13
BRANCH  11  17
ATOM     17  C   UNL A   1      34.174  23.052  23.887  1.00  0.00     0.036 C 
ATOM     18  H   UNL A   1      33.589  22.421  23.251  1.00  0.00     0.038 H 
ATOM     19  H   UNL A   1      34.914  23.663  23.415  1.00  0.00     0.038 H 
BRANCH  17  20
ATOM     20  C   UNL A   1      33.227  24.053  24.503  1.00  0.00    -0.015 A 
ATOM     21  C   UNL A   1      33.224  25.435  24.378  1.00  0.00     0.017 A 
ATOM     22  C   UNL A   1      32.087  23.730  25.313  1.00  0.00     0.004 A 
ATOM     23  N   UNL A   1      32.069  25.954  24.944  1.00  0.00    -0.285 N 
ATOM     24  H   UNL A   1      33.970  25.991  23.932  1.00  0.00     0.083 H 
ATOM     25  C   UNL A   1      31.411  24.921  25.618  1.00  0.00     0.056 A 
ATOM     26  C   UNL A   1      31.538  22.500  25.745  1.00  0.00    -0.053 A 
ATOM     27  C   UNL A   1      30.202  24.902  26.345  1.00  0.00    -0.037 A 
ATOM     28  C   UNL A   1      30.323  22.478  26.431  1.00  0.00    -0.062 A 
ATOM     29  H   UNL A   1      32.036  21.617  25.552  1.00  0.00     0.063 H 
ATOM     30  C   UNL A   1      29.664  23.665  26.725  1.00  0.00    -0.060 A 
ATOM     31  H   UNL A   1      29.723  25.781  26.593  1.00  0.00     0.065 H 
ATOM     32  H   UNL A   1      29.912  21.577  26.721  1.00  0.00     0.062 H 
ATOM     33  H   UNL A   1      28.765  23.636  27.230  1.00  0.00     0.062 H 
BRANCH  23  34
ATOM     34  C   UNL A   1      31.560  27.282  24.717  1.00  0.00     0.240 A 
ATOM     35  N   UNL A   1      30.799  27.483  23.652  1.00  0.00    -0.181 NA
ATOM     36  N   UNL A   1      31.935  28.260  25.566  1.00  0.00    -0.176 NA
ATOM     37  C   UNL A   1      30.369  28.735  23.556  1.00  0.00     0.228 A 
ATOM     38  C   UNL A   1      31.541  29.511  25.280  1.00  0.00     0.231 A 
ATOM     39  Cl  UNL A   1      29.198  29.017  22.344  1.00  0.00    -0.041 Cl
ATOM     40  N   UNL A   1      30.712  29.788  24.291  1.00  0.00    -0.182 NA
BRANCH  38  41
ATOM     41  N   UNL A   1      31.981  30.523  26.096  1.00  0.00    -0.336 N 
ATOM     42  C   UNL A   1      31.105  31.595  26.582  1.00  0.00     0.044 C 
ATOM     43  C   UNL A   1      32.990  30.207  27.107  1.00  0.00     0.044 C 
ATOM     44  C   UNL A   1      31.970  32.853  26.728  1.00  0.00     0.064 C 
ATOM     45  H   UNL A   1      30.686  31.325  27.530  1.00  0.00     0.052 H 
ATOM     46  H   UNL A   1      30.297  31.765  25.901  1.00  0.00     0.052 H 
ATOM     47  C   UNL A   1      33.817  31.491  27.346  1.00  0.00     0.064 C 
ATOM     48  H   UNL A   1      33.625  29.421  26.757  1.00  0.00     0.052 H 
ATOM     49  H   UNL A   1      32.527  29.880  28.014  1.00  0.00     0.052 H 
ATOM     50  O   UNL A   1      33.000  32.626  27.704  1.00  0.00    -0.378 OA
ATOM     51  H   UNL A   1      31.357  33.672  27.043  1.00  0.00     0.059 H 
ATOM     52  H   UNL A   1      32.422  33.082  25.785  1.00  0.00     0.059 H 
ATOM     53  H   UNL A   1      34.513  31.306  28.137  1.00  0.00     0.059 H 
ATOM     54  H   UNL A   1      34.313  31.730  26.428  1.00  0.00     0.059 H 
ENDBRANCH  38  41
ENDBRANCH  23  34
ENDBRANCH  17  20
ENDBRANCH  11  17
ENDBRANCH   8  11
ENDBRANCH   4   7
ENDBRANCH   1   4
BRANCH   1  55
ATOM     55  C   UNL A   1      40.186  21.308  26.373  1.00  0.00    -0.052 C 
ATOM     56  H   UNL A   1      40.569  21.232  25.376  1.00  0.00     0.027 H 
ATOM     57  H   UNL A   1      39.544  20.513  26.689  1.00  0.00     0.027 H 
BRANCH  55  58
ATOM     58  C   UNL A   1      41.389  21.232  27.332  1.00  0.00    -0.052 C 
ATOM     59  H   UNL A   1      41.002  21.046  28.311  1.00  0.00     0.027 H 
ATOM     60  H   UNL A   1      41.893  22.166  27.193  1.00  0.00     0.027 H 
BRANCH  58  61
ATOM     61  C   UNL A   1      42.473  20.182  27.067  1.00  0.00    -0.036 C 
ATOM     62  H   UNL A   1      42.436  19.462  27.857  1.00  0.00     0.028 H 
ATOM     63  H   UNL A   1      43.398  20.717  27.017  1.00  0.00     0.028 H 
BRANCH  61  64
ATOM     64  C   UNL A   1      42.348  19.442  25.757  1.00  0.00     0.018 C 
ATOM     65  H   UNL A   1      41.494  19.831  25.244  1.00  0.00     0.049 H 
ATOM     66  H   UNL A   1      42.276  18.408  26.022  1.00  0.00     0.049 H 
BRANCH  64  67
ATOM     67  N   UNL A   1      43.478  19.528  24.855  1.00  0.00    -0.352 N 
ATOM     68  C   UNL A   1      44.522  20.393  24.696  1.00  0.00     0.251 C 
ATOM     69  H   UNL A   1      43.499  18.789  24.206  1.00  0.00     0.163 HD
ATOM     70  O   UNL A   1      45.452  20.017  23.977  1.00  0.00    -0.269 OA
BRANCH  68  71
ATOM     71  C   UNL A   1      44.526  21.784  25.200  1.00  0.00     0.039 A 
ATOM     72  C   UNL A   1      45.355  22.270  26.204  1.00  0.00    -0.049 A 
ATOM     73  C   UNL A   1      43.531  22.625  24.670  1.00  0.00    -0.049 A 
ATOM     74  C   UNL A   1      45.038  23.461  26.836  1.00  0.00    -0.053 A 
ATOM     75  H   UNL A   1      46.201  21.746  26.478  1.00  0.00     0.063 H 
ATOM     76  C   UNL A   1      43.252  23.849  25.252  1.00  0.00    -0.053 A 
ATOM     77  H   UNL A   1      43.002  22.326  23.835  1.00  0.00     0.063 H 
ATOM     78  C   UNL A   1      43.939  24.212  26.401  1.00  0.00    -0.014 A 
ATOM     79  H   UNL A   1      45.610  23.793  27.628  1.00  0.00     0.063 H 
ATOM     80  H   UNL A   1      42.545  24.479  24.841  1.00  0.00     0.063 H 
BRANCH  78  81
ATOM     81  C   UNL A   1      43.646  25.463  27.087  1.00  0.00     0.031 A 
ATOM     82  C   UNL A   1      44.634  26.529  26.767  1.00  0.00     0.074 A 
ATOM     83  C   UNL A   1      42.577  25.655  27.890  1.00  0.00     0.049 A 
ATOM     84  N   UNL A   1      45.508  27.040  27.568  1.00  0.00    -0.248 NA
ATOM     85  C   UNL A   1      44.813  26.918  25.359  1.00  0.00    -0.034 C 
ATOM     86  C   UNL A   1      41.446  24.762  28.147  1.00  0.00    -0.036 A 
ATOM     87  N   UNL A   1      42.260  26.754  28.637  1.00  0.00    -0.354 N 
ATOM     88  C   UNL A   1      46.224  27.963  26.814  1.00  0.00     0.074 A 
ATOM     89  C   UNL A   1      45.867  27.732  25.439  1.00  0.00    -0.034 C 
ATOM     90  H   UNL A   1      44.268  26.637  24.529  1.00  0.00     0.065 H 
ATOM     91  C   UNL A   1      40.466  25.439  28.797  1.00  0.00    -0.036 A 
ATOM     92  H   UNL A   1      41.400  23.768  27.876  1.00  0.00     0.065 H 
ATOM     93  C   UNL A   1      40.958  26.761  29.140  1.00  0.00     0.049 A 
ATOM     94  H   UNL A   1      42.898  27.484  28.805  1.00  0.00     0.167 HD
ATOM     95  C   UNL A   1      46.862  29.000  27.422  1.00  0.00     0.037 A 
ATOM     96  H   UNL A   1      46.358  28.140  24.628  1.00  0.00     0.065 H 
ATOM     97  H   UNL A   1      39.526  25.074  29.012  1.00  0.00     0.065 H 
ATOM     98  C   UNL A   1      40.343  27.795  29.779  1.00  0.00     0.037 A 
ATOM     99  C   UNL A   1      47.092  28.713  28.816  1.00  0.00     0.049 A 
ATOM    100  C   UNL A   1      41.419  28.665  30.318  1.00  0.00     0.074 A 
ATOM    101  C   UNL A   1      47.838  27.779  29.507  1.00  0.00    -0.036 A 
ATOM    102  N   UNL A   1      46.192  29.215  29.720  1.00  0.00    -0.354 N 
ATOM    103  N   UNL A   1      42.226  28.291  31.272  1.00  0.00    -0.248 NA
ATOM    104  C   UNL A   1      41.907  29.725  29.450  1.00  0.00    -0.034 C 
ATOM    105  C   UNL A   1      47.038  27.427  30.633  1.00  0.00    -0.036 A 
ATOM    106  H   UNL A   1      48.772  27.414  29.261  1.00  0.00     0.065 H 
ATOM    107  C   UNL A   1      45.892  28.221  30.613  1.00  0.00     0.049 A 
ATOM    108  H   UNL A   1      45.825  30.129  29.726  1.00  0.00     0.167 HD
ATOM    109  C   UNL A   1      43.472  28.740  30.864  1.00  0.00     0.074 A 
ATOM    110  C   UNL A   1      43.206  29.652  29.751  1.00  0.00    -0.034 C 
ATOM    111  H   UNL A   1      41.402  30.346  28.799  1.00  0.00     0.065 H 
ATOM    112  H   UNL A   1      47.267  26.711  31.340  1.00  0.00     0.065 H 
ATOM    113  C   UNL A   1      44.610  28.104  31.265  1.00  0.00     0.037 A 
ATOM    114  H   UNL A   1      43.941  30.181  29.256  1.00  0.00     0.065 H 
BRANCH  95 115
ATOM    115  C   UNL A   1      46.874  30.408  26.878  1.00  0.00     0.064 A 
ATOM    116  C   UNL A   1      48.074  31.147  26.925  1.00  0.00     0.173 A 
ATOM    117  C   UNL A   1      45.708  31.162  26.625  1.00  0.00     0.173 A 
ATOM    118  F   UNL A   1      49.243  30.538  27.178  1.00  0.00    -0.203 F 
ATOM    119  C   UNL A   1      48.088  32.541  26.816  1.00  0.00     0.198 A 
ATOM    120  C   UNL A   1      45.732  32.547  26.469  1.00  0.00     0.198 A 
ATOM    121  F   UNL A   1      44.486  30.618  26.632  1.00  0.00    -0.203 F 
ATOM    122  F   UNL A   1      49.233  33.210  27.001  1.00  0.00    -0.200 F 
ATOM    123  C   UNL A   1      46.915  33.239  26.597  1.00  0.00     0.200 A 
ATOM    124  F   UNL A   1      44.580  33.206  26.281  1.00  0.00    -0.200 F 
ATOM    125  F   UNL A   1      46.916  34.577  26.559  1.00  0.00    -0.200 F 
ENDBRANCH  95 115
BRANCH  98 126
ATOM    126  C   UNL A   1      38.951  28.298  29.623  1.00  0.00     0.064 A 
ATOM    127  C   UNL A   1      38.136  28.549  30.744  1.00  0.00     0.173 A 
ATOM    128  C   UNL A   1      38.509  28.846  28.404  1.00  0.00     0.173 A 
ATOM    129  F   UNL A   1      38.503  28.109  31.957  1.00  0.00    -0.203 F 
ATOM    130  C   UNL A   1      36.972  29.325  30.656  1.00  0.00     0.198 A 
ATOM    131  C   UNL A   1      37.348  29.620  28.316  1.00  0.00     0.198 A 
ATOM    132  F   UNL A   1      39.248  28.726  27.293  1.00  0.00    -0.203 F 
ATOM    133  F   UNL A   1      36.259  29.596  31.759  1.00  0.00    -0.200 F 
ATOM    134  C   UNL A   1      36.587  29.872  29.444  1.00  0.00     0.200 A 
ATOM    135  F   UNL A   1      37.009  30.179  27.146  1.00  0.00    -0.200 F 
ATOM    136  F   UNL A   1      35.514  30.673  29.369  1.00  0.00    -0.200 F 
ENDBRANCH  98 126
BRANCH 113 137
ATOM    137  C   UNL A   1      44.493  27.051  32.331  1.00  0.00     0.064 A 
ATOM    138  C   UNL A   1      44.333  25.678  32.071  1.00  0.00     0.173 A 
ATOM    139  C   UNL A   1      44.738  27.431  33.656  1.00  0.00     0.173 A 
ATOM    140  F   UNL A   1      44.179  25.227  30.819  1.00  0.00    -0.203 F 
ATOM    141  C   UNL A   1      44.402  24.736  33.097  1.00  0.00     0.198 A 
ATOM    142  C   UNL A   1      44.839  26.487  34.673  1.00  0.00     0.198 A 
ATOM    143  F   UNL A   1      44.946  28.724  33.954  1.00  0.00    -0.203 F 
ATOM    144  F   UNL A   1      44.261  23.430  32.825  1.00  0.00    -0.200 F 
ATOM    145  C   UNL A   1      44.668  25.140  34.395  1.00  0.00     0.200 A 
ATOM    146  F   UNL A   1      45.146  26.881  35.916  1.00  0.00    -0.200 F 
ATOM    147  F   UNL A   1      44.793  24.233  35.373  1.00  0.00    -0.200 F 
ENDBRANCH 113 137
ENDBRANCH  78  81
ENDBRANCH  68  71
ENDBRANCH  64  67
ENDBRANCH  61  64
ENDBRANCH  58  61
ENDBRANCH  55  58
ENDBRANCH   1  55
TORSDOF 18
ENDMDL
MODEL 7
REMARK VINA RESULT:     -12.2      3.285      9.310
REMARK SMILES [NH3+][C@@H](Cc1cn(-c2nc(Cl)nc(N3CCOCC3)n2)c2ccccc12)C(=O)NCCCCCCNC(=O)c1ccc(-c2c3nc(c(-c4c(F)c(F)c(F)c(F)c4F)c4ccc([nH]4)c(-c4c(F)c(F)c(F)c(F)c4F)c4nc(c(-c5c(F)c(F)c(F)c(F)c5F)c5ccc2[nH]5)C=C4)C=C3)cc1
REMARK SMILES IDX 30 1 29 4 28 7 26 8 27 9 2 11 1 13 3 17 4 20 5 21 25 22 6 23
REMARK SMILES IDX 20 25 24 26 21 27 23 28 22 30 7 34 8 35 19 36 9 37 12 38
REMARK SMILES IDX 10 39 11 40 13 41 14 42 18 43 15 44 17 47 16 50 31 55 32 58
REMARK SMILES IDX 33 61 34 64 35 67 36 68 37 70 38 71 39 72 100 73 40 74 99 76
REMARK SMILES IDX 41 78 42 81 43 82 93 83 44 84 98 85 92 86 94 87 45 88 97 89
REMARK SMILES IDX 91 91 90 93 46 95 78 98 58 99 77 100 59 101 62 102 76 103
REMARK SMILES IDX 95 104 60 105 61 107 75 109 96 110 63 113 47 115 48 116
REMARK SMILES IDX 56 117 49 118 50 119 54 120 57 121 51 122 52 123 55 124
REMARK SMILES IDX 53 125 79 126 80 127 88 128 81 129 82 130 86 131 89 132
REMARK SMILES IDX 83 133 84 134 87 135 85 136 64 137 65 138 73 139 66 140
REMARK SMILES IDX 67 141 71 142 74 143 68 144 69 145 72 146 70 147
REMARK H PARENT 30 2 30 3 29 5 29 6 28 10 2 12 1 14 1 15 1 16 3 18 3 19 5 24
REMARK H PARENT 24 29 21 31 23 32 22 33 14 45 14 46 18 48 18 49 15 51 15 52
REMARK H PARENT 17 53 17 54 31 56 31 57 32 59 32 60 33 62 33 63 34 65 34 66
REMARK H PARENT 35 69 39 75 100 77 40 79 99 80 98 90 92 92 94 94 97 96 91 97
REMARK H PARENT 59 106 62 108 95 111 60 112 96 114
REMARK Flexibility Score: inf
ROOT
ATOM      1  C   UNL A   1      32.765  29.059  25.830  1.00  0.00    -0.036 C 
ATOM      2  H   UNL A   1      31.747  28.807  26.043  1.00  0.00     0.028 H 
ATOM      3  H   UNL A   1      32.883  29.785  25.053  1.00  0.00     0.028 H 
ENDROOT
BRANCH   1   4
ATOM      4  C   UNL A   1      33.456  27.810  25.330  1.00  0.00     0.018 C 
ATOM      5  H   UNL A   1      34.205  27.546  26.048  1.00  0.00     0.049 H 
ATOM      6  H   UNL A   1      32.672  27.091  25.210  1.00  0.00     0.049 H 
BRANCH   4   7
ATOM      7  N   UNL A   1      34.093  27.886  24.048  1.00  0.00    -0.351 N 
ATOM      8  C   UNL A   1      33.492  27.863  22.817  1.00  0.00     0.278 C 
ATOM      9  O   UNL A   1      34.186  28.209  21.854  1.00  0.00    -0.268 OA
ATOM     10  H   UNL A   1      35.074  27.966  24.053  1.00  0.00     0.163 HD
BRANCH   8  11
ATOM     11  C   UNL A   1      32.017  27.404  22.597  1.00  0.00     0.168 C 
ATOM     12  H   UNL A   1      31.640  27.243  23.585  1.00  0.00     0.107 H 
BRANCH  11  13
ATOM     13  N   UNL A   1      31.189  28.481  22.006  1.00  0.00    -0.347 N 
ATOM     14  H   UNL A   1      30.209  28.321  22.235  1.00  0.00     0.345 HD
ATOM     15  H   UNL A   1      31.307  28.482  20.993  1.00  0.00     0.345 HD
ATOM     16  H   UNL A   1      31.483  29.382  22.383  1.00  0.00     0.345 HD
ENDBRANCH  11  13
BRANCH  11  17
ATOM     17  C   UNL A   1      31.788  25.982  22.031  1.00  0.00     0.036 C 
ATOM     18  H   UNL A   1      32.494  25.844  21.239  1.00  0.00     0.038 H 
ATOM     19  H   UNL A   1      30.753  25.981  21.762  1.00  0.00     0.038 H 
BRANCH  17  20
ATOM     20  C   UNL A   1      31.918  24.789  22.947  1.00  0.00    -0.015 A 
ATOM     21  C   UNL A   1      32.752  23.687  22.822  1.00  0.00     0.017 A 
ATOM     22  C   UNL A   1      31.212  24.609  24.183  1.00  0.00     0.004 A 
ATOM     23  N   UNL A   1      32.696  22.925  23.980  1.00  0.00    -0.285 N 
ATOM     24  H   UNL A   1      33.325  23.469  21.993  1.00  0.00     0.083 H 
ATOM     25  C   UNL A   1      31.669  23.426  24.784  1.00  0.00     0.056 A 
ATOM     26  C   UNL A   1      30.270  25.409  24.873  1.00  0.00    -0.053 A 
ATOM     27  C   UNL A   1      31.201  23.033  26.055  1.00  0.00    -0.037 A 
ATOM     28  C   UNL A   1      29.836  25.039  26.146  1.00  0.00    -0.062 A 
ATOM     29  H   UNL A   1      29.904  26.268  24.433  1.00  0.00     0.063 H 
ATOM     30  C   UNL A   1      30.298  23.866  26.729  1.00  0.00    -0.060 A 
ATOM     31  H   UNL A   1      31.517  22.147  26.481  1.00  0.00     0.065 H 
ATOM     32  H   UNL A   1      29.170  25.638  26.657  1.00  0.00     0.062 H 
ATOM     33  H   UNL A   1      29.973  23.604  27.673  1.00  0.00     0.062 H 
BRANCH  23  34
ATOM     34  C   UNL A   1      33.651  21.913  24.352  1.00  0.00     0.240 A 
ATOM     35  N   UNL A   1      34.902  22.288  24.569  1.00  0.00    -0.181 NA
ATOM     36  N   UNL A   1      33.234  20.631  24.399  1.00  0.00    -0.176 NA
ATOM     37  C   UNL A   1      35.687  21.279  24.927  1.00  0.00     0.228 A 
ATOM     38  C   UNL A   1      34.159  19.689  24.640  1.00  0.00     0.231 A 
ATOM     39  Cl  UNL A   1      37.253  21.719  25.450  1.00  0.00    -0.041 Cl
ATOM     40  N   UNL A   1      35.407  19.980  24.954  1.00  0.00    -0.182 NA
BRANCH  38  41
ATOM     41  N   UNL A   1      33.757  18.377  24.614  1.00  0.00    -0.336 N 
ATOM     42  C   UNL A   1      32.663  17.860  25.444  1.00  0.00     0.044 C 
ATOM     43  C   UNL A   1      33.789  17.669  23.335  1.00  0.00     0.044 C 
ATOM     44  C   UNL A   1      32.998  16.400  25.773  1.00  0.00     0.064 C 
ATOM     45  H   UNL A   1      31.739  17.913  24.907  1.00  0.00     0.052 H 
ATOM     46  H   UNL A   1      32.558  18.438  26.338  1.00  0.00     0.052 H 
ATOM     47  C   UNL A   1      34.028  16.174  23.643  1.00  0.00     0.064 C 
ATOM     48  H   UNL A   1      34.582  18.050  22.725  1.00  0.00     0.052 H 
ATOM     49  H   UNL A   1      32.870  17.804  22.804  1.00  0.00     0.052 H 
ATOM     50  O   UNL A   1      33.057  15.628  24.562  1.00  0.00    -0.378 OA
ATOM     51  H   UNL A   1      32.240  15.997  26.413  1.00  0.00     0.059 H 
ATOM     52  H   UNL A   1      33.948  16.357  26.265  1.00  0.00     0.059 H 
ATOM     53  H   UNL A   1      33.979  15.624  22.727  1.00  0.00     0.059 H 
ATOM     54  H   UNL A   1      34.990  16.091  24.106  1.00  0.00     0.059 H 
ENDBRANCH  38  41
ENDBRANCH  23  34
ENDBRANCH  17  20
ENDBRANCH  11  17
ENDBRANCH   8  11
ENDBRANCH   4   7
ENDBRANCH   1   4
BRANCH   1  55
ATOM     55  C   UNL A   1      33.360  29.696  27.082  1.00  0.00    -0.052 C 
ATOM     56  H   UNL A   1      32.721  29.440  27.901  1.00  0.00     0.027 H 
ATOM     57  H   UNL A   1      33.422  30.737  26.844  1.00  0.00     0.027 H 
BRANCH  55  58
ATOM     58  C   UNL A   1      34.796  29.310  27.484  1.00  0.00    -0.052 C 
ATOM     59  H   UNL A   1      35.162  28.635  26.741  1.00  0.00     0.027 H 
ATOM     60  H   UNL A   1      34.692  28.913  28.473  1.00  0.00     0.027 H 
BRANCH  58  61
ATOM     61  C   UNL A   1      35.838  30.423  27.638  1.00  0.00    -0.036 C 
ATOM     62  H   UNL A   1      36.349  30.528  26.704  1.00  0.00     0.028 H 
ATOM     63  H   UNL A   1      36.475  30.123  28.444  1.00  0.00     0.028 H 
BRANCH  61  64
ATOM     64  C   UNL A   1      35.287  31.775  28.022  1.00  0.00     0.018 C 
ATOM     65  H   UNL A   1      34.432  31.964  27.408  1.00  0.00     0.049 H 
ATOM     66  H   UNL A   1      36.096  32.460  27.881  1.00  0.00     0.049 H 
BRANCH  64  67
ATOM     67  N   UNL A   1      34.882  31.940  29.402  1.00  0.00    -0.352 N 
ATOM     68  C   UNL A   1      35.519  31.877  30.609  1.00  0.00     0.251 C 
ATOM     69  H   UNL A   1      33.924  32.145  29.492  1.00  0.00     0.163 HD
ATOM     70  O   UNL A   1      34.908  32.325  31.584  1.00  0.00    -0.269 OA
BRANCH  68  71
ATOM     71  C   UNL A   1      36.803  31.179  30.829  1.00  0.00     0.039 A 
ATOM     72  C   UNL A   1      38.056  31.782  30.813  1.00  0.00    -0.049 A 
ATOM     73  C   UNL A   1      36.720  29.781  30.961  1.00  0.00    -0.049 A 
ATOM     74  C   UNL A   1      39.190  30.998  30.675  1.00  0.00    -0.053 A 
ATOM     75  H   UNL A   1      38.141  32.806  30.904  1.00  0.00     0.063 H 
ATOM     76  C   UNL A   1      37.856  28.993  30.893  1.00  0.00    -0.053 A 
ATOM     77  H   UNL A   1      35.800  29.337  31.111  1.00  0.00     0.063 H 
ATOM     78  C   UNL A   1      39.075  29.603  30.643  1.00  0.00    -0.014 A 
ATOM     79  H   UNL A   1      40.118  31.443  30.594  1.00  0.00     0.063 H 
ATOM     80  H   UNL A   1      37.795  27.971  31.024  1.00  0.00     0.063 H 
BRANCH  78  81
ATOM     81  C   UNL A   1      40.294  28.816  30.505  1.00  0.00     0.031 A 
ATOM     82  C   UNL A   1      40.978  28.600  31.808  1.00  0.00     0.074 A 
ATOM     83  C   UNL A   1      40.736  28.302  29.337  1.00  0.00     0.049 A 
ATOM     84  N   UNL A   1      42.109  29.100  32.181  1.00  0.00    -0.248 NA
ATOM     85  C   UNL A   1      40.233  27.932  32.888  1.00  0.00    -0.034 C 
ATOM     86  C   UNL A   1      40.078  28.287  28.029  1.00  0.00    -0.036 A 
ATOM     87  N   UNL A   1      41.897  27.626  29.089  1.00  0.00    -0.354 N 
ATOM     88  C   UNL A   1      42.316  28.649  33.480  1.00  0.00     0.074 A 
ATOM     89  C   UNL A   1      41.070  28.076  33.917  1.00  0.00    -0.034 C 
ATOM     90  H   UNL A   1      39.309  27.474  32.858  1.00  0.00     0.065 H 
ATOM     91  C   UNL A   1      40.735  27.443  27.195  1.00  0.00    -0.036 A 
ATOM     92  H   UNL A   1      39.242  28.835  27.778  1.00  0.00     0.065 H 
ATOM     93  C   UNL A   1      41.944  26.980  27.853  1.00  0.00     0.049 A 
ATOM     94  H   UNL A   1      42.641  27.595  29.733  1.00  0.00     0.167 HD
ATOM     95  C   UNL A   1      43.576  28.570  33.987  1.00  0.00     0.037 A 
ATOM     96  H   UNL A   1      40.855  27.812  34.891  1.00  0.00     0.065 H 
ATOM     97  H   UNL A   1      40.427  27.173  26.248  1.00  0.00     0.065 H 
ATOM     98  C   UNL A   1      42.909  26.120  27.425  1.00  0.00     0.037 A 
ATOM     99  C   UNL A   1      44.478  29.421  33.253  1.00  0.00     0.049 A 
ATOM    100  C   UNL A   1      44.124  26.407  28.230  1.00  0.00     0.074 A 
ATOM    101  C   UNL A   1      44.586  30.784  33.054  1.00  0.00    -0.036 A 
ATOM    102  N   UNL A   1      45.232  28.839  32.266  1.00  0.00    -0.354 N 
ATOM    103  N   UNL A   1      44.793  27.522  28.135  1.00  0.00    -0.248 NA
ATOM    104  C   UNL A   1      44.276  25.676  29.479  1.00  0.00    -0.034 C 
ATOM    105  C   UNL A   1      44.991  30.929  31.695  1.00  0.00    -0.036 A 
ATOM    106  H   UNL A   1      44.410  31.534  33.741  1.00  0.00     0.065 H 
ATOM    107  C   UNL A   1      45.187  29.653  31.165  1.00  0.00     0.049 A 
ATOM    108  H   UNL A   1      45.720  27.987  32.336  1.00  0.00     0.167 HD
ATOM    109  C   UNL A   1      45.089  27.857  29.447  1.00  0.00     0.074 A 
ATOM    110  C   UNL A   1      44.779  26.660  30.229  1.00  0.00    -0.034 C 
ATOM    111  H   UNL A   1      44.062  24.694  29.713  1.00  0.00     0.065 H 
ATOM    112  H   UNL A   1      45.117  31.820  31.191  1.00  0.00     0.065 H 
ATOM    113  C   UNL A   1      45.270  29.159  29.812  1.00  0.00     0.037 A 
ATOM    114  H   UNL A   1      44.933  26.584  31.246  1.00  0.00     0.065 H 
BRANCH  95 115
ATOM    115  C   UNL A   1      44.066  27.419  34.833  1.00  0.00     0.064 A 
ATOM    116  C   UNL A   1      43.940  26.106  34.336  1.00  0.00     0.173 A 
ATOM    117  C   UNL A   1      44.342  27.521  36.214  1.00  0.00     0.173 A 
ATOM    118  F   UNL A   1      43.659  25.888  33.042  1.00  0.00    -0.203 F 
ATOM    119  C   UNL A   1      43.996  24.990  35.176  1.00  0.00     0.198 A 
ATOM    120  C   UNL A   1      44.445  26.403  37.040  1.00  0.00     0.198 A 
ATOM    121  F   UNL A   1      44.408  28.697  36.847  1.00  0.00    -0.203 F 
ATOM    122  F   UNL A   1      43.737  23.772  34.681  1.00  0.00    -0.200 F 
ATOM    123  C   UNL A   1      44.239  25.141  36.528  1.00  0.00     0.200 A 
ATOM    124  F   UNL A   1      44.658  26.574  38.352  1.00  0.00    -0.200 F 
ATOM    125  F   UNL A   1      44.227  24.081  37.346  1.00  0.00    -0.200 F 
ENDBRANCH  95 115
BRANCH  98 126
ATOM    126  C   UNL A   1      42.761  24.837  26.685  1.00  0.00     0.064 A 
ATOM    127  C   UNL A   1      43.481  24.592  25.498  1.00  0.00     0.173 A 
ATOM    128  C   UNL A   1      42.168  23.713  27.290  1.00  0.00     0.173 A 
ATOM    129  F   UNL A   1      44.121  25.594  24.879  1.00  0.00    -0.203 F 
ATOM    130  C   UNL A   1      43.624  23.300  24.972  1.00  0.00     0.198 A 
ATOM    131  C   UNL A   1      42.312  22.425  26.765  1.00  0.00     0.198 A 
ATOM    132  F   UNL A   1      41.523  23.827  28.459  1.00  0.00    -0.203 F 
ATOM    133  F   UNL A   1      44.372  23.101  23.877  1.00  0.00    -0.200 F 
ATOM    134  C   UNL A   1      43.052  22.217  25.614  1.00  0.00     0.200 A 
ATOM    135  F   UNL A   1      41.789  21.378  27.419  1.00  0.00    -0.200 F 
ATOM    136  F   UNL A   1      43.245  20.973  25.153  1.00  0.00    -0.200 F 
ENDBRANCH  98 126
BRANCH 113 137
ATOM    137  C   UNL A   1      45.361  30.192  28.725  1.00  0.00     0.064 A 
ATOM    138  C   UNL A   1      46.567  30.612  28.134  1.00  0.00     0.173 A 
ATOM    139  C   UNL A   1      44.169  30.634  28.139  1.00  0.00     0.173 A 
ATOM    140  F   UNL A   1      47.747  30.165  28.583  1.00  0.00    -0.203 F 
ATOM    141  C   UNL A   1      46.571  31.445  27.016  1.00  0.00     0.198 A 
ATOM    142  C   UNL A   1      44.175  31.439  27.005  1.00  0.00     0.198 A 
ATOM    143  F   UNL A   1      42.989  30.226  28.634  1.00  0.00    -0.203 F 
ATOM    144  F   UNL A   1      47.732  31.822  26.458  1.00  0.00    -0.200 F 
ATOM    145  C   UNL A   1      45.374  31.848  26.445  1.00  0.00     0.200 A 
ATOM    146  F   UNL A   1      43.015  31.783  26.429  1.00  0.00    -0.200 F 
ATOM    147  F   UNL A   1      45.375  32.601  25.336  1.00  0.00    -0.200 F 
ENDBRANCH 113 137
ENDBRANCH  78  81
ENDBRANCH  68  71
ENDBRANCH  64  67
ENDBRANCH  61  64
ENDBRANCH  58  61
ENDBRANCH  55  58
ENDBRANCH   1  55
TORSDOF 18
ENDMDL
MODEL 8
REMARK VINA RESULT:     -12.0      3.073      4.840
REMARK SMILES [NH3+][C@@H](Cc1cn(-c2nc(Cl)nc(N3CCOCC3)n2)c2ccccc12)C(=O)NCCCCCCNC(=O)c1ccc(-c2c3nc(c(-c4c(F)c(F)c(F)c(F)c4F)c4ccc([nH]4)c(-c4c(F)c(F)c(F)c(F)c4F)c4nc(c(-c5c(F)c(F)c(F)c(F)c5F)c5ccc2[nH]5)C=C4)C=C3)cc1
REMARK SMILES IDX 30 1 29 4 28 7 26 8 27 9 2 11 1 13 3 17 4 20 5 21 25 22 6 23
REMARK SMILES IDX 20 25 24 26 21 27 23 28 22 30 7 34 8 35 19 36 9 37 12 38
REMARK SMILES IDX 10 39 11 40 13 41 14 42 18 43 15 44 17 47 16 50 31 55 32 58
REMARK SMILES IDX 33 61 34 64 35 67 36 68 37 70 38 71 39 72 100 73 40 74 99 76
REMARK SMILES IDX 41 78 42 81 43 82 93 83 44 84 98 85 92 86 94 87 45 88 97 89
REMARK SMILES IDX 91 91 90 93 46 95 78 98 58 99 77 100 59 101 62 102 76 103
REMARK SMILES IDX 95 104 60 105 61 107 75 109 96 110 63 113 47 115 48 116
REMARK SMILES IDX 56 117 49 118 50 119 54 120 57 121 51 122 52 123 55 124
REMARK SMILES IDX 53 125 79 126 80 127 88 128 81 129 82 130 86 131 89 132
REMARK SMILES IDX 83 133 84 134 87 135 85 136 64 137 65 138 73 139 66 140
REMARK SMILES IDX 67 141 71 142 74 143 68 144 69 145 72 146 70 147
REMARK H PARENT 30 2 30 3 29 5 29 6 28 10 2 12 1 14 1 15 1 16 3 18 3 19 5 24
REMARK H PARENT 24 29 21 31 23 32 22 33 14 45 14 46 18 48 18 49 15 51 15 52
REMARK H PARENT 17 53 17 54 31 56 31 57 32 59 32 60 33 62 33 63 34 65 34 66
REMARK H PARENT 35 69 39 75 100 77 40 79 99 80 98 90 92 92 94 94 97 96 91 97
REMARK H PARENT 59 106 62 108 95 111 60 112 96 114
REMARK Flexibility Score: inf
ROOT
ATOM      1  C   UNL A   1      35.617  21.794  24.154  1.00  0.00    -0.036 C 
ATOM      2  H   UNL A   1      35.073  22.700  24.318  1.00  0.00     0.028 H 
ATOM      3  H   UNL A   1      35.471  21.365  23.185  1.00  0.00     0.028 H 
ENDROOT
BRANCH   1   4
ATOM      4  C   UNL A   1      35.107  20.764  25.136  1.00  0.00     0.018 C 
ATOM      5  H   UNL A   1      35.638  19.853  24.954  1.00  0.00     0.049 H 
ATOM      6  H   UNL A   1      35.271  21.197  26.101  1.00  0.00     0.049 H 
BRANCH   4   7
ATOM      7  N   UNL A   1      33.705  20.463  25.096  1.00  0.00    -0.351 N 
ATOM      8  C   UNL A   1      32.684  21.177  25.666  1.00  0.00     0.278 C 
ATOM      9  O   UNL A   1      31.538  20.902  25.291  1.00  0.00    -0.268 OA
ATOM     10  H   UNL A   1      33.448  19.653  24.602  1.00  0.00     0.163 HD
BRANCH   8  11
ATOM     11  C   UNL A   1      32.912  22.270  26.755  1.00  0.00     0.168 C 
ATOM     12  H   UNL A   1      31.953  22.727  26.877  1.00  0.00     0.107 H 
BRANCH  11  13
ATOM     13  N   UNL A   1      33.261  21.676  28.066  1.00  0.00    -0.347 N 
ATOM     14  H   UNL A   1      32.658  20.873  28.246  1.00  0.00     0.345 HD
ATOM     15  H   UNL A   1      33.130  22.371  28.801  1.00  0.00     0.345 HD
ATOM     16  H   UNL A   1      34.235  21.374  28.055  1.00  0.00     0.345 HD
ENDBRANCH  11  13
BRANCH  11  17
ATOM     17  C   UNL A   1      33.714  23.530  26.346  1.00  0.00     0.036 C 
ATOM     18  H   UNL A   1      34.531  23.196  25.740  1.00  0.00     0.038 H 
ATOM     19  H   UNL A   1      33.959  23.988  27.280  1.00  0.00     0.038 H 
BRANCH  17  20
ATOM     20  C   UNL A   1      33.023  24.632  25.580  1.00  0.00    -0.015 A 
ATOM     21  C   UNL A   1      32.463  25.805  26.064  1.00  0.00     0.017 A 
ATOM     22  C   UNL A   1      32.868  24.683  24.154  1.00  0.00     0.004 A 
ATOM     23  N   UNL A   1      32.110  26.628  25.005  1.00  0.00    -0.285 N 
ATOM     24  H   UNL A   1      32.331  26.031  27.063  1.00  0.00     0.083 H 
ATOM     25  C   UNL A   1      32.257  25.901  23.820  1.00  0.00     0.056 A 
ATOM     26  C   UNL A   1      33.275  23.812  23.115  1.00  0.00    -0.053 A 
ATOM     27  C   UNL A   1      32.046  26.259  22.472  1.00  0.00    -0.037 A 
ATOM     28  C   UNL A   1      33.100  24.184  21.782  1.00  0.00    -0.062 A 
ATOM     29  H   UNL A   1      33.701  22.901  23.344  1.00  0.00     0.063 H 
ATOM     30  C   UNL A   1      32.495  25.393  21.466  1.00  0.00    -0.060 A 
ATOM     31  H   UNL A   1      31.569  27.142  22.231  1.00  0.00     0.065 H 
ATOM     32  H   UNL A   1      33.422  23.558  21.027  1.00  0.00     0.062 H 
ATOM     33  H   UNL A   1      32.374  25.659  20.476  1.00  0.00     0.062 H 
BRANCH  23  34
ATOM     34  C   UNL A   1      31.817  28.035  25.110  1.00  0.00     0.240 A 
ATOM     35  N   UNL A   1      32.397  28.720  26.082  1.00  0.00    -0.181 NA
ATOM     36  N   UNL A   1      30.922  28.563  24.251  1.00  0.00    -0.176 NA
ATOM     37  C   UNL A   1      32.073  30.006  26.069  1.00  0.00     0.228 A 
ATOM     38  C   UNL A   1      30.578  29.848  24.429  1.00  0.00     0.231 A 
ATOM     39  Cl  UNL A   1      32.960  30.997  27.144  1.00  0.00    -0.041 Cl
ATOM     40  N   UNL A   1      31.170  30.626  25.316  1.00  0.00    -0.182 NA
BRANCH  38  41
ATOM     41  N   UNL A   1      29.612  30.373  23.608  1.00  0.00    -0.336 N 
ATOM     42  C   UNL A   1      29.205  31.782  23.653  1.00  0.00     0.044 C 
ATOM     43  C   UNL A   1      29.523  29.872  22.237  1.00  0.00     0.044 C 
ATOM     44  C   UNL A   1      27.720  31.834  23.276  1.00  0.00     0.064 C 
ATOM     45  H   UNL A   1      29.782  32.353  22.955  1.00  0.00     0.052 H 
ATOM     46  H   UNL A   1      29.366  32.194  24.627  1.00  0.00     0.052 H 
ATOM     47  C   UNL A   1      28.048  30.005  21.795  1.00  0.00     0.064 C 
ATOM     48  H   UNL A   1      29.826  28.846  22.202  1.00  0.00     0.052 H 
ATOM     49  H   UNL A   1      30.165  30.430  21.588  1.00  0.00     0.052 H 
ATOM     50  O   UNL A   1      27.539  31.348  21.935  1.00  0.00    -0.378 OA
ATOM     51  H   UNL A   1      27.373  32.845  23.336  1.00  0.00     0.059 H 
ATOM     52  H   UNL A   1      27.162  31.220  23.952  1.00  0.00     0.059 H 
ATOM     53  H   UNL A   1      27.972  29.715  20.768  1.00  0.00     0.059 H 
ATOM     54  H   UNL A   1      27.463  29.372  22.431  1.00  0.00     0.059 H 
ENDBRANCH  38  41
ENDBRANCH  23  34
ENDBRANCH  17  20
ENDBRANCH  11  17
ENDBRANCH   8  11
ENDBRANCH   4   7
ENDBRANCH   1   4
BRANCH   1  55
ATOM     55  C   UNL A   1      37.104  22.120  24.240  1.00  0.00    -0.052 C 
ATOM     56  H   UNL A   1      37.194  23.187  24.256  1.00  0.00     0.027 H 
ATOM     57  H   UNL A   1      37.532  21.628  23.393  1.00  0.00     0.027 H 
BRANCH  55  58
ATOM     58  C   UNL A   1      37.902  21.577  25.441  1.00  0.00    -0.052 C 
ATOM     59  H   UNL A   1      38.571  20.833  25.065  1.00  0.00     0.027 H 
ATOM     60  H   UNL A   1      37.150  21.235  26.121  1.00  0.00     0.027 H 
BRANCH  58  61
ATOM     61  C   UNL A   1      38.736  22.557  26.271  1.00  0.00    -0.036 C 
ATOM     62  H   UNL A   1      38.185  22.792  27.158  1.00  0.00     0.028 H 
ATOM     63  H   UNL A   1      38.914  23.403  25.640  1.00  0.00     0.028 H 
BRANCH  61  64
ATOM     64  C   UNL A   1      40.097  22.055  26.689  1.00  0.00     0.018 C 
ATOM     65  H   UNL A   1      40.083  20.987  26.622  1.00  0.00     0.049 H 
ATOM     66  H   UNL A   1      40.249  22.437  27.676  1.00  0.00     0.049 H 
BRANCH  64  67
ATOM     67  N   UNL A   1      41.227  22.529  25.917  1.00  0.00    -0.352 N 
ATOM     68  C   UNL A   1      41.994  23.658  25.926  1.00  0.00     0.251 C 
ATOM     69  H   UNL A   1      41.506  21.888  25.226  1.00  0.00     0.163 HD
ATOM     70  O   UNL A   1      43.048  23.619  25.284  1.00  0.00    -0.269 OA
BRANCH  68  71
ATOM     71  C   UNL A   1      41.567  24.943  26.520  1.00  0.00     0.039 A 
ATOM     72  C   UNL A   1      41.191  26.072  25.802  1.00  0.00    -0.049 A 
ATOM     73  C   UNL A   1      41.659  25.024  27.922  1.00  0.00    -0.049 A 
ATOM     74  C   UNL A   1      41.158  27.305  26.434  1.00  0.00    -0.053 A 
ATOM     75  H   UNL A   1      40.939  25.993  24.805  1.00  0.00     0.063 H 
ATOM     76  C   UNL A   1      41.558  26.243  28.570  1.00  0.00    -0.053 A 
ATOM     77  H   UNL A   1      41.802  24.164  28.474  1.00  0.00     0.063 H 
ATOM     78  C   UNL A   1      41.413  27.393  27.808  1.00  0.00    -0.014 A 
ATOM     79  H   UNL A   1      40.946  28.157  25.892  1.00  0.00     0.063 H 
ATOM     80  H   UNL A   1      41.591  26.295  29.600  1.00  0.00     0.063 H 
BRANCH  78  81
ATOM     81  C   UNL A   1      41.358  28.707  28.435  1.00  0.00     0.031 A 
ATOM     82  C   UNL A   1      42.570  29.521  28.148  1.00  0.00     0.074 A 
ATOM     83  C   UNL A   1      40.311  29.157  29.160  1.00  0.00     0.049 A 
ATOM     84  N   UNL A   1      43.486  29.869  28.990  1.00  0.00    -0.248 NA
ATOM     85  C   UNL A   1      42.909  29.801  26.743  1.00  0.00    -0.034 C 
ATOM     86  C   UNL A   1      39.001  28.539  29.369  1.00  0.00    -0.036 A 
ATOM     87  N   UNL A   1      40.196  30.330  29.850  1.00  0.00    -0.354 N 
ATOM     88  C   UNL A   1      44.427  30.584  28.256  1.00  0.00     0.074 A 
ATOM     89  C   UNL A   1      44.108  30.374  26.869  1.00  0.00    -0.034 C 
ATOM     90  H   UNL A   1      42.365  29.606  25.888  1.00  0.00     0.065 H 
ATOM     91  C   UNL A   1      38.155  29.437  29.932  1.00  0.00    -0.036 A 
ATOM     92  H   UNL A   1      38.757  27.567  29.126  1.00  0.00     0.065 H 
ATOM     93  C   UNL A   1      38.900  30.637  30.266  1.00  0.00     0.049 A 
ATOM     94  H   UNL A   1      40.966  30.914  30.037  1.00  0.00     0.167 HD
ATOM     95  C   UNL A   1      45.237  31.486  28.873  1.00  0.00     0.037 A 
ATOM     96  H   UNL A   1      44.721  30.632  26.079  1.00  0.00     0.065 H 
ATOM     97  H   UNL A   1      37.147  29.291  30.095  1.00  0.00     0.065 H 
ATOM     98  C   UNL A   1      38.486  31.806  30.831  1.00  0.00     0.037 A 
ATOM     99  C   UNL A   1      45.318  31.219  30.287  1.00  0.00     0.049 A 
ATOM    100  C   UNL A   1      39.692  32.448  31.413  1.00  0.00     0.074 A 
ATOM    101  C   UNL A   1      45.804  30.178  31.054  1.00  0.00    -0.036 A 
ATOM    102  N   UNL A   1      44.497  31.941  31.114  1.00  0.00    -0.354 N 
ATOM    103  N   UNL A   1      40.342  31.954  32.429  1.00  0.00    -0.248 NA
ATOM    104  C   UNL A   1      40.447  33.341  30.546  1.00  0.00    -0.034 C 
ATOM    105  C   UNL A   1      44.883  30.055  32.135  1.00  0.00    -0.036 A 
ATOM    106  H   UNL A   1      46.650  29.611  30.881  1.00  0.00     0.065 H 
ATOM    107  C   UNL A   1      43.938  31.073  32.015  1.00  0.00     0.049 A 
ATOM    108  H   UNL A   1      44.336  32.911  31.068  1.00  0.00     0.167 HD
ATOM    109  C   UNL A   1      41.677  32.108  32.091  1.00  0.00     0.074 A 
ATOM    110  C   UNL A   1      41.680  33.006  30.935  1.00  0.00    -0.034 C 
ATOM    111  H   UNL A   1      40.126  34.027  29.845  1.00  0.00     0.065 H 
ATOM    112  H   UNL A   1      44.911  29.338  32.877  1.00  0.00     0.065 H 
ATOM    113  C   UNL A   1      42.626  31.262  32.584  1.00  0.00     0.037 A 
ATOM    114  H   UNL A   1      42.538  33.343  30.474  1.00  0.00     0.065 H 
BRANCH  95 115
ATOM    115  C   UNL A   1      45.584  32.834  28.288  1.00  0.00     0.064 A 
ATOM    116  C   UNL A   1      44.542  33.733  27.982  1.00  0.00     0.173 A 
ATOM    117  C   UNL A   1      46.839  33.144  27.720  1.00  0.00     0.173 A 
ATOM    118  F   UNL A   1      43.301  33.528  28.450  1.00  0.00    -0.203 F 
ATOM    119  C   UNL A   1      44.726  34.804  27.103  1.00  0.00     0.198 A 
ATOM    120  C   UNL A   1      47.030  34.242  26.883  1.00  0.00     0.198 A 
ATOM    121  F   UNL A   1      47.903  32.345  27.852  1.00  0.00    -0.203 F 
ATOM    122  F   UNL A   1      43.675  35.551  26.736  1.00  0.00    -0.200 F 
ATOM    123  C   UNL A   1      45.967  35.051  26.548  1.00  0.00     0.200 A 
ATOM    124  F   UNL A   1      48.236  34.449  26.336  1.00  0.00    -0.200 F 
ATOM    125  F   UNL A   1      46.131  36.035  25.655  1.00  0.00    -0.200 F 
ENDBRANCH  95 115
BRANCH  98 126
ATOM    126  C   UNL A   1      37.247  32.587  30.568  1.00  0.00     0.064 A 
ATOM    127  C   UNL A   1      36.968  33.102  29.286  1.00  0.00     0.173 A 
ATOM    128  C   UNL A   1      36.169  32.568  31.473  1.00  0.00     0.173 A 
ATOM    129  F   UNL A   1      37.921  33.114  28.342  1.00  0.00    -0.203 F 
ATOM    130  C   UNL A   1      35.685  33.538  28.926  1.00  0.00     0.198 A 
ATOM    131  C   UNL A   1      34.890  33.001  31.113  1.00  0.00     0.198 A 
ATOM    132  F   UNL A   1      36.311  32.032  32.693  1.00  0.00    -0.203 F 
ATOM    133  F   UNL A   1      35.446  33.960  27.676  1.00  0.00    -0.200 F 
ATOM    134  C   UNL A   1      34.644  33.473  29.835  1.00  0.00     0.200 A 
ATOM    135  F   UNL A   1      33.880  32.895  31.989  1.00  0.00    -0.200 F 
ATOM    136  F   UNL A   1      33.402  33.823  29.473  1.00  0.00    -0.200 F 
ENDBRANCH  98 126
BRANCH 113 137
ATOM    137  C   UNL A   1      42.224  30.306  33.672  1.00  0.00     0.064 A 
ATOM    138  C   UNL A   1      41.739  29.006  33.442  1.00  0.00     0.173 A 
ATOM    139  C   UNL A   1      42.514  30.660  34.995  1.00  0.00     0.173 A 
ATOM    140  F   UNL A   1      41.518  28.563  32.197  1.00  0.00    -0.203 F 
ATOM    141  C   UNL A   1      41.546  28.111  34.494  1.00  0.00     0.198 A 
ATOM    142  C   UNL A   1      42.351  29.755  36.039  1.00  0.00     0.198 A 
ATOM    143  F   UNL A   1      43.023  31.873  35.267  1.00  0.00    -0.203 F 
ATOM    144  F   UNL A   1      41.097  26.870  34.251  1.00  0.00    -0.200 F 
ATOM    145  C   UNL A   1      41.863  28.482  35.790  1.00  0.00     0.200 A 
ATOM    146  F   UNL A   1      42.707  30.105  37.283  1.00  0.00    -0.200 F 
ATOM    147  F   UNL A   1      41.734  27.605  36.795  1.00  0.00    -0.200 F 
ENDBRANCH 113 137
ENDBRANCH  78  81
ENDBRANCH  68  71
ENDBRANCH  64  67
ENDBRANCH  61  64
ENDBRANCH  58  61
ENDBRANCH  55  58
ENDBRANCH   1  55
TORSDOF 18
ENDMDL
MODEL 9
REMARK VINA RESULT:     -11.7      3.704      9.617
REMARK SMILES [NH3+][C@@H](Cc1cn(-c2nc(Cl)nc(N3CCOCC3)n2)c2ccccc12)C(=O)NCCCCCCNC(=O)c1ccc(-c2c3nc(c(-c4c(F)c(F)c(F)c(F)c4F)c4ccc([nH]4)c(-c4c(F)c(F)c(F)c(F)c4F)c4nc(c(-c5c(F)c(F)c(F)c(F)c5F)c5ccc2[nH]5)C=C4)C=C3)cc1
REMARK SMILES IDX 30 1 29 4 28 7 26 8 27 9 2 11 1 13 3 17 4 20 5 21 25 22 6 23
REMARK SMILES IDX 20 25 24 26 21 27 23 28 22 30 7 34 8 35 19 36 9 37 12 38
REMARK SMILES IDX 10 39 11 40 13 41 14 42 18 43 15 44 17 47 16 50 31 55 32 58
REMARK SMILES IDX 33 61 34 64 35 67 36 68 37 70 38 71 39 72 100 73 40 74 99 76
REMARK SMILES IDX 41 78 42 81 43 82 93 83 44 84 98 85 92 86 94 87 45 88 97 89
REMARK SMILES IDX 91 91 90 93 46 95 78 98 58 99 77 100 59 101 62 102 76 103
REMARK SMILES IDX 95 104 60 105 61 107 75 109 96 110 63 113 47 115 48 116
REMARK SMILES IDX 56 117 49 118 50 119 54 120 57 121 51 122 52 123 55 124
REMARK SMILES IDX 53 125 79 126 80 127 88 128 81 129 82 130 86 131 89 132
REMARK SMILES IDX 83 133 84 134 87 135 85 136 64 137 65 138 73 139 66 140
REMARK SMILES IDX 67 141 71 142 74 143 68 144 69 145 72 146 70 147
REMARK H PARENT 30 2 30 3 29 5 29 6 28 10 2 12 1 14 1 15 1 16 3 18 3 19 5 24
REMARK H PARENT 24 29 21 31 23 32 22 33 14 45 14 46 18 48 18 49 15 51 15 52
REMARK H PARENT 17 53 17 54 31 56 31 57 32 59 32 60 33 62 33 63 34 65 34 66
REMARK H PARENT 35 69 39 75 100 77 40 79 99 80 98 90 92 92 94 94 97 96 91 97
REMARK H PARENT 59 106 62 108 95 111 60 112 96 114
REMARK Flexibility Score: inf
ROOT
ATOM      1  C   UNL A   1      33.493  36.743  32.607  1.00  0.00    -0.036 C 
ATOM      2  H   UNL A   1      32.728  36.764  33.356  1.00  0.00     0.028 H 
ATOM      3  H   UNL A   1      33.749  37.706  32.216  1.00  0.00     0.028 H 
ENDROOT
BRANCH   1   4
ATOM      4  C   UNL A   1      32.967  35.952  31.431  1.00  0.00     0.018 C 
ATOM      5  H   UNL A   1      31.900  36.040  31.434  1.00  0.00     0.049 H 
ATOM      6  H   UNL A   1      33.452  36.373  30.575  1.00  0.00     0.049 H 
BRANCH   4   7
ATOM      7  N   UNL A   1      33.285  34.554  31.391  1.00  0.00    -0.351 N 
ATOM      8  C   UNL A   1      34.003  33.892  30.431  1.00  0.00     0.278 C 
ATOM      9  O   UNL A   1      34.393  32.753  30.716  1.00  0.00    -0.268 OA
ATOM     10  H   UNL A   1      32.951  34.009  32.139  1.00  0.00     0.163 HD
BRANCH   8  11
ATOM     11  C   UNL A   1      34.313  34.498  29.027  1.00  0.00     0.168 C 
ATOM     12  H   UNL A   1      33.799  35.437  29.025  1.00  0.00     0.107 H 
BRANCH  11  13
ATOM     13  N   UNL A   1      35.752  34.811  28.869  1.00  0.00    -0.347 N 
ATOM     14  H   UNL A   1      35.952  35.717  29.292  1.00  0.00     0.345 HD
ATOM     15  H   UNL A   1      35.987  34.838  27.878  1.00  0.00     0.345 HD
ATOM     16  H   UNL A   1      36.309  34.091  29.330  1.00  0.00     0.345 HD
ENDBRANCH  11  13
BRANCH  11  17
ATOM     17  C   UNL A   1      33.618  33.856  27.802  1.00  0.00     0.036 C 
ATOM     18  H   UNL A   1      34.081  34.269  26.929  1.00  0.00     0.038 H 
ATOM     19  H   UNL A   1      32.583  34.080  27.953  1.00  0.00     0.038 H 
BRANCH  17  20
ATOM     20  C   UNL A   1      33.638  32.355  27.641  1.00  0.00    -0.015 A 
ATOM     21  C   UNL A   1      32.597  31.507  27.295  1.00  0.00     0.017 A 
ATOM     22  C   UNL A   1      34.798  31.521  27.770  1.00  0.00     0.004 A 
ATOM     23  N   UNL A   1      33.089  30.230  27.066  1.00  0.00    -0.285 N 
ATOM     24  H   UNL A   1      31.606  31.784  27.220  1.00  0.00     0.083 H 
ATOM     25  C   UNL A   1      34.430  30.203  27.459  1.00  0.00     0.056 A 
ATOM     26  C   UNL A   1      36.155  31.805  28.053  1.00  0.00    -0.053 A 
ATOM     27  C   UNL A   1      35.391  29.170  27.430  1.00  0.00    -0.037 A 
ATOM     28  C   UNL A   1      37.111  30.791  27.987  1.00  0.00    -0.062 A 
ATOM     29  H   UNL A   1      36.438  32.763  28.309  1.00  0.00     0.063 H 
ATOM     30  C   UNL A   1      36.732  29.491  27.677  1.00  0.00    -0.060 A 
ATOM     31  H   UNL A   1      35.112  28.197  27.231  1.00  0.00     0.065 H 
ATOM     32  H   UNL A   1      38.104  31.007  28.168  1.00  0.00     0.062 H 
ATOM     33  H   UNL A   1      37.449  28.750  27.628  1.00  0.00     0.062 H 
BRANCH  23  34
ATOM     34  C   UNL A   1      32.382  29.180  26.378  1.00  0.00     0.240 A 
ATOM     35  N   UNL A   1      32.641  27.928  26.721  1.00  0.00    -0.181 NA
ATOM     36  N   UNL A   1      31.542  29.527  25.382  1.00  0.00    -0.176 NA
ATOM     37  C   UNL A   1      31.918  27.048  26.040  1.00  0.00     0.228 A 
ATOM     38  C   UNL A   1      30.974  28.534  24.679  1.00  0.00     0.231 A 
ATOM     39  Cl  UNL A   1      32.024  25.433  26.586  1.00  0.00    -0.041 Cl
ATOM     40  N   UNL A   1      31.108  27.262  25.008  1.00  0.00    -0.182 NA
BRANCH  38  41
ATOM     41  N   UNL A   1      30.178  28.876  23.616  1.00  0.00    -0.336 N 
ATOM     42  C   UNL A   1      30.715  29.385  22.348  1.00  0.00     0.044 C 
ATOM     43  C   UNL A   1      28.978  28.079  23.364  1.00  0.00     0.044 C 
ATOM     44  C   UNL A   1      29.673  30.352  21.773  1.00  0.00     0.064 C 
ATOM     45  H   UNL A   1      30.878  28.574  21.667  1.00  0.00     0.052 H 
ATOM     46  H   UNL A   1      31.651  29.880  22.501  1.00  0.00     0.052 H 
ATOM     47  C   UNL A   1      27.942  29.009  22.693  1.00  0.00     0.064 C 
ATOM     48  H   UNL A   1      28.589  27.702  24.287  1.00  0.00     0.052 H 
ATOM     49  H   UNL A   1      29.203  27.245  22.734  1.00  0.00     0.052 H 
ATOM     50  O   UNL A   1      28.449  29.648  21.502  1.00  0.00    -0.378 OA
ATOM     51  H   UNL A   1      30.046  30.777  20.864  1.00  0.00     0.059 H 
ATOM     52  H   UNL A   1      29.482  31.129  22.484  1.00  0.00     0.059 H 
ATOM     53  H   UNL A   1      27.082  28.429  22.430  1.00  0.00     0.059 H 
ATOM     54  H   UNL A   1      27.701  29.781  23.394  1.00  0.00     0.059 H 
ENDBRANCH  38  41
ENDBRANCH  23  34
ENDBRANCH  17  20
ENDBRANCH  11  17
ENDBRANCH   8  11
ENDBRANCH   4   7
ENDBRANCH   1   4
BRANCH   1  55
ATOM     55  C   UNL A   1      34.765  36.210  33.256  1.00  0.00    -0.052 C 
ATOM     56  H   UNL A   1      35.154  36.990  33.878  1.00  0.00     0.027 H 
ATOM     57  H   UNL A   1      35.381  35.920  32.431  1.00  0.00     0.027 H 
BRANCH  55  58
ATOM     58  C   UNL A   1      34.666  34.941  34.123  1.00  0.00    -0.052 C 
ATOM     59  H   UNL A   1      34.066  34.237  33.586  1.00  0.00     0.027 H 
ATOM     60  H   UNL A   1      34.266  35.290  35.052  1.00  0.00     0.027 H 
BRANCH  58  61
ATOM     61  C   UNL A   1      35.959  34.221  34.520  1.00  0.00    -0.036 C 
ATOM     62  H   UNL A   1      35.790  33.729  35.455  1.00  0.00     0.028 H 
ATOM     63  H   UNL A   1      36.717  34.975  34.563  1.00  0.00     0.028 H 
BRANCH  61  64
ATOM     64  C   UNL A   1      36.452  33.190  33.534  1.00  0.00     0.018 C 
ATOM     65  H   UNL A   1      35.623  32.568  33.272  1.00  0.00     0.049 H 
ATOM     66  H   UNL A   1      37.250  32.681  34.033  1.00  0.00     0.049 H 
BRANCH  64  67
ATOM     67  N   UNL A   1      37.029  33.694  32.305  1.00  0.00    -0.352 N 
ATOM     68  C   UNL A   1      37.871  33.188  31.356  1.00  0.00     0.251 C 
ATOM     69  H   UNL A   1      36.749  34.616  32.108  1.00  0.00     0.163 HD
ATOM     70  O   UNL A   1      37.955  33.815  30.297  1.00  0.00    -0.269 OA
BRANCH  68  71
ATOM     71  C   UNL A   1      38.780  32.044  31.584  1.00  0.00     0.039 A 
ATOM     72  C   UNL A   1      40.125  32.144  31.921  1.00  0.00    -0.049 A 
ATOM     73  C   UNL A   1      38.232  30.773  31.332  1.00  0.00    -0.049 A 
ATOM     74  C   UNL A   1      40.954  31.046  31.760  1.00  0.00    -0.053 A 
ATOM     75  H   UNL A   1      40.504  33.031  32.287  1.00  0.00     0.063 H 
ATOM     76  C   UNL A   1      39.045  29.657  31.238  1.00  0.00    -0.053 A 
ATOM     77  H   UNL A   1      37.212  30.672  31.216  1.00  0.00     0.063 H 
ATOM     78  C   UNL A   1      40.417  29.820  31.348  1.00  0.00    -0.014 A 
ATOM     79  H   UNL A   1      41.966  31.132  31.943  1.00  0.00     0.063 H 
ATOM     80  H   UNL A   1      38.637  28.720  31.087  1.00  0.00     0.063 H 
BRANCH  78  81
ATOM     81  C   UNL A   1      41.322  28.688  31.201  1.00  0.00     0.031 A 
ATOM     82  C   UNL A   1      41.832  28.197  32.510  1.00  0.00     0.074 A 
ATOM     83  C   UNL A   1      41.635  28.117  30.017  1.00  0.00     0.049 A 
ATOM     84  N   UNL A   1      43.042  28.283  32.951  1.00  0.00    -0.248 NA
ATOM     85  C   UNL A   1      40.856  27.755  33.519  1.00  0.00    -0.034 C 
ATOM     86  C   UNL A   1      41.077  28.381  28.690  1.00  0.00    -0.036 A 
ATOM     87  N   UNL A   1      42.527  27.113  29.766  1.00  0.00    -0.354 N 
ATOM     88  C   UNL A   1      43.025  27.725  34.225  1.00  0.00     0.074 A 
ATOM     89  C   UNL A   1      41.640  27.567  34.582  1.00  0.00    -0.034 C 
ATOM     90  H   UNL A   1      39.836  27.624  33.429  1.00  0.00     0.065 H 
ATOM     91  C   UNL A   1      41.469  27.412  27.826  1.00  0.00    -0.036 A 
ATOM     92  H   UNL A   1      40.476  29.183  28.448  1.00  0.00     0.065 H 
ATOM     93  C   UNL A   1      42.428  26.549  28.493  1.00  0.00     0.049 A 
ATOM     94  H   UNL A   1      43.187  26.811  30.431  1.00  0.00     0.167 HD
ATOM     95  C   UNL A   1      44.164  27.216  34.767  1.00  0.00     0.037 A 
ATOM     96  H   UNL A   1      41.300  27.340  35.530  1.00  0.00     0.065 H 
ATOM     97  H   UNL A   1      41.140  27.305  26.855  1.00  0.00     0.065 H 
ATOM     98  C   UNL A   1      43.086  25.445  28.044  1.00  0.00     0.037 A 
ATOM     99  C   UNL A   1      45.329  27.763  34.119  1.00  0.00     0.049 A 
ATOM    100  C   UNL A   1      44.284  25.281  28.905  1.00  0.00     0.074 A 
ATOM    101  C   UNL A   1      45.880  29.025  34.011  1.00  0.00    -0.036 A 
ATOM    102  N   UNL A   1      45.906  27.018  33.123  1.00  0.00    -0.354 N 
ATOM    103  N   UNL A   1      45.281  26.122  28.904  1.00  0.00    -0.248 NA
ATOM    104  C   UNL A   1      44.127  24.480  30.109  1.00  0.00    -0.034 C 
ATOM    105  C   UNL A   1      46.381  29.098  32.678  1.00  0.00    -0.036 A 
ATOM    106  H   UNL A   1      45.921  29.757  34.738  1.00  0.00     0.065 H 
ATOM    107  C   UNL A   1      46.182  27.856  32.075  1.00  0.00     0.049 A 
ATOM    108  H   UNL A   1      46.088  26.051  33.154  1.00  0.00     0.167 HD
ATOM    109  C   UNL A   1      45.601  26.277  30.243  1.00  0.00     0.074 A 
ATOM    110  C   UNL A   1      44.881  25.208  30.937  1.00  0.00    -0.034 C 
ATOM    111  H   UNL A   1      43.596  23.610  30.272  1.00  0.00     0.065 H 
ATOM    112  H   UNL A   1      46.814  29.924  32.237  1.00  0.00     0.065 H 
ATOM    113  C   UNL A   1      46.172  27.429  30.697  1.00  0.00     0.037 A 
ATOM    114  H   UNL A   1      44.949  25.036  31.951  1.00  0.00     0.065 H 
BRANCH  95 115
ATOM    115  C   UNL A   1      44.212  25.928  35.553  1.00  0.00     0.064 A 
ATOM    116  C   UNL A   1      44.880  25.911  36.795  1.00  0.00     0.173 A 
ATOM    117  C   UNL A   1      43.927  24.660  35.002  1.00  0.00     0.173 A 
ATOM    118  F   UNL A   1      45.220  27.058  37.404  1.00  0.00    -0.203 F 
ATOM    119  C   UNL A   1      45.306  24.720  37.389  1.00  0.00     0.198 A 
ATOM    120  C   UNL A   1      44.311  23.472  35.620  1.00  0.00     0.198 A 
ATOM    121  F   UNL A   1      43.372  24.512  33.794  1.00  0.00    -0.203 F 
ATOM    122  F   UNL A   1      46.054  24.761  38.499  1.00  0.00    -0.200 F 
ATOM    123  C   UNL A   1      45.029  23.503  36.795  1.00  0.00     0.200 A 
ATOM    124  F   UNL A   1      44.053  22.304  35.016  1.00  0.00    -0.200 F 
ATOM    125  F   UNL A   1      45.493  22.364  37.326  1.00  0.00    -0.200 F 
ENDBRANCH  95 115
BRANCH  98 126
ATOM    126  C   UNL A   1      42.570  24.318  27.218  1.00  0.00     0.064 A 
ATOM    127  C   UNL A   1      43.384  23.685  26.258  1.00  0.00     0.173 A 
ATOM    128  C   UNL A   1      41.392  23.635  27.575  1.00  0.00     0.173 A 
ATOM    129  F   UNL A   1      44.551  24.237  25.894  1.00  0.00    -0.203 F 
ATOM    130  C   UNL A   1      43.056  22.434  25.717  1.00  0.00     0.198 A 
ATOM    131  C   UNL A   1      41.066  22.387  27.036  1.00  0.00     0.198 A 
ATOM    132  F   UNL A   1      40.586  24.116  28.531  1.00  0.00    -0.203 F 
ATOM    133  F   UNL A   1      43.891  21.835  24.855  1.00  0.00    -0.200 F 
ATOM    134  C   UNL A   1      41.904  21.780  26.118  1.00  0.00     0.200 A 
ATOM    135  F   UNL A   1      39.969  21.744  27.463  1.00  0.00    -0.200 F 
ATOM    136  F   UNL A   1      41.623  20.553  25.656  1.00  0.00    -0.200 F 
ENDBRANCH  98 126
BRANCH 113 137
ATOM    137  C   UNL A   1      46.648  28.430  29.682  1.00  0.00     0.064 A 
ATOM    138  C   UNL A   1      47.877  28.341  29.002  1.00  0.00     0.173 A 
ATOM    139  C   UNL A   1      45.744  29.409  29.253  1.00  0.00     0.173 A 
ATOM    140  F   UNL A   1      48.759  27.377  29.296  1.00  0.00    -0.203 F 
ATOM    141  C   UNL A   1      48.184  29.204  27.950  1.00  0.00     0.198 A 
ATOM    142  C   UNL A   1      46.040  30.248  28.184  1.00  0.00     0.198 A 
ATOM    143  F   UNL A   1      44.538  29.507  29.835  1.00  0.00    -0.203 F 
ATOM    144  F   UNL A   1      49.355  29.093  27.305  1.00  0.00    -0.200 F 
ATOM    145  C   UNL A   1      47.260  30.149  27.534  1.00  0.00     0.200 A 
ATOM    146  F   UNL A   1      45.122  31.125  27.755  1.00  0.00    -0.200 F 
ATOM    147  F   UNL A   1      47.529  30.941  26.487  1.00  0.00    -0.200 F 
ENDBRANCH 113 137
ENDBRANCH  78  81
ENDBRANCH  68  71
ENDBRANCH  64  67
ENDBRANCH  61  64
ENDBRANCH  58  61
ENDBRANCH  55  58
ENDBRANCH   1  55
TORSDOF 18
ENDMDL
MODEL 10
REMARK VINA RESULT:     -11.7      1.443      2.215
REMARK SMILES [NH3+][C@@H](Cc1cn(-c2nc(Cl)nc(N3CCOCC3)n2)c2ccccc12)C(=O)NCCCCCCNC(=O)c1ccc(-c2c3nc(c(-c4c(F)c(F)c(F)c(F)c4F)c4ccc([nH]4)c(-c4c(F)c(F)c(F)c(F)c4F)c4nc(c(-c5c(F)c(F)c(F)c(F)c5F)c5ccc2[nH]5)C=C4)C=C3)cc1
REMARK SMILES IDX 30 1 29 4 28 7 26 8 27 9 2 11 1 13 3 17 4 20 5 21 25 22 6 23
REMARK SMILES IDX 20 25 24 26 21 27 23 28 22 30 7 34 8 35 19 36 9 37 12 38
REMARK SMILES IDX 10 39 11 40 13 41 14 42 18 43 15 44 17 47 16 50 31 55 32 58
REMARK SMILES IDX 33 61 34 64 35 67 36 68 37 70 38 71 39 72 100 73 40 74 99 76
REMARK SMILES IDX 41 78 42 81 43 82 93 83 44 84 98 85 92 86 94 87 45 88 97 89
REMARK SMILES IDX 91 91 90 93 46 95 78 98 58 99 77 100 59 101 62 102 76 103
REMARK SMILES IDX 95 104 60 105 61 107 75 109 96 110 63 113 47 115 48 116
REMARK SMILES IDX 56 117 49 118 50 119 54 120 57 121 51 122 52 123 55 124
REMARK SMILES IDX 53 125 79 126 80 127 88 128 81 129 82 130 86 131 89 132
REMARK SMILES IDX 83 133 84 134 87 135 85 136 64 137 65 138 73 139 66 140
REMARK SMILES IDX 67 141 71 142 74 143 68 144 69 145 72 146 70 147
REMARK H PARENT 30 2 30 3 29 5 29 6 28 10 2 12 1 14 1 15 1 16 3 18 3 19 5 24
REMARK H PARENT 24 29 21 31 23 32 22 33 14 45 14 46 18 48 18 49 15 51 15 52
REMARK H PARENT 17 53 17 54 31 56 31 57 32 59 32 60 33 62 33 63 34 65 34 66
REMARK H PARENT 35 69 39 75 100 77 40 79 99 80 98 90 92 92 94 94 97 96 91 97
REMARK H PARENT 59 106 62 108 95 111 60 112 96 114
REMARK Flexibility Score: inf
ROOT
ATOM      1  C   UNL A   1      39.231  22.252  25.936  1.00  0.00    -0.036 C 
ATOM      2  H   UNL A   1      39.132  23.096  26.587  1.00  0.00     0.028 H 
ATOM      3  H   UNL A   1      39.858  22.426  25.086  1.00  0.00     0.028 H 
ENDROOT
BRANCH   1   4
ATOM      4  C   UNL A   1      37.862  21.938  25.375  1.00  0.00     0.018 C 
ATOM      5  H   UNL A   1      37.773  22.448  24.438  1.00  0.00     0.049 H 
ATOM      6  H   UNL A   1      37.828  20.870  25.312  1.00  0.00     0.049 H 
BRANCH   4   7
ATOM      7  N   UNL A   1      36.730  22.302  26.176  1.00  0.00    -0.351 N 
ATOM      8  C   UNL A   1      35.462  21.789  26.107  1.00  0.00     0.278 C 
ATOM      9  O   UNL A   1      34.709  22.040  27.056  1.00  0.00    -0.268 OA
ATOM     10  H   UNL A   1      36.882  22.999  26.854  1.00  0.00     0.163 HD
BRANCH   8  11
ATOM     11  C   UNL A   1      34.948  20.946  24.899  1.00  0.00     0.168 C 
ATOM     12  H   UNL A   1      35.758  20.963  24.200  1.00  0.00     0.107 H 
BRANCH  11  13
ATOM     13  N   UNL A   1      34.745  19.526  25.267  1.00  0.00    -0.347 N 
ATOM     14  H   UNL A   1      34.965  18.933  24.467  1.00  0.00     0.345 HD
ATOM     15  H   UNL A   1      33.774  19.381  25.540  1.00  0.00     0.345 HD
ATOM     16  H   UNL A   1      35.357  19.285  26.046  1.00  0.00     0.345 HD
ENDBRANCH  11  13
BRANCH  11  17
ATOM     17  C   UNL A   1      33.858  21.578  24.000  1.00  0.00     0.036 C 
ATOM     18  H   UNL A   1      33.073  20.856  23.907  1.00  0.00     0.038 H 
ATOM     19  H   UNL A   1      34.387  21.835  23.106  1.00  0.00     0.038 H 
BRANCH  17  20
ATOM     20  C   UNL A   1      33.213  22.877  24.418  1.00  0.00    -0.015 A 
ATOM     21  C   UNL A   1      33.535  24.169  24.030  1.00  0.00     0.017 A 
ATOM     22  C   UNL A   1      32.074  22.998  25.282  1.00  0.00     0.004 A 
ATOM     23  N   UNL A   1      32.569  25.051  24.493  1.00  0.00    -0.285 N 
ATOM     24  H   UNL A   1      34.367  24.433  23.480  1.00  0.00     0.083 H 
ATOM     25  C   UNL A   1      31.720  24.354  25.357  1.00  0.00     0.056 A 
ATOM     26  C   UNL A   1      31.269  22.042  25.945  1.00  0.00    -0.053 A 
ATOM     27  C   UNL A   1      30.582  24.766  26.081  1.00  0.00    -0.037 A 
ATOM     28  C   UNL A   1      30.122  22.446  26.630  1.00  0.00    -0.062 A 
ATOM     29  H   UNL A   1      31.530  21.044  25.922  1.00  0.00     0.063 H 
ATOM     30  C   UNL A   1      29.784  23.792  26.695  1.00  0.00    -0.060 A 
ATOM     31  H   UNL A   1      30.341  25.767  26.159  1.00  0.00     0.065 H 
ATOM     32  H   UNL A   1      29.523  21.743  27.090  1.00  0.00     0.062 H 
ATOM     33  H   UNL A   1      28.932  24.078  27.201  1.00  0.00     0.062 H 
BRANCH  23  34
ATOM     34  C   UNL A   1      32.382  26.399  24.018  1.00  0.00     0.240 A 
ATOM     35  N   UNL A   1      33.450  27.172  23.906  1.00  0.00    -0.181 NA
ATOM     36  N   UNL A   1      31.124  26.817  23.773  1.00  0.00    -0.176 NA
ATOM     37  C   UNL A   1      33.163  28.381  23.440  1.00  0.00     0.228 A 
ATOM     38  C   UNL A   1      30.956  28.106  23.437  1.00  0.00     0.231 A 
ATOM     39  Cl  UNL A   1      34.512  29.354  23.047  1.00  0.00    -0.041 Cl
ATOM     40  N   UNL A   1      31.970  28.922  23.218  1.00  0.00    -0.182 NA
BRANCH  38  41
ATOM     41  N   UNL A   1      29.673  28.559  23.261  1.00  0.00    -0.336 N 
ATOM     42  C   UNL A   1      29.352  29.764  22.487  1.00  0.00     0.044 C 
ATOM     43  C   UNL A   1      28.605  27.572  23.112  1.00  0.00     0.044 C 
ATOM     44  C   UNL A   1      28.103  30.388  23.122  1.00  0.00     0.064 C 
ATOM     45  H   UNL A   1      29.154  29.503  21.467  1.00  0.00     0.052 H 
ATOM     46  H   UNL A   1      30.170  30.453  22.498  1.00  0.00     0.052 H 
ATOM     47  C   UNL A   1      27.308  28.213  23.657  1.00  0.00     0.064 C 
ATOM     48  H   UNL A   1      28.841  26.690  23.670  1.00  0.00     0.052 H 
ATOM     49  H   UNL A   1      28.487  27.293  22.086  1.00  0.00     0.052 H 
ATOM     50  O   UNL A   1      26.998  29.475  23.027  1.00  0.00    -0.378 OA
ATOM     51  H   UNL A   1      27.859  31.295  22.609  1.00  0.00     0.059 H 
ATOM     52  H   UNL A   1      28.299  30.598  24.154  1.00  0.00     0.059 H 
ATOM     53  H   UNL A   1      26.496  27.538  23.489  1.00  0.00     0.059 H 
ATOM     54  H   UNL A   1      27.458  28.404  24.700  1.00  0.00     0.059 H 
ENDBRANCH  38  41
ENDBRANCH  23  34
ENDBRANCH  17  20
ENDBRANCH  11  17
ENDBRANCH   8  11
ENDBRANCH   4   7
ENDBRANCH   1   4
BRANCH   1  55
ATOM     55  C   UNL A   1      39.904  21.133  26.722  1.00  0.00    -0.052 C 
ATOM     56  H   UNL A   1      39.998  20.295  26.064  1.00  0.00     0.027 H 
ATOM     57  H   UNL A   1      39.272  20.991  27.574  1.00  0.00     0.027 H 
BRANCH  55  58
ATOM     58  C   UNL A   1      41.298  21.400  27.323  1.00  0.00    -0.052 C 
ATOM     59  H   UNL A   1      41.180  21.451  28.384  1.00  0.00     0.027 H 
ATOM     60  H   UNL A   1      41.623  22.297  26.839  1.00  0.00     0.027 H 
BRANCH  58  61
ATOM     61  C   UNL A   1      42.422  20.397  27.041  1.00  0.00    -0.036 C 
ATOM     62  H   UNL A   1      42.381  19.635  27.790  1.00  0.00     0.028 H 
ATOM     63  H   UNL A   1      43.331  20.961  27.051  1.00  0.00     0.028 H 
BRANCH  61  64
ATOM     64  C   UNL A   1      42.363  19.725  25.690  1.00  0.00     0.018 C 
ATOM     65  H   UNL A   1      41.521  20.123  25.165  1.00  0.00     0.049 H 
ATOM     66  H   UNL A   1      42.303  18.677  25.899  1.00  0.00     0.049 H 
BRANCH  64  67
ATOM     67  N   UNL A   1      43.525  19.879  24.840  1.00  0.00    -0.352 N 
ATOM     68  C   UNL A   1      44.559  20.768  24.771  1.00  0.00     0.251 C 
ATOM     69  H   UNL A   1      43.582  19.180  24.150  1.00  0.00     0.163 HD
ATOM     70  O   UNL A   1      45.521  20.448  24.067  1.00  0.00    -0.269 OA
BRANCH  68  71
ATOM     71  C   UNL A   1      44.521  22.127  25.355  1.00  0.00     0.039 A 
ATOM     72  C   UNL A   1      45.311  22.568  26.410  1.00  0.00    -0.049 A 
ATOM     73  C   UNL A   1      43.524  22.979  24.845  1.00  0.00    -0.049 A 
ATOM     74  C   UNL A   1      44.952  23.714  27.100  1.00  0.00    -0.053 A 
ATOM     75  H   UNL A   1      46.159  22.045  26.678  1.00  0.00     0.063 H 
ATOM     76  C   UNL A   1      43.205  24.161  25.489  1.00  0.00    -0.053 A 
ATOM     77  H   UNL A   1      43.026  22.720  23.979  1.00  0.00     0.063 H 
ATOM     78  C   UNL A   1      43.851  24.469  26.676  1.00  0.00    -0.014 A 
ATOM     79  H   UNL A   1      45.494  24.010  27.927  1.00  0.00     0.063 H 
ATOM     80  H   UNL A   1      42.498  24.801  25.094  1.00  0.00     0.063 H 
BRANCH  78  81
ATOM     81  C   UNL A   1      43.514  25.672  27.425  1.00  0.00     0.031 A 
ATOM     82  C   UNL A   1      44.548  26.733  27.287  1.00  0.00     0.074 A 
ATOM     83  C   UNL A   1      42.373  25.831  28.131  1.00  0.00     0.049 A 
ATOM     84  N   UNL A   1      45.347  27.160  28.208  1.00  0.00    -0.248 NA
ATOM     85  C   UNL A   1      44.874  27.222  25.938  1.00  0.00    -0.034 C 
ATOM     86  C   UNL A   1      41.206  24.951  28.206  1.00  0.00    -0.036 A 
ATOM     87  N   UNL A   1      42.003  26.878  28.926  1.00  0.00    -0.354 N 
ATOM     88  C   UNL A   1      46.151  28.118  27.602  1.00  0.00     0.074 A 
ATOM     89  C   UNL A   1      45.929  28.001  26.185  1.00  0.00    -0.034 C 
ATOM     90  H   UNL A   1      44.410  27.018  25.039  1.00  0.00     0.065 H 
ATOM     91  C   UNL A   1      40.179  25.602  28.807  1.00  0.00    -0.036 A 
ATOM     92  H   UNL A   1      41.169  23.981  27.856  1.00  0.00     0.065 H 
ATOM     93  C   UNL A   1      40.657  26.881  29.297  1.00  0.00     0.049 A 
ATOM     94  H   UNL A   1      42.634  27.577  29.212  1.00  0.00     0.167 HD
ATOM     95  C   UNL A   1      46.744  29.090  28.348  1.00  0.00     0.037 A 
ATOM     96  H   UNL A   1      46.506  28.456  25.460  1.00  0.00     0.065 H 
ATOM     97  H   UNL A   1      39.215  25.246  28.899  1.00  0.00     0.065 H 
ATOM     98  C   UNL A   1      40.000  27.879  29.951  1.00  0.00     0.037 A 
ATOM     99  C   UNL A   1      46.827  28.693  29.731  1.00  0.00     0.049 A 
ATOM    100  C   UNL A   1      41.033  28.678  30.659  1.00  0.00     0.074 A 
ATOM    101  C   UNL A   1      47.483  27.690  30.418  1.00  0.00    -0.036 A 
ATOM    102  N   UNL A   1      45.850  29.149  30.578  1.00  0.00    -0.354 N 
ATOM    103  N   UNL A   1      41.733  28.214  31.656  1.00  0.00    -0.248 NA
ATOM    104  C   UNL A   1      41.624  29.788  29.927  1.00  0.00    -0.034 C 
ATOM    105  C   UNL A   1      46.568  27.276  31.430  1.00  0.00    -0.036 A 
ATOM    106  H   UNL A   1      48.430  27.321  30.238  1.00  0.00     0.065 H 
ATOM    107  C   UNL A   1      45.444  28.098  31.358  1.00  0.00     0.049 A 
ATOM    108  H   UNL A   1      45.501  30.068  30.619  1.00  0.00     0.167 HD
ATOM    109  C   UNL A   1      43.021  28.659  31.409  1.00  0.00     0.074 A 
ATOM    110  C   UNL A   1      42.885  29.659  30.349  1.00  0.00    -0.034 C 
ATOM    111  H   UNL A   1      41.198  30.469  29.280  1.00  0.00     0.065 H 
ATOM    112  H   UNL A   1      46.712  26.503  32.098  1.00  0.00     0.065 H 
ATOM    113  C   UNL A   1      44.102  27.966  31.869  1.00  0.00     0.037 A 
ATOM    114  H   UNL A   1      43.675  30.205  29.971  1.00  0.00     0.065 H 
BRANCH  95 115
ATOM    115  C   UNL A   1      46.836  30.534  27.919  1.00  0.00     0.064 A 
ATOM    116  C   UNL A   1      45.656  31.213  27.552  1.00  0.00     0.173 A 
ATOM    117  C   UNL A   1      48.041  31.166  27.541  1.00  0.00     0.173 A 
ATOM    118  F   UNL A   1      44.452  30.696  27.841  1.00  0.00    -0.203 F 
ATOM    119  C   UNL A   1      45.684  32.384  26.790  1.00  0.00     0.198 A 
ATOM    120  C   UNL A   1      48.066  32.360  26.823  1.00  0.00     0.198 A 
ATOM    121  F   UNL A   1      49.239  30.607  27.745  1.00  0.00    -0.203 F 
ATOM    122  F   UNL A   1      44.537  32.920  26.351  1.00  0.00    -0.200 F 
ATOM    123  C   UNL A   1      46.889  32.950  26.419  1.00  0.00     0.200 A 
ATOM    124  F   UNL A   1      49.244  32.879  26.452  1.00  0.00    -0.200 F 
ATOM    125  F   UNL A   1      46.919  34.034  25.633  1.00  0.00    -0.200 F 
ENDBRANCH  95 115
BRANCH  98 126
ATOM    126  C   UNL A   1      38.641  28.429  29.697  1.00  0.00     0.064 A 
ATOM    127  C   UNL A   1      37.801  28.819  30.760  1.00  0.00     0.173 A 
ATOM    128  C   UNL A   1      38.266  28.881  28.418  1.00  0.00     0.173 A 
ATOM    129  F   UNL A   1      38.106  28.476  32.021  1.00  0.00    -0.203 F 
ATOM    130  C   UNL A   1      36.680  29.635  30.558  1.00  0.00     0.198 A 
ATOM    131  C   UNL A   1      37.148  29.697  28.217  1.00  0.00     0.198 A 
ATOM    132  F   UNL A   1      39.035  28.626  27.351  1.00  0.00    -0.203 F 
ATOM    133  F   UNL A   1      35.945  30.038  31.604  1.00  0.00    -0.200 F 
ATOM    134  C   UNL A   1      36.363  30.085  29.288  1.00  0.00     0.200 A 
ATOM    135  F   UNL A   1      36.875  30.160  26.989  1.00  0.00    -0.200 F 
ATOM    136  F   UNL A   1      35.334  30.923  29.100  1.00  0.00    -0.200 F 
ENDBRANCH  98 126
BRANCH 113 137
ATOM    137  C   UNL A   1      43.859  26.839  32.834  1.00  0.00     0.064 A 
ATOM    138  C   UNL A   1      43.906  25.477  32.486  1.00  0.00     0.173 A 
ATOM    139  C   UNL A   1      43.759  27.153  34.195  1.00  0.00     0.173 A 
ATOM    140  F   UNL A   1      44.086  25.096  31.214  1.00  0.00    -0.203 F 
ATOM    141  C   UNL A   1      43.842  24.481  33.459  1.00  0.00     0.198 A 
ATOM    142  C   UNL A   1      43.727  26.158  35.166  1.00  0.00     0.198 A 
ATOM    143  F   UNL A   1      43.758  28.437  34.587  1.00  0.00    -0.203 F 
ATOM    144  F   UNL A   1      43.904  23.187  33.107  1.00  0.00    -0.200 F 
ATOM    145  C   UNL A   1      43.765  24.822  34.799  1.00  0.00     0.200 A 
ATOM    146  F   UNL A   1      43.704  26.496  36.463  1.00  0.00    -0.200 F 
ATOM    147  F   UNL A   1      43.762  23.868  35.740  1.00  0.00    -0.200 F 
ENDBRANCH 113 137
ENDBRANCH  78  81
ENDBRANCH  68  71
ENDBRANCH  64  67
ENDBRANCH  61  64
ENDBRANCH  58  61
ENDBRANCH  55  58
ENDBRANCH   1  55
TORSDOF 18
ENDMDL
