MODEL 1
REMARK VINA RESULT:     -11.6      0.000      0.000
REMARK SMILES C[C@@H](C(=O)NCCCCCCNC(=O)c1ccc(-c2c3nc(c(-c4c(F)c(F)c(F)c(F)c4F)c4ccc([nH]4)c(-c4c(F)c(F)c(F)c(F)c4F)c4nc(c(-c5c(F)c(F)c(F)c(F)c5F)c5ccc2[nH]5)C=C4)C=C3)cc1)c1ccc(NC2CCCC2)cc1F
REMARK SMILES IDX 8 1 7 4 6 7 5 10 3 11 4 12 2 14 1 16 78 20 79 21 89 22 80 23
REMARK SMILES IDX 88 25 90 26 81 27 82 30 83 32 84 33 87 34 85 36 86 39 9 46
REMARK SMILES IDX 10 49 11 52 12 55 13 56 14 58 15 59 16 60 77 61 17 62 76 64
REMARK SMILES IDX 18 66 19 69 20 70 70 71 21 72 75 73 69 74 71 75 22 76 74 77
REMARK SMILES IDX 68 79 67 81 23 83 55 86 35 87 54 88 36 89 39 90 53 91 72 92
REMARK SMILES IDX 37 93 38 95 52 97 73 98 40 101 24 103 25 104 33 105 26 106
REMARK SMILES IDX 27 107 31 108 34 109 28 110 29 111 32 112 30 113 56 114
REMARK SMILES IDX 57 115 65 116 58 117 59 118 63 119 66 120 60 121 61 122
REMARK SMILES IDX 64 123 62 124 41 125 42 126 50 127 43 128 44 129 48 130
REMARK SMILES IDX 51 131 45 132 46 133 49 134 47 135
REMARK H PARENT 8 2 8 3 7 5 7 6 6 8 6 9 5 13 2 15 1 17 1 18 1 19 79 24 80 28
REMARK H PARENT 88 29 82 31 83 35 84 37 84 38 87 40 87 41 85 42 85 43 86 44
REMARK H PARENT 86 45 9 47 9 48 10 50 10 51 11 53 11 54 12 57 16 63 77 65
REMARK H PARENT 17 67 76 68 75 78 69 80 71 82 74 84 68 85 36 94 39 96 72 99
REMARK H PARENT 37 100 73 102
REMARK Flexibility Score: inf
ROOT
ATOM      1  C   UNL A   1      32.381  29.645  26.318  1.00  0.00    -0.052 C 
ATOM      2  H   UNL A   1      32.862  29.125  25.517  1.00  0.00     0.027 H 
ATOM      3  H   UNL A   1      33.053  30.230  26.911  1.00  0.00     0.027 H 
ENDROOT
BRANCH   1   4
ATOM      4  C   UNL A   1      31.774  28.601  27.265  1.00  0.00    -0.036 C 
ATOM      5  H   UNL A   1      32.168  28.770  28.245  1.00  0.00     0.028 H 
ATOM      6  H   UNL A   1      30.713  28.725  27.216  1.00  0.00     0.028 H 
BRANCH   4   7
ATOM      7  C   UNL A   1      32.064  27.148  26.876  1.00  0.00     0.017 C 
ATOM      8  H   UNL A   1      32.398  26.611  27.738  1.00  0.00     0.049 H 
ATOM      9  H   UNL A   1      31.169  26.705  26.493  1.00  0.00     0.049 H 
BRANCH   7  10
ATOM     10  N   UNL A   1      33.090  27.100  25.854  1.00  0.00    -0.356 N 
ATOM     11  C   UNL A   1      33.185  26.297  24.753  1.00  0.00     0.227 C 
ATOM     12  O   UNL A   1      34.297  26.202  24.232  1.00  0.00    -0.274 OA
ATOM     13  H   UNL A   1      33.829  27.740  25.970  1.00  0.00     0.163 HD
BRANCH  11  14
ATOM     14  C   UNL A   1      31.927  25.591  24.208  1.00  0.00     0.063 C 
ATOM     15  H   UNL A   1      31.444  25.037  24.986  1.00  0.00     0.045 H 
BRANCH  14  16
ATOM     16  C   UNL A   1      32.375  24.606  23.123  1.00  0.00    -0.049 C 
ATOM     17  H   UNL A   1      31.741  24.703  22.268  1.00  0.00     0.024 H 
ATOM     18  H   UNL A   1      32.314  23.606  23.500  1.00  0.00     0.024 H 
ATOM     19  H   UNL A   1      33.386  24.819  22.843  1.00  0.00     0.024 H 
ENDBRANCH  14  16
BRANCH  14  20
ATOM     20  C   UNL A   1      30.839  26.575  23.769  1.00  0.00     0.000 A 
ATOM     21  C   UNL A   1      31.140  27.601  22.862  1.00  0.00    -0.053 A 
ATOM     22  C   UNL A   1      29.528  26.542  24.249  1.00  0.00     0.129 A 
ATOM     23  C   UNL A   1      30.150  28.467  22.378  1.00  0.00    -0.038 A 
ATOM     24  H   UNL A   1      32.115  27.722  22.543  1.00  0.00     0.063 H 
ATOM     25  C   UNL A   1      28.548  27.426  23.786  1.00  0.00    -0.003 A 
ATOM     26  F   UNL A   1      29.153  25.652  25.178  1.00  0.00    -0.207 F 
ATOM     27  C   UNL A   1      28.829  28.391  22.816  1.00  0.00     0.037 A 
ATOM     28  H   UNL A   1      30.405  29.180  21.677  1.00  0.00     0.064 H 
ATOM     29  H   UNL A   1      27.592  27.363  24.171  1.00  0.00     0.068 H 
BRANCH  27  30
ATOM     30  N   UNL A   1      27.799  29.178  22.346  1.00  0.00    -0.382 N 
ATOM     31  H   UNL A   1      27.069  28.691  21.899  1.00  0.00     0.160 HD
BRANCH  30  32
ATOM     32  C   UNL A   1      27.632  30.619  22.413  1.00  0.00     0.026 C 
ATOM     33  C   UNL A   1      28.371  31.293  23.563  1.00  0.00    -0.033 C 
ATOM     34  C   UNL A   1      28.033  31.369  21.142  1.00  0.00    -0.033 C 
ATOM     35  H   UNL A   1      26.575  30.694  22.565  1.00  0.00     0.053 H 
ATOM     36  C   UNL A   1      28.432  32.748  23.126  1.00  0.00    -0.051 C 
ATOM     37  H   UNL A   1      29.353  30.885  23.681  1.00  0.00     0.029 H 
ATOM     38  H   UNL A   1      27.889  31.158  24.509  1.00  0.00     0.029 H 
ATOM     39  C   UNL A   1      28.615  32.702  21.613  1.00  0.00    -0.051 C 
ATOM     40  H   UNL A   1      27.178  31.534  20.522  1.00  0.00     0.029 H 
ATOM     41  H   UNL A   1      28.740  30.812  20.563  1.00  0.00     0.029 H 
ATOM     42  H   UNL A   1      29.259  33.245  23.589  1.00  0.00     0.027 H 
ATOM     43  H   UNL A   1      27.552  33.288  23.406  1.00  0.00     0.027 H 
ATOM     44  H   UNL A   1      29.654  32.759  21.365  1.00  0.00     0.027 H 
ATOM     45  H   UNL A   1      28.124  33.526  21.139  1.00  0.00     0.027 H 
ENDBRANCH  30  32
ENDBRANCH  27  30
ENDBRANCH  14  20
ENDBRANCH  11  14
ENDBRANCH   7  10
ENDBRANCH   4   7
ENDBRANCH   1   4
BRANCH   1  46
ATOM     46  C   UNL A   1      31.382  30.631  25.710  1.00  0.00    -0.052 C 
ATOM     47  H   UNL A   1      30.425  30.153  25.673  1.00  0.00     0.027 H 
ATOM     48  H   UNL A   1      31.767  30.890  24.746  1.00  0.00     0.027 H 
BRANCH  46  49
ATOM     49  C   UNL A   1      31.221  31.951  26.471  1.00  0.00    -0.036 C 
ATOM     50  H   UNL A   1      30.539  31.785  27.280  1.00  0.00     0.028 H 
ATOM     51  H   UNL A   1      30.872  32.666  25.756  1.00  0.00     0.028 H 
BRANCH  49  52
ATOM     52  C   UNL A   1      32.511  32.526  27.051  1.00  0.00     0.018 C 
ATOM     53  H   UNL A   1      33.272  32.490  26.300  1.00  0.00     0.049 H 
ATOM     54  H   UNL A   1      32.774  31.939  27.906  1.00  0.00     0.049 H 
BRANCH  52  55
ATOM     55  N   UNL A   1      32.357  33.902  27.492  1.00  0.00    -0.352 N 
ATOM     56  C   UNL A   1      33.043  34.592  28.455  1.00  0.00     0.251 C 
ATOM     57  H   UNL A   1      31.654  34.413  27.030  1.00  0.00     0.163 HD
ATOM     58  O   UNL A   1      32.657  35.713  28.798  1.00  0.00    -0.269 OA
BRANCH  56  59
ATOM     59  C   UNL A   1      34.228  34.002  29.110  1.00  0.00     0.039 A 
ATOM     60  C   UNL A   1      34.031  33.033  30.097  1.00  0.00    -0.049 A 
ATOM     61  C   UNL A   1      35.525  34.417  28.789  1.00  0.00    -0.049 A 
ATOM     62  C   UNL A   1      35.130  32.443  30.725  1.00  0.00    -0.053 A 
ATOM     63  H   UNL A   1      33.074  32.753  30.363  1.00  0.00     0.063 H 
ATOM     64  C   UNL A   1      36.624  33.789  29.376  1.00  0.00    -0.053 A 
ATOM     65  H   UNL A   1      35.669  35.187  28.118  1.00  0.00     0.063 H 
ATOM     66  C   UNL A   1      36.436  32.798  30.351  1.00  0.00    -0.014 A 
ATOM     67  H   UNL A   1      34.982  31.743  31.468  1.00  0.00     0.063 H 
ATOM     68  H   UNL A   1      37.580  34.055  29.092  1.00  0.00     0.063 H 
BRANCH  66  69
ATOM     69  C   UNL A   1      37.605  32.126  30.971  1.00  0.00     0.031 A 
ATOM     70  C   UNL A   1      38.077  32.521  32.342  1.00  0.00     0.074 A 
ATOM     71  C   UNL A   1      38.263  31.175  30.281  1.00  0.00     0.049 A 
ATOM     72  N   UNL A   1      39.081  32.050  33.038  1.00  0.00    -0.248 NA
ATOM     73  C   UNL A   1      37.335  33.599  33.014  1.00  0.00    -0.034 C 
ATOM     74  C   UNL A   1      37.937  30.742  28.921  1.00  0.00    -0.036 A 
ATOM     75  N   UNL A   1      39.346  30.405  30.625  1.00  0.00    -0.354 N 
ATOM     76  C   UNL A   1      39.092  32.772  34.225  1.00  0.00     0.074 A 
ATOM     77  C   UNL A   1      38.026  33.746  34.135  1.00  0.00    -0.034 C 
ATOM     78  H   UNL A   1      36.495  34.107  32.695  1.00  0.00     0.065 H 
ATOM     79  C   UNL A   1      38.789  29.772  28.553  1.00  0.00    -0.036 A 
ATOM     80  H   UNL A   1      37.175  31.122  28.338  1.00  0.00     0.065 H 
ATOM     81  C   UNL A   1      39.733  29.529  29.641  1.00  0.00     0.049 A 
ATOM     82  H   UNL A   1      39.801  30.473  31.495  1.00  0.00     0.167 HD
ATOM     83  C   UNL A   1      39.902  32.619  35.300  1.00  0.00     0.037 A 
ATOM     84  H   UNL A   1      37.829  34.463  34.852  1.00  0.00     0.065 H 
ATOM     85  H   UNL A   1      38.779  29.276  27.647  1.00  0.00     0.065 H 
ATOM     86  C   UNL A   1      40.733  28.629  29.619  1.00  0.00     0.037 A 
ATOM     87  C   UNL A   1      40.952  31.639  35.397  1.00  0.00     0.049 A 
ATOM     88  C   UNL A   1      41.602  28.465  30.836  1.00  0.00     0.074 A 
ATOM     89  C   UNL A   1      41.803  31.387  36.459  1.00  0.00    -0.036 A 
ATOM     90  N   UNL A   1      41.292  30.746  34.392  1.00  0.00    -0.354 N 
ATOM     91  N   UNL A   1      41.563  29.115  31.973  1.00  0.00    -0.248 NA
ATOM     92  C   UNL A   1      42.645  27.432  30.770  1.00  0.00    -0.034 C 
ATOM     93  C   UNL A   1      42.677  30.358  36.086  1.00  0.00    -0.036 A 
ATOM     94  H   UNL A   1      41.796  31.873  37.369  1.00  0.00     0.065 H 
ATOM     95  C   UNL A   1      42.346  29.946  34.807  1.00  0.00     0.049 A 
ATOM     96  H   UNL A   1      40.851  30.689  33.514  1.00  0.00     0.167 HD
ATOM     97  C   UNL A   1      42.561  28.560  32.762  1.00  0.00     0.074 A 
ATOM     98  C   UNL A   1      43.173  27.503  31.984  1.00  0.00    -0.034 C 
ATOM     99  H   UNL A   1      42.899  26.811  29.985  1.00  0.00     0.065 H 
ATOM    100  H   UNL A   1      43.439  29.973  36.667  1.00  0.00     0.065 H 
ATOM    101  C   UNL A   1      42.941  28.900  34.018  1.00  0.00     0.037 A 
ATOM    102  H   UNL A   1      43.923  26.886  32.329  1.00  0.00     0.065 H 
BRANCH  83 103
ATOM    103  C   UNL A   1      39.671  33.522  36.474  1.00  0.00     0.064 A 
ATOM    104  C   UNL A   1      40.271  34.788  36.549  1.00  0.00     0.173 A 
ATOM    105  C   UNL A   1      38.802  33.144  37.510  1.00  0.00     0.173 A 
ATOM    106  F   UNL A   1      41.118  35.190  35.589  1.00  0.00    -0.203 F 
ATOM    107  C   UNL A   1      40.024  35.635  37.626  1.00  0.00     0.198 A 
ATOM    108  C   UNL A   1      38.539  34.005  38.573  1.00  0.00     0.198 A 
ATOM    109  F   UNL A   1      38.199  31.946  37.483  1.00  0.00    -0.203 F 
ATOM    110  F   UNL A   1      40.635  36.826  37.692  1.00  0.00    -0.200 F 
ATOM    111  C   UNL A   1      39.153  35.246  38.632  1.00  0.00     0.200 A 
ATOM    112  F   UNL A   1      37.690  33.632  39.541  1.00  0.00    -0.200 F 
ATOM    113  F   UNL A   1      38.909  36.067  39.663  1.00  0.00    -0.200 F 
ENDBRANCH  83 103
BRANCH  86 114
ATOM    114  C   UNL A   1      40.953  27.792  28.413  1.00  0.00     0.064 A 
ATOM    115  C   UNL A   1      41.822  28.208  27.395  1.00  0.00     0.173 A 
ATOM    116  C   UNL A   1      40.290  26.568  28.248  1.00  0.00     0.173 A 
ATOM    117  F   UNL A   1      42.462  29.382  27.499  1.00  0.00    -0.203 F 
ATOM    118  C   UNL A   1      42.002  27.441  26.245  1.00  0.00     0.198 A 
ATOM    119  C   UNL A   1      40.491  25.789  27.110  1.00  0.00     0.198 A 
ATOM    120  F   UNL A   1      39.452  26.124  29.197  1.00  0.00    -0.203 F 
ATOM    121  F   UNL A   1      42.802  27.884  25.267  1.00  0.00    -0.200 F 
ATOM    122  C   UNL A   1      41.339  26.231  26.107  1.00  0.00     0.200 A 
ATOM    123  F   UNL A   1      39.858  24.615  26.985  1.00  0.00    -0.200 F 
ATOM    124  F   UNL A   1      41.513  25.493  25.001  1.00  0.00    -0.200 F 
ENDBRANCH  86 114
BRANCH 101 125
ATOM    125  C   UNL A   1      44.059  28.108  34.628  1.00  0.00     0.064 A 
ATOM    126  C   UNL A   1      43.813  26.923  35.338  1.00  0.00     0.173 A 
ATOM    127  C   UNL A   1      45.390  28.527  34.485  1.00  0.00     0.173 A 
ATOM    128  F   UNL A   1      42.556  26.491  35.514  1.00  0.00    -0.203 F 
ATOM    129  C   UNL A   1      44.859  26.202  35.908  1.00  0.00     0.198 A 
ATOM    130  C   UNL A   1      46.435  27.790  35.035  1.00  0.00     0.198 A 
ATOM    131  F   UNL A   1      45.677  29.651  33.811  1.00  0.00    -0.203 F 
ATOM    132  F   UNL A   1      44.597  25.099  36.623  1.00  0.00    -0.200 F 
ATOM    133  C   UNL A   1      46.168  26.633  35.752  1.00  0.00     0.200 A 
ATOM    134  F   UNL A   1      47.700  28.202  34.879  1.00  0.00    -0.200 F 
ATOM    135  F   UNL A   1      47.172  25.939  36.304  1.00  0.00    -0.200 F 
ENDBRANCH 101 125
ENDBRANCH  66  69
ENDBRANCH  56  59
ENDBRANCH  52  55
ENDBRANCH  49  52
ENDBRANCH  46  49
ENDBRANCH   1  46
TORSDOF 17
ENDMDL
MODEL 2
REMARK VINA RESULT:     -11.6      1.654      2.210
REMARK SMILES C[C@@H](C(=O)NCCCCCCNC(=O)c1ccc(-c2c3nc(c(-c4c(F)c(F)c(F)c(F)c4F)c4ccc([nH]4)c(-c4c(F)c(F)c(F)c(F)c4F)c4nc(c(-c5c(F)c(F)c(F)c(F)c5F)c5ccc2[nH]5)C=C4)C=C3)cc1)c1ccc(NC2CCCC2)cc1F
REMARK SMILES IDX 8 1 7 4 6 7 5 10 3 11 4 12 2 14 1 16 78 20 79 21 89 22 80 23
REMARK SMILES IDX 88 25 90 26 81 27 82 30 83 32 84 33 87 34 85 36 86 39 9 46
REMARK SMILES IDX 10 49 11 52 12 55 13 56 14 58 15 59 16 60 77 61 17 62 76 64
REMARK SMILES IDX 18 66 19 69 20 70 70 71 21 72 75 73 69 74 71 75 22 76 74 77
REMARK SMILES IDX 68 79 67 81 23 83 55 86 35 87 54 88 36 89 39 90 53 91 72 92
REMARK SMILES IDX 37 93 38 95 52 97 73 98 40 101 24 103 25 104 33 105 26 106
REMARK SMILES IDX 27 107 31 108 34 109 28 110 29 111 32 112 30 113 56 114
REMARK SMILES IDX 57 115 65 116 58 117 59 118 63 119 66 120 60 121 61 122
REMARK SMILES IDX 64 123 62 124 41 125 42 126 50 127 43 128 44 129 48 130
REMARK SMILES IDX 51 131 45 132 46 133 49 134 47 135
REMARK H PARENT 8 2 8 3 7 5 7 6 6 8 6 9 5 13 2 15 1 17 1 18 1 19 79 24 80 28
REMARK H PARENT 88 29 82 31 83 35 84 37 84 38 87 40 87 41 85 42 85 43 86 44
REMARK H PARENT 86 45 9 47 9 48 10 50 10 51 11 53 11 54 12 57 16 63 77 65
REMARK H PARENT 17 67 76 68 75 78 69 80 71 82 74 84 68 85 36 94 39 96 72 99
REMARK H PARENT 37 100 73 102
REMARK Flexibility Score: inf
ROOT
ATOM      1  C   UNL A   1      31.922  26.455  26.492  1.00  0.00    -0.052 C 
ATOM      2  H   UNL A   1      31.599  25.750  27.230  1.00  0.00     0.027 H 
ATOM      3  H   UNL A   1      31.367  26.400  25.578  1.00  0.00     0.027 H 
ENDROOT
BRANCH   1   4
ATOM      4  C   UNL A   1      33.377  26.128  26.129  1.00  0.00    -0.036 C 
ATOM      5  H   UNL A   1      33.632  26.677  25.246  1.00  0.00     0.028 H 
ATOM      6  H   UNL A   1      33.971  26.402  26.975  1.00  0.00     0.028 H 
BRANCH   4   7
ATOM      7  C   UNL A   1      33.646  24.643  25.866  1.00  0.00     0.017 C 
ATOM      8  H   UNL A   1      34.025  24.189  26.757  1.00  0.00     0.049 H 
ATOM      9  H   UNL A   1      32.732  24.170  25.574  1.00  0.00     0.049 H 
BRANCH   7  10
ATOM     10  N   UNL A   1      34.617  24.492  24.801  1.00  0.00    -0.356 N 
ATOM     11  C   UNL A   1      34.439  24.072  23.514  1.00  0.00     0.227 C 
ATOM     12  O   UNL A   1      35.446  23.701  22.909  1.00  0.00    -0.274 OA
ATOM     13  H   UNL A   1      35.543  24.727  25.040  1.00  0.00     0.163 HD
BRANCH  11  14
ATOM     14  C   UNL A   1      33.032  24.107  22.883  1.00  0.00     0.063 C 
ATOM     15  H   UNL A   1      32.325  23.616  23.520  1.00  0.00     0.045 H 
BRANCH  14  16
ATOM     16  C   UNL A   1      33.094  23.343  21.555  1.00  0.00    -0.049 C 
ATOM     17  H   UNL A   1      33.020  24.033  20.743  1.00  0.00     0.024 H 
ATOM     18  H   UNL A   1      32.284  22.645  21.506  1.00  0.00     0.024 H 
ATOM     19  H   UNL A   1      34.023  22.814  21.491  1.00  0.00     0.024 H 
ENDBRANCH  14  16
BRANCH  14  20
ATOM     20  C   UNL A   1      32.466  25.526  22.779  1.00  0.00     0.000 A 
ATOM     21  C   UNL A   1      33.323  26.613  22.555  1.00  0.00    -0.053 A 
ATOM     22  C   UNL A   1      31.111  25.830  22.927  1.00  0.00     0.129 A 
ATOM     23  C   UNL A   1      32.828  27.912  22.374  1.00  0.00    -0.038 A 
ATOM     24  H   UNL A   1      34.342  26.453  22.524  1.00  0.00     0.063 H 
ATOM     25  C   UNL A   1      30.623  27.131  22.775  1.00  0.00    -0.003 A 
ATOM     26  F   UNL A   1      30.216  24.876  23.222  1.00  0.00    -0.207 F 
ATOM     27  C   UNL A   1      31.467  28.200  22.464  1.00  0.00     0.037 A 
ATOM     28  H   UNL A   1      33.489  28.677  22.167  1.00  0.00     0.064 H 
ATOM     29  H   UNL A   1      29.613  27.307  22.894  1.00  0.00     0.068 H 
BRANCH  27  30
ATOM     30  N   UNL A   1      30.911  29.443  22.249  1.00  0.00    -0.382 N 
ATOM     31  H   UNL A   1      31.519  30.113  21.862  1.00  0.00     0.160 HD
BRANCH  30  32
ATOM     32  C   UNL A   1      29.561  29.909  22.511  1.00  0.00     0.026 C 
ATOM     33  C   UNL A   1      29.423  30.804  23.737  1.00  0.00    -0.033 C 
ATOM     34  C   UNL A   1      28.906  30.660  21.351  1.00  0.00    -0.033 C 
ATOM     35  H   UNL A   1      29.055  28.981  22.679  1.00  0.00     0.053 H 
ATOM     36  C   UNL A   1      28.096  31.508  23.500  1.00  0.00    -0.051 C 
ATOM     37  H   UNL A   1      30.227  31.508  23.791  1.00  0.00     0.029 H 
ATOM     38  H   UNL A   1      29.454  30.262  24.659  1.00  0.00     0.029 H 
ATOM     39  C   UNL A   1      28.028  31.732  21.993  1.00  0.00    -0.051 C 
ATOM     40  H   UNL A   1      28.311  29.991  20.765  1.00  0.00     0.029 H 
ATOM     41  H   UNL A   1      29.637  31.087  20.696  1.00  0.00     0.029 H 
ATOM     42  H   UNL A   1      28.069  32.442  24.021  1.00  0.00     0.027 H 
ATOM     43  H   UNL A   1      27.268  30.932  23.857  1.00  0.00     0.027 H 
ATOM     44  H   UNL A   1      28.396  32.706  21.748  1.00  0.00     0.027 H 
ATOM     45  H   UNL A   1      27.020  31.669  21.640  1.00  0.00     0.027 H 
ENDBRANCH  30  32
ENDBRANCH  27  30
ENDBRANCH  14  20
ENDBRANCH  11  14
ENDBRANCH   7  10
ENDBRANCH   4   7
ENDBRANCH   1   4
BRANCH   1  46
ATOM     46  C   UNL A   1      31.690  27.862  27.047  1.00  0.00    -0.052 C 
ATOM     47  H   UNL A   1      32.475  28.077  27.741  1.00  0.00     0.027 H 
ATOM     48  H   UNL A   1      30.717  27.849  27.492  1.00  0.00     0.027 H 
BRANCH  46  49
ATOM     49  C   UNL A   1      31.664  28.980  26.001  1.00  0.00    -0.036 C 
ATOM     50  H   UNL A   1      30.843  29.628  26.229  1.00  0.00     0.028 H 
ATOM     51  H   UNL A   1      31.576  28.496  25.051  1.00  0.00     0.028 H 
BRANCH  49  52
ATOM     52  C   UNL A   1      32.930  29.831  25.928  1.00  0.00     0.018 C 
ATOM     53  H   UNL A   1      33.288  29.829  24.920  1.00  0.00     0.049 H 
ATOM     54  H   UNL A   1      33.647  29.406  26.600  1.00  0.00     0.049 H 
BRANCH  52  55
ATOM     55  N   UNL A   1      32.701  31.205  26.339  1.00  0.00    -0.352 N 
ATOM     56  C   UNL A   1      33.354  31.956  27.278  1.00  0.00     0.251 C 
ATOM     57  H   UNL A   1      31.965  31.664  25.872  1.00  0.00     0.163 HD
ATOM     58  O   UNL A   1      32.908  33.061  27.599  1.00  0.00    -0.269 OA
BRANCH  56  59
ATOM     59  C   UNL A   1      34.578  31.450  27.935  1.00  0.00     0.039 A 
ATOM     60  C   UNL A   1      35.664  32.317  28.082  1.00  0.00    -0.049 A 
ATOM     61  C   UNL A   1      34.678  30.125  28.374  1.00  0.00    -0.049 A 
ATOM     62  C   UNL A   1      36.828  31.875  28.712  1.00  0.00    -0.053 A 
ATOM     63  H   UNL A   1      35.605  33.283  27.724  1.00  0.00     0.063 H 
ATOM     64  C   UNL A   1      35.821  29.700  29.052  1.00  0.00    -0.053 A 
ATOM     65  H   UNL A   1      33.907  29.463  28.196  1.00  0.00     0.063 H 
ATOM     66  C   UNL A   1      36.906  30.571  29.226  1.00  0.00    -0.014 A 
ATOM     67  H   UNL A   1      37.637  32.511  28.801  1.00  0.00     0.063 H 
ATOM     68  H   UNL A   1      35.867  28.740  29.429  1.00  0.00     0.063 H 
BRANCH  66  69
ATOM     69  C   UNL A   1      38.120  30.120  29.953  1.00  0.00     0.031 A 
ATOM     70  C   UNL A   1      38.422  30.635  31.332  1.00  0.00     0.074 A 
ATOM     71  C   UNL A   1      38.969  29.264  29.352  1.00  0.00     0.049 A 
ATOM     72  N   UNL A   1      39.436  30.358  32.113  1.00  0.00    -0.248 NA
ATOM     73  C   UNL A   1      37.471  31.602  31.902  1.00  0.00    -0.034 C 
ATOM     74  C   UNL A   1      38.815  28.735  27.996  1.00  0.00    -0.036 A 
ATOM     75  N   UNL A   1      40.132  28.692  29.802  1.00  0.00    -0.354 N 
ATOM     76  C   UNL A   1      39.246  31.115  33.262  1.00  0.00     0.074 A 
ATOM     77  C   UNL A   1      38.048  31.900  33.058  1.00  0.00    -0.034 C 
ATOM     78  H   UNL A   1      36.587  31.955  31.505  1.00  0.00     0.065 H 
ATOM     79  C   UNL A   1      39.835  27.904  27.730  1.00  0.00    -0.036 A 
ATOM     80  H   UNL A   1      38.046  28.965  27.347  1.00  0.00     0.065 H 
ATOM     81  C   UNL A   1      40.724  27.856  28.888  1.00  0.00     0.049 A 
ATOM     82  H   UNL A   1      40.507  28.864  30.696  1.00  0.00     0.167 HD
ATOM     83  C   UNL A   1      39.990  31.134  34.394  1.00  0.00     0.037 A 
ATOM     84  H   UNL A   1      37.688  32.600  33.725  1.00  0.00     0.065 H 
ATOM     85  H   UNL A   1      39.969  27.381  26.850  1.00  0.00     0.065 H 
ATOM     86  C   UNL A   1      41.854  27.130  28.974  1.00  0.00     0.037 A 
ATOM     87  C   UNL A   1      41.174  30.341  34.606  1.00  0.00     0.049 A 
ATOM     88  C   UNL A   1      42.648  27.153  30.251  1.00  0.00     0.074 A 
ATOM     89  C   UNL A   1      41.975  30.269  35.732  1.00  0.00    -0.036 A 
ATOM     90  N   UNL A   1      41.723  29.480  33.668  1.00  0.00    -0.354 N 
ATOM     91  N   UNL A   1      42.424  27.828  31.352  1.00  0.00    -0.248 NA
ATOM     92  C   UNL A   1      43.844  26.300  30.303  1.00  0.00    -0.034 C 
ATOM     93  C   UNL A   1      43.026  29.383  35.466  1.00  0.00    -0.036 A 
ATOM     94  H   UNL A   1      41.824  30.780  36.616  1.00  0.00     0.065 H 
ATOM     95  C   UNL A   1      42.857  28.877  34.188  1.00  0.00     0.049 A 
ATOM     96  H   UNL A   1      41.361  29.320  32.767  1.00  0.00     0.167 HD
ATOM     97  C   UNL A   1      43.438  27.472  32.230  1.00  0.00     0.074 A 
ATOM     98  C   UNL A   1      44.264  26.500  31.544  1.00  0.00    -0.034 C 
ATOM     99  H   UNL A   1      44.250  25.702  29.566  1.00  0.00     0.065 H 
ATOM    100  H   UNL A   1      43.796  29.148  36.112  1.00  0.00     0.065 H 
ATOM    101  C   UNL A   1      43.667  27.913  33.490  1.00  0.00     0.037 A 
ATOM    102  H   UNL A   1      45.077  26.026  31.966  1.00  0.00     0.065 H 
BRANCH  83 103
ATOM    103  C   UNL A   1      39.534  32.029  35.507  1.00  0.00     0.064 A 
ATOM    104  C   UNL A   1      39.986  33.354  35.608  1.00  0.00     0.173 A 
ATOM    105  C   UNL A   1      38.598  31.580  36.451  1.00  0.00     0.173 A 
ATOM    106  F   UNL A   1      40.889  33.826  34.736  1.00  0.00    -0.203 F 
ATOM    107  C   UNL A   1      39.531  34.190  36.624  1.00  0.00     0.198 A 
ATOM    108  C   UNL A   1      38.127  32.428  37.452  1.00  0.00     0.198 A 
ATOM    109  F   UNL A   1      38.131  30.324  36.396  1.00  0.00    -0.203 F 
ATOM    110  F   UNL A   1      40.003  35.441  36.721  1.00  0.00    -0.200 F 
ATOM    111  C   UNL A   1      38.598  33.729  37.539  1.00  0.00     0.200 A 
ATOM    112  F   UNL A   1      37.217  31.984  38.330  1.00  0.00    -0.200 F 
ATOM    113  F   UNL A   1      38.153  34.538  38.511  1.00  0.00    -0.200 F 
ENDBRANCH  83 103
BRANCH  86 114
ATOM    114  C   UNL A   1      42.290  26.297  27.826  1.00  0.00     0.064 A 
ATOM    115  C   UNL A   1      43.263  26.758  26.928  1.00  0.00     0.173 A 
ATOM    116  C   UNL A   1      41.736  25.030  27.595  1.00  0.00     0.173 A 
ATOM    117  F   UNL A   1      43.806  27.973  27.096  1.00  0.00    -0.203 F 
ATOM    118  C   UNL A   1      43.649  25.993  25.829  1.00  0.00     0.198 A 
ATOM    119  C   UNL A   1      42.140  24.254  26.511  1.00  0.00     0.198 A 
ATOM    120  F   UNL A   1      40.805  24.542  28.429  1.00  0.00    -0.203 F 
ATOM    121  F   UNL A   1      44.546  26.477  24.961  1.00  0.00    -0.200 F 
ATOM    122  C   UNL A   1      43.089  24.741  25.625  1.00  0.00     0.200 A 
ATOM    123  F   UNL A   1      41.607  23.040  26.323  1.00  0.00    -0.200 F 
ATOM    124  F   UNL A   1      43.460  24.005  24.568  1.00  0.00    -0.200 F 
ENDBRANCH  86 114
BRANCH 101 125
ATOM    125  C   UNL A   1      44.850  27.335  34.209  1.00  0.00     0.064 A 
ATOM    126  C   UNL A   1      44.746  26.153  34.956  1.00  0.00     0.173 A 
ATOM    127  C   UNL A   1      46.104  27.959  34.134  1.00  0.00     0.173 A 
ATOM    128  F   UNL A   1      43.564  25.529  35.069  1.00  0.00    -0.203 F 
ATOM    129  C   UNL A   1      45.849  25.631  35.626  1.00  0.00     0.198 A 
ATOM    130  C   UNL A   1      47.210  27.422  34.785  1.00  0.00     0.198 A 
ATOM    131  F   UNL A   1      46.256  29.091  33.429  1.00  0.00    -0.203 F 
ATOM    132  F   UNL A   1      45.715  24.527  36.374  1.00  0.00    -0.200 F 
ATOM    133  C   UNL A   1      47.080  26.264  35.537  1.00  0.00     0.200 A 
ATOM    134  F   UNL A   1      48.402  28.029  34.693  1.00  0.00    -0.200 F 
ATOM    135  F   UNL A   1      48.140  25.761  36.185  1.00  0.00    -0.200 F 
ENDBRANCH 101 125
ENDBRANCH  66  69
ENDBRANCH  56  59
ENDBRANCH  52  55
ENDBRANCH  49  52
ENDBRANCH  46  49
ENDBRANCH   1  46
TORSDOF 17
ENDMDL
MODEL 3
REMARK VINA RESULT:     -11.6      0.121      1.943
REMARK SMILES C[C@@H](C(=O)NCCCCCCNC(=O)c1ccc(-c2c3nc(c(-c4c(F)c(F)c(F)c(F)c4F)c4ccc([nH]4)c(-c4c(F)c(F)c(F)c(F)c4F)c4nc(c(-c5c(F)c(F)c(F)c(F)c5F)c5ccc2[nH]5)C=C4)C=C3)cc1)c1ccc(NC2CCCC2)cc1F
REMARK SMILES IDX 8 1 7 4 6 7 5 10 3 11 4 12 2 14 1 16 78 20 79 21 89 22 80 23
REMARK SMILES IDX 88 25 90 26 81 27 82 30 83 32 84 33 87 34 85 36 86 39 9 46
REMARK SMILES IDX 10 49 11 52 12 55 13 56 14 58 15 59 16 60 77 61 17 62 76 64
REMARK SMILES IDX 18 66 19 69 20 70 70 71 21 72 75 73 69 74 71 75 22 76 74 77
REMARK SMILES IDX 68 79 67 81 23 83 55 86 35 87 54 88 36 89 39 90 53 91 72 92
REMARK SMILES IDX 37 93 38 95 52 97 73 98 40 101 24 103 25 104 33 105 26 106
REMARK SMILES IDX 27 107 31 108 34 109 28 110 29 111 32 112 30 113 56 114
REMARK SMILES IDX 57 115 65 116 58 117 59 118 63 119 66 120 60 121 61 122
REMARK SMILES IDX 64 123 62 124 41 125 42 126 50 127 43 128 44 129 48 130
REMARK SMILES IDX 51 131 45 132 46 133 49 134 47 135
REMARK H PARENT 8 2 8 3 7 5 7 6 6 8 6 9 5 13 2 15 1 17 1 18 1 19 79 24 80 28
REMARK H PARENT 88 29 82 31 83 35 84 37 84 38 87 40 87 41 85 42 85 43 86 44
REMARK H PARENT 86 45 9 47 9 48 10 50 10 51 11 53 11 54 12 57 16 63 77 65
REMARK H PARENT 17 67 76 68 75 78 69 80 71 82 74 84 68 85 36 94 39 96 72 99
REMARK H PARENT 37 100 73 102
REMARK Flexibility Score: inf
ROOT
ATOM      1  C   UNL A   1      32.370  29.550  26.219  1.00  0.00    -0.052 C 
ATOM      2  H   UNL A   1      32.793  28.994  25.408  1.00  0.00     0.027 H 
ATOM      3  H   UNL A   1      33.092  30.114  26.772  1.00  0.00     0.027 H 
ENDROOT
BRANCH   1   4
ATOM      4  C   UNL A   1      31.758  28.551  27.211  1.00  0.00    -0.036 C 
ATOM      5  H   UNL A   1      32.159  28.756  28.181  1.00  0.00     0.028 H 
ATOM      6  H   UNL A   1      30.698  28.685  27.163  1.00  0.00     0.028 H 
BRANCH   4   7
ATOM      7  C   UNL A   1      32.030  27.081  26.878  1.00  0.00     0.017 C 
ATOM      8  H   UNL A   1      32.373  26.577  27.758  1.00  0.00     0.049 H 
ATOM      9  H   UNL A   1      31.125  26.630  26.528  1.00  0.00     0.049 H 
BRANCH   7  10
ATOM     10  N   UNL A   1      33.039  26.980  25.844  1.00  0.00    -0.356 N 
ATOM     11  C   UNL A   1      33.095  26.151  24.760  1.00  0.00     0.227 C 
ATOM     12  O   UNL A   1      34.197  26.012  24.227  1.00  0.00    -0.274 OA
ATOM     13  H   UNL A   1      33.798  27.602  25.936  1.00  0.00     0.163 HD
BRANCH  11  14
ATOM     14  C   UNL A   1      31.810  25.469  24.249  1.00  0.00     0.063 C 
ATOM     15  H   UNL A   1      31.321  24.950  25.047  1.00  0.00     0.045 H 
BRANCH  14  16
ATOM     16  C   UNL A   1      32.216  24.443  23.184  1.00  0.00    -0.049 C 
ATOM     17  H   UNL A   1      32.651  24.949  22.349  1.00  0.00     0.024 H 
ATOM     18  H   UNL A   1      31.351  23.902  22.862  1.00  0.00     0.024 H 
ATOM     19  H   UNL A   1      32.929  23.761  23.599  1.00  0.00     0.024 H 
ENDBRANCH  14  16
BRANCH  14  20
ATOM     20  C   UNL A   1      30.747  26.474  23.797  1.00  0.00     0.000 A 
ATOM     21  C   UNL A   1      31.071  27.475  22.870  1.00  0.00    -0.053 A 
ATOM     22  C   UNL A   1      29.438  26.485  24.284  1.00  0.00     0.129 A 
ATOM     23  C   UNL A   1      30.101  28.359  22.375  1.00  0.00    -0.038 A 
ATOM     24  H   UNL A   1      32.046  27.564  22.544  1.00  0.00     0.063 H 
ATOM     25  C   UNL A   1      28.480  27.386  23.810  1.00  0.00    -0.003 A 
ATOM     26  F   UNL A   1      29.045  25.622  25.231  1.00  0.00    -0.207 F 
ATOM     27  C   UNL A   1      28.781  28.326  22.821  1.00  0.00     0.037 A 
ATOM     28  H   UNL A   1      30.372  29.052  21.660  1.00  0.00     0.064 H 
ATOM     29  H   UNL A   1      27.525  27.355  24.200  1.00  0.00     0.068 H 
BRANCH  27  30
ATOM     30  N   UNL A   1      27.770  29.131  22.342  1.00  0.00    -0.382 N 
ATOM     31  H   UNL A   1      27.043  28.659  21.876  1.00  0.00     0.160 HD
BRANCH  30  32
ATOM     32  C   UNL A   1      27.621  30.574  22.422  1.00  0.00     0.026 C 
ATOM     33  C   UNL A   1      28.346  31.224  23.594  1.00  0.00    -0.033 C 
ATOM     34  C   UNL A   1      28.056  31.333  21.168  1.00  0.00    -0.033 C 
ATOM     35  H   UNL A   1      26.562  30.661  22.555  1.00  0.00     0.053 H 
ATOM     36  C   UNL A   1      28.434  32.684  23.175  1.00  0.00    -0.051 C 
ATOM     37  H   UNL A   1      29.320  30.802  23.725  1.00  0.00     0.029 H 
ATOM     38  H   UNL A   1      27.844  31.084  24.529  1.00  0.00     0.029 H 
ATOM     39  C   UNL A   1      28.646  32.652  21.665  1.00  0.00    -0.051 C 
ATOM     40  H   UNL A   1      27.214  31.516  20.534  1.00  0.00     0.029 H 
ATOM     41  H   UNL A   1      28.766  30.774  20.596  1.00  0.00     0.029 H 
ATOM     42  H   UNL A   1      29.258  33.164  23.660  1.00  0.00     0.027 H 
ATOM     43  H   UNL A   1      27.555  33.232  23.445  1.00  0.00     0.027 H 
ATOM     44  H   UNL A   1      29.690  32.698  21.438  1.00  0.00     0.027 H 
ATOM     45  H   UNL A   1      28.174  33.488  21.192  1.00  0.00     0.027 H 
ENDBRANCH  30  32
ENDBRANCH  27  30
ENDBRANCH  14  20
ENDBRANCH  11  14
ENDBRANCH   7  10
ENDBRANCH   4   7
ENDBRANCH   1   4
BRANCH   1  46
ATOM     46  C   UNL A   1      31.391  30.570  25.633  1.00  0.00    -0.052 C 
ATOM     47  H   UNL A   1      30.433  30.099  25.552  1.00  0.00     0.027 H 
ATOM     48  H   UNL A   1      31.801  30.870  24.692  1.00  0.00     0.027 H 
BRANCH  46  49
ATOM     49  C   UNL A   1      31.220  31.853  26.450  1.00  0.00    -0.036 C 
ATOM     50  H   UNL A   1      30.583  31.634  27.282  1.00  0.00     0.028 H 
ATOM     51  H   UNL A   1      30.812  32.580  25.780  1.00  0.00     0.028 H 
BRANCH  49  52
ATOM     52  C   UNL A   1      32.514  32.455  26.993  1.00  0.00     0.018 C 
ATOM     53  H   UNL A   1      33.256  32.429  26.221  1.00  0.00     0.049 H 
ATOM     54  H   UNL A   1      32.812  31.877  27.843  1.00  0.00     0.049 H 
BRANCH  52  55
ATOM     55  N   UNL A   1      32.347  33.830  27.431  1.00  0.00    -0.352 N 
ATOM     56  C   UNL A   1      33.028  34.530  28.391  1.00  0.00     0.251 C 
ATOM     57  H   UNL A   1      31.639  34.334  26.968  1.00  0.00     0.163 HD
ATOM     58  O   UNL A   1      32.632  35.647  28.732  1.00  0.00    -0.269 OA
BRANCH  56  59
ATOM     59  C   UNL A   1      34.220  33.952  29.046  1.00  0.00     0.039 A 
ATOM     60  C   UNL A   1      34.034  32.978  30.031  1.00  0.00    -0.049 A 
ATOM     61  C   UNL A   1      35.512  34.384  28.727  1.00  0.00    -0.049 A 
ATOM     62  C   UNL A   1      35.139  32.401  30.658  1.00  0.00    -0.053 A 
ATOM     63  H   UNL A   1      33.080  32.686  30.295  1.00  0.00     0.063 H 
ATOM     64  C   UNL A   1      36.618  33.768  29.314  1.00  0.00    -0.053 A 
ATOM     65  H   UNL A   1      35.647  35.157  28.058  1.00  0.00     0.063 H 
ATOM     66  C   UNL A   1      36.441  32.773  30.286  1.00  0.00    -0.014 A 
ATOM     67  H   UNL A   1      34.999  31.697  31.400  1.00  0.00     0.063 H 
ATOM     68  H   UNL A   1      37.571  34.046  29.032  1.00  0.00     0.063 H 
BRANCH  66  69
ATOM     69  C   UNL A   1      37.618  32.114  30.906  1.00  0.00     0.031 A 
ATOM     70  C   UNL A   1      38.078  32.505  32.282  1.00  0.00     0.074 A 
ATOM     71  C   UNL A   1      38.293  31.178  30.211  1.00  0.00     0.049 A 
ATOM     72  N   UNL A   1      39.087  32.044  32.979  1.00  0.00    -0.248 NA
ATOM     73  C   UNL A   1      37.318  33.567  32.959  1.00  0.00    -0.034 C 
ATOM     74  C   UNL A   1      37.978  30.749  28.847  1.00  0.00    -0.036 A 
ATOM     75  N   UNL A   1      39.385  30.421  30.554  1.00  0.00    -0.354 N 
ATOM     76  C   UNL A   1      39.082  32.757  34.170  1.00  0.00     0.074 A 
ATOM     77  C   UNL A   1      38.002  33.716  34.084  1.00  0.00    -0.034 C 
ATOM     78  H   UNL A   1      36.472  34.065  32.640  1.00  0.00     0.065 H 
ATOM     79  C   UNL A   1      38.846  29.795  28.475  1.00  0.00    -0.036 A 
ATOM     80  H   UNL A   1      37.213  31.122  28.264  1.00  0.00     0.065 H 
ATOM     81  C   UNL A   1      39.789  29.558  29.565  1.00  0.00     0.049 A 
ATOM     82  H   UNL A   1      39.836  30.489  31.426  1.00  0.00     0.167 HD
ATOM     83  C   UNL A   1      39.890  32.608  35.247  1.00  0.00     0.037 A 
ATOM     84  H   UNL A   1      37.792  34.424  34.805  1.00  0.00     0.065 H 
ATOM     85  H   UNL A   1      38.846  29.306  27.566  1.00  0.00     0.065 H 
ATOM     86  C   UNL A   1      40.803  28.673  29.541  1.00  0.00     0.037 A 
ATOM     87  C   UNL A   1      40.955  31.643  35.341  1.00  0.00     0.049 A 
ATOM     88  C   UNL A   1      41.669  28.513  30.760  1.00  0.00     0.074 A 
ATOM     89  C   UNL A   1      41.806  31.396  36.404  1.00  0.00    -0.036 A 
ATOM     90  N   UNL A   1      41.312  30.763  34.331  1.00  0.00    -0.354 N 
ATOM     91  N   UNL A   1      41.616  29.154  31.902  1.00  0.00    -0.248 NA
ATOM     92  C   UNL A   1      42.727  27.496  30.691  1.00  0.00    -0.034 C 
ATOM     93  C   UNL A   1      42.696  30.383  36.028  1.00  0.00    -0.036 A 
ATOM     94  H   UNL A   1      41.787  31.875  37.319  1.00  0.00     0.065 H 
ATOM     95  C   UNL A   1      42.375  29.976  34.744  1.00  0.00     0.049 A 
ATOM     96  H   UNL A   1      40.875  30.705  33.451  1.00  0.00     0.167 HD
ATOM     97  C   UNL A   1      42.619  28.609  32.691  1.00  0.00     0.074 A 
ATOM     98  C   UNL A   1      43.249  27.566  31.907  1.00  0.00    -0.034 C 
ATOM     99  H   UNL A   1      42.994  26.885  29.902  1.00  0.00     0.065 H 
ATOM    100  H   UNL A   1      43.461  30.006  36.609  1.00  0.00     0.065 H 
ATOM    101  C   UNL A   1      42.989  28.944  33.950  1.00  0.00     0.037 A 
ATOM    102  H   UNL A   1      44.008  26.958  32.250  1.00  0.00     0.065 H 
BRANCH  83 103
ATOM    103  C   UNL A   1      39.641  33.499  36.427  1.00  0.00     0.064 A 
ATOM    104  C   UNL A   1      38.792  33.105  37.472  1.00  0.00     0.173 A 
ATOM    105  C   UNL A   1      40.296  34.735  36.543  1.00  0.00     0.173 A 
ATOM    106  F   UNL A   1      38.134  31.938  37.402  1.00  0.00    -0.203 F 
ATOM    107  C   UNL A   1      38.593  33.923  38.581  1.00  0.00     0.198 A 
ATOM    108  C   UNL A   1      40.113  35.539  37.666  1.00  0.00     0.198 A 
ATOM    109  F   UNL A   1      41.123  35.156  35.574  1.00  0.00    -0.203 F 
ATOM    110  F   UNL A   1      37.751  33.540  39.550  1.00  0.00    -0.200 F 
ATOM    111  C   UNL A   1      39.259  35.134  38.681  1.00  0.00     0.200 A 
ATOM    112  F   UNL A   1      40.765  36.706  37.766  1.00  0.00    -0.200 F 
ATOM    113  F   UNL A   1      39.075  35.916  39.753  1.00  0.00    -0.200 F 
ENDBRANCH  83 103
BRANCH  86 114
ATOM    114  C   UNL A   1      41.039  27.849  28.330  1.00  0.00     0.064 A 
ATOM    115  C   UNL A   1      40.446  26.586  28.189  1.00  0.00     0.173 A 
ATOM    116  C   UNL A   1      41.869  28.300  27.294  1.00  0.00     0.173 A 
ATOM    117  F   UNL A   1      39.661  26.103  29.163  1.00  0.00    -0.203 F 
ATOM    118  C   UNL A   1      40.695  25.796  27.069  1.00  0.00     0.198 A 
ATOM    119  C   UNL A   1      42.097  27.521  26.162  1.00  0.00     0.198 A 
ATOM    120  F   UNL A   1      42.455  29.505  27.380  1.00  0.00    -0.203 F 
ATOM    121  F   UNL A   1      40.154  24.574  26.981  1.00  0.00    -0.200 F 
ATOM    122  C   UNL A   1      41.516  26.266  26.055  1.00  0.00     0.200 A 
ATOM    123  F   UNL A   1      42.881  27.983  25.179  1.00  0.00    -0.200 F 
ATOM    124  F   UNL A   1      41.755  25.506  24.977  1.00  0.00    -0.200 F 
ENDBRANCH  86 114
BRANCH 101 125
ATOM    125  C   UNL A   1      44.117  28.164  34.559  1.00  0.00     0.064 A 
ATOM    126  C   UNL A   1      45.445  28.606  34.466  1.00  0.00     0.173 A 
ATOM    127  C   UNL A   1      43.865  26.974  35.257  1.00  0.00     0.173 A 
ATOM    128  F   UNL A   1      45.736  29.731  33.795  1.00  0.00    -0.203 F 
ATOM    129  C   UNL A   1      46.484  27.869  35.026  1.00  0.00     0.198 A 
ATOM    130  C   UNL A   1      44.904  26.253  35.837  1.00  0.00     0.198 A 
ATOM    131  F   UNL A   1      42.611  26.513  35.376  1.00  0.00    -0.203 F 
ATOM    132  F   UNL A   1      47.750  28.285  34.884  1.00  0.00    -0.200 F 
ATOM    133  C   UNL A   1      46.212  26.695  35.715  1.00  0.00     0.200 A 
ATOM    134  F   UNL A   1      44.640  25.123  36.508  1.00  0.00    -0.200 F 
ATOM    135  F   UNL A   1      47.214  25.986  36.252  1.00  0.00    -0.200 F 
ENDBRANCH 101 125
ENDBRANCH  66  69
ENDBRANCH  56  59
ENDBRANCH  52  55
ENDBRANCH  49  52
ENDBRANCH  46  49
ENDBRANCH   1  46
TORSDOF 17
ENDMDL
MODEL 4
REMARK VINA RESULT:     -11.5      5.725     11.343
REMARK SMILES C[C@@H](C(=O)NCCCCCCNC(=O)c1ccc(-c2c3nc(c(-c4c(F)c(F)c(F)c(F)c4F)c4ccc([nH]4)c(-c4c(F)c(F)c(F)c(F)c4F)c4nc(c(-c5c(F)c(F)c(F)c(F)c5F)c5ccc2[nH]5)C=C4)C=C3)cc1)c1ccc(NC2CCCC2)cc1F
REMARK SMILES IDX 8 1 7 4 6 7 5 10 3 11 4 12 2 14 1 16 78 20 79 21 89 22 80 23
REMARK SMILES IDX 88 25 90 26 81 27 82 30 83 32 84 33 87 34 85 36 86 39 9 46
REMARK SMILES IDX 10 49 11 52 12 55 13 56 14 58 15 59 16 60 77 61 17 62 76 64
REMARK SMILES IDX 18 66 19 69 20 70 70 71 21 72 75 73 69 74 71 75 22 76 74 77
REMARK SMILES IDX 68 79 67 81 23 83 55 86 35 87 54 88 36 89 39 90 53 91 72 92
REMARK SMILES IDX 37 93 38 95 52 97 73 98 40 101 24 103 25 104 33 105 26 106
REMARK SMILES IDX 27 107 31 108 34 109 28 110 29 111 32 112 30 113 56 114
REMARK SMILES IDX 57 115 65 116 58 117 59 118 63 119 66 120 60 121 61 122
REMARK SMILES IDX 64 123 62 124 41 125 42 126 50 127 43 128 44 129 48 130
REMARK SMILES IDX 51 131 45 132 46 133 49 134 47 135
REMARK H PARENT 8 2 8 3 7 5 7 6 6 8 6 9 5 13 2 15 1 17 1 18 1 19 79 24 80 28
REMARK H PARENT 88 29 82 31 83 35 84 37 84 38 87 40 87 41 85 42 85 43 86 44
REMARK H PARENT 86 45 9 47 9 48 10 50 10 51 11 53 11 54 12 57 16 63 77 65
REMARK H PARENT 17 67 76 68 75 78 69 80 71 82 74 84 68 85 36 94 39 96 72 99
REMARK H PARENT 37 100 73 102
REMARK Flexibility Score: inf
ROOT
ATOM      1  C   UNL A   1      36.248  21.816  24.680  1.00  0.00    -0.052 C 
ATOM      2  H   UNL A   1      37.128  22.128  24.157  1.00  0.00     0.027 H 
ATOM      3  H   UNL A   1      35.352  21.912  24.104  1.00  0.00     0.027 H 
ENDROOT
BRANCH   1   4
ATOM      4  C   UNL A   1      36.072  22.732  25.899  1.00  0.00    -0.036 C 
ATOM      5  H   UNL A   1      35.707  22.140  26.712  1.00  0.00     0.028 H 
ATOM      6  H   UNL A   1      37.030  23.164  26.098  1.00  0.00     0.028 H 
BRANCH   4   7
ATOM      7  C   UNL A   1      35.102  23.897  25.681  1.00  0.00     0.017 C 
ATOM      8  H   UNL A   1      35.606  24.819  25.883  1.00  0.00     0.049 H 
ATOM      9  H   UNL A   1      34.761  23.881  24.668  1.00  0.00     0.049 H 
BRANCH   7  10
ATOM     10  N   UNL A   1      33.962  23.772  26.566  1.00  0.00    -0.356 N 
ATOM     11  C   UNL A   1      32.628  23.808  26.277  1.00  0.00     0.227 C 
ATOM     12  O   UNL A   1      31.864  24.022  27.219  1.00  0.00    -0.274 OA
ATOM     13  H   UNL A   1      34.181  23.640  27.518  1.00  0.00     0.163 HD
BRANCH  11  14
ATOM     14  C   UNL A   1      32.149  23.556  24.833  1.00  0.00     0.063 C 
ATOM     15  H   UNL A   1      32.790  24.052  24.135  1.00  0.00     0.045 H 
BRANCH  14  16
ATOM     16  C   UNL A   1      30.741  24.146  24.697  1.00  0.00    -0.049 C 
ATOM     17  H   UNL A   1      30.732  24.871  23.911  1.00  0.00     0.024 H 
ATOM     18  H   UNL A   1      30.459  24.615  25.617  1.00  0.00     0.024 H 
ATOM     19  H   UNL A   1      30.046  23.364  24.469  1.00  0.00     0.024 H 
ENDBRANCH  14  16
BRANCH  14  20
ATOM     20  C   UNL A   1      32.270  22.087  24.418  1.00  0.00     0.000 A 
ATOM     21  C   UNL A   1      32.328  21.081  25.392  1.00  0.00    -0.053 A 
ATOM     22  C   UNL A   1      32.360  21.664  23.090  1.00  0.00     0.129 A 
ATOM     23  C   UNL A   1      32.357  19.722  25.045  1.00  0.00    -0.038 A 
ATOM     24  H   UNL A   1      32.352  21.345  26.390  1.00  0.00     0.063 H 
ATOM     25  C   UNL A   1      32.418  20.310  22.746  1.00  0.00    -0.003 A 
ATOM     26  F   UNL A   1      32.393  22.549  22.083  1.00  0.00    -0.207 F 
ATOM     27  C   UNL A   1      32.388  19.305  23.715  1.00  0.00     0.037 A 
ATOM     28  H   UNL A   1      32.355  19.012  25.793  1.00  0.00     0.064 H 
ATOM     29  H   UNL A   1      32.484  20.047  21.750  1.00  0.00     0.068 H 
BRANCH  27  30
ATOM     30  N   UNL A   1      32.367  17.989  23.305  1.00  0.00    -0.382 N 
ATOM     31  H   UNL A   1      31.694  17.773  22.620  1.00  0.00     0.160 HD
BRANCH  30  32
ATOM     32  C   UNL A   1      33.192  16.874  23.735  1.00  0.00     0.026 C 
ATOM     33  C   UNL A   1      34.623  17.246  24.104  1.00  0.00    -0.033 C 
ATOM     34  C   UNL A   1      32.632  16.083  24.918  1.00  0.00    -0.033 C 
ATOM     35  H   UNL A   1      33.189  16.267  22.854  1.00  0.00     0.053 H 
ATOM     36  C   UNL A   1      35.080  16.061  24.942  1.00  0.00    -0.051 C 
ATOM     37  H   UNL A   1      34.651  18.152  24.672  1.00  0.00     0.029 H 
ATOM     38  H   UNL A   1      35.245  17.422  23.251  1.00  0.00     0.029 H 
ATOM     39  C   UNL A   1      33.846  15.630  25.728  1.00  0.00    -0.051 C 
ATOM     40  H   UNL A   1      32.079  15.236  24.570  1.00  0.00     0.029 H 
ATOM     41  H   UNL A   1      31.963  16.675  25.507  1.00  0.00     0.029 H 
ATOM     42  H   UNL A   1      35.866  16.354  25.607  1.00  0.00     0.027 H 
ATOM     43  H   UNL A   1      35.467  15.268  24.337  1.00  0.00     0.027 H 
ATOM     44  H   UNL A   1      33.841  16.095  26.691  1.00  0.00     0.027 H 
ATOM     45  H   UNL A   1      33.837  14.571  25.879  1.00  0.00     0.027 H 
ENDBRANCH  30  32
ENDBRANCH  27  30
ENDBRANCH  14  20
ENDBRANCH  11  14
ENDBRANCH   7  10
ENDBRANCH   4   7
ENDBRANCH   1   4
BRANCH   1  46
ATOM     46  C   UNL A   1      36.391  20.327  25.000  1.00  0.00    -0.052 C 
ATOM     47  H   UNL A   1      35.695  19.789  24.391  1.00  0.00     0.027 H 
ATOM     48  H   UNL A   1      36.206  20.229  26.050  1.00  0.00     0.027 H 
BRANCH  46  49
ATOM     49  C   UNL A   1      37.784  19.738  24.758  1.00  0.00    -0.036 C 
ATOM     50  H   UNL A   1      38.104  20.037  23.781  1.00  0.00     0.028 H 
ATOM     51  H   UNL A   1      37.683  18.679  24.870  1.00  0.00     0.028 H 
BRANCH  49  52
ATOM     52  C   UNL A   1      38.854  20.169  25.758  1.00  0.00     0.018 C 
ATOM     53  H   UNL A   1      38.403  20.266  26.724  1.00  0.00     0.049 H 
ATOM     54  H   UNL A   1      39.260  21.100  25.420  1.00  0.00     0.049 H 
BRANCH  52  55
ATOM     55  N   UNL A   1      39.948  19.217  25.847  1.00  0.00    -0.352 N 
ATOM     56  C   UNL A   1      41.279  19.436  26.081  1.00  0.00     0.251 C 
ATOM     57  H   UNL A   1      39.693  18.275  25.720  1.00  0.00     0.163 HD
ATOM     58  O   UNL A   1      42.083  18.507  25.962  1.00  0.00    -0.269 OA
BRANCH  56  59
ATOM     59  C   UNL A   1      41.772  20.779  26.451  1.00  0.00     0.039 A 
ATOM     60  C   UNL A   1      42.061  21.688  25.431  1.00  0.00    -0.049 A 
ATOM     61  C   UNL A   1      41.986  21.138  27.787  1.00  0.00    -0.049 A 
ATOM     62  C   UNL A   1      42.514  22.970  25.747  1.00  0.00    -0.053 A 
ATOM     63  H   UNL A   1      41.941  21.412  24.444  1.00  0.00     0.063 H 
ATOM     64  C   UNL A   1      42.385  22.436  28.105  1.00  0.00    -0.053 A 
ATOM     65  H   UNL A   1      41.848  20.442  28.537  1.00  0.00     0.063 H 
ATOM     66  C   UNL A   1      42.654  23.363  27.087  1.00  0.00    -0.014 A 
ATOM     67  H   UNL A   1      42.746  23.633  24.991  1.00  0.00     0.063 H 
ATOM     68  H   UNL A   1      42.483  22.716  29.094  1.00  0.00     0.063 H 
BRANCH  66  69
ATOM     69  C   UNL A   1      43.074  24.746  27.426  1.00  0.00     0.031 A 
ATOM     70  C   UNL A   1      44.489  25.195  27.198  1.00  0.00     0.074 A 
ATOM     71  C   UNL A   1      42.178  25.593  27.970  1.00  0.00     0.049 A 
ATOM     72  N   UNL A   1      45.036  26.360  27.439  1.00  0.00    -0.248 NA
ATOM     73  C   UNL A   1      45.419  24.199  26.643  1.00  0.00    -0.034 C 
ATOM     74  C   UNL A   1      40.789  25.260  28.291  1.00  0.00    -0.036 A 
ATOM     75  N   UNL A   1      42.304  26.904  28.354  1.00  0.00    -0.354 N 
ATOM     76  C   UNL A   1      46.369  26.238  27.067  1.00  0.00     0.074 A 
ATOM     77  C   UNL A   1      46.562  24.872  26.632  1.00  0.00    -0.034 C 
ATOM     78  H   UNL A   1      45.230  23.231  26.342  1.00  0.00     0.065 H 
ATOM     79  C   UNL A   1      40.186  26.343  28.806  1.00  0.00    -0.036 A 
ATOM     80  H   UNL A   1      40.345  24.341  28.145  1.00  0.00     0.065 H 
ATOM     81  C   UNL A   1      41.149  27.439  28.871  1.00  0.00     0.049 A 
ATOM     82  H   UNL A   1      43.141  27.415  28.267  1.00  0.00     0.167 HD
ATOM     83  C   UNL A   1      47.337  27.186  27.067  1.00  0.00     0.037 A 
ATOM     84  H   UNL A   1      47.470  24.472  26.347  1.00  0.00     0.065 H 
ATOM     85  H   UNL A   1      39.200  26.394  29.108  1.00  0.00     0.065 H 
ATOM     86  C   UNL A   1      40.895  28.674  29.342  1.00  0.00     0.037 A 
ATOM     87  C   UNL A   1      47.142  28.550  27.485  1.00  0.00     0.049 A 
ATOM     88  C   UNL A   1      41.982  29.713  29.308  1.00  0.00     0.074 A 
ATOM     89  C   UNL A   1      48.055  29.591  27.490  1.00  0.00    -0.036 A 
ATOM     90  N   UNL A   1      45.949  29.063  27.971  1.00  0.00    -0.354 N 
ATOM     91  N   UNL A   1      43.222  29.598  28.899  1.00  0.00    -0.248 NA
ATOM     92  C   UNL A   1      41.630  31.056  29.788  1.00  0.00    -0.034 C 
ATOM     93  C   UNL A   1      47.421  30.728  28.004  1.00  0.00    -0.036 A 
ATOM     94  H   UNL A   1      49.034  29.538  27.168  1.00  0.00     0.065 H 
ATOM     95  C   UNL A   1      46.105  30.404  28.285  1.00  0.00     0.049 A 
ATOM     96  H   UNL A   1      45.115  28.550  28.078  1.00  0.00     0.167 HD
ATOM     97  C   UNL A   1      43.792  30.854  29.056  1.00  0.00     0.074 A 
ATOM     98  C   UNL A   1      42.755  31.723  29.575  1.00  0.00    -0.034 C 
ATOM     99  H   UNL A   1      40.739  31.393  30.186  1.00  0.00     0.065 H 
ATOM    100  H   UNL A   1      47.861  31.650  28.149  1.00  0.00     0.065 H 
ATOM    101  C   UNL A   1      45.062  31.252  28.800  1.00  0.00     0.037 A 
ATOM    102  H   UNL A   1      42.877  32.731  29.756  1.00  0.00     0.065 H 
BRANCH  83 103
ATOM    103  C   UNL A   1      48.697  26.786  26.579  1.00  0.00     0.064 A 
ATOM    104  C   UNL A   1      49.061  26.936  25.232  1.00  0.00     0.173 A 
ATOM    105  C   UNL A   1      49.664  26.297  27.471  1.00  0.00     0.173 A 
ATOM    106  F   UNL A   1      48.168  27.388  24.339  1.00  0.00    -0.203 F 
ATOM    107  C   UNL A   1      50.337  26.595  24.793  1.00  0.00     0.198 A 
ATOM    108  C   UNL A   1      50.947  25.981  27.032  1.00  0.00     0.198 A 
ATOM    109  F   UNL A   1      49.368  26.140  28.769  1.00  0.00    -0.203 F 
ATOM    110  F   UNL A   1      50.651  26.715  23.495  1.00  0.00    -0.200 F 
ATOM    111  C   UNL A   1      51.281  26.126  25.693  1.00  0.00     0.200 A 
ATOM    112  F   UNL A   1      51.862  25.536  27.905  1.00  0.00    -0.200 F 
ATOM    113  F   UNL A   1      52.512  25.807  25.271  1.00  0.00    -0.200 F 
ENDBRANCH  83 103
BRANCH  86 114
ATOM    114  C   UNL A   1      39.546  29.007  29.861  1.00  0.00     0.064 A 
ATOM    115  C   UNL A   1      38.552  29.520  29.015  1.00  0.00     0.173 A 
ATOM    116  C   UNL A   1      39.223  28.829  31.215  1.00  0.00     0.173 A 
ATOM    117  F   UNL A   1      38.821  29.727  27.718  1.00  0.00    -0.203 F 
ATOM    118  C   UNL A   1      37.296  29.866  29.508  1.00  0.00     0.198 A 
ATOM    119  C   UNL A   1      37.958  29.151  31.701  1.00  0.00     0.198 A 
ATOM    120  F   UNL A   1      40.138  28.336  32.063  1.00  0.00    -0.203 F 
ATOM    121  F   UNL A   1      36.381  30.399  28.687  1.00  0.00    -0.200 F 
ATOM    122  C   UNL A   1      37.000  29.677  30.849  1.00  0.00     0.200 A 
ATOM    123  F   UNL A   1      37.672  28.956  32.995  1.00  0.00    -0.200 F 
ATOM    124  F   UNL A   1      35.791  30.010  31.323  1.00  0.00    -0.200 F 
ENDBRANCH  86 114
BRANCH 101 125
ATOM    125  C   UNL A   1      45.390  32.691  29.063  1.00  0.00     0.064 A 
ATOM    126  C   UNL A   1      45.191  33.677  28.085  1.00  0.00     0.173 A 
ATOM    127  C   UNL A   1      45.891  33.092  30.310  1.00  0.00     0.173 A 
ATOM    128  F   UNL A   1      44.728  33.340  26.872  1.00  0.00    -0.203 F 
ATOM    129  C   UNL A   1      45.509  35.009  28.338  1.00  0.00     0.198 A 
ATOM    130  C   UNL A   1      46.184  34.428  30.567  1.00  0.00     0.198 A 
ATOM    131  F   UNL A   1      46.095  32.187  31.280  1.00  0.00    -0.203 F 
ATOM    132  F   UNL A   1      45.356  35.926  27.372  1.00  0.00    -0.200 F 
ATOM    133  C   UNL A   1      46.001  35.383  29.579  1.00  0.00     0.200 A 
ATOM    134  F   UNL A   1      46.653  34.791  31.769  1.00  0.00    -0.200 F 
ATOM    135  F   UNL A   1      46.308  36.665  29.819  1.00  0.00    -0.200 F 
ENDBRANCH 101 125
ENDBRANCH  66  69
ENDBRANCH  56  59
ENDBRANCH  52  55
ENDBRANCH  49  52
ENDBRANCH  46  49
ENDBRANCH   1  46
TORSDOF 17
ENDMDL
MODEL 5
REMARK VINA RESULT:     -11.5      4.307      8.680
REMARK SMILES C[C@@H](C(=O)NCCCCCCNC(=O)c1ccc(-c2c3nc(c(-c4c(F)c(F)c(F)c(F)c4F)c4ccc([nH]4)c(-c4c(F)c(F)c(F)c(F)c4F)c4nc(c(-c5c(F)c(F)c(F)c(F)c5F)c5ccc2[nH]5)C=C4)C=C3)cc1)c1ccc(NC2CCCC2)cc1F
REMARK SMILES IDX 8 1 7 4 6 7 5 10 3 11 4 12 2 14 1 16 78 20 79 21 89 22 80 23
REMARK SMILES IDX 88 25 90 26 81 27 82 30 83 32 84 33 87 34 85 36 86 39 9 46
REMARK SMILES IDX 10 49 11 52 12 55 13 56 14 58 15 59 16 60 77 61 17 62 76 64
REMARK SMILES IDX 18 66 19 69 20 70 70 71 21 72 75 73 69 74 71 75 22 76 74 77
REMARK SMILES IDX 68 79 67 81 23 83 55 86 35 87 54 88 36 89 39 90 53 91 72 92
REMARK SMILES IDX 37 93 38 95 52 97 73 98 40 101 24 103 25 104 33 105 26 106
REMARK SMILES IDX 27 107 31 108 34 109 28 110 29 111 32 112 30 113 56 114
REMARK SMILES IDX 57 115 65 116 58 117 59 118 63 119 66 120 60 121 61 122
REMARK SMILES IDX 64 123 62 124 41 125 42 126 50 127 43 128 44 129 48 130
REMARK SMILES IDX 51 131 45 132 46 133 49 134 47 135
REMARK H PARENT 8 2 8 3 7 5 7 6 6 8 6 9 5 13 2 15 1 17 1 18 1 19 79 24 80 28
REMARK H PARENT 88 29 82 31 83 35 84 37 84 38 87 40 87 41 85 42 85 43 86 44
REMARK H PARENT 86 45 9 47 9 48 10 50 10 51 11 53 11 54 12 57 16 63 77 65
REMARK H PARENT 17 67 76 68 75 78 69 80 71 82 74 84 68 85 36 94 39 96 72 99
REMARK H PARENT 37 100 73 102
REMARK Flexibility Score: inf
ROOT
ATOM      1  C   UNL A   1      37.483  33.211  29.131  1.00  0.00    -0.052 C 
ATOM      2  H   UNL A   1      37.442  32.267  28.628  1.00  0.00     0.027 H 
ATOM      3  H   UNL A   1      38.380  33.760  28.934  1.00  0.00     0.027 H 
ENDROOT
BRANCH   1   4
ATOM      4  C   UNL A   1      37.470  32.944  30.643  1.00  0.00    -0.036 C 
ATOM      5  H   UNL A   1      36.963  32.017  30.814  1.00  0.00     0.028 H 
ATOM      6  H   UNL A   1      38.492  32.923  30.958  1.00  0.00     0.028 H 
BRANCH   4   7
ATOM      7  C   UNL A   1      36.778  34.029  31.472  1.00  0.00     0.017 C 
ATOM      8  H   UNL A   1      36.391  34.782  30.817  1.00  0.00     0.049 H 
ATOM      9  H   UNL A   1      35.981  33.586  32.030  1.00  0.00     0.049 H 
BRANCH   7  10
ATOM     10  N   UNL A   1      37.720  34.634  32.391  1.00  0.00    -0.356 N 
ATOM     11  C   UNL A   1      37.888  34.422  33.730  1.00  0.00     0.227 C 
ATOM     12  O   UNL A   1      38.506  35.287  34.353  1.00  0.00    -0.274 OA
ATOM     13  H   UNL A   1      38.331  35.295  31.992  1.00  0.00     0.163 HD
BRANCH  11  14
ATOM     14  C   UNL A   1      37.339  33.136  34.378  1.00  0.00     0.063 C 
ATOM     15  H   UNL A   1      36.434  32.830  33.893  1.00  0.00     0.045 H 
BRANCH  14  16
ATOM     16  C   UNL A   1      37.017  33.449  35.844  1.00  0.00    -0.049 C 
ATOM     17  H   UNL A   1      36.103  34.001  35.898  1.00  0.00     0.024 H 
ATOM     18  H   UNL A   1      37.810  34.031  36.267  1.00  0.00     0.024 H 
ATOM     19  H   UNL A   1      36.915  32.535  36.390  1.00  0.00     0.024 H 
ENDBRANCH  14  16
BRANCH  14  20
ATOM     20  C   UNL A   1      38.258  31.929  34.169  1.00  0.00     0.000 A 
ATOM     21  C   UNL A   1      39.577  31.957  34.643  1.00  0.00    -0.053 A 
ATOM     22  C   UNL A   1      37.873  30.773  33.487  1.00  0.00     0.129 A 
ATOM     23  C   UNL A   1      40.418  30.839  34.540  1.00  0.00    -0.038 A 
ATOM     24  H   UNL A   1      39.939  32.820  35.079  1.00  0.00     0.063 H 
ATOM     25  C   UNL A   1      38.723  29.670  33.360  1.00  0.00    -0.003 A 
ATOM     26  F   UNL A   1      36.660  30.673  32.925  1.00  0.00    -0.207 F 
ATOM     27  C   UNL A   1      40.007  29.666  33.910  1.00  0.00     0.037 A 
ATOM     28  H   UNL A   1      41.367  30.886  34.942  1.00  0.00     0.064 H 
ATOM     29  H   UNL A   1      38.393  28.838  32.847  1.00  0.00     0.068 H 
BRANCH  27  30
ATOM     30  N   UNL A   1      40.764  28.518  33.818  1.00  0.00    -0.382 N 
ATOM     31  H   UNL A   1      40.255  27.676  33.849  1.00  0.00     0.160 HD
BRANCH  30  32
ATOM     32  C   UNL A   1      42.202  28.367  33.682  1.00  0.00     0.026 C 
ATOM     33  C   UNL A   1      42.958  28.256  35.001  1.00  0.00    -0.033 C 
ATOM     34  C   UNL A   1      42.644  27.178  32.829  1.00  0.00    -0.033 C 
ATOM     35  H   UNL A   1      42.457  29.285  33.193  1.00  0.00     0.053 H 
ATOM     36  C   UNL A   1      44.286  27.643  34.585  1.00  0.00    -0.051 C 
ATOM     37  H   UNL A   1      42.439  27.622  35.689  1.00  0.00     0.029 H 
ATOM     38  H   UNL A   1      43.067  29.195  35.504  1.00  0.00     0.029 H 
ATOM     39  C   UNL A   1      43.941  26.672  33.461  1.00  0.00    -0.051 C 
ATOM     40  H   UNL A   1      42.817  27.489  31.820  1.00  0.00     0.029 H 
ATOM     41  H   UNL A   1      41.895  26.415  32.799  1.00  0.00     0.029 H 
ATOM     42  H   UNL A   1      44.732  27.122  35.407  1.00  0.00     0.027 H 
ATOM     43  H   UNL A   1      44.990  28.385  34.272  1.00  0.00     0.027 H 
ATOM     44  H   UNL A   1      43.800  25.687  33.853  1.00  0.00     0.027 H 
ATOM     45  H   UNL A   1      44.728  26.624  32.738  1.00  0.00     0.027 H 
ENDBRANCH  30  32
ENDBRANCH  27  30
ENDBRANCH  14  20
ENDBRANCH  11  14
ENDBRANCH   7  10
ENDBRANCH   4   7
ENDBRANCH   1   4
BRANCH   1  46
ATOM     46  C   UNL A   1      36.331  34.074  28.613  1.00  0.00    -0.052 C 
ATOM     47  H   UNL A   1      36.715  34.708  27.840  1.00  0.00     0.027 H 
ATOM     48  H   UNL A   1      35.958  34.611  29.460  1.00  0.00     0.027 H 
BRANCH  46  49
ATOM     49  C   UNL A   1      35.141  33.300  28.042  1.00  0.00    -0.036 C 
ATOM     50  H   UNL A   1      35.492  32.712  27.219  1.00  0.00     0.028 H 
ATOM     51  H   UNL A   1      34.414  34.034  27.764  1.00  0.00     0.028 H 
BRANCH  49  52
ATOM     52  C   UNL A   1      34.443  32.363  29.026  1.00  0.00     0.018 C 
ATOM     53  H   UNL A   1      33.654  32.900  29.511  1.00  0.00     0.049 H 
ATOM     54  H   UNL A   1      35.176  32.023  29.728  1.00  0.00     0.049 H 
BRANCH  52  55
ATOM     55  N   UNL A   1      33.878  31.194  28.376  1.00  0.00    -0.352 N 
ATOM     56  C   UNL A   1      34.497  30.053  27.939  1.00  0.00     0.251 C 
ATOM     57  H   UNL A   1      32.906  31.226  28.227  1.00  0.00     0.163 HD
ATOM     58  O   UNL A   1      33.869  29.235  27.263  1.00  0.00    -0.269 OA
BRANCH  56  59
ATOM     59  C   UNL A   1      35.921  29.801  28.244  1.00  0.00     0.039 A 
ATOM     60  C   UNL A   1      36.258  29.334  29.517  1.00  0.00    -0.049 A 
ATOM     61  C   UNL A   1      36.927  30.052  27.303  1.00  0.00    -0.049 A 
ATOM     62  C   UNL A   1      37.592  29.070  29.832  1.00  0.00    -0.053 A 
ATOM     63  H   UNL A   1      35.521  29.185  30.224  1.00  0.00     0.063 H 
ATOM     64  C   UNL A   1      38.253  29.736  27.600  1.00  0.00    -0.053 A 
ATOM     65  H   UNL A   1      36.687  30.470  26.391  1.00  0.00     0.063 H 
ATOM     66  C   UNL A   1      38.597  29.244  28.867  1.00  0.00    -0.014 A 
ATOM     67  H   UNL A   1      37.841  28.745  30.779  1.00  0.00     0.063 H 
ATOM     68  H   UNL A   1      38.985  29.865  26.882  1.00  0.00     0.063 H 
BRANCH  66  69
ATOM     69  C   UNL A   1      40.008  28.903  29.180  1.00  0.00     0.031 A 
ATOM     70  C   UNL A   1      40.870  29.851  29.964  1.00  0.00     0.074 A 
ATOM     71  C   UNL A   1      40.522  27.742  28.729  1.00  0.00     0.049 A 
ATOM     72  N   UNL A   1      42.123  29.725  30.324  1.00  0.00    -0.248 NA
ATOM     73  C   UNL A   1      40.251  31.119  30.382  1.00  0.00    -0.034 C 
ATOM     74  C   UNL A   1      39.803  26.762  27.912  1.00  0.00    -0.036 A 
ATOM     75  N   UNL A   1      41.769  27.192  28.888  1.00  0.00    -0.354 N 
ATOM     76  C   UNL A   1      42.440  30.891  31.008  1.00  0.00     0.074 A 
ATOM     77  C   UNL A   1      41.266  31.736  30.970  1.00  0.00    -0.034 C 
ATOM     78  H   UNL A   1      39.280  31.442  30.251  1.00  0.00     0.065 H 
ATOM     79  C   UNL A   1      40.615  25.724  27.657  1.00  0.00    -0.036 A 
ATOM     80  H   UNL A   1      38.830  26.855  27.585  1.00  0.00     0.065 H 
ATOM     81  C   UNL A   1      41.916  25.973  28.274  1.00  0.00     0.049 A 
ATOM     82  H   UNL A   1      42.490  27.629  29.396  1.00  0.00     0.167 HD
ATOM     83  C   UNL A   1      43.597  31.217  31.632  1.00  0.00     0.037 A 
ATOM     84  H   UNL A   1      41.223  32.693  31.353  1.00  0.00     0.065 H 
ATOM     85  H   UNL A   1      40.362  24.884  27.113  1.00  0.00     0.065 H 
ATOM     86  C   UNL A   1      42.978  25.148  28.216  1.00  0.00     0.037 A 
ATOM     87  C   UNL A   1      44.762  30.371  31.685  1.00  0.00     0.049 A 
ATOM     88  C   UNL A   1      44.242  25.525  28.937  1.00  0.00     0.074 A 
ATOM     89  C   UNL A   1      45.969  30.601  32.320  1.00  0.00    -0.036 A 
ATOM     90  N   UNL A   1      44.860  29.127  31.078  1.00  0.00    -0.354 N 
ATOM     91  N   UNL A   1      44.508  26.605  29.630  1.00  0.00    -0.248 NA
ATOM     92  C   UNL A   1      45.349  24.560  28.881  1.00  0.00    -0.034 C 
ATOM     93  C   UNL A   1      46.809  29.508  32.077  1.00  0.00    -0.036 A 
ATOM     94  H   UNL A   1      46.210  31.435  32.879  1.00  0.00     0.065 H 
ATOM     95  C   UNL A   1      46.111  28.582  31.319  1.00  0.00     0.049 A 
ATOM     96  H   UNL A   1      44.147  28.696  30.554  1.00  0.00     0.167 HD
ATOM     97  C   UNL A   1      45.803  26.444  30.104  1.00  0.00     0.074 A 
ATOM     98  C   UNL A   1      46.261  25.150  29.641  1.00  0.00    -0.034 C 
ATOM     99  H   UNL A   1      45.403  23.658  28.380  1.00  0.00     0.065 H 
ATOM    100  H   UNL A   1      47.783  29.410  32.404  1.00  0.00     0.065 H 
ATOM    101  C   UNL A   1      46.549  27.293  30.850  1.00  0.00     0.037 A 
ATOM    102  H   UNL A   1      47.178  24.740  29.873  1.00  0.00     0.065 H 
BRANCH  83 103
ATOM    103  C   UNL A   1      43.658  32.542  32.330  1.00  0.00     0.064 A 
ATOM    104  C   UNL A   1      43.807  33.738  31.612  1.00  0.00     0.173 A 
ATOM    105  C   UNL A   1      43.515  32.626  33.724  1.00  0.00     0.173 A 
ATOM    106  F   UNL A   1      43.959  33.709  30.279  1.00  0.00    -0.203 F 
ATOM    107  C   UNL A   1      43.827  34.968  32.264  1.00  0.00     0.198 A 
ATOM    108  C   UNL A   1      43.512  33.860  34.370  1.00  0.00     0.198 A 
ATOM    109  F   UNL A   1      43.365  31.512  34.456  1.00  0.00    -0.203 F 
ATOM    110  F   UNL A   1      44.005  36.094  31.560  1.00  0.00    -0.200 F 
ATOM    111  C   UNL A   1      43.672  35.028  33.640  1.00  0.00     0.200 A 
ATOM    112  F   UNL A   1      43.352  33.918  35.700  1.00  0.00    -0.200 F 
ATOM    113  F   UNL A   1      43.682  36.213  34.266  1.00  0.00    -0.200 F 
ENDBRANCH  83 103
BRANCH  86 114
ATOM    114  C   UNL A   1      42.883  23.869  27.470  1.00  0.00     0.064 A 
ATOM    115  C   UNL A   1      43.249  23.792  26.119  1.00  0.00     0.173 A 
ATOM    116  C   UNL A   1      42.415  22.700  28.087  1.00  0.00     0.173 A 
ATOM    117  F   UNL A   1      43.683  24.889  25.481  1.00  0.00    -0.203 F 
ATOM    118  C   UNL A   1      43.128  22.601  25.407  1.00  0.00     0.198 A 
ATOM    119  C   UNL A   1      42.318  21.502  27.382  1.00  0.00     0.198 A 
ATOM    120  F   UNL A   1      42.057  22.720  29.380  1.00  0.00    -0.203 F 
ATOM    121  F   UNL A   1      43.440  22.568  24.105  1.00  0.00    -0.200 F 
ATOM    122  C   UNL A   1      42.666  21.457  26.040  1.00  0.00     0.200 A 
ATOM    123  F   UNL A   1      41.884  20.396  28.000  1.00  0.00    -0.200 F 
ATOM    124  F   UNL A   1      42.550  20.311  25.355  1.00  0.00    -0.200 F 
ENDBRANCH  86 114
BRANCH 101 125
ATOM    125  C   UNL A   1      47.929  26.839  31.223  1.00  0.00     0.064 A 
ATOM    126  C   UNL A   1      49.046  27.183  30.448  1.00  0.00     0.173 A 
ATOM    127  C   UNL A   1      48.138  26.069  32.377  1.00  0.00     0.173 A 
ATOM    128  F   UNL A   1      48.893  27.905  29.328  1.00  0.00    -0.203 F 
ATOM    129  C   UNL A   1      50.321  26.748  30.799  1.00  0.00     0.198 A 
ATOM    130  C   UNL A   1      49.418  25.657  32.738  1.00  0.00     0.198 A 
ATOM    131  F   UNL A   1      47.102  25.718  33.153  1.00  0.00    -0.203 F 
ATOM    132  F   UNL A   1      51.367  27.047  30.017  1.00  0.00    -0.200 F 
ATOM    133  C   UNL A   1      50.506  25.989  31.946  1.00  0.00     0.200 A 
ATOM    134  F   UNL A   1      49.597  24.930  33.849  1.00  0.00    -0.200 F 
ATOM    135  F   UNL A   1      51.733  25.569  32.280  1.00  0.00    -0.200 F 
ENDBRANCH 101 125
ENDBRANCH  66  69
ENDBRANCH  56  59
ENDBRANCH  52  55
ENDBRANCH  49  52
ENDBRANCH  46  49
ENDBRANCH   1  46
TORSDOF 17
ENDMDL
MODEL 6
REMARK VINA RESULT:     -11.4      2.410      4.729
REMARK SMILES C[C@@H](C(=O)NCCCCCCNC(=O)c1ccc(-c2c3nc(c(-c4c(F)c(F)c(F)c(F)c4F)c4ccc([nH]4)c(-c4c(F)c(F)c(F)c(F)c4F)c4nc(c(-c5c(F)c(F)c(F)c(F)c5F)c5ccc2[nH]5)C=C4)C=C3)cc1)c1ccc(NC2CCCC2)cc1F
REMARK SMILES IDX 8 1 7 4 6 7 5 10 3 11 4 12 2 14 1 16 78 20 79 21 89 22 80 23
REMARK SMILES IDX 88 25 90 26 81 27 82 30 83 32 84 33 87 34 85 36 86 39 9 46
REMARK SMILES IDX 10 49 11 52 12 55 13 56 14 58 15 59 16 60 77 61 17 62 76 64
REMARK SMILES IDX 18 66 19 69 20 70 70 71 21 72 75 73 69 74 71 75 22 76 74 77
REMARK SMILES IDX 68 79 67 81 23 83 55 86 35 87 54 88 36 89 39 90 53 91 72 92
REMARK SMILES IDX 37 93 38 95 52 97 73 98 40 101 24 103 25 104 33 105 26 106
REMARK SMILES IDX 27 107 31 108 34 109 28 110 29 111 32 112 30 113 56 114
REMARK SMILES IDX 57 115 65 116 58 117 59 118 63 119 66 120 60 121 61 122
REMARK SMILES IDX 64 123 62 124 41 125 42 126 50 127 43 128 44 129 48 130
REMARK SMILES IDX 51 131 45 132 46 133 49 134 47 135
REMARK H PARENT 8 2 8 3 7 5 7 6 6 8 6 9 5 13 2 15 1 17 1 18 1 19 79 24 80 28
REMARK H PARENT 88 29 82 31 83 35 84 37 84 38 87 40 87 41 85 42 85 43 86 44
REMARK H PARENT 86 45 9 47 9 48 10 50 10 51 11 53 11 54 12 57 16 63 77 65
REMARK H PARENT 17 67 76 68 75 78 69 80 71 82 74 84 68 85 36 94 39 96 72 99
REMARK H PARENT 37 100 73 102
REMARK Flexibility Score: inf
ROOT
ATOM      1  C   UNL A   1      32.351  29.941  26.868  1.00  0.00    -0.052 C 
ATOM      2  H   UNL A   1      33.204  29.730  26.258  1.00  0.00     0.027 H 
ATOM      3  H   UNL A   1      32.586  30.495  27.753  1.00  0.00     0.027 H 
ENDROOT
BRANCH   1   4
ATOM      4  C   UNL A   1      31.767  28.604  27.345  1.00  0.00    -0.036 C 
ATOM      5  H   UNL A   1      32.221  28.356  28.282  1.00  0.00     0.028 H 
ATOM      6  H   UNL A   1      30.709  28.742  27.419  1.00  0.00     0.028 H 
BRANCH   4   7
ATOM      7  C   UNL A   1      31.990  27.435  26.380  1.00  0.00     0.017 C 
ATOM      8  H   UNL A   1      31.663  27.717  25.401  1.00  0.00     0.049 H 
ATOM      9  H   UNL A   1      33.032  27.192  26.362  1.00  0.00     0.049 H 
BRANCH   7  10
ATOM     10  N   UNL A   1      31.242  26.274  26.818  1.00  0.00    -0.356 N 
ATOM     11  C   UNL A   1      30.902  25.146  26.127  1.00  0.00     0.227 C 
ATOM     12  O   UNL A   1      29.987  24.467  26.595  1.00  0.00    -0.274 OA
ATOM     13  H   UNL A   1      30.933  26.302  27.753  1.00  0.00     0.163 HD
BRANCH  11  14
ATOM     14  C   UNL A   1      31.675  24.768  24.848  1.00  0.00     0.063 C 
ATOM     15  H   UNL A   1      32.530  25.401  24.727  1.00  0.00     0.045 H 
BRANCH  14  16
ATOM     16  C   UNL A   1      30.741  24.988  23.653  1.00  0.00    -0.049 C 
ATOM     17  H   UNL A   1      30.109  25.829  23.844  1.00  0.00     0.024 H 
ATOM     18  H   UNL A   1      30.138  24.115  23.506  1.00  0.00     0.024 H 
ATOM     19  H   UNL A   1      31.322  25.170  22.773  1.00  0.00     0.024 H 
ENDBRANCH  14  16
BRANCH  14  20
ATOM     20  C   UNL A   1      32.299  23.371  24.925  1.00  0.00     0.000 A 
ATOM     21  C   UNL A   1      31.920  22.379  24.010  1.00  0.00    -0.053 A 
ATOM     22  C   UNL A   1      33.228  22.992  25.896  1.00  0.00     0.129 A 
ATOM     23  C   UNL A   1      32.531  21.116  24.001  1.00  0.00    -0.038 A 
ATOM     24  H   UNL A   1      31.174  22.581  23.325  1.00  0.00     0.063 H 
ATOM     25  C   UNL A   1      33.814  21.723  25.904  1.00  0.00    -0.003 A 
ATOM     26  F   UNL A   1      33.600  23.839  26.866  1.00  0.00    -0.207 F 
ATOM     27  C   UNL A   1      33.502  20.763  24.938  1.00  0.00     0.037 A 
ATOM     28  H   UNL A   1      32.255  20.430  23.283  1.00  0.00     0.064 H 
ATOM     29  H   UNL A   1      34.497  21.489  26.642  1.00  0.00     0.068 H 
BRANCH  27  30
ATOM     30  N   UNL A   1      34.175  19.560  24.956  1.00  0.00    -0.382 N 
ATOM     31  H   UNL A   1      35.118  19.612  25.232  1.00  0.00     0.160 HD
BRANCH  30  32
ATOM     32  C   UNL A   1      33.697  18.229  24.626  1.00  0.00     0.026 C 
ATOM     33  C   UNL A   1      34.773  17.151  24.613  1.00  0.00    -0.033 C 
ATOM     34  C   UNL A   1      32.575  17.711  25.527  1.00  0.00    -0.033 C 
ATOM     35  H   UNL A   1      33.327  18.387  23.634  1.00  0.00     0.053 H 
ATOM     36  C   UNL A   1      33.971  15.864  24.730  1.00  0.00    -0.051 C 
ATOM     37  H   UNL A   1      35.441  17.265  25.442  1.00  0.00     0.029 H 
ATOM     38  H   UNL A   1      35.392  17.184  23.741  1.00  0.00     0.029 H 
ATOM     39  C   UNL A   1      32.804  16.205  25.650  1.00  0.00    -0.051 C 
ATOM     40  H   UNL A   1      31.621  17.909  25.085  1.00  0.00     0.029 H 
ATOM     41  H   UNL A   1      32.584  18.191  26.483  1.00  0.00     0.029 H 
ATOM     42  H   UNL A   1      34.570  15.086  25.155  1.00  0.00     0.027 H 
ATOM     43  H   UNL A   1      33.640  15.511  23.776  1.00  0.00     0.027 H 
ATOM     44  H   UNL A   1      33.043  15.949  26.660  1.00  0.00     0.027 H 
ATOM     45  H   UNL A   1      31.926  15.658  25.377  1.00  0.00     0.027 H 
ENDBRANCH  30  32
ENDBRANCH  27  30
ENDBRANCH  14  20
ENDBRANCH  11  14
ENDBRANCH   7  10
ENDBRANCH   4   7
ENDBRANCH   1   4
BRANCH   1  46
ATOM     46  C   UNL A   1      31.394  30.817  26.058  1.00  0.00    -0.052 C 
ATOM     47  H   UNL A   1      30.413  30.397  26.138  1.00  0.00     0.027 H 
ATOM     48  H   UNL A   1      31.774  30.827  25.058  1.00  0.00     0.027 H 
BRANCH  46  49
ATOM     49  C   UNL A   1      31.318  32.282  26.499  1.00  0.00    -0.036 C 
ATOM     50  H   UNL A   1      30.548  32.366  27.237  1.00  0.00     0.028 H 
ATOM     51  H   UNL A   1      31.126  32.849  25.613  1.00  0.00     0.028 H 
BRANCH  49  52
ATOM     52  C   UNL A   1      32.606  32.848  27.093  1.00  0.00     0.018 C 
ATOM     53  H   UNL A   1      33.354  32.878  26.328  1.00  0.00     0.049 H 
ATOM     54  H   UNL A   1      32.898  32.212  27.903  1.00  0.00     0.049 H 
BRANCH  52  55
ATOM     55  N   UNL A   1      32.430  34.188  27.626  1.00  0.00    -0.352 N 
ATOM     56  C   UNL A   1      33.087  34.813  28.652  1.00  0.00     0.251 C 
ATOM     57  H   UNL A   1      31.735  34.726  27.184  1.00  0.00     0.163 HD
ATOM     58  O   UNL A   1      32.684  35.904  29.063  1.00  0.00    -0.269 OA
BRANCH  56  59
ATOM     59  C   UNL A   1      34.261  34.184  29.294  1.00  0.00     0.039 A 
ATOM     60  C   UNL A   1      34.046  33.277  30.334  1.00  0.00    -0.049 A 
ATOM     61  C   UNL A   1      35.566  34.506  28.905  1.00  0.00    -0.049 A 
ATOM     62  C   UNL A   1      35.133  32.654  30.951  1.00  0.00    -0.053 A 
ATOM     63  H   UNL A   1      33.085  33.068  30.647  1.00  0.00     0.063 H 
ATOM     64  C   UNL A   1      36.649  33.842  29.484  1.00  0.00    -0.053 A 
ATOM     65  H   UNL A   1      35.728  35.233  28.192  1.00  0.00     0.063 H 
ATOM     66  C   UNL A   1      36.442  32.912  30.513  1.00  0.00    -0.014 A 
ATOM     67  H   UNL A   1      34.973  32.000  31.733  1.00  0.00     0.063 H 
ATOM     68  H   UNL A   1      37.607  34.037  29.153  1.00  0.00     0.063 H 
BRANCH  66  69
ATOM     69  C   UNL A   1      37.593  32.202  31.124  1.00  0.00     0.031 A 
ATOM     70  C   UNL A   1      38.058  32.548  32.511  1.00  0.00     0.074 A 
ATOM     71  C   UNL A   1      38.241  31.260  30.412  1.00  0.00     0.049 A 
ATOM     72  N   UNL A   1      39.048  32.040  33.202  1.00  0.00    -0.248 NA
ATOM     73  C   UNL A   1      37.329  33.619  33.206  1.00  0.00    -0.034 C 
ATOM     74  C   UNL A   1      37.920  30.872  29.038  1.00  0.00    -0.036 A 
ATOM     75  N   UNL A   1      39.307  30.461  30.744  1.00  0.00    -0.354 N 
ATOM     76  C   UNL A   1      39.060  32.727  34.408  1.00  0.00     0.074 A 
ATOM     77  C   UNL A   1      38.012  33.722  34.338  1.00  0.00    -0.034 C 
ATOM     78  H   UNL A   1      36.501  34.151  32.894  1.00  0.00     0.065 H 
ATOM     79  C   UNL A   1      38.759  29.898  28.649  1.00  0.00    -0.036 A 
ATOM     80  H   UNL A   1      37.171  31.282  28.460  1.00  0.00     0.065 H 
ATOM     81  C   UNL A   1      39.688  29.607  29.738  1.00  0.00     0.049 A 
ATOM     82  H   UNL A   1      39.755  30.496  31.619  1.00  0.00     0.167 HD
ATOM     83  C   UNL A   1      39.856  32.529  35.486  1.00  0.00     0.037 A 
ATOM     84  H   UNL A   1      37.820  34.421  35.073  1.00  0.00     0.065 H 
ATOM     85  H   UNL A   1      38.749  29.429  27.730  1.00  0.00     0.065 H 
ATOM     86  C   UNL A   1      40.673  28.691  29.699  1.00  0.00     0.037 A 
ATOM     87  C   UNL A   1      40.889  31.528  35.564  1.00  0.00     0.049 A 
ATOM     88  C   UNL A   1      41.527  28.477  30.919  1.00  0.00     0.074 A 
ATOM     89  C   UNL A   1      41.725  31.230  36.626  1.00  0.00    -0.036 A 
ATOM     90  N   UNL A   1      41.223  30.659  34.537  1.00  0.00    -0.354 N 
ATOM     91  N   UNL A   1      41.488  29.094  32.074  1.00  0.00    -0.248 NA
ATOM     92  C   UNL A   1      42.552  27.427  30.833  1.00  0.00    -0.034 C 
ATOM     93  C   UNL A   1      42.584  30.198  36.232  1.00  0.00    -0.036 A 
ATOM     94  H   UNL A   1      41.717  31.690  37.550  1.00  0.00     0.065 H 
ATOM     95  C   UNL A   1      42.258  29.829  34.937  1.00  0.00     0.049 A 
ATOM     96  H   UNL A   1      40.789  30.635  33.653  1.00  0.00     0.167 HD
ATOM     97  C   UNL A   1      42.469  28.499  32.856  1.00  0.00     0.074 A 
ATOM     98  C   UNL A   1      43.070  27.455  32.052  1.00  0.00    -0.034 C 
ATOM     99  H   UNL A   1      42.804  26.826  30.032  1.00  0.00     0.065 H 
ATOM    100  H   UNL A   1      43.334  29.783  36.807  1.00  0.00     0.065 H 
ATOM    101  C   UNL A   1      42.843  28.796  34.124  1.00  0.00     0.037 A 
ATOM    102  H   UNL A   1      43.806  26.815  32.386  1.00  0.00     0.065 H 
BRANCH  83 103
ATOM    103  C   UNL A   1      39.630  33.402  36.684  1.00  0.00     0.064 A 
ATOM    104  C   UNL A   1      38.736  33.029  37.699  1.00  0.00     0.173 A 
ATOM    105  C   UNL A   1      40.350  34.595  36.847  1.00  0.00     0.173 A 
ATOM    106  F   UNL A   1      38.016  31.903  37.583  1.00  0.00    -0.203 F 
ATOM    107  C   UNL A   1      38.557  33.828  38.825  1.00  0.00     0.198 A 
ATOM    108  C   UNL A   1      40.186  35.379  37.987  1.00  0.00     0.198 A 
ATOM    109  F   UNL A   1      41.220  34.994  35.908  1.00  0.00    -0.203 F 
ATOM    110  F   UNL A   1      37.672  33.468  39.765  1.00  0.00    -0.200 F 
ATOM    111  C   UNL A   1      39.287  34.997  38.972  1.00  0.00     0.200 A 
ATOM    112  F   UNL A   1      40.899  36.505  38.133  1.00  0.00    -0.200 F 
ATOM    113  F   UNL A   1      39.121  35.760  40.061  1.00  0.00    -0.200 F 
ENDBRANCH  83 103
BRANCH  86 114
ATOM    114  C   UNL A   1      40.889  27.886  28.472  1.00  0.00     0.064 A 
ATOM    115  C   UNL A   1      41.721  28.348  27.442  1.00  0.00     0.173 A 
ATOM    116  C   UNL A   1      40.261  26.644  28.296  1.00  0.00     0.173 A 
ATOM    117  F   UNL A   1      42.327  29.539  27.556  1.00  0.00    -0.203 F 
ATOM    118  C   UNL A   1      41.898  27.611  26.274  1.00  0.00     0.198 A 
ATOM    119  C   UNL A   1      40.458  25.895  27.139  1.00  0.00     0.198 A 
ATOM    120  F   UNL A   1      39.460  26.156  29.255  1.00  0.00    -0.203 F 
ATOM    121  F   UNL A   1      42.660  28.098  25.286  1.00  0.00    -0.200 F 
ATOM    122  C   UNL A   1      41.269  26.383  26.125  1.00  0.00     0.200 A 
ATOM    123  F   UNL A   1      39.859  24.705  27.004  1.00  0.00    -0.200 F 
ATOM    124  F   UNL A   1      41.439  25.674  25.001  1.00  0.00    -0.200 F 
ENDBRANCH  86 114
BRANCH 101 125
ATOM    125  C   UNL A   1      43.941  27.967  34.721  1.00  0.00     0.064 A 
ATOM    126  C   UNL A   1      45.284  28.363  34.636  1.00  0.00     0.173 A 
ATOM    127  C   UNL A   1      43.647  26.775  35.400  1.00  0.00     0.173 A 
ATOM    128  F   UNL A   1      45.616  29.486  33.983  1.00  0.00    -0.203 F 
ATOM    129  C   UNL A   1      46.296  27.580  35.185  1.00  0.00     0.198 A 
ATOM    130  C   UNL A   1      44.659  26.008  35.969  1.00  0.00     0.198 A 
ATOM    131  F   UNL A   1      42.377  26.356  35.511  1.00  0.00    -0.203 F 
ATOM    132  F   UNL A   1      47.576  27.953  35.050  1.00  0.00    -0.200 F 
ATOM    133  C   UNL A   1      45.982  26.406  35.855  1.00  0.00     0.200 A 
ATOM    134  F   UNL A   1      44.355  24.878  36.622  1.00  0.00    -0.200 F 
ATOM    135  F   UNL A   1      46.958  25.653  36.381  1.00  0.00    -0.200 F 
ENDBRANCH 101 125
ENDBRANCH  66  69
ENDBRANCH  56  59
ENDBRANCH  52  55
ENDBRANCH  49  52
ENDBRANCH  46  49
ENDBRANCH   1  46
TORSDOF 17
ENDMDL
MODEL 7
REMARK VINA RESULT:     -11.3      0.563      7.283
REMARK SMILES C[C@@H](C(=O)NCCCCCCNC(=O)c1ccc(-c2c3nc(c(-c4c(F)c(F)c(F)c(F)c4F)c4ccc([nH]4)c(-c4c(F)c(F)c(F)c(F)c4F)c4nc(c(-c5c(F)c(F)c(F)c(F)c5F)c5ccc2[nH]5)C=C4)C=C3)cc1)c1ccc(NC2CCCC2)cc1F
REMARK SMILES IDX 8 1 7 4 6 7 5 10 3 11 4 12 2 14 1 16 78 20 79 21 89 22 80 23
REMARK SMILES IDX 88 25 90 26 81 27 82 30 83 32 84 33 87 34 85 36 86 39 9 46
REMARK SMILES IDX 10 49 11 52 12 55 13 56 14 58 15 59 16 60 77 61 17 62 76 64
REMARK SMILES IDX 18 66 19 69 20 70 70 71 21 72 75 73 69 74 71 75 22 76 74 77
REMARK SMILES IDX 68 79 67 81 23 83 55 86 35 87 54 88 36 89 39 90 53 91 72 92
REMARK SMILES IDX 37 93 38 95 52 97 73 98 40 101 24 103 25 104 33 105 26 106
REMARK SMILES IDX 27 107 31 108 34 109 28 110 29 111 32 112 30 113 56 114
REMARK SMILES IDX 57 115 65 116 58 117 59 118 63 119 66 120 60 121 61 122
REMARK SMILES IDX 64 123 62 124 41 125 42 126 50 127 43 128 44 129 48 130
REMARK SMILES IDX 51 131 45 132 46 133 49 134 47 135
REMARK H PARENT 8 2 8 3 7 5 7 6 6 8 6 9 5 13 2 15 1 17 1 18 1 19 79 24 80 28
REMARK H PARENT 88 29 82 31 83 35 84 37 84 38 87 40 87 41 85 42 85 43 86 44
REMARK H PARENT 86 45 9 47 9 48 10 50 10 51 11 53 11 54 12 57 16 63 77 65
REMARK H PARENT 17 67 76 68 75 78 69 80 71 82 74 84 68 85 36 94 39 96 72 99
REMARK H PARENT 37 100 73 102
REMARK Flexibility Score: inf
ROOT
ATOM      1  C   UNL A   1      32.253  29.471  26.715  1.00  0.00    -0.052 C 
ATOM      2  H   UNL A   1      32.520  29.978  27.618  1.00  0.00     0.027 H 
ATOM      3  H   UNL A   1      31.610  28.630  26.872  1.00  0.00     0.027 H 
ENDROOT
BRANCH   1   4
ATOM      4  C   UNL A   1      33.537  28.914  26.086  1.00  0.00    -0.036 C 
ATOM      5  H   UNL A   1      33.583  29.246  25.070  1.00  0.00     0.028 H 
ATOM      6  H   UNL A   1      34.350  29.277  26.680  1.00  0.00     0.028 H 
BRANCH   4   7
ATOM      7  C   UNL A   1      33.636  27.385  26.096  1.00  0.00     0.017 C 
ATOM      8  H   UNL A   1      34.408  27.085  26.774  1.00  0.00     0.049 H 
ATOM      9  H   UNL A   1      32.698  26.978  26.407  1.00  0.00     0.049 H 
BRANCH   7  10
ATOM     10  N   UNL A   1      33.948  26.895  24.769  1.00  0.00    -0.356 N 
ATOM     11  C   UNL A   1      33.349  25.905  24.044  1.00  0.00     0.227 C 
ATOM     12  O   UNL A   1      33.994  25.442  23.102  1.00  0.00    -0.274 OA
ATOM     13  H   UNL A   1      34.704  27.342  24.323  1.00  0.00     0.163 HD
BRANCH  11  14
ATOM     14  C   UNL A   1      31.922  25.446  24.405  1.00  0.00     0.063 C 
ATOM     15  H   UNL A   1      31.788  25.446  25.467  1.00  0.00     0.045 H 
BRANCH  14  16
ATOM     16  C   UNL A   1      31.750  24.009  23.899  1.00  0.00    -0.049 C 
ATOM     17  H   UNL A   1      30.986  23.984  23.150  1.00  0.00     0.024 H 
ATOM     18  H   UNL A   1      31.471  23.374  24.714  1.00  0.00     0.024 H 
ATOM     19  H   UNL A   1      32.672  23.665  23.480  1.00  0.00     0.024 H 
ENDBRANCH  14  16
BRANCH  14  20
ATOM     20  C   UNL A   1      30.846  26.426  23.928  1.00  0.00     0.000 A 
ATOM     21  C   UNL A   1      31.157  27.406  22.976  1.00  0.00    -0.053 A 
ATOM     22  C   UNL A   1      29.537  26.433  24.415  1.00  0.00     0.129 A 
ATOM     23  C   UNL A   1      30.177  28.265  22.459  1.00  0.00    -0.038 A 
ATOM     24  H   UNL A   1      32.132  27.499  22.647  1.00  0.00     0.063 H 
ATOM     25  C   UNL A   1      28.568  27.310  23.918  1.00  0.00    -0.003 A 
ATOM     26  F   UNL A   1      29.155  25.589  25.384  1.00  0.00    -0.207 F 
ATOM     27  C   UNL A   1      28.857  28.228  22.906  1.00  0.00     0.037 A 
ATOM     28  H   UNL A   1      30.439  28.943  21.726  1.00  0.00     0.064 H 
ATOM     29  H   UNL A   1      27.613  27.277  24.310  1.00  0.00     0.068 H 
BRANCH  27  30
ATOM     30  N   UNL A   1      27.836  29.008  22.407  1.00  0.00    -0.382 N 
ATOM     31  H   UNL A   1      27.121  28.516  21.942  1.00  0.00     0.160 HD
BRANCH  30  32
ATOM     32  C   UNL A   1      27.662  30.449  22.464  1.00  0.00     0.026 C 
ATOM     33  C   UNL A   1      28.414  31.137  23.596  1.00  0.00    -0.033 C 
ATOM     34  C   UNL A   1      28.037  31.190  21.181  1.00  0.00    -0.033 C 
ATOM     35  H   UNL A   1      26.607  30.518  22.632  1.00  0.00     0.053 H 
ATOM     36  C   UNL A   1      28.459  32.589  23.146  1.00  0.00    -0.051 C 
ATOM     37  H   UNL A   1      29.401  30.736  23.701  1.00  0.00     0.029 H 
ATOM     38  H   UNL A   1      27.949  31.006  24.551  1.00  0.00     0.029 H 
ATOM     39  C   UNL A   1      28.618  32.531  21.631  1.00  0.00    -0.051 C 
ATOM     40  H   UNL A   1      27.171  31.344  20.573  1.00  0.00     0.029 H 
ATOM     41  H   UNL A   1      28.738  30.633  20.594  1.00  0.00     0.029 H 
ATOM     42  H   UNL A   1      29.290  33.094  23.592  1.00  0.00     0.027 H 
ATOM     43  H   UNL A   1      27.580  33.126  23.436  1.00  0.00     0.027 H 
ATOM     44  H   UNL A   1      29.653  32.592  21.365  1.00  0.00     0.027 H 
ATOM     45  H   UNL A   1      28.114  33.347  21.159  1.00  0.00     0.027 H 
ENDBRANCH  30  32
ENDBRANCH  27  30
ENDBRANCH  14  20
ENDBRANCH  11  14
ENDBRANCH   7  10
ENDBRANCH   4   7
ENDBRANCH   1   4
BRANCH   1  46
ATOM     46  C   UNL A   1      31.469  30.448  25.836  1.00  0.00    -0.052 C 
ATOM     47  H   UNL A   1      30.491  30.042  25.681  1.00  0.00     0.027 H 
ATOM     48  H   UNL A   1      32.035  30.558  24.935  1.00  0.00     0.027 H 
BRANCH  46  49
ATOM     49  C   UNL A   1      31.309  31.858  26.412  1.00  0.00    -0.036 C 
ATOM     50  H   UNL A   1      30.523  31.832  27.137  1.00  0.00     0.028 H 
ATOM     51  H   UNL A   1      31.102  32.497  25.579  1.00  0.00     0.028 H 
BRANCH  49  52
ATOM     52  C   UNL A   1      32.555  32.430  27.086  1.00  0.00     0.018 C 
ATOM     53  H   UNL A   1      33.378  32.355  26.406  1.00  0.00     0.049 H 
ATOM     54  H   UNL A   1      32.730  31.866  27.978  1.00  0.00     0.049 H 
BRANCH  52  55
ATOM     55  N   UNL A   1      32.391  33.821  27.468  1.00  0.00    -0.352 N 
ATOM     56  C   UNL A   1      33.055  34.550  28.418  1.00  0.00     0.251 C 
ATOM     57  H   UNL A   1      31.699  34.314  26.969  1.00  0.00     0.163 HD
ATOM     58  O   UNL A   1      32.662  35.683  28.707  1.00  0.00    -0.269 OA
BRANCH  56  59
ATOM     59  C   UNL A   1      34.225  33.986  29.124  1.00  0.00     0.039 A 
ATOM     60  C   UNL A   1      34.008  33.005  30.095  1.00  0.00    -0.049 A 
ATOM     61  C   UNL A   1      35.523  34.438  28.865  1.00  0.00    -0.049 A 
ATOM     62  C   UNL A   1      35.093  32.441  30.769  1.00  0.00    -0.053 A 
ATOM     63  H   UNL A   1      33.048  32.698  30.314  1.00  0.00     0.063 H 
ATOM     64  C   UNL A   1      36.610  33.836  29.499  1.00  0.00    -0.053 A 
ATOM     65  H   UNL A   1      35.677  35.217  28.206  1.00  0.00     0.063 H 
ATOM     66  C   UNL A   1      36.405  32.833  30.457  1.00  0.00    -0.014 A 
ATOM     67  H   UNL A   1      34.930  31.731  31.500  1.00  0.00     0.063 H 
ATOM     68  H   UNL A   1      37.572  34.129  29.261  1.00  0.00     0.063 H 
BRANCH  66  69
ATOM     69  C   UNL A   1      37.562  32.188  31.127  1.00  0.00     0.031 A 
ATOM     70  C   UNL A   1      38.339  31.103  30.438  1.00  0.00     0.074 A 
ATOM     71  C   UNL A   1      37.894  32.563  32.378  1.00  0.00     0.049 A 
ATOM     72  N   UNL A   1      39.372  30.423  30.870  1.00  0.00    -0.248 NA
ATOM     73  C   UNL A   1      37.887  30.716  29.092  1.00  0.00    -0.034 C 
ATOM     74  C   UNL A   1      37.184  33.566  33.174  1.00  0.00    -0.036 A 
ATOM     75  N   UNL A   1      38.909  32.143  33.200  1.00  0.00    -0.354 N 
ATOM     76  C   UNL A   1      39.691  29.531  29.854  1.00  0.00     0.074 A 
ATOM     77  C   UNL A   1      38.713  29.720  28.804  1.00  0.00    -0.034 C 
ATOM     78  H   UNL A   1      37.126  31.116  28.522  1.00  0.00     0.065 H 
ATOM     79  C   UNL A   1      37.795  33.696  34.362  1.00  0.00    -0.036 A 
ATOM     80  H   UNL A   1      36.348  34.089  32.871  1.00  0.00     0.065 H 
ATOM     81  C   UNL A   1      38.926  32.773  34.420  1.00  0.00     0.049 A 
ATOM     82  H   UNL A   1      39.564  31.455  32.940  1.00  0.00     0.167 HD
ATOM     83  C   UNL A   1      40.720  28.652  29.793  1.00  0.00     0.037 A 
ATOM     84  H   UNL A   1      38.666  29.155  27.942  1.00  0.00     0.065 H 
ATOM     85  H   UNL A   1      37.513  34.344  35.114  1.00  0.00     0.065 H 
ATOM     86  C   UNL A   1      39.760  32.626  35.466  1.00  0.00     0.037 A 
ATOM     87  C   UNL A   1      41.703  28.474  30.831  1.00  0.00     0.049 A 
ATOM     88  C   UNL A   1      40.907  31.659  35.361  1.00  0.00     0.074 A 
ATOM     89  C   UNL A   1      42.800  27.631  30.846  1.00  0.00    -0.036 A 
ATOM     90  N   UNL A   1      41.706  29.155  32.039  1.00  0.00    -0.354 N 
ATOM     91  N   UNL A   1      41.231  30.865  34.370  1.00  0.00    -0.248 NA
ATOM     92  C   UNL A   1      41.814  31.580  36.515  1.00  0.00    -0.034 C 
ATOM     93  C   UNL A   1      43.454  27.783  32.074  1.00  0.00    -0.036 A 
ATOM     94  H   UNL A   1      43.089  27.000  30.082  1.00  0.00     0.065 H 
ATOM     95  C   UNL A   1      42.783  28.747  32.809  1.00  0.00     0.049 A 
ATOM     96  H   UNL A   1      41.041  29.830  32.309  1.00  0.00     0.167 HD
ATOM     97  C   UNL A   1      42.384  30.205  34.773  1.00  0.00     0.074 A 
ATOM     98  C   UNL A   1      42.718  30.711  36.089  1.00  0.00    -0.034 C 
ATOM     99  H   UNL A   1      41.760  32.073  37.421  1.00  0.00     0.065 H 
ATOM    100  H   UNL A   1      44.292  27.265  32.381  1.00  0.00     0.065 H 
ATOM    101  C   UNL A   1      43.099  29.261  34.116  1.00  0.00     0.037 A 
ATOM    102  H   UNL A   1      43.553  30.429  36.626  1.00  0.00     0.065 H 
BRANCH  83 103
ATOM    103  C   UNL A   1      40.851  27.824  28.550  1.00  0.00     0.064 A 
ATOM    104  C   UNL A   1      40.185  26.597  28.419  1.00  0.00     0.173 A 
ATOM    105  C   UNL A   1      41.604  28.284  27.459  1.00  0.00     0.173 A 
ATOM    106  F   UNL A   1      39.462  26.109  29.439  1.00  0.00    -0.203 F 
ATOM    107  C   UNL A   1      40.283  25.850  27.248  1.00  0.00     0.198 A 
ATOM    108  C   UNL A   1      41.679  27.546  26.280  1.00  0.00     0.198 A 
ATOM    109  F   UNL A   1      42.255  29.454  27.531  1.00  0.00    -0.203 F 
ATOM    110  F   UNL A   1      39.666  24.664  27.159  1.00  0.00    -0.200 F 
ATOM    111  C   UNL A   1      41.023  26.328  26.178  1.00  0.00     0.200 A 
ATOM    112  F   UNL A   1      42.387  28.013  25.242  1.00  0.00    -0.200 F 
ATOM    113  F   UNL A   1      41.109  25.614  25.047  1.00  0.00    -0.200 F 
ENDBRANCH  83 103
BRANCH  86 114
ATOM    114  C   UNL A   1      39.559  33.433  36.694  1.00  0.00     0.064 A 
ATOM    115  C   UNL A   1      40.229  34.652  36.876  1.00  0.00     0.173 A 
ATOM    116  C   UNL A   1      38.703  33.000  37.717  1.00  0.00     0.173 A 
ATOM    117  F   UNL A   1      41.074  35.096  35.934  1.00  0.00    -0.203 F 
ATOM    118  C   UNL A   1      40.069  35.394  38.044  1.00  0.00     0.198 A 
ATOM    119  C   UNL A   1      38.523  33.755  38.873  1.00  0.00     0.198 A 
ATOM    120  F   UNL A   1      38.035  31.844  37.587  1.00  0.00    -0.203 F 
ATOM    121  F   UNL A   1      40.757  36.530  38.211  1.00  0.00    -0.200 F 
ATOM    122  C   UNL A   1      39.213  34.947  39.039  1.00  0.00     0.200 A 
ATOM    123  F   UNL A   1      37.686  33.327  39.827  1.00  0.00    -0.200 F 
ATOM    124  F   UNL A   1      39.058  35.661  40.162  1.00  0.00    -0.200 F 
ENDBRANCH  86 114
BRANCH 101 125
ATOM    125  C   UNL A   1      44.320  28.728  34.805  1.00  0.00     0.064 A 
ATOM    126  C   UNL A   1      44.258  27.597  35.632  1.00  0.00     0.173 A 
ATOM    127  C   UNL A   1      45.567  29.344  34.623  1.00  0.00     0.173 A 
ATOM    128  F   UNL A   1      43.085  26.984  35.849  1.00  0.00    -0.203 F 
ATOM    129  C   UNL A   1      45.396  27.118  36.275  1.00  0.00     0.198 A 
ATOM    130  C   UNL A   1      46.708  28.847  35.247  1.00  0.00     0.198 A 
ATOM    131  F   UNL A   1      45.679  30.426  33.838  1.00  0.00    -0.203 F 
ATOM    132  F   UNL A   1      45.304  26.065  37.099  1.00  0.00    -0.200 F 
ATOM    133  C   UNL A   1      46.620  27.741  36.079  1.00  0.00     0.200 A 
ATOM    134  F   UNL A   1      47.891  29.444  35.052  1.00  0.00    -0.200 F 
ATOM    135  F   UNL A   1      47.714  27.279  36.700  1.00  0.00    -0.200 F 
ENDBRANCH 101 125
ENDBRANCH  66  69
ENDBRANCH  56  59
ENDBRANCH  52  55
ENDBRANCH  49  52
ENDBRANCH  46  49
ENDBRANCH   1  46
TORSDOF 17
ENDMDL
MODEL 8
REMARK VINA RESULT:     -11.3      2.140      4.251
REMARK SMILES C[C@@H](C(=O)NCCCCCCNC(=O)c1ccc(-c2c3nc(c(-c4c(F)c(F)c(F)c(F)c4F)c4ccc([nH]4)c(-c4c(F)c(F)c(F)c(F)c4F)c4nc(c(-c5c(F)c(F)c(F)c(F)c5F)c5ccc2[nH]5)C=C4)C=C3)cc1)c1ccc(NC2CCCC2)cc1F
REMARK SMILES IDX 8 1 7 4 6 7 5 10 3 11 4 12 2 14 1 16 78 20 79 21 89 22 80 23
REMARK SMILES IDX 88 25 90 26 81 27 82 30 83 32 84 33 87 34 85 36 86 39 9 46
REMARK SMILES IDX 10 49 11 52 12 55 13 56 14 58 15 59 16 60 77 61 17 62 76 64
REMARK SMILES IDX 18 66 19 69 20 70 70 71 21 72 75 73 69 74 71 75 22 76 74 77
REMARK SMILES IDX 68 79 67 81 23 83 55 86 35 87 54 88 36 89 39 90 53 91 72 92
REMARK SMILES IDX 37 93 38 95 52 97 73 98 40 101 24 103 25 104 33 105 26 106
REMARK SMILES IDX 27 107 31 108 34 109 28 110 29 111 32 112 30 113 56 114
REMARK SMILES IDX 57 115 65 116 58 117 59 118 63 119 66 120 60 121 61 122
REMARK SMILES IDX 64 123 62 124 41 125 42 126 50 127 43 128 44 129 48 130
REMARK SMILES IDX 51 131 45 132 46 133 49 134 47 135
REMARK H PARENT 8 2 8 3 7 5 7 6 6 8 6 9 5 13 2 15 1 17 1 18 1 19 79 24 80 28
REMARK H PARENT 88 29 82 31 83 35 84 37 84 38 87 40 87 41 85 42 85 43 86 44
REMARK H PARENT 86 45 9 47 9 48 10 50 10 51 11 53 11 54 12 57 16 63 77 65
REMARK H PARENT 17 67 76 68 75 78 69 80 71 82 74 84 68 85 36 94 39 96 72 99
REMARK H PARENT 37 100 73 102
REMARK Flexibility Score: inf
ROOT
ATOM      1  C   UNL A   1      32.352  29.930  26.930  1.00  0.00    -0.052 C 
ATOM      2  H   UNL A   1      33.273  29.816  26.397  1.00  0.00     0.027 H 
ATOM      3  H   UNL A   1      32.463  30.423  27.873  1.00  0.00     0.027 H 
ENDROOT
BRANCH   1   4
ATOM      4  C   UNL A   1      31.809  28.529  27.243  1.00  0.00    -0.036 C 
ATOM      5  H   UNL A   1      31.864  28.378  28.301  1.00  0.00     0.028 H 
ATOM      6  H   UNL A   1      30.807  28.499  26.870  1.00  0.00     0.028 H 
BRANCH   4   7
ATOM      7  C   UNL A   1      32.566  27.388  26.556  1.00  0.00     0.017 C 
ATOM      8  H   UNL A   1      33.322  27.798  25.919  1.00  0.00     0.049 H 
ATOM      9  H   UNL A   1      33.015  26.768  27.303  1.00  0.00     0.049 H 
BRANCH   7  10
ATOM     10  N   UNL A   1      31.655  26.588  25.763  1.00  0.00    -0.356 N 
ATOM     11  C   UNL A   1      31.899  25.840  24.647  1.00  0.00     0.227 C 
ATOM     12  O   UNL A   1      30.921  25.535  23.962  1.00  0.00    -0.274 OA
ATOM     13  H   UNL A   1      30.721  26.582  26.076  1.00  0.00     0.163 HD
BRANCH  11  14
ATOM     14  C   UNL A   1      33.339  25.399  24.318  1.00  0.00     0.063 C 
ATOM     15  H   UNL A   1      34.040  25.925  24.933  1.00  0.00     0.045 H 
BRANCH  14  16
ATOM     16  C   UNL A   1      33.617  25.759  22.854  1.00  0.00    -0.049 C 
ATOM     17  H   UNL A   1      33.581  26.821  22.735  1.00  0.00     0.024 H 
ATOM     18  H   UNL A   1      32.878  25.304  22.228  1.00  0.00     0.024 H 
ATOM     19  H   UNL A   1      34.588  25.401  22.577  1.00  0.00     0.024 H 
ENDBRANCH  14  16
BRANCH  14  20
ATOM     20  C   UNL A   1      33.605  23.935  24.679  1.00  0.00     0.000 A 
ATOM     21  C   UNL A   1      32.763  23.265  25.579  1.00  0.00    -0.053 A 
ATOM     22  C   UNL A   1      34.685  23.201  24.183  1.00  0.00     0.129 A 
ATOM     23  C   UNL A   1      32.931  21.903  25.867  1.00  0.00    -0.038 A 
ATOM     24  H   UNL A   1      32.002  23.787  26.040  1.00  0.00     0.063 H 
ATOM     25  C   UNL A   1      34.867  21.850  24.494  1.00  0.00    -0.003 A 
ATOM     26  F   UNL A   1      35.595  23.767  23.378  1.00  0.00    -0.207 F 
ATOM     27  C   UNL A   1      33.977  21.160  25.321  1.00  0.00     0.037 A 
ATOM     28  H   UNL A   1      32.263  21.438  26.500  1.00  0.00     0.064 H 
ATOM     29  H   UNL A   1      35.680  21.349  24.103  1.00  0.00     0.068 H 
BRANCH  27  30
ATOM     30  N   UNL A   1      34.170  19.810  25.524  1.00  0.00    -0.382 N 
ATOM     31  H   UNL A   1      34.803  19.580  26.242  1.00  0.00     0.160 HD
BRANCH  30  32
ATOM     32  C   UNL A   1      33.579  18.678  24.833  1.00  0.00     0.026 C 
ATOM     33  C   UNL A   1      32.723  19.045  23.627  1.00  0.00    -0.033 C 
ATOM     34  C   UNL A   1      34.581  17.629  24.350  1.00  0.00    -0.033 C 
ATOM     35  H   UNL A   1      32.963  18.268  25.606  1.00  0.00     0.053 H 
ATOM     36  C   UNL A   1      32.650  17.740  22.848  1.00  0.00    -0.051 C 
ATOM     37  H   UNL A   1      33.187  19.814  23.045  1.00  0.00     0.029 H 
ATOM     38  H   UNL A   1      31.761  19.429  23.895  1.00  0.00     0.029 H 
ATOM     39  C   UNL A   1      34.015  17.087  23.037  1.00  0.00    -0.051 C 
ATOM     40  H   UNL A   1      34.672  16.843  25.070  1.00  0.00     0.029 H 
ATOM     41  H   UNL A   1      35.556  18.048  24.216  1.00  0.00     0.029 H 
ATOM     42  H   UNL A   1      32.466  17.932  21.812  1.00  0.00     0.027 H 
ATOM     43  H   UNL A   1      31.854  17.113  23.192  1.00  0.00     0.027 H 
ATOM     44  H   UNL A   1      34.662  17.341  22.224  1.00  0.00     0.027 H 
ATOM     45  H   UNL A   1      33.931  16.021  23.064  1.00  0.00     0.027 H 
ENDBRANCH  30  32
ENDBRANCH  27  30
ENDBRANCH  14  20
ENDBRANCH  11  14
ENDBRANCH   7  10
ENDBRANCH   4   7
ENDBRANCH   1   4
BRANCH   1  46
ATOM     46  C   UNL A   1      31.426  30.814  26.092  1.00  0.00    -0.052 C 
ATOM     47  H   UNL A   1      30.447  30.383  26.114  1.00  0.00     0.027 H 
ATOM     48  H   UNL A   1      31.855  30.851  25.113  1.00  0.00     0.027 H 
BRANCH  46  49
ATOM     49  C   UNL A   1      31.312  32.268  26.561  1.00  0.00    -0.036 C 
ATOM     50  H   UNL A   1      30.579  32.308  27.339  1.00  0.00     0.028 H 
ATOM     51  H   UNL A   1      31.051  32.840  25.696  1.00  0.00     0.028 H 
BRANCH  49  52
ATOM     52  C   UNL A   1      32.604  32.880  27.099  1.00  0.00     0.018 C 
ATOM     53  H   UNL A   1      33.317  32.932  26.302  1.00  0.00     0.049 H 
ATOM     54  H   UNL A   1      32.952  32.257  27.896  1.00  0.00     0.049 H 
BRANCH  52  55
ATOM     55  N   UNL A   1      32.406  34.215  27.635  1.00  0.00    -0.352 N 
ATOM     56  C   UNL A   1      33.056  34.850  28.659  1.00  0.00     0.251 C 
ATOM     57  H   UNL A   1      31.699  34.741  27.197  1.00  0.00     0.163 HD
ATOM     58  O   UNL A   1      32.635  35.933  29.075  1.00  0.00    -0.269 OA
BRANCH  56  59
ATOM     59  C   UNL A   1      34.244  34.242  29.294  1.00  0.00     0.039 A 
ATOM     60  C   UNL A   1      34.053  33.364  30.364  1.00  0.00    -0.049 A 
ATOM     61  C   UNL A   1      35.541  34.556  28.871  1.00  0.00    -0.049 A 
ATOM     62  C   UNL A   1      35.154  32.760  30.975  1.00  0.00    -0.053 A 
ATOM     63  H   UNL A   1      33.099  33.161  30.702  1.00  0.00     0.063 H 
ATOM     64  C   UNL A   1      36.636  33.911  29.446  1.00  0.00    -0.053 A 
ATOM     65  H   UNL A   1      35.686  35.264  28.135  1.00  0.00     0.063 H 
ATOM     66  C   UNL A   1      36.452  33.009  30.504  1.00  0.00    -0.014 A 
ATOM     67  H   UNL A   1      35.012  32.128  31.778  1.00  0.00     0.063 H 
ATOM     68  H   UNL A   1      37.588  34.099  29.090  1.00  0.00     0.063 H 
BRANCH  66  69
ATOM     69  C   UNL A   1      37.618  32.319  31.112  1.00  0.00     0.031 A 
ATOM     70  C   UNL A   1      38.104  32.698  32.482  1.00  0.00     0.074 A 
ATOM     71  C   UNL A   1      38.260  31.365  30.409  1.00  0.00     0.049 A 
ATOM     72  N   UNL A   1      39.108  32.211  33.167  1.00  0.00    -0.248 NA
ATOM     73  C   UNL A   1      37.380  33.780  33.166  1.00  0.00    -0.034 C 
ATOM     74  C   UNL A   1      37.918  30.945  29.049  1.00  0.00    -0.036 A 
ATOM     75  N   UNL A   1      39.335  30.580  30.740  1.00  0.00    -0.354 N 
ATOM     76  C   UNL A   1      39.136  32.924  34.358  1.00  0.00     0.074 A 
ATOM     77  C   UNL A   1      38.081  33.912  34.283  1.00  0.00    -0.034 C 
ATOM     78  H   UNL A   1      36.544  34.301  32.857  1.00  0.00     0.065 H 
ATOM     79  C   UNL A   1      38.756  29.968  28.668  1.00  0.00    -0.036 A 
ATOM     80  H   UNL A   1      37.157  31.338  28.475  1.00  0.00     0.065 H 
ATOM     81  C   UNL A   1      39.705  29.706  29.747  1.00  0.00     0.049 A 
ATOM     82  H   UNL A   1      39.798  30.636  31.607  1.00  0.00     0.167 HD
ATOM     83  C   UNL A   1      39.951  32.754  35.427  1.00  0.00     0.037 A 
ATOM     84  H   UNL A   1      37.897  34.625  35.006  1.00  0.00     0.065 H 
ATOM     85  H   UNL A   1      38.734  29.479  27.759  1.00  0.00     0.065 H 
ATOM     86  C   UNL A   1      40.694  28.794  29.712  1.00  0.00     0.037 A 
ATOM     87  C   UNL A   1      40.991  31.761  35.509  1.00  0.00     0.049 A 
ATOM     88  C   UNL A   1      41.570  28.612  30.921  1.00  0.00     0.074 A 
ATOM     89  C   UNL A   1      41.846  31.491  36.563  1.00  0.00    -0.036 A 
ATOM     90  N   UNL A   1      41.313  30.871  34.495  1.00  0.00    -0.354 N 
ATOM     91  N   UNL A   1      41.547  29.254  32.063  1.00  0.00    -0.248 NA
ATOM     92  C   UNL A   1      42.600  27.566  30.841  1.00  0.00    -0.034 C 
ATOM     93  C   UNL A   1      42.705  30.455  36.177  1.00  0.00    -0.036 A 
ATOM     94  H   UNL A   1      41.851  31.971  37.477  1.00  0.00     0.065 H 
ATOM     95  C   UNL A   1      42.359  30.056  34.897  1.00  0.00     0.049 A 
ATOM     96  H   UNL A   1      40.865  30.825  33.620  1.00  0.00     0.167 HD
ATOM     97  C   UNL A   1      42.543  28.682  32.842  1.00  0.00     0.074 A 
ATOM     98  C   UNL A   1      43.137  27.623  32.051  1.00  0.00    -0.034 C 
ATOM     99  H   UNL A   1      42.841  26.949  30.049  1.00  0.00     0.065 H 
ATOM    100  H   UNL A   1      43.466  30.057  36.749  1.00  0.00     0.065 H 
ATOM    101  C   UNL A   1      42.937  29.008  34.097  1.00  0.00     0.037 A 
ATOM    102  H   UNL A   1      43.883  26.995  32.387  1.00  0.00     0.065 H 
BRANCH  83 103
ATOM    103  C   UNL A   1      39.740  33.652  36.609  1.00  0.00     0.064 A 
ATOM    104  C   UNL A   1      40.349  34.913  36.684  1.00  0.00     0.173 A 
ATOM    105  C   UNL A   1      38.880  33.273  37.652  1.00  0.00     0.173 A 
ATOM    106  F   UNL A   1      41.187  35.315  35.718  1.00  0.00    -0.203 F 
ATOM    107  C   UNL A   1      40.120  35.755  37.769  1.00  0.00     0.198 A 
ATOM    108  C   UNL A   1      38.635  34.129  38.723  1.00  0.00     0.198 A 
ATOM    109  F   UNL A   1      38.269  32.079  37.625  1.00  0.00    -0.203 F 
ATOM    110  F   UNL A   1      40.740  36.942  37.835  1.00  0.00    -0.200 F 
ATOM    111  C   UNL A   1      39.258  35.366  38.782  1.00  0.00     0.200 A 
ATOM    112  F   UNL A   1      37.794  33.756  39.698  1.00  0.00    -0.200 F 
ATOM    113  F   UNL A   1      39.030  36.182  39.821  1.00  0.00    -0.200 F 
ENDBRANCH  83 103
BRANCH  86 114
ATOM    114  C   UNL A   1      40.895  27.964  28.499  1.00  0.00     0.064 A 
ATOM    115  C   UNL A   1      41.705  28.410  27.445  1.00  0.00     0.173 A 
ATOM    116  C   UNL A   1      40.273  26.714  28.362  1.00  0.00     0.173 A 
ATOM    117  F   UNL A   1      42.303  29.607  27.521  1.00  0.00    -0.203 F 
ATOM    118  C   UNL A   1      41.866  27.648  26.290  1.00  0.00     0.198 A 
ATOM    119  C   UNL A   1      40.456  25.941  27.218  1.00  0.00     0.198 A 
ATOM    120  F   UNL A   1      39.493  26.242  29.346  1.00  0.00    -0.203 F 
ATOM    121  F   UNL A   1      42.607  28.118  25.278  1.00  0.00    -0.200 F 
ATOM    122  C   UNL A   1      41.244  26.413  26.180  1.00  0.00     0.200 A 
ATOM    123  F   UNL A   1      39.864  24.743  27.120  1.00  0.00    -0.200 F 
ATOM    124  F   UNL A   1      41.400  25.679  25.069  1.00  0.00    -0.200 F 
ENDBRANCH  86 114
BRANCH 101 125
ATOM    125  C   UNL A   1      44.050  28.199  34.693  1.00  0.00     0.064 A 
ATOM    126  C   UNL A   1      43.794  27.016  35.403  1.00  0.00     0.173 A 
ATOM    127  C   UNL A   1      45.385  28.598  34.536  1.00  0.00     0.173 A 
ATOM    128  F   UNL A   1      42.533  26.602  35.592  1.00  0.00    -0.203 F 
ATOM    129  C   UNL A   1      44.835  26.279  35.961  1.00  0.00     0.198 A 
ATOM    130  C   UNL A   1      46.425  27.845  35.074  1.00  0.00     0.198 A 
ATOM    131  F   UNL A   1      45.681  29.720  33.861  1.00  0.00    -0.203 F 
ATOM    132  F   UNL A   1      44.565  25.179  36.677  1.00  0.00    -0.200 F 
ATOM    133  C   UNL A   1      46.149  26.691  35.792  1.00  0.00     0.200 A 
ATOM    134  F   UNL A   1      47.694  28.239  34.904  1.00  0.00    -0.200 F 
ATOM    135  F   UNL A   1      47.149  25.981  36.331  1.00  0.00    -0.200 F 
ENDBRANCH 101 125
ENDBRANCH  66  69
ENDBRANCH  56  59
ENDBRANCH  52  55
ENDBRANCH  49  52
ENDBRANCH  46  49
ENDBRANCH   1  46
TORSDOF 17
ENDMDL
MODEL 9
REMARK VINA RESULT:     -11.2      2.466      8.602
REMARK SMILES C[C@@H](C(=O)NCCCCCCNC(=O)c1ccc(-c2c3nc(c(-c4c(F)c(F)c(F)c(F)c4F)c4ccc([nH]4)c(-c4c(F)c(F)c(F)c(F)c4F)c4nc(c(-c5c(F)c(F)c(F)c(F)c5F)c5ccc2[nH]5)C=C4)C=C3)cc1)c1ccc(NC2CCCC2)cc1F
REMARK SMILES IDX 8 1 7 4 6 7 5 10 3 11 4 12 2 14 1 16 78 20 79 21 89 22 80 23
REMARK SMILES IDX 88 25 90 26 81 27 82 30 83 32 84 33 87 34 85 36 86 39 9 46
REMARK SMILES IDX 10 49 11 52 12 55 13 56 14 58 15 59 16 60 77 61 17 62 76 64
REMARK SMILES IDX 18 66 19 69 20 70 70 71 21 72 75 73 69 74 71 75 22 76 74 77
REMARK SMILES IDX 68 79 67 81 23 83 55 86 35 87 54 88 36 89 39 90 53 91 72 92
REMARK SMILES IDX 37 93 38 95 52 97 73 98 40 101 24 103 25 104 33 105 26 106
REMARK SMILES IDX 27 107 31 108 34 109 28 110 29 111 32 112 30 113 56 114
REMARK SMILES IDX 57 115 65 116 58 117 59 118 63 119 66 120 60 121 61 122
REMARK SMILES IDX 64 123 62 124 41 125 42 126 50 127 43 128 44 129 48 130
REMARK SMILES IDX 51 131 45 132 46 133 49 134 47 135
REMARK H PARENT 8 2 8 3 7 5 7 6 6 8 6 9 5 13 2 15 1 17 1 18 1 19 79 24 80 28
REMARK H PARENT 88 29 82 31 83 35 84 37 84 38 87 40 87 41 85 42 85 43 86 44
REMARK H PARENT 86 45 9 47 9 48 10 50 10 51 11 53 11 54 12 57 16 63 77 65
REMARK H PARENT 17 67 76 68 75 78 69 80 71 82 74 84 68 85 36 94 39 96 72 99
REMARK H PARENT 37 100 73 102
REMARK Flexibility Score: inf
ROOT
ATOM      1  C   UNL A   1      31.822  29.829  25.573  1.00  0.00    -0.052 C 
ATOM      2  H   UNL A   1      30.988  29.164  25.489  1.00  0.00     0.027 H 
ATOM      3  H   UNL A   1      31.840  30.589  24.820  1.00  0.00     0.027 H 
ENDROOT
BRANCH   1   4
ATOM      4  C   UNL A   1      33.105  29.008  25.380  1.00  0.00    -0.036 C 
ATOM      5  H   UNL A   1      33.020  28.468  24.460  1.00  0.00     0.028 H 
ATOM      6  H   UNL A   1      33.916  29.705  25.380  1.00  0.00     0.028 H 
BRANCH   4   7
ATOM      7  C   UNL A   1      33.389  28.005  26.502  1.00  0.00     0.017 C 
ATOM      8  H   UNL A   1      34.326  27.524  26.317  1.00  0.00     0.049 H 
ATOM      9  H   UNL A   1      33.423  28.526  27.435  1.00  0.00     0.049 H 
BRANCH   7  10
ATOM     10  N   UNL A   1      32.341  27.006  26.557  1.00  0.00    -0.356 N 
ATOM     11  C   UNL A   1      32.304  25.752  26.015  1.00  0.00     0.227 C 
ATOM     12  O   UNL A   1      31.194  25.231  25.904  1.00  0.00    -0.274 OA
ATOM     13  H   UNL A   1      31.537  27.268  27.060  1.00  0.00     0.163 HD
BRANCH  11  14
ATOM     14  C   UNL A   1      33.617  25.054  25.608  1.00  0.00     0.063 C 
ATOM     15  H   UNL A   1      34.395  25.284  26.306  1.00  0.00     0.045 H 
BRANCH  14  16
ATOM     16  C   UNL A   1      34.028  25.593  24.233  1.00  0.00    -0.049 C 
ATOM     17  H   UNL A   1      34.520  26.535  24.352  1.00  0.00     0.024 H 
ATOM     18  H   UNL A   1      33.157  25.721  23.624  1.00  0.00     0.024 H 
ATOM     19  H   UNL A   1      34.693  24.900  23.761  1.00  0.00     0.024 H 
ENDBRANCH  14  16
BRANCH  14  20
ATOM     20  C   UNL A   1      33.527  23.528  25.695  1.00  0.00     0.000 A 
ATOM     21  C   UNL A   1      34.181  22.840  26.727  1.00  0.00    -0.053 A 
ATOM     22  C   UNL A   1      32.839  22.740  24.769  1.00  0.00     0.129 A 
ATOM     23  C   UNL A   1      34.051  21.452  26.882  1.00  0.00    -0.038 A 
ATOM     24  H   UNL A   1      34.774  23.367  27.388  1.00  0.00     0.063 H 
ATOM     25  C   UNL A   1      32.735  21.353  24.910  1.00  0.00    -0.003 A 
ATOM     26  F   UNL A   1      32.244  23.289  23.700  1.00  0.00    -0.207 F 
ATOM     27  C   UNL A   1      33.314  20.678  25.987  1.00  0.00     0.037 A 
ATOM     28  H   UNL A   1      34.513  20.991  27.681  1.00  0.00     0.064 H 
ATOM     29  H   UNL A   1      32.216  20.813  24.200  1.00  0.00     0.068 H 
BRANCH  27  30
ATOM     30  N   UNL A   1      33.106  19.321  26.109  1.00  0.00    -0.382 N 
ATOM     31  H   UNL A   1      33.027  18.990  27.033  1.00  0.00     0.160 HD
BRANCH  30  32
ATOM     32  C   UNL A   1      32.987  18.308  25.075  1.00  0.00     0.026 C 
ATOM     33  C   UNL A   1      34.251  18.088  24.252  1.00  0.00    -0.033 C 
ATOM     34  C   UNL A   1      32.551  16.931  25.576  1.00  0.00    -0.033 C 
ATOM     35  H   UNL A   1      32.222  18.735  24.461  1.00  0.00     0.053 H 
ATOM     36  C   UNL A   1      34.019  16.720  23.627  1.00  0.00    -0.051 C 
ATOM     37  H   UNL A   1      35.120  18.083  24.876  1.00  0.00     0.029 H 
ATOM     38  H   UNL A   1      34.421  18.857  23.529  1.00  0.00     0.029 H 
ATOM     39  C   UNL A   1      33.277  15.918  24.690  1.00  0.00    -0.051 C 
ATOM     40  H   UNL A   1      31.491  16.819  25.480  1.00  0.00     0.029 H 
ATOM     41  H   UNL A   1      32.789  16.794  26.610  1.00  0.00     0.029 H 
ATOM     42  H   UNL A   1      34.952  16.255  23.388  1.00  0.00     0.027 H 
ATOM     43  H   UNL A   1      33.464  16.786  22.715  1.00  0.00     0.027 H 
ATOM     44  H   UNL A   1      33.969  15.348  25.273  1.00  0.00     0.027 H 
ATOM     45  H   UNL A   1      32.588  15.232  24.244  1.00  0.00     0.027 H 
ENDBRANCH  30  32
ENDBRANCH  27  30
ENDBRANCH  14  20
ENDBRANCH  11  14
ENDBRANCH   7  10
ENDBRANCH   4   7
ENDBRANCH   1   4
BRANCH   1  46
ATOM     46  C   UNL A   1      31.713  30.559  26.913  1.00  0.00    -0.052 C 
ATOM     47  H   UNL A   1      32.604  30.362  27.471  1.00  0.00     0.027 H 
ATOM     48  H   UNL A   1      30.824  30.190  27.382  1.00  0.00     0.027 H 
BRANCH  46  49
ATOM     49  C   UNL A   1      31.542  32.078  26.817  1.00  0.00    -0.036 C 
ATOM     50  H   UNL A   1      30.805  32.375  27.534  1.00  0.00     0.028 H 
ATOM     51  H   UNL A   1      31.261  32.282  25.805  1.00  0.00     0.028 H 
BRANCH  49  52
ATOM     52  C   UNL A   1      32.808  32.892  27.077  1.00  0.00     0.018 C 
ATOM     53  H   UNL A   1      33.335  33.013  26.153  1.00  0.00     0.049 H 
ATOM     54  H   UNL A   1      33.395  32.360  27.797  1.00  0.00     0.049 H 
BRANCH  52  55
ATOM     55  N   UNL A   1      32.521  34.206  27.626  1.00  0.00    -0.352 N 
ATOM     56  C   UNL A   1      33.059  34.833  28.717  1.00  0.00     0.251 C 
ATOM     57  H   UNL A   1      31.839  34.722  27.140  1.00  0.00     0.163 HD
ATOM     58  O   UNL A   1      32.569  35.891  29.120  1.00  0.00    -0.269 OA
BRANCH  56  59
ATOM     59  C   UNL A   1      34.206  34.244  29.440  1.00  0.00     0.039 A 
ATOM     60  C   UNL A   1      33.951  33.428  30.545  1.00  0.00    -0.049 A 
ATOM     61  C   UNL A   1      35.526  34.516  29.062  1.00  0.00    -0.049 A 
ATOM     62  C   UNL A   1      35.012  32.843  31.239  1.00  0.00    -0.053 A 
ATOM     63  H   UNL A   1      32.979  33.258  30.848  1.00  0.00     0.063 H 
ATOM     64  C   UNL A   1      36.583  33.888  29.722  1.00  0.00    -0.053 A 
ATOM     65  H   UNL A   1      35.717  35.180  28.296  1.00  0.00     0.063 H 
ATOM     66  C   UNL A   1      36.335  33.048  30.818  1.00  0.00    -0.014 A 
ATOM     67  H   UNL A   1      34.822  32.258  32.068  1.00  0.00     0.063 H 
ATOM     68  H   UNL A   1      37.553  34.042  29.403  1.00  0.00     0.063 H 
BRANCH  66  69
ATOM     69  C   UNL A   1      37.460  32.375  31.516  1.00  0.00     0.031 A 
ATOM     70  C   UNL A   1      38.175  31.218  30.879  1.00  0.00     0.074 A 
ATOM     71  C   UNL A   1      37.817  32.793  32.746  1.00  0.00     0.049 A 
ATOM     72  N   UNL A   1      39.172  30.506  31.341  1.00  0.00    -0.248 NA
ATOM     73  C   UNL A   1      37.697  30.791  29.554  1.00  0.00    -0.034 C 
ATOM     74  C   UNL A   1      37.165  33.870  33.494  1.00  0.00    -0.036 A 
ATOM     75  N   UNL A   1      38.812  32.360  33.586  1.00  0.00    -0.354 N 
ATOM     76  C   UNL A   1      39.439  29.551  30.370  1.00  0.00     0.074 A 
ATOM     77  C   UNL A   1      38.469  29.741  29.313  1.00  0.00    -0.034 C 
ATOM     78  H   UNL A   1      36.956  31.203  28.967  1.00  0.00     0.065 H 
ATOM     79  C   UNL A   1      37.787  34.024  34.673  1.00  0.00    -0.036 A 
ATOM     80  H   UNL A   1      36.356  34.420  33.167  1.00  0.00     0.065 H 
ATOM     81  C   UNL A   1      38.868  33.047  34.774  1.00  0.00     0.049 A 
ATOM     82  H   UNL A   1      39.428  31.627  33.358  1.00  0.00     0.167 HD
ATOM     83  C   UNL A   1      40.420  28.617  30.350  1.00  0.00     0.037 A 
ATOM     84  H   UNL A   1      38.388  29.137  28.480  1.00  0.00     0.065 H 
ATOM     85  H   UNL A   1      37.542  34.722  35.393  1.00  0.00     0.065 H 
ATOM     86  C   UNL A   1      39.698  32.907  35.824  1.00  0.00     0.037 A 
ATOM     87  C   UNL A   1      41.397  28.438  31.393  1.00  0.00     0.049 A 
ATOM     88  C   UNL A   1      40.792  31.876  35.764  1.00  0.00     0.074 A 
ATOM     89  C   UNL A   1      42.449  27.539  31.446  1.00  0.00    -0.036 A 
ATOM     90  N   UNL A   1      41.442  29.175  32.566  1.00  0.00    -0.354 N 
ATOM     91  N   UNL A   1      41.069  31.019  34.812  1.00  0.00    -0.248 NA
ATOM     92  C   UNL A   1      41.698  31.805  36.919  1.00  0.00    -0.034 C 
ATOM     93  C   UNL A   1      43.115  27.716  32.665  1.00  0.00    -0.036 A 
ATOM     94  H   UNL A   1      42.700  26.857  30.714  1.00  0.00     0.065 H 
ATOM     95  C   UNL A   1      42.499  28.748  33.353  1.00  0.00     0.049 A 
ATOM     96  H   UNL A   1      40.815  29.896  32.804  1.00  0.00     0.167 HD
ATOM     97  C   UNL A   1      42.187  30.319  35.245  1.00  0.00     0.074 A 
ATOM     98  C   UNL A   1      42.553  30.869  36.534  1.00  0.00    -0.034 C 
ATOM     99  H   UNL A   1      41.674  32.344  37.800  1.00  0.00     0.065 H 
ATOM    100  H   UNL A   1      43.926  27.169  32.995  1.00  0.00     0.065 H 
ATOM    101  C   UNL A   1      42.848  29.307  34.632  1.00  0.00     0.037 A 
ATOM    102  H   UNL A   1      43.374  30.571  37.082  1.00  0.00     0.065 H 
BRANCH  83 103
ATOM    103  C   UNL A   1      40.501  27.724  29.148  1.00  0.00     0.064 A 
ATOM    104  C   UNL A   1      39.714  26.568  29.045  1.00  0.00     0.173 A 
ATOM    105  C   UNL A   1      41.333  28.052  28.066  1.00  0.00     0.173 A 
ATOM    106  F   UNL A   1      38.912  26.206  30.058  1.00  0.00    -0.203 F 
ATOM    107  C   UNL A   1      39.769  25.762  27.911  1.00  0.00     0.198 A 
ATOM    108  C   UNL A   1      41.367  27.257  26.923  1.00  0.00     0.198 A 
ATOM    109  F   UNL A   1      42.102  29.150  28.112  1.00  0.00    -0.203 F 
ATOM    110  F   UNL A   1      39.034  24.643  27.850  1.00  0.00    -0.200 F 
ATOM    111  C   UNL A   1      40.589  26.111  26.848  1.00  0.00     0.200 A 
ATOM    112  F   UNL A   1      42.152  27.600  25.892  1.00  0.00    -0.200 F 
ATOM    113  F   UNL A   1      40.633  25.340  25.753  1.00  0.00    -0.200 F 
ENDBRANCH  83 103
BRANCH  86 114
ATOM    114  C   UNL A   1      39.545  33.782  37.012  1.00  0.00     0.064 A 
ATOM    115  C   UNL A   1      38.774  33.379  38.111  1.00  0.00     0.173 A 
ATOM    116  C   UNL A   1      40.156  35.043  37.069  1.00  0.00     0.173 A 
ATOM    117  F   UNL A   1      38.154  32.190  38.093  1.00  0.00    -0.203 F 
ATOM    118  C   UNL A   1      38.600  34.214  39.213  1.00  0.00     0.198 A 
ATOM    119  C   UNL A   1      40.003  35.867  38.182  1.00  0.00     0.198 A 
ATOM    120  F   UNL A   1      40.908  35.471  36.044  1.00  0.00    -0.203 F 
ATOM    121  F   UNL A   1      37.820  33.824  40.229  1.00  0.00    -0.200 F 
ATOM    122  C   UNL A   1      39.218  35.455  39.248  1.00  0.00     0.200 A 
ATOM    123  F   UNL A   1      40.611  37.060  38.218  1.00  0.00    -0.200 F 
ATOM    124  F   UNL A   1      39.051  36.258  40.308  1.00  0.00    -0.200 F 
ENDBRANCH  86 114
BRANCH 101 125
ATOM    125  C   UNL A   1      44.042  28.745  35.345  1.00  0.00     0.064 A 
ATOM    126  C   UNL A   1      43.921  27.671  36.239  1.00  0.00     0.173 A 
ATOM    127  C   UNL A   1      45.322  29.273  35.117  1.00  0.00     0.173 A 
ATOM    128  F   UNL A   1      42.716  27.143  36.500  1.00  0.00    -0.203 F 
ATOM    129  C   UNL A   1      45.036  27.164  36.902  1.00  0.00     0.198 A 
ATOM    130  C   UNL A   1      46.437  28.747  35.763  1.00  0.00     0.198 A 
ATOM    131  F   UNL A   1      45.489  30.298  34.268  1.00  0.00    -0.203 F 
ATOM    132  F   UNL A   1      44.890  26.170  37.788  1.00  0.00    -0.200 F 
ATOM    133  C   UNL A   1      46.292  27.700  36.660  1.00  0.00     0.200 A 
ATOM    134  F   UNL A   1      47.652  29.259  35.524  1.00  0.00    -0.200 F 
ATOM    135  F   UNL A   1      47.363  27.211  37.301  1.00  0.00    -0.200 F 
ENDBRANCH 101 125
ENDBRANCH  66  69
ENDBRANCH  56  59
ENDBRANCH  52  55
ENDBRANCH  49  52
ENDBRANCH  46  49
ENDBRANCH   1  46
TORSDOF 17
ENDMDL
MODEL 10
REMARK VINA RESULT:     -11.2      4.191      8.467
REMARK SMILES C[C@@H](C(=O)NCCCCCCNC(=O)c1ccc(-c2c3nc(c(-c4c(F)c(F)c(F)c(F)c4F)c4ccc([nH]4)c(-c4c(F)c(F)c(F)c(F)c4F)c4nc(c(-c5c(F)c(F)c(F)c(F)c5F)c5ccc2[nH]5)C=C4)C=C3)cc1)c1ccc(NC2CCCC2)cc1F
REMARK SMILES IDX 8 1 7 4 6 7 5 10 3 11 4 12 2 14 1 16 78 20 79 21 89 22 80 23
REMARK SMILES IDX 88 25 90 26 81 27 82 30 83 32 84 33 87 34 85 36 86 39 9 46
REMARK SMILES IDX 10 49 11 52 12 55 13 56 14 58 15 59 16 60 77 61 17 62 76 64
REMARK SMILES IDX 18 66 19 69 20 70 70 71 21 72 75 73 69 74 71 75 22 76 74 77
REMARK SMILES IDX 68 79 67 81 23 83 55 86 35 87 54 88 36 89 39 90 53 91 72 92
REMARK SMILES IDX 37 93 38 95 52 97 73 98 40 101 24 103 25 104 33 105 26 106
REMARK SMILES IDX 27 107 31 108 34 109 28 110 29 111 32 112 30 113 56 114
REMARK SMILES IDX 57 115 65 116 58 117 59 118 63 119 66 120 60 121 61 122
REMARK SMILES IDX 64 123 62 124 41 125 42 126 50 127 43 128 44 129 48 130
REMARK SMILES IDX 51 131 45 132 46 133 49 134 47 135
REMARK H PARENT 8 2 8 3 7 5 7 6 6 8 6 9 5 13 2 15 1 17 1 18 1 19 79 24 80 28
REMARK H PARENT 88 29 82 31 83 35 84 37 84 38 87 40 87 41 85 42 85 43 86 44
REMARK H PARENT 86 45 9 47 9 48 10 50 10 51 11 53 11 54 12 57 16 63 77 65
REMARK H PARENT 17 67 76 68 75 78 69 80 71 82 74 84 68 85 36 94 39 96 72 99
REMARK H PARENT 37 100 73 102
REMARK Flexibility Score: inf
ROOT
ATOM      1  C   UNL A   1      37.511  33.225  29.168  1.00  0.00    -0.052 C 
ATOM      2  H   UNL A   1      36.940  32.931  30.023  1.00  0.00     0.027 H 
ATOM      3  H   UNL A   1      38.174  32.462  28.815  1.00  0.00     0.027 H 
ENDROOT
BRANCH   1   4
ATOM      4  C   UNL A   1      38.401  34.407  29.576  1.00  0.00    -0.036 C 
ATOM      5  H   UNL A   1      39.320  34.337  29.033  1.00  0.00     0.028 H 
ATOM      6  H   UNL A   1      37.850  35.296  29.348  1.00  0.00     0.028 H 
BRANCH   4   7
ATOM      7  C   UNL A   1      38.730  34.466  31.071  1.00  0.00     0.017 C 
ATOM      8  H   UNL A   1      39.056  33.502  31.399  1.00  0.00     0.049 H 
ATOM      9  H   UNL A   1      39.503  35.188  31.229  1.00  0.00     0.049 H 
BRANCH   7  10
ATOM     10  N   UNL A   1      37.557  34.858  31.826  1.00  0.00    -0.356 N 
ATOM     11  C   UNL A   1      36.639  34.080  32.474  1.00  0.00     0.227 C 
ATOM     12  O   UNL A   1      35.561  34.610  32.747  1.00  0.00    -0.274 OA
ATOM     13  H   UNL A   1      37.397  35.828  31.882  1.00  0.00     0.163 HD
BRANCH  11  14
ATOM     14  C   UNL A   1      36.993  32.628  32.850  1.00  0.00     0.063 C 
ATOM     15  H   UNL A   1      37.888  32.320  32.350  1.00  0.00     0.045 H 
BRANCH  14  16
ATOM     16  C   UNL A   1      35.845  31.728  32.377  1.00  0.00    -0.049 C 
ATOM     17  H   UNL A   1      36.019  31.428  31.366  1.00  0.00     0.024 H 
ATOM     18  H   UNL A   1      34.922  32.267  32.435  1.00  0.00     0.024 H 
ATOM     19  H   UNL A   1      35.790  30.861  33.003  1.00  0.00     0.024 H 
ENDBRANCH  14  16
BRANCH  14  20
ATOM     20  C   UNL A   1      37.362  32.472  34.328  1.00  0.00     0.000 A 
ATOM     21  C   UNL A   1      37.152  33.532  35.222  1.00  0.00    -0.053 A 
ATOM     22  C   UNL A   1      37.941  31.320  34.863  1.00  0.00     0.129 A 
ATOM     23  C   UNL A   1      37.402  33.394  36.595  1.00  0.00    -0.038 A 
ATOM     24  H   UNL A   1      36.807  34.435  34.862  1.00  0.00     0.063 H 
ATOM     25  C   UNL A   1      38.216  31.195  36.228  1.00  0.00    -0.003 A 
ATOM     26  F   UNL A   1      38.255  30.277  34.081  1.00  0.00    -0.207 F 
ATOM     27  C   UNL A   1      37.926  32.219  37.132  1.00  0.00     0.037 A 
ATOM     28  H   UNL A   1      37.193  34.183  37.225  1.00  0.00     0.064 H 
ATOM     29  H   UNL A   1      38.645  30.323  36.577  1.00  0.00     0.068 H 
BRANCH  27  30
ATOM     30  N   UNL A   1      38.149  32.001  38.475  1.00  0.00    -0.382 N 
ATOM     31  H   UNL A   1      39.021  31.602  38.696  1.00  0.00     0.160 HD
BRANCH  30  32
ATOM     32  C   UNL A   1      37.285  32.271  39.611  1.00  0.00     0.026 C 
ATOM     33  C   UNL A   1      35.977  31.490  39.616  1.00  0.00    -0.033 C 
ATOM     34  C   UNL A   1      37.933  32.041  40.977  1.00  0.00    -0.033 C 
ATOM     35  H   UNL A   1      37.086  33.313  39.471  1.00  0.00     0.053 H 
ATOM     36  C   UNL A   1      35.530  31.579  41.068  1.00  0.00    -0.051 C 
ATOM     37  H   UNL A   1      36.136  30.473  39.325  1.00  0.00     0.029 H 
ATOM     38  H   UNL A   1      35.253  31.875  38.929  1.00  0.00     0.029 H 
ATOM     39  C   UNL A   1      36.817  31.524  41.884  1.00  0.00    -0.051 C 
ATOM     40  H   UNL A   1      38.331  32.957  41.359  1.00  0.00     0.029 H 
ATOM     41  H   UNL A   1      38.745  31.346  40.916  1.00  0.00     0.029 H 
ATOM     42  H   UNL A   1      34.893  30.756  41.315  1.00  0.00     0.027 H 
ATOM     43  H   UNL A   1      34.970  32.470  41.260  1.00  0.00     0.027 H 
ATOM     44  H   UNL A   1      37.021  30.518  42.185  1.00  0.00     0.027 H 
ATOM     45  H   UNL A   1      36.735  32.117  42.771  1.00  0.00     0.027 H 
ENDBRANCH  30  32
ENDBRANCH  27  30
ENDBRANCH  14  20
ENDBRANCH  11  14
ENDBRANCH   7  10
ENDBRANCH   4   7
ENDBRANCH   1   4
BRANCH   1  46
ATOM     46  C   UNL A   1      36.538  33.508  28.021  1.00  0.00    -0.052 C 
ATOM     47  H   UNL A   1      36.547  32.663  27.364  1.00  0.00     0.027 H 
ATOM     48  H   UNL A   1      36.876  34.412  27.560  1.00  0.00     0.027 H 
BRANCH  46  49
ATOM     49  C   UNL A   1      35.089  33.762  28.444  1.00  0.00    -0.036 C 
ATOM     50  H   UNL A   1      34.529  34.021  27.569  1.00  0.00     0.028 H 
ATOM     51  H   UNL A   1      35.125  34.543  29.175  1.00  0.00     0.028 H 
BRANCH  49  52
ATOM     52  C   UNL A   1      34.392  32.582  29.118  1.00  0.00     0.018 C 
ATOM     53  H   UNL A   1      33.585  32.955  29.714  1.00  0.00     0.049 H 
ATOM     54  H   UNL A   1      35.118  32.072  29.715  1.00  0.00     0.049 H 
BRANCH  52  55
ATOM     55  N   UNL A   1      33.861  31.629  28.159  1.00  0.00    -0.352 N 
ATOM     56  C   UNL A   1      34.444  30.512  27.624  1.00  0.00     0.251 C 
ATOM     57  H   UNL A   1      32.945  31.814  27.848  1.00  0.00     0.163 HD
ATOM     58  O   UNL A   1      33.889  29.914  26.698  1.00  0.00    -0.269 OA
BRANCH  56  59
ATOM     59  C   UNL A   1      35.748  30.026  28.123  1.00  0.00     0.039 A 
ATOM     60  C   UNL A   1      36.851  30.077  27.267  1.00  0.00    -0.049 A 
ATOM     61  C   UNL A   1      35.885  29.488  29.408  1.00  0.00    -0.049 A 
ATOM     62  C   UNL A   1      38.100  29.640  27.713  1.00  0.00    -0.053 A 
ATOM     63  H   UNL A   1      36.743  30.438  26.306  1.00  0.00     0.063 H 
ATOM     64  C   UNL A   1      37.143  29.103  29.871  1.00  0.00    -0.053 A 
ATOM     65  H   UNL A   1      35.056  29.377  30.012  1.00  0.00     0.063 H 
ATOM     66  C   UNL A   1      38.261  29.174  29.028  1.00  0.00    -0.014 A 
ATOM     67  H   UNL A   1      38.909  29.660  27.073  1.00  0.00     0.063 H 
ATOM     68  H   UNL A   1      37.252  28.764  30.841  1.00  0.00     0.063 H 
BRANCH  66  69
ATOM     69  C   UNL A   1      39.601  28.770  29.523  1.00  0.00     0.031 A 
ATOM     70  C   UNL A   1      40.304  29.578  30.577  1.00  0.00     0.074 A 
ATOM     71  C   UNL A   1      40.199  27.683  28.997  1.00  0.00     0.049 A 
ATOM     72  N   UNL A   1      41.478  29.380  31.124  1.00  0.00    -0.248 NA
ATOM     73  C   UNL A   1      39.607  30.776  31.069  1.00  0.00    -0.034 C 
ATOM     74  C   UNL A   1      39.643  26.848  27.930  1.00  0.00    -0.036 A 
ATOM     75  N   UNL A   1      41.407  27.098  29.283  1.00  0.00    -0.354 N 
ATOM     76  C   UNL A   1      41.659  30.425  32.020  1.00  0.00     0.074 A 
ATOM     77  C   UNL A   1      40.498  31.283  31.909  1.00  0.00    -0.034 C 
ATOM     78  H   UNL A   1      38.669  31.129  30.823  1.00  0.00     0.065 H 
ATOM     79  C   UNL A   1      40.499  25.849  27.665  1.00  0.00    -0.036 A 
ATOM     80  H   UNL A   1      38.739  27.003  27.458  1.00  0.00     0.065 H 
ATOM     81  C   UNL A   1      41.671  25.983  28.525  1.00  0.00     0.049 A 
ATOM     82  H   UNL A   1      42.025  27.443  29.967  1.00  0.00     0.167 HD
ATOM     83  C   UNL A   1      42.688  30.637  32.875  1.00  0.00     0.037 A 
ATOM     84  H   UNL A   1      40.379  32.172  32.419  1.00  0.00     0.065 H 
ATOM     85  H   UNL A   1      40.353  25.104  26.965  1.00  0.00     0.065 H 
ATOM     86  C   UNL A   1      42.737  25.161  28.527  1.00  0.00     0.037 A 
ATOM     87  C   UNL A   1      43.836  29.776  32.998  1.00  0.00     0.049 A 
ATOM     88  C   UNL A   1      43.855  25.408  29.503  1.00  0.00     0.074 A 
ATOM     89  C   UNL A   1      44.914  29.891  33.859  1.00  0.00    -0.036 A 
ATOM     90  N   UNL A   1      44.052  28.638  32.237  1.00  0.00    -0.354 N 
ATOM     91  N   UNL A   1      43.985  26.368  30.386  1.00  0.00    -0.248 NA
ATOM     92  C   UNL A   1      44.967  24.447  29.492  1.00  0.00    -0.034 C 
ATOM     93  C   UNL A   1      45.796  28.836  33.600  1.00  0.00    -0.036 A 
ATOM     94  H   UNL A   1      45.044  30.628  34.570  1.00  0.00     0.065 H 
ATOM     95  C   UNL A   1      45.250  28.045  32.604  1.00  0.00     0.049 A 
ATOM     96  H   UNL A   1      43.445  28.300  31.539  1.00  0.00     0.167 HD
ATOM     97  C   UNL A   1      45.181  26.118  31.045  1.00  0.00     0.074 A 
ATOM     98  C   UNL A   1      45.727  24.903  30.477  1.00  0.00    -0.034 C 
ATOM     99  H   UNL A   1      45.117  23.631  28.878  1.00  0.00     0.065 H 
ATOM    100  H   UNL A   1      46.700  28.676  34.071  1.00  0.00     0.065 H 
ATOM    101  C   UNL A   1      45.777  26.835  32.028  1.00  0.00     0.037 A 
ATOM    102  H   UNL A   1      46.596  24.450  30.798  1.00  0.00     0.065 H 
BRANCH  83 103
ATOM    103  C   UNL A   1      42.612  31.841  33.765  1.00  0.00     0.064 A 
ATOM    104  C   UNL A   1      43.168  33.069  33.378  1.00  0.00     0.173 A 
ATOM    105  C   UNL A   1      41.933  31.784  34.992  1.00  0.00     0.173 A 
ATOM    106  F   UNL A   1      43.837  33.172  32.220  1.00  0.00    -0.203 F 
ATOM    107  C   UNL A   1      43.063  34.192  34.195  1.00  0.00     0.198 A 
ATOM    108  C   UNL A   1      41.809  32.916  35.794  1.00  0.00     0.198 A 
ATOM    109  F   UNL A   1      41.379  30.635  35.405  1.00  0.00    -0.203 F 
ATOM    110  F   UNL A   1      43.633  35.346  33.820  1.00  0.00    -0.200 F 
ATOM    111  C   UNL A   1      42.378  34.117  35.397  1.00  0.00     0.200 A 
ATOM    112  F   UNL A   1      41.138  32.844  36.953  1.00  0.00    -0.200 F 
ATOM    113  F   UNL A   1      42.269  35.200  36.178  1.00  0.00    -0.200 F 
ENDBRANCH  83 103
BRANCH  86 114
ATOM    114  C   UNL A   1      42.788  24.011  27.591  1.00  0.00     0.064 A 
ATOM    115  C   UNL A   1      42.359  22.737  27.989  1.00  0.00     0.173 A 
ATOM    116  C   UNL A   1      43.275  24.158  26.285  1.00  0.00     0.173 A 
ATOM    117  F   UNL A   1      41.904  22.544  29.236  1.00  0.00    -0.203 F 
ATOM    118  C   UNL A   1      42.438  21.648  27.124  1.00  0.00     0.198 A 
ATOM    119  C   UNL A   1      43.330  23.074  25.411  1.00  0.00     0.198 A 
ATOM    120  F   UNL A   1      43.692  25.359  25.855  1.00  0.00    -0.203 F 
ATOM    121  F   UNL A   1      42.067  20.433  27.545  1.00  0.00    -0.200 F 
ATOM    122  C   UNL A   1      42.920  21.819  25.835  1.00  0.00     0.200 A 
ATOM    123  F   UNL A   1      43.785  23.246  24.163  1.00  0.00    -0.200 F 
ATOM    124  F   UNL A   1      42.996  20.772  25.002  1.00  0.00    -0.200 F 
ENDBRANCH  86 114
BRANCH 101 125
ATOM    125  C   UNL A   1      47.078  26.311  32.559  1.00  0.00     0.064 A 
ATOM    126  C   UNL A   1      47.116  25.352  33.582  1.00  0.00     0.173 A 
ATOM    127  C   UNL A   1      48.297  26.758  32.028  1.00  0.00     0.173 A 
ATOM    128  F   UNL A   1      45.977  24.906  34.131  1.00  0.00    -0.203 F 
ATOM    129  C   UNL A   1      48.330  24.880  34.073  1.00  0.00     0.198 A 
ATOM    130  C   UNL A   1      49.508  26.265  32.505  1.00  0.00     0.198 A 
ATOM    131  F   UNL A   1      48.312  27.671  31.046  1.00  0.00    -0.203 F 
ATOM    132  F   UNL A   1      48.344  24.000  35.084  1.00  0.00    -0.200 F 
ATOM    133  C   UNL A   1      49.524  25.333  33.532  1.00  0.00     0.200 A 
ATOM    134  F   UNL A   1      50.661  26.698  31.977  1.00  0.00    -0.200 F 
ATOM    135  F   UNL A   1      50.691  24.879  34.008  1.00  0.00    -0.200 F 
ENDBRANCH 101 125
ENDBRANCH  66  69
ENDBRANCH  56  59
ENDBRANCH  52  55
ENDBRANCH  49  52
ENDBRANCH  46  49
ENDBRANCH   1  46
TORSDOF 17
ENDMDL
