MODEL 1
REMARK VINA RESULT:     -11.2      0.000      0.000
REMARK SMILES CCCC[C@@H](Sc1nc(OCCC2CCCCC2)cc(OCCC2CCCCC2)n1)C(=O)NCCCCCCNC(=O)c1ccc(-c2c3nc(c(-c4c(F)c(F)c(F)c(F)c4F)c4ccc([nH]4)c(-c4c(F)c(F)c(F)c(F)c4F)c4nc(c(-c5c(F)c(F)c(F)c(F)c5F)c5ccc2[nH]5)C=C4)C=C3)cc1
REMARK SMILES IDX 34 1 33 4 31 5 32 6 5 8 4 10 3 13 2 16 1 19 6 23 7 24 8 25
REMARK SMILES IDX 30 26 9 27 20 28 19 29 10 31 11 32 12 35 13 38 14 39 18 40
REMARK SMILES IDX 15 42 17 45 16 48 21 55 22 56 23 59 24 62 25 63 29 64 26 66
REMARK SMILES IDX 28 69 27 72 35 79 36 82 37 85 38 88 39 91 40 94 41 95 42 97
REMARK SMILES IDX 43 98 44 99 105 100 45 101 104 103 46 105 47 108 48 109
REMARK SMILES IDX 98 110 49 111 103 112 97 113 99 114 50 115 102 116 96 118
REMARK SMILES IDX 95 120 51 122 83 125 63 126 82 127 64 128 67 129 81 130
REMARK SMILES IDX 100 131 65 132 66 134 80 136 101 137 68 140 52 142 53 143
REMARK SMILES IDX 61 144 54 145 55 146 59 147 62 148 56 149 57 150 60 151
REMARK SMILES IDX 58 152 84 153 85 154 93 155 86 156 87 157 91 158 94 159
REMARK SMILES IDX 88 160 89 161 92 162 90 163 69 164 70 165 78 166 71 167
REMARK SMILES IDX 72 168 76 169 79 170 73 171 74 172 77 173 75 174
REMARK H PARENT 34 2 34 3 33 7 5 9 4 11 4 12 3 14 3 15 2 17 2 18 1 20 1 21
REMARK H PARENT 1 22 19 30 11 33 11 34 12 36 12 37 13 41 14 43 14 44 18 46
REMARK H PARENT 18 47 15 49 15 50 17 51 17 52 16 53 16 54 22 57 22 58 23 60
REMARK H PARENT 23 61 24 65 25 67 25 68 29 70 29 71 26 73 26 74 28 75 28 76
REMARK H PARENT 27 77 27 78 35 80 35 81 36 83 36 84 37 86 37 87 38 89 38 90
REMARK H PARENT 39 92 39 93 40 96 44 102 105 104 45 106 104 107 103 117 97 119
REMARK H PARENT 99 121 102 123 96 124 64 133 67 135 100 138 65 139 101 141
REMARK Flexibility Score: inf
ROOT
ATOM      1  C   UNL A   1      33.836  28.218  26.560  1.00  0.00     0.017 C 
ATOM      2  H   UNL A   1      34.696  28.429  27.160  1.00  0.00     0.049 H 
ATOM      3  H   UNL A   1      33.627  27.168  26.558  1.00  0.00     0.049 H 
ENDROOT
BRANCH   1   4
ATOM      4  N   UNL A   1      34.096  28.638  25.192  1.00  0.00    -0.355 N 
ATOM      5  C   UNL A   1      33.703  28.073  24.009  1.00  0.00     0.233 C 
ATOM      6  O   UNL A   1      34.044  28.632  22.964  1.00  0.00    -0.274 OA
ATOM      7  H   UNL A   1      34.638  29.455  25.103  1.00  0.00     0.163 HD
BRANCH   5   8
ATOM      8  C   UNL A   1      32.893  26.765  23.983  1.00  0.00     0.091 C 
ATOM      9  H   UNL A   1      32.902  26.141  24.853  1.00  0.00     0.052 H 
BRANCH   8  10
ATOM     10  C   UNL A   1      31.387  27.117  23.927  1.00  0.00    -0.032 C 
ATOM     11  H   UNL A   1      30.851  26.260  24.275  1.00  0.00     0.028 H 
ATOM     12  H   UNL A   1      31.308  28.004  24.520  1.00  0.00     0.028 H 
BRANCH  10  13
ATOM     13  C   UNL A   1      30.769  27.518  22.580  1.00  0.00    -0.052 C 
ATOM     14  H   UNL A   1      31.551  27.930  21.978  1.00  0.00     0.027 H 
ATOM     15  H   UNL A   1      30.329  26.618  22.202  1.00  0.00     0.027 H 
BRANCH  13  16
ATOM     16  C   UNL A   1      29.627  28.530  22.606  1.00  0.00    -0.056 C 
ATOM     17  H   UNL A   1      28.796  28.115  22.077  1.00  0.00     0.026 H 
ATOM     18  H   UNL A   1      29.399  28.722  23.633  1.00  0.00     0.026 H 
BRANCH  16  19
ATOM     19  C   UNL A   1      29.987  29.861  21.970  1.00  0.00    -0.065 C 
ATOM     20  H   UNL A   1      29.602  30.658  22.571  1.00  0.00     0.023 H 
ATOM     21  H   UNL A   1      29.561  29.915  20.990  1.00  0.00     0.023 H 
ATOM     22  H   UNL A   1      31.051  29.948  21.901  1.00  0.00     0.023 H 
ENDBRANCH  16  19
ENDBRANCH  13  16
ENDBRANCH  10  13
ENDBRANCH   8  10
BRANCH   8  23
ATOM     23  S   UNL A   1      33.709  25.723  22.684  1.00  0.00    -0.073 SA
BRANCH  23  24
ATOM     24  C   UNL A   1      34.145  24.305  23.609  1.00  0.00     0.195 A 
ATOM     25  N   UNL A   1      33.230  23.814  24.454  1.00  0.00    -0.187 NA
ATOM     26  N   UNL A   1      35.363  23.807  23.403  1.00  0.00    -0.187 NA
ATOM     27  C   UNL A   1      33.623  22.797  25.228  1.00  0.00     0.221 A 
ATOM     28  C   UNL A   1      35.709  22.764  24.157  1.00  0.00     0.221 A 
ATOM     29  C   UNL A   1      34.897  22.282  25.155  1.00  0.00     0.063 A 
ATOM     30  H   UNL A   1      35.229  21.566  25.820  1.00  0.00     0.074 H 
BRANCH  27  31
ATOM     31  O   UNL A   1      32.617  22.315  26.018  1.00  0.00    -0.477 OA
BRANCH  31  32
ATOM     32  C   UNL A   1      32.050  21.042  25.734  1.00  0.00     0.090 C 
ATOM     33  H   UNL A   1      30.989  21.122  25.854  1.00  0.00     0.071 H 
ATOM     34  H   UNL A   1      32.517  20.360  26.412  1.00  0.00     0.071 H 
BRANCH  32  35
ATOM     35  C   UNL A   1      32.324  20.480  24.319  1.00  0.00    -0.016 C 
ATOM     36  H   UNL A   1      32.942  21.186  23.804  1.00  0.00     0.030 H 
ATOM     37  H   UNL A   1      31.358  20.331  23.884  1.00  0.00     0.030 H 
BRANCH  35  38
ATOM     38  C   UNL A   1      33.017  19.113  24.244  1.00  0.00    -0.038 C 
ATOM     39  C   UNL A   1      32.750  18.215  25.459  1.00  0.00    -0.050 C 
ATOM     40  C   UNL A   1      32.660  18.331  22.971  1.00  0.00    -0.050 C 
ATOM     41  H   UNL A   1      34.058  19.358  24.227  1.00  0.00     0.030 H 
ATOM     42  C   UNL A   1      33.636  16.964  25.379  1.00  0.00    -0.053 C 
ATOM     43  H   UNL A   1      31.721  17.922  25.468  1.00  0.00     0.027 H 
ATOM     44  H   UNL A   1      32.975  18.754  26.356  1.00  0.00     0.027 H 
ATOM     45  C   UNL A   1      33.582  17.124  22.836  1.00  0.00    -0.053 C 
ATOM     46  H   UNL A   1      32.779  18.968  22.118  1.00  0.00     0.027 H 
ATOM     47  H   UNL A   1      31.645  18.000  23.032  1.00  0.00     0.027 H 
ATOM     48  C   UNL A   1      33.483  16.212  24.056  1.00  0.00    -0.053 C 
ATOM     49  H   UNL A   1      33.371  16.305  26.180  1.00  0.00     0.027 H 
ATOM     50  H   UNL A   1      34.654  17.286  25.451  1.00  0.00     0.027 H 
ATOM     51  H   UNL A   1      33.304  16.570  21.964  1.00  0.00     0.027 H 
ATOM     52  H   UNL A   1      34.589  17.475  22.757  1.00  0.00     0.027 H 
ATOM     53  H   UNL A   1      32.527  15.732  24.046  1.00  0.00     0.027 H 
ATOM     54  H   UNL A   1      34.286  15.507  23.993  1.00  0.00     0.027 H 
ENDBRANCH  35  38
ENDBRANCH  32  35
ENDBRANCH  31  32
ENDBRANCH  27  31
BRANCH  28  55
ATOM     55  O   UNL A   1      36.964  22.315  23.887  1.00  0.00    -0.477 OA
BRANCH  55  56
ATOM     56  C   UNL A   1      37.632  21.495  24.840  1.00  0.00     0.090 C 
ATOM     57  H   UNL A   1      38.208  20.752  24.330  1.00  0.00     0.071 H 
ATOM     58  H   UNL A   1      36.912  21.016  25.469  1.00  0.00     0.071 H 
BRANCH  56  59
ATOM     59  C   UNL A   1      38.562  22.368  25.693  1.00  0.00    -0.016 C 
ATOM     60  H   UNL A   1      37.947  22.938  26.359  1.00  0.00     0.030 H 
ATOM     61  H   UNL A   1      39.122  22.948  24.992  1.00  0.00     0.030 H 
BRANCH  59  62
ATOM     62  C   UNL A   1      39.622  21.631  26.549  1.00  0.00    -0.038 C 
ATOM     63  C   UNL A   1      39.828  20.149  26.172  1.00  0.00    -0.050 C 
ATOM     64  C   UNL A   1      40.893  22.472  26.714  1.00  0.00    -0.050 C 
ATOM     65  H   UNL A   1      39.224  21.540  27.538  1.00  0.00     0.030 H 
ATOM     66  C   UNL A   1      41.251  19.614  25.985  1.00  0.00    -0.053 C 
ATOM     67  H   UNL A   1      39.309  19.986  25.250  1.00  0.00     0.027 H 
ATOM     68  H   UNL A   1      39.468  19.616  27.028  1.00  0.00     0.027 H 
ATOM     69  C   UNL A   1      42.064  21.651  27.227  1.00  0.00    -0.053 C 
ATOM     70  H   UNL A   1      40.697  23.262  27.408  1.00  0.00     0.027 H 
ATOM     71  H   UNL A   1      41.159  22.856  25.750  1.00  0.00     0.027 H 
ATOM     72  C   UNL A   1      42.393  20.592  26.200  1.00  0.00    -0.053 C 
ATOM     73  H   UNL A   1      41.327  19.246  24.983  1.00  0.00     0.027 H 
ATOM     74  H   UNL A   1      41.372  18.876  26.750  1.00  0.00     0.027 H 
ATOM     75  H   UNL A   1      42.913  22.286  27.375  1.00  0.00     0.027 H 
ATOM     76  H   UNL A   1      41.810  21.192  28.160  1.00  0.00     0.027 H 
ATOM     77  H   UNL A   1      42.613  21.073  25.270  1.00  0.00     0.027 H 
ATOM     78  H   UNL A   1      43.230  20.035  26.565  1.00  0.00     0.027 H 
ENDBRANCH  59  62
ENDBRANCH  56  59
ENDBRANCH  55  56
ENDBRANCH  28  55
ENDBRANCH  23  24
ENDBRANCH   8  23
ENDBRANCH   5   8
ENDBRANCH   1   4
BRANCH   1  79
ATOM     79  C   UNL A   1      32.633  28.949  27.141  1.00  0.00    -0.036 C 
ATOM     80  H   UNL A   1      32.593  28.753  28.192  1.00  0.00     0.028 H 
ATOM     81  H   UNL A   1      31.765  28.586  26.629  1.00  0.00     0.028 H 
BRANCH  79  82
ATOM     82  C   UNL A   1      32.682  30.464  26.931  1.00  0.00    -0.052 C 
ATOM     83  H   UNL A   1      31.779  30.883  27.321  1.00  0.00     0.027 H 
ATOM     84  H   UNL A   1      32.798  30.619  25.878  1.00  0.00     0.027 H 
BRANCH  82  85
ATOM     85  C   UNL A   1      33.866  31.165  27.605  1.00  0.00    -0.052 C 
ATOM     86  H   UNL A   1      34.761  30.856  27.107  1.00  0.00     0.027 H 
ATOM     87  H   UNL A   1      33.832  30.879  28.636  1.00  0.00     0.027 H 
BRANCH  85  88
ATOM     88  C   UNL A   1      33.815  32.696  27.586  1.00  0.00    -0.036 C 
ATOM     89  H   UNL A   1      34.319  33.035  26.705  1.00  0.00     0.028 H 
ATOM     90  H   UNL A   1      34.280  33.024  28.491  1.00  0.00     0.028 H 
BRANCH  88  91
ATOM     91  C   UNL A   1      32.410  33.290  27.585  1.00  0.00     0.018 C 
ATOM     92  H   UNL A   1      31.810  32.759  28.294  1.00  0.00     0.049 H 
ATOM     93  H   UNL A   1      32.013  33.199  26.595  1.00  0.00     0.049 H 
BRANCH  91  94
ATOM     94  N   UNL A   1      32.413  34.702  27.939  1.00  0.00    -0.352 N 
ATOM     95  C   UNL A   1      33.161  35.365  28.868  1.00  0.00     0.251 C 
ATOM     96  H   UNL A   1      31.781  35.261  27.433  1.00  0.00     0.163 HD
ATOM     97  O   UNL A   1      32.893  36.538  29.149  1.00  0.00    -0.269 OA
BRANCH  95  98
ATOM     98  C   UNL A   1      34.281  34.693  29.552  1.00  0.00     0.039 A 
ATOM     99  C   UNL A   1      34.024  34.013  30.746  1.00  0.00    -0.049 A 
ATOM    100  C   UNL A   1      35.586  34.765  29.051  1.00  0.00    -0.049 A 
ATOM    101  C   UNL A   1      35.066  33.373  31.417  1.00  0.00    -0.053 A 
ATOM    102  H   UNL A   1      33.067  33.985  31.129  1.00  0.00     0.063 H 
ATOM    103  C   UNL A   1      36.614  34.078  29.691  1.00  0.00    -0.053 A 
ATOM    104  H   UNL A   1      35.785  35.328  28.208  1.00  0.00     0.063 H 
ATOM    105  C   UNL A   1      36.365  33.384  30.884  1.00  0.00    -0.014 A 
ATOM    106  H   UNL A   1      34.881  32.888  32.309  1.00  0.00     0.063 H 
ATOM    107  H   UNL A   1      37.563  34.079  29.285  1.00  0.00     0.063 H 
BRANCH 105 108
ATOM    108  C   UNL A   1      37.467  32.672  31.575  1.00  0.00     0.031 A 
ATOM    109  C   UNL A   1      38.153  31.509  30.917  1.00  0.00     0.074 A 
ATOM    110  C   UNL A   1      37.823  33.055  32.816  1.00  0.00     0.049 A 
ATOM    111  N   UNL A   1      39.132  30.765  31.365  1.00  0.00    -0.248 NA
ATOM    112  C   UNL A   1      37.658  31.114  29.589  1.00  0.00    -0.034 C 
ATOM    113  C   UNL A   1      37.190  34.131  33.580  1.00  0.00    -0.036 A 
ATOM    114  N   UNL A   1      38.800  32.581  33.652  1.00  0.00    -0.354 N 
ATOM    115  C   UNL A   1      39.361  29.810  30.385  1.00  0.00     0.074 A 
ATOM    116  C   UNL A   1      38.390  30.038  29.336  1.00  0.00    -0.034 C 
ATOM    117  H   UNL A   1      36.931  31.558  29.007  1.00  0.00     0.065 H 
ATOM    118  C   UNL A   1      37.811  34.251  34.765  1.00  0.00    -0.036 A 
ATOM    119  H   UNL A   1      36.395  34.706  33.260  1.00  0.00     0.065 H 
ATOM    120  C   UNL A   1      38.868  33.247  34.851  1.00  0.00     0.049 A 
ATOM    121  H   UNL A   1      39.397  31.833  33.416  1.00  0.00     0.167 HD
ATOM    122  C   UNL A   1      40.311  28.845  30.351  1.00  0.00     0.037 A 
ATOM    123  H   UNL A   1      38.282  29.442  28.500  1.00  0.00     0.065 H 
ATOM    124  H   UNL A   1      37.578  34.940  35.497  1.00  0.00     0.065 H 
ATOM    125  C   UNL A   1      39.694  33.070  35.899  1.00  0.00     0.037 A 
ATOM    126  C   UNL A   1      41.295  28.640  31.382  1.00  0.00     0.049 A 
ATOM    127  C   UNL A   1      40.763  32.016  35.820  1.00  0.00     0.074 A 
ATOM    128  C   UNL A   1      42.341  27.734  31.411  1.00  0.00    -0.036 A 
ATOM    129  N   UNL A   1      41.353  29.355  32.569  1.00  0.00    -0.354 N 
ATOM    130  N   UNL A   1      41.020  31.169  34.853  1.00  0.00    -0.248 NA
ATOM    131  C   UNL A   1      41.664  31.901  36.975  1.00  0.00    -0.034 C 
ATOM    132  C   UNL A   1      43.011  27.877  32.631  1.00  0.00    -0.036 A 
ATOM    133  H   UNL A   1      42.585  27.068  30.662  1.00  0.00     0.065 H 
ATOM    134  C   UNL A   1      42.407  28.901  33.345  1.00  0.00     0.049 A 
ATOM    135  H   UNL A   1      40.737  30.080  32.823  1.00  0.00     0.167 HD
ATOM    136  C   UNL A   1      42.122  30.436  35.272  1.00  0.00     0.074 A 
ATOM    137  C   UNL A   1      42.497  30.952  36.572  1.00  0.00    -0.034 C 
ATOM    138  H   UNL A   1      41.652  32.422  37.865  1.00  0.00     0.065 H 
ATOM    139  H   UNL A   1      43.819  27.318  32.946  1.00  0.00     0.065 H 
ATOM    140  C   UNL A   1      42.765  29.425  34.637  1.00  0.00     0.037 A 
ATOM    141  H   UNL A   1      43.310  30.624  37.115  1.00  0.00     0.065 H 
BRANCH 122 142
ATOM    142  C   UNL A   1      40.338  27.938  29.157  1.00  0.00     0.064 A 
ATOM    143  C   UNL A   1      39.582  26.757  29.115  1.00  0.00     0.173 A 
ATOM    144  C   UNL A   1      41.097  28.272  28.025  1.00  0.00     0.173 A 
ATOM    145  F   UNL A   1      38.850  26.387  30.176  1.00  0.00    -0.203 F 
ATOM    146  C   UNL A   1      39.603  25.933  27.993  1.00  0.00     0.198 A 
ATOM    147  C   UNL A   1      41.094  27.460  26.894  1.00  0.00     0.198 A 
ATOM    148  F   UNL A   1      41.834  29.393  28.011  1.00  0.00    -0.203 F 
ATOM    149  F   UNL A   1      38.905  24.788  27.991  1.00  0.00    -0.200 F 
ATOM    150  C   UNL A   1      40.352  26.287  26.882  1.00  0.00     0.200 A 
ATOM    151  F   UNL A   1      41.811  27.809  25.818  1.00  0.00    -0.200 F 
ATOM    152  F   UNL A   1      40.366  25.497  25.800  1.00  0.00    -0.200 F 
ENDBRANCH 122 142
BRANCH 125 153
ATOM    153  C   UNL A   1      39.568  33.941  37.093  1.00  0.00     0.064 A 
ATOM    154  C   UNL A   1      38.816  33.532  38.205  1.00  0.00     0.173 A 
ATOM    155  C   UNL A   1      40.192  35.194  37.152  1.00  0.00     0.173 A 
ATOM    156  F   UNL A   1      38.184  32.349  38.186  1.00  0.00    -0.203 F 
ATOM    157  C   UNL A   1      38.680  34.353  39.321  1.00  0.00     0.198 A 
ATOM    158  C   UNL A   1      40.076  36.004  38.279  1.00  0.00     0.198 A 
ATOM    159  F   UNL A   1      40.926  35.627  36.116  1.00  0.00    -0.203 F 
ATOM    160  F   UNL A   1      37.922  33.957  40.353  1.00  0.00    -0.200 F 
ATOM    161  C   UNL A   1      39.314  35.586  39.360  1.00  0.00     0.200 A 
ATOM    162  F   UNL A   1      40.698  37.190  38.318  1.00  0.00    -0.200 F 
ATOM    163  F   UNL A   1      39.183  36.375  40.436  1.00  0.00    -0.200 F 
ENDBRANCH 125 153
BRANCH 140 164
ATOM    164  C   UNL A   1      43.949  28.827  35.335  1.00  0.00     0.064 A 
ATOM    165  C   UNL A   1      43.809  27.746  36.218  1.00  0.00     0.173 A 
ATOM    166  C   UNL A   1      45.239  29.326  35.102  1.00  0.00     0.173 A 
ATOM    167  F   UNL A   1      42.593  27.245  36.485  1.00  0.00    -0.203 F 
ATOM    168  C   UNL A   1      44.916  27.204  36.866  1.00  0.00     0.198 A 
ATOM    169  C   UNL A   1      46.347  28.764  35.731  1.00  0.00     0.198 A 
ATOM    170  F   UNL A   1      45.425  30.354  34.263  1.00  0.00    -0.203 F 
ATOM    171  F   UNL A   1      44.754  26.204  37.742  1.00  0.00    -0.200 F 
ATOM    172  C   UNL A   1      46.184  27.709  36.617  1.00  0.00     0.200 A 
ATOM    173  F   UNL A   1      47.572  29.246  35.483  1.00  0.00    -0.200 F 
ATOM    174  F   UNL A   1      47.248  27.186  37.240  1.00  0.00    -0.200 F 
ENDBRANCH 140 164
ENDBRANCH 105 108
ENDBRANCH  95  98
ENDBRANCH  91  94
ENDBRANCH  88  91
ENDBRANCH  85  88
ENDBRANCH  82  85
ENDBRANCH  79  82
ENDBRANCH   1  79
TORSDOF 27
ENDMDL
MODEL 2
REMARK VINA RESULT:     -11.1      0.610      2.110
REMARK SMILES CCCC[C@@H](Sc1nc(OCCC2CCCCC2)cc(OCCC2CCCCC2)n1)C(=O)NCCCCCCNC(=O)c1ccc(-c2c3nc(c(-c4c(F)c(F)c(F)c(F)c4F)c4ccc([nH]4)c(-c4c(F)c(F)c(F)c(F)c4F)c4nc(c(-c5c(F)c(F)c(F)c(F)c5F)c5ccc2[nH]5)C=C4)C=C3)cc1
REMARK SMILES IDX 34 1 33 4 31 5 32 6 5 8 4 10 3 13 2 16 1 19 6 23 7 24 8 25
REMARK SMILES IDX 30 26 9 27 20 28 19 29 10 31 11 32 12 35 13 38 14 39 18 40
REMARK SMILES IDX 15 42 17 45 16 48 21 55 22 56 23 59 24 62 25 63 29 64 26 66
REMARK SMILES IDX 28 69 27 72 35 79 36 82 37 85 38 88 39 91 40 94 41 95 42 97
REMARK SMILES IDX 43 98 44 99 105 100 45 101 104 103 46 105 47 108 48 109
REMARK SMILES IDX 98 110 49 111 103 112 97 113 99 114 50 115 102 116 96 118
REMARK SMILES IDX 95 120 51 122 83 125 63 126 82 127 64 128 67 129 81 130
REMARK SMILES IDX 100 131 65 132 66 134 80 136 101 137 68 140 52 142 53 143
REMARK SMILES IDX 61 144 54 145 55 146 59 147 62 148 56 149 57 150 60 151
REMARK SMILES IDX 58 152 84 153 85 154 93 155 86 156 87 157 91 158 94 159
REMARK SMILES IDX 88 160 89 161 92 162 90 163 69 164 70 165 78 166 71 167
REMARK SMILES IDX 72 168 76 169 79 170 73 171 74 172 77 173 75 174
REMARK H PARENT 34 2 34 3 33 7 5 9 4 11 4 12 3 14 3 15 2 17 2 18 1 20 1 21
REMARK H PARENT 1 22 19 30 11 33 11 34 12 36 12 37 13 41 14 43 14 44 18 46
REMARK H PARENT 18 47 15 49 15 50 17 51 17 52 16 53 16 54 22 57 22 58 23 60
REMARK H PARENT 23 61 24 65 25 67 25 68 29 70 29 71 26 73 26 74 28 75 28 76
REMARK H PARENT 27 77 27 78 35 80 35 81 36 83 36 84 37 86 37 87 38 89 38 90
REMARK H PARENT 39 92 39 93 40 96 44 102 105 104 45 106 104 107 103 117 97 119
REMARK H PARENT 99 121 102 123 96 124 64 133 67 135 100 138 65 139 101 141
REMARK Flexibility Score: inf
ROOT
ATOM      1  C   UNL A   1      34.107  28.321  26.175  1.00  0.00     0.017 C 
ATOM      2  H   UNL A   1      35.033  28.618  26.621  1.00  0.00     0.049 H 
ATOM      3  H   UNL A   1      34.027  27.254  26.149  1.00  0.00     0.049 H 
ENDROOT
BRANCH   1   4
ATOM      4  N   UNL A   1      34.057  28.819  24.810  1.00  0.00    -0.355 N 
ATOM      5  C   UNL A   1      33.477  28.273  23.696  1.00  0.00     0.233 C 
ATOM      6  O   UNL A   1      33.562  28.903  22.638  1.00  0.00    -0.274 OA
ATOM      7  H   UNL A   1      34.510  29.680  24.663  1.00  0.00     0.163 HD
BRANCH   5   8
ATOM      8  C   UNL A   1      32.775  26.906  23.753  1.00  0.00     0.091 C 
ATOM      9  H   UNL A   1      32.901  26.304  24.629  1.00  0.00     0.052 H 
BRANCH   8  10
ATOM     10  C   UNL A   1      31.246  27.138  23.811  1.00  0.00    -0.032 C 
ATOM     11  H   UNL A   1      31.082  28.001  24.421  1.00  0.00     0.028 H 
ATOM     12  H   UNL A   1      30.959  27.219  22.784  1.00  0.00     0.028 H 
BRANCH  10  13
ATOM     13  C   UNL A   1      30.347  26.022  24.360  1.00  0.00    -0.052 C 
ATOM     14  H   UNL A   1      29.365  26.176  23.964  1.00  0.00     0.027 H 
ATOM     15  H   UNL A   1      30.823  25.113  24.056  1.00  0.00     0.027 H 
BRANCH  13  16
ATOM     16  C   UNL A   1      30.218  25.907  25.876  1.00  0.00    -0.056 C 
ATOM     17  H   UNL A   1      29.963  26.869  26.267  1.00  0.00     0.026 H 
ATOM     18  H   UNL A   1      29.462  25.177  26.074  1.00  0.00     0.026 H 
BRANCH  16  19
ATOM     19  C   UNL A   1      31.489  25.432  26.555  1.00  0.00    -0.065 C 
ATOM     20  H   UNL A   1      32.296  26.086  26.300  1.00  0.00     0.023 H 
ATOM     21  H   UNL A   1      31.719  24.439  26.229  1.00  0.00     0.023 H 
ATOM     22  H   UNL A   1      31.350  25.435  27.616  1.00  0.00     0.023 H 
ENDBRANCH  16  19
ENDBRANCH  13  16
ENDBRANCH  10  13
ENDBRANCH   8  10
BRANCH   8  23
ATOM     23  S   UNL A   1      33.568  25.903  22.410  1.00  0.00    -0.073 SA
BRANCH  23  24
ATOM     24  C   UNL A   1      33.958  24.432  23.268  1.00  0.00     0.195 A 
ATOM     25  N   UNL A   1      32.938  23.696  23.728  1.00  0.00    -0.187 NA
ATOM     26  N   UNL A   1      35.251  24.140  23.401  1.00  0.00    -0.187 NA
ATOM     27  C   UNL A   1      33.261  22.634  24.474  1.00  0.00     0.221 A 
ATOM     28  C   UNL A   1      35.540  23.049  24.110  1.00  0.00     0.221 A 
ATOM     29  C   UNL A   1      34.571  22.314  24.747  1.00  0.00     0.063 A 
ATOM     30  H   UNL A   1      34.815  21.555  25.402  1.00  0.00     0.074 H 
BRANCH  27  31
ATOM     31  O   UNL A   1      32.169  21.904  24.854  1.00  0.00    -0.477 OA
BRANCH  31  32
ATOM     32  C   UNL A   1      32.314  20.516  25.127  1.00  0.00     0.090 C 
ATOM     33  H   UNL A   1      31.460  20.203  25.691  1.00  0.00     0.071 H 
ATOM     34  H   UNL A   1      33.242  20.420  25.649  1.00  0.00     0.071 H 
BRANCH  32  35
ATOM     35  C   UNL A   1      32.430  19.592  23.893  1.00  0.00    -0.016 C 
ATOM     36  H   UNL A   1      33.169  20.011  23.242  1.00  0.00     0.030 H 
ATOM     37  H   UNL A   1      31.444  19.550  23.479  1.00  0.00     0.030 H 
BRANCH  35  38
ATOM     38  C   UNL A   1      32.818  18.131  24.159  1.00  0.00    -0.038 C 
ATOM     39  C   UNL A   1      34.303  17.831  23.918  1.00  0.00    -0.050 C 
ATOM     40  C   UNL A   1      32.447  17.663  25.573  1.00  0.00    -0.050 C 
ATOM     41  H   UNL A   1      32.242  17.583  23.443  1.00  0.00     0.030 H 
ATOM     42  C   UNL A   1      34.546  16.319  24.020  1.00  0.00    -0.053 C 
ATOM     43  H   UNL A   1      34.894  18.337  24.654  1.00  0.00     0.027 H 
ATOM     44  H   UNL A   1      34.582  18.171  22.942  1.00  0.00     0.027 H 
ATOM     45  C   UNL A   1      32.612  16.150  25.671  1.00  0.00    -0.053 C 
ATOM     46  H   UNL A   1      31.430  17.925  25.779  1.00  0.00     0.027 H 
ATOM     47  H   UNL A   1      33.091  18.137  26.284  1.00  0.00     0.027 H 
ATOM     48  C   UNL A   1      34.038  15.724  25.335  1.00  0.00    -0.053 C 
ATOM     49  H   UNL A   1      35.598  16.136  23.945  1.00  0.00     0.027 H 
ATOM     50  H   UNL A   1      34.004  15.852  23.224  1.00  0.00     0.027 H 
ATOM     51  H   UNL A   1      32.381  15.839  26.668  1.00  0.00     0.027 H 
ATOM     52  H   UNL A   1      31.947  15.692  24.968  1.00  0.00     0.027 H 
ATOM     53  H   UNL A   1      34.684  16.043  26.125  1.00  0.00     0.027 H 
ATOM     54  H   UNL A   1      34.036  14.660  25.224  1.00  0.00     0.027 H 
ENDBRANCH  35  38
ENDBRANCH  32  35
ENDBRANCH  31  32
ENDBRANCH  27  31
BRANCH  28  55
ATOM     55  O   UNL A   1      36.878  22.821  24.198  1.00  0.00    -0.477 OA
BRANCH  55  56
ATOM     56  C   UNL A   1      37.376  21.988  25.239  1.00  0.00     0.090 C 
ATOM     57  H   UNL A   1      37.476  20.986  24.878  1.00  0.00     0.071 H 
ATOM     58  H   UNL A   1      36.698  22.001  26.066  1.00  0.00     0.071 H 
BRANCH  56  59
ATOM     59  C   UNL A   1      38.747  22.509  25.690  1.00  0.00    -0.016 C 
ATOM     60  H   UNL A   1      38.585  23.419  26.229  1.00  0.00     0.030 H 
ATOM     61  H   UNL A   1      39.316  22.614  24.791  1.00  0.00     0.030 H 
BRANCH  59  62
ATOM     62  C   UNL A   1      39.588  21.573  26.594  1.00  0.00    -0.038 C 
ATOM     63  C   UNL A   1      39.917  20.203  25.963  1.00  0.00    -0.050 C 
ATOM     64  C   UNL A   1      40.760  22.321  27.240  1.00  0.00    -0.050 C 
ATOM     65  H   UNL A   1      38.966  21.279  27.413  1.00  0.00     0.030 H 
ATOM     66  C   UNL A   1      41.356  19.682  26.012  1.00  0.00    -0.053 C 
ATOM     67  H   UNL A   1      39.640  20.260  24.931  1.00  0.00     0.027 H 
ATOM     68  H   UNL A   1      39.375  19.507  26.569  1.00  0.00     0.027 H 
ATOM     69  C   UNL A   1      41.793  21.374  27.828  1.00  0.00    -0.053 C 
ATOM     70  H   UNL A   1      40.382  22.946  28.022  1.00  0.00     0.027 H 
ATOM     71  H   UNL A   1      41.241  22.898  26.477  1.00  0.00     0.027 H 
ATOM     72  C   UNL A   1      42.387  20.556  26.705  1.00  0.00    -0.053 C 
ATOM     73  H   UNL A   1      41.682  19.540  25.002  1.00  0.00     0.027 H 
ATOM     74  H   UNL A   1      41.308  18.791  26.603  1.00  0.00     0.027 H 
ATOM     75  H   UNL A   1      42.565  21.938  28.311  1.00  0.00     0.027 H 
ATOM     76  H   UNL A   1      41.333  20.731  28.549  1.00  0.00     0.027 H 
ATOM     77  H   UNL A   1      42.812  21.222  25.983  1.00  0.00     0.027 H 
ATOM     78  H   UNL A   1      43.126  19.909  27.130  1.00  0.00     0.027 H 
ENDBRANCH  59  62
ENDBRANCH  56  59
ENDBRANCH  55  56
ENDBRANCH  28  55
ENDBRANCH  23  24
ENDBRANCH   8  23
ENDBRANCH   5   8
ENDBRANCH   1   4
BRANCH   1  79
ATOM     79  C   UNL A   1      32.955  28.873  27.004  1.00  0.00    -0.036 C 
ATOM     80  H   UNL A   1      33.123  28.618  28.030  1.00  0.00     0.028 H 
ATOM     81  H   UNL A   1      32.054  28.438  26.622  1.00  0.00     0.028 H 
BRANCH  79  82
ATOM     82  C   UNL A   1      32.803  30.392  26.899  1.00  0.00    -0.052 C 
ATOM     83  H   UNL A   1      31.819  30.652  27.227  1.00  0.00     0.027 H 
ATOM     84  H   UNL A   1      32.987  30.644  25.875  1.00  0.00     0.027 H 
BRANCH  82  85
ATOM     85  C   UNL A   1      33.811  31.193  27.730  1.00  0.00    -0.052 C 
ATOM     86  H   UNL A   1      34.793  30.840  27.491  1.00  0.00     0.027 H 
ATOM     87  H   UNL A   1      33.540  31.041  28.754  1.00  0.00     0.027 H 
BRANCH  85  88
ATOM     88  C   UNL A   1      33.785  32.709  27.504  1.00  0.00    -0.036 C 
ATOM     89  H   UNL A   1      34.148  32.905  26.517  1.00  0.00     0.028 H 
ATOM     90  H   UNL A   1      34.394  33.138  28.271  1.00  0.00     0.028 H 
BRANCH  88  91
ATOM     91  C   UNL A   1      32.408  33.352  27.638  1.00  0.00     0.018 C 
ATOM     92  H   UNL A   1      31.868  32.855  28.416  1.00  0.00     0.049 H 
ATOM     93  H   UNL A   1      31.907  33.259  26.696  1.00  0.00     0.049 H 
BRANCH  91  94
ATOM     94  N   UNL A   1      32.495  34.769  27.960  1.00  0.00    -0.352 N 
ATOM     95  C   UNL A   1      33.273  35.406  28.883  1.00  0.00     0.251 C 
ATOM     96  H   UNL A   1      31.904  35.354  27.434  1.00  0.00     0.163 HD
ATOM     97  O   UNL A   1      33.076  36.599  29.134  1.00  0.00    -0.269 OA
BRANCH  95  98
ATOM     98  C   UNL A   1      34.343  34.681  29.594  1.00  0.00     0.039 A 
ATOM     99  C   UNL A   1      35.638  34.721  29.072  1.00  0.00    -0.049 A 
ATOM    100  C   UNL A   1      34.071  33.929  30.742  1.00  0.00    -0.049 A 
ATOM    101  C   UNL A   1      36.668  34.040  29.720  1.00  0.00    -0.053 A 
ATOM    102  H   UNL A   1      35.832  35.252  28.209  1.00  0.00     0.063 H 
ATOM    103  C   UNL A   1      35.109  33.297  31.421  1.00  0.00    -0.053 A 
ATOM    104  H   UNL A   1      33.100  33.843  31.085  1.00  0.00     0.063 H 
ATOM    105  C   UNL A   1      36.415  33.340  30.911  1.00  0.00    -0.014 A 
ATOM    106  H   UNL A   1      37.621  34.052  29.324  1.00  0.00     0.063 H 
ATOM    107  H   UNL A   1      34.918  32.796  32.303  1.00  0.00     0.063 H 
BRANCH 105 108
ATOM    108  C   UNL A   1      37.516  32.646  31.623  1.00  0.00     0.031 A 
ATOM    109  C   UNL A   1      38.223  31.485  30.984  1.00  0.00     0.074 A 
ATOM    110  C   UNL A   1      37.851  33.043  32.864  1.00  0.00     0.049 A 
ATOM    111  N   UNL A   1      39.204  30.755  31.451  1.00  0.00    -0.248 NA
ATOM    112  C   UNL A   1      37.750  31.073  29.653  1.00  0.00    -0.034 C 
ATOM    113  C   UNL A   1      37.196  34.118  33.611  1.00  0.00    -0.036 A 
ATOM    114  N   UNL A   1      38.822  32.587  33.718  1.00  0.00    -0.354 N 
ATOM    115  C   UNL A   1      39.457  29.795  30.482  1.00  0.00     0.074 A 
ATOM    116  C   UNL A   1      38.497  30.003  29.418  1.00  0.00    -0.034 C 
ATOM    117  H   UNL A   1      37.026  31.504  29.057  1.00  0.00     0.065 H 
ATOM    118  C   UNL A   1      37.800  34.254  34.803  1.00  0.00    -0.036 A 
ATOM    119  H   UNL A   1      36.399  34.682  33.275  1.00  0.00     0.065 H 
ATOM    120  C   UNL A   1      38.866  33.263  34.911  1.00  0.00     0.049 A 
ATOM    121  H   UNL A   1      39.430  31.844  33.496  1.00  0.00     0.167 HD
ATOM    122  C   UNL A   1      40.418  28.840  30.469  1.00  0.00     0.037 A 
ATOM    123  H   UNL A   1      38.407  29.399  28.586  1.00  0.00     0.065 H 
ATOM    124  H   UNL A   1      37.550  34.947  35.526  1.00  0.00     0.065 H 
ATOM    125  C   UNL A   1      39.681  33.105  35.972  1.00  0.00     0.037 A 
ATOM    126  C   UNL A   1      41.390  28.655  31.514  1.00  0.00     0.049 A 
ATOM    127  C   UNL A   1      40.762  32.061  35.916  1.00  0.00     0.074 A 
ATOM    128  C   UNL A   1      42.445  27.761  31.565  1.00  0.00    -0.036 A 
ATOM    129  N   UNL A   1      41.424  29.381  32.696  1.00  0.00    -0.354 N 
ATOM    130  N   UNL A   1      41.041  31.209  34.960  1.00  0.00    -0.248 NA
ATOM    131  C   UNL A   1      41.649  31.967  37.084  1.00  0.00    -0.034 C 
ATOM    132  C   UNL A   1      43.098  27.922  32.792  1.00  0.00    -0.036 A 
ATOM    133  H   UNL A   1      42.707  27.092  30.825  1.00  0.00     0.065 H 
ATOM    134  C   UNL A   1      42.473  28.944  33.489  1.00  0.00     0.049 A 
ATOM    135  H   UNL A   1      40.797  30.101  32.935  1.00  0.00     0.167 HD
ATOM    136  C   UNL A   1      42.145  30.493  35.399  1.00  0.00     0.074 A 
ATOM    137  C   UNL A   1      42.497  31.024  36.700  1.00  0.00    -0.034 C 
ATOM    138  H   UNL A   1      41.619  32.495  37.969  1.00  0.00     0.065 H 
ATOM    139  H   UNL A   1      43.907  27.374  33.122  1.00  0.00     0.065 H 
ATOM    140  C   UNL A   1      42.808  29.484  34.781  1.00  0.00     0.037 A 
ATOM    141  H   UNL A   1      43.306  30.708  37.257  1.00  0.00     0.065 H 
BRANCH 122 142
ATOM    142  C   UNL A   1      40.470  27.923  29.283  1.00  0.00     0.064 A 
ATOM    143  C   UNL A   1      41.369  28.140  28.228  1.00  0.00     0.173 A 
ATOM    144  C   UNL A   1      39.641  26.794  29.217  1.00  0.00     0.173 A 
ATOM    145  F   UNL A   1      42.174  29.212  28.237  1.00  0.00    -0.203 F 
ATOM    146  C   UNL A   1      41.420  27.272  27.141  1.00  0.00     0.198 A 
ATOM    147  C   UNL A   1      39.713  25.913  28.141  1.00  0.00     0.198 A 
ATOM    148  F   UNL A   1      38.766  26.538  30.202  1.00  0.00    -0.203 F 
ATOM    149  F   UNL A   1      42.258  27.521  26.124  1.00  0.00    -0.200 F 
ATOM    150  C   UNL A   1      40.597  26.156  27.101  1.00  0.00     0.200 A 
ATOM    151  F   UNL A   1      38.925  24.830  28.110  1.00  0.00    -0.200 F 
ATOM    152  F   UNL A   1      40.652  25.318  26.057  1.00  0.00    -0.200 F 
ENDBRANCH 122 142
BRANCH 125 153
ATOM    153  C   UNL A   1      39.528  33.984  37.157  1.00  0.00     0.064 A 
ATOM    154  C   UNL A   1      40.150  35.239  37.207  1.00  0.00     0.173 A 
ATOM    155  C   UNL A   1      38.761  33.590  38.262  1.00  0.00     0.173 A 
ATOM    156  F   UNL A   1      40.910  35.650  36.180  1.00  0.00    -0.203 F 
ATOM    157  C   UNL A   1      40.024  36.060  38.325  1.00  0.00     0.198 A 
ATOM    158  C   UNL A   1      38.615  34.422  39.370  1.00  0.00     0.198 A 
ATOM    159  F   UNL A   1      38.143  32.400  38.260  1.00  0.00    -0.203 F 
ATOM    160  F   UNL A   1      40.663  37.238  38.363  1.00  0.00    -0.200 F 
ATOM    161  C   UNL A   1      39.253  35.654  39.403  1.00  0.00     0.200 A 
ATOM    162  F   UNL A   1      37.861  34.032  40.406  1.00  0.00    -0.200 F 
ATOM    163  F   UNL A   1      39.131  36.445  40.478  1.00  0.00    -0.200 F 
ENDBRANCH 125 153
BRANCH 140 164
ATOM    164  C   UNL A   1      43.989  28.904  35.501  1.00  0.00     0.064 A 
ATOM    165  C   UNL A   1      45.283  29.408  35.309  1.00  0.00     0.173 A 
ATOM    166  C   UNL A   1      43.821  27.848  36.409  1.00  0.00     0.173 A 
ATOM    167  F   UNL A   1      45.496  30.408  34.438  1.00  0.00    -0.203 F 
ATOM    168  C   UNL A   1      46.372  28.857  35.977  1.00  0.00     0.198 A 
ATOM    169  C   UNL A   1      44.908  27.317  37.096  1.00  0.00     0.198 A 
ATOM    170  F   UNL A   1      42.602  27.336  36.631  1.00  0.00    -0.203 F 
ATOM    171  F   UNL A   1      47.607  29.322  35.742  1.00  0.00    -0.200 F 
ATOM    172  C   UNL A   1      46.183  27.816  36.875  1.00  0.00     0.200 A 
ATOM    173  F   UNL A   1      44.723  26.318  37.970  1.00  0.00    -0.200 F 
ATOM    174  F   UNL A   1      47.232  27.287  37.518  1.00  0.00    -0.200 F 
ENDBRANCH 140 164
ENDBRANCH 105 108
ENDBRANCH  95  98
ENDBRANCH  91  94
ENDBRANCH  88  91
ENDBRANCH  85  88
ENDBRANCH  82  85
ENDBRANCH  79  82
ENDBRANCH   1  79
TORSDOF 27
ENDMDL
MODEL 3
REMARK VINA RESULT:     -10.8      0.858      3.912
REMARK SMILES CCCC[C@@H](Sc1nc(OCCC2CCCCC2)cc(OCCC2CCCCC2)n1)C(=O)NCCCCCCNC(=O)c1ccc(-c2c3nc(c(-c4c(F)c(F)c(F)c(F)c4F)c4ccc([nH]4)c(-c4c(F)c(F)c(F)c(F)c4F)c4nc(c(-c5c(F)c(F)c(F)c(F)c5F)c5ccc2[nH]5)C=C4)C=C3)cc1
REMARK SMILES IDX 34 1 33 4 31 5 32 6 5 8 4 10 3 13 2 16 1 19 6 23 7 24 8 25
REMARK SMILES IDX 30 26 9 27 20 28 19 29 10 31 11 32 12 35 13 38 14 39 18 40
REMARK SMILES IDX 15 42 17 45 16 48 21 55 22 56 23 59 24 62 25 63 29 64 26 66
REMARK SMILES IDX 28 69 27 72 35 79 36 82 37 85 38 88 39 91 40 94 41 95 42 97
REMARK SMILES IDX 43 98 44 99 105 100 45 101 104 103 46 105 47 108 48 109
REMARK SMILES IDX 98 110 49 111 103 112 97 113 99 114 50 115 102 116 96 118
REMARK SMILES IDX 95 120 51 122 83 125 63 126 82 127 64 128 67 129 81 130
REMARK SMILES IDX 100 131 65 132 66 134 80 136 101 137 68 140 52 142 53 143
REMARK SMILES IDX 61 144 54 145 55 146 59 147 62 148 56 149 57 150 60 151
REMARK SMILES IDX 58 152 84 153 85 154 93 155 86 156 87 157 91 158 94 159
REMARK SMILES IDX 88 160 89 161 92 162 90 163 69 164 70 165 78 166 71 167
REMARK SMILES IDX 72 168 76 169 79 170 73 171 74 172 77 173 75 174
REMARK H PARENT 34 2 34 3 33 7 5 9 4 11 4 12 3 14 3 15 2 17 2 18 1 20 1 21
REMARK H PARENT 1 22 19 30 11 33 11 34 12 36 12 37 13 41 14 43 14 44 18 46
REMARK H PARENT 18 47 15 49 15 50 17 51 17 52 16 53 16 54 22 57 22 58 23 60
REMARK H PARENT 23 61 24 65 25 67 25 68 29 70 29 71 26 73 26 74 28 75 28 76
REMARK H PARENT 27 77 27 78 35 80 35 81 36 83 36 84 37 86 37 87 38 89 38 90
REMARK H PARENT 39 92 39 93 40 96 44 102 105 104 45 106 104 107 103 117 97 119
REMARK H PARENT 99 121 102 123 96 124 64 133 67 135 100 138 65 139 101 141
REMARK Flexibility Score: inf
ROOT
ATOM      1  C   UNL A   1      33.931  28.287  25.443  1.00  0.00     0.017 C 
ATOM      2  H   UNL A   1      34.746  28.933  25.192  1.00  0.00     0.049 H 
ATOM      3  H   UNL A   1      34.272  27.280  25.566  1.00  0.00     0.049 H 
ENDROOT
BRANCH   1   4
ATOM      4  N   UNL A   1      32.955  28.313  24.366  1.00  0.00    -0.355 N 
ATOM      5  C   UNL A   1      32.265  27.286  23.779  1.00  0.00     0.233 C 
ATOM      6  O   UNL A   1      31.471  27.569  22.878  1.00  0.00    -0.274 OA
ATOM      7  H   UNL A   1      32.760  29.207  24.002  1.00  0.00     0.163 HD
BRANCH   5   8
ATOM      8  C   UNL A   1      32.497  25.827  24.205  1.00  0.00     0.091 C 
ATOM      9  H   UNL A   1      32.894  25.636  25.180  1.00  0.00     0.052 H 
BRANCH   8  10
ATOM     10  C   UNL A   1      31.124  25.126  24.337  1.00  0.00    -0.032 C 
ATOM     11  H   UNL A   1      30.433  25.672  23.730  1.00  0.00     0.028 H 
ATOM     12  H   UNL A   1      31.321  24.116  24.046  1.00  0.00     0.028 H 
BRANCH  10  13
ATOM     13  C   UNL A   1      30.491  24.993  25.730  1.00  0.00    -0.052 C 
ATOM     14  H   UNL A   1      31.009  25.663  26.383  1.00  0.00     0.027 H 
ATOM     15  H   UNL A   1      29.454  25.211  25.581  1.00  0.00     0.027 H 
BRANCH  13  16
ATOM     16  C   UNL A   1      30.510  23.612  26.379  1.00  0.00    -0.056 C 
ATOM     17  H   UNL A   1      29.627  23.505  26.973  1.00  0.00     0.026 H 
ATOM     18  H   UNL A   1      30.556  22.892  25.589  1.00  0.00     0.026 H 
BRANCH  16  19
ATOM     19  C   UNL A   1      31.719  23.380  27.267  1.00  0.00    -0.065 C 
ATOM     20  H   UNL A   1      31.738  24.116  28.044  1.00  0.00     0.023 H 
ATOM     21  H   UNL A   1      32.612  23.457  26.683  1.00  0.00     0.023 H 
ATOM     22  H   UNL A   1      31.661  22.404  27.702  1.00  0.00     0.023 H 
ENDBRANCH  16  19
ENDBRANCH  13  16
ENDBRANCH  10  13
ENDBRANCH   8  10
BRANCH   8  23
ATOM     23  S   UNL A   1      33.816  25.198  23.062  1.00  0.00    -0.073 SA
BRANCH  23  24
ATOM     24  C   UNL A   1      34.443  23.847  23.975  1.00  0.00     0.195 A 
ATOM     25  N   UNL A   1      35.757  23.831  24.231  1.00  0.00    -0.187 NA
ATOM     26  N   UNL A   1      33.563  22.923  24.360  1.00  0.00    -0.187 NA
ATOM     27  C   UNL A   1      36.231  22.737  24.836  1.00  0.00     0.221 A 
ATOM     28  C   UNL A   1      34.060  21.867  25.002  1.00  0.00     0.221 A 
ATOM     29  C   UNL A   1      35.410  21.688  25.180  1.00  0.00     0.063 A 
ATOM     30  H   UNL A   1      35.791  20.805  25.555  1.00  0.00     0.074 H 
BRANCH  27  31
ATOM     31  O   UNL A   1      37.567  22.824  25.115  1.00  0.00    -0.477 OA
BRANCH  31  32
ATOM     32  C   UNL A   1      38.255  21.686  25.619  1.00  0.00     0.090 C 
ATOM     33  H   UNL A   1      38.593  21.112  24.782  1.00  0.00     0.071 H 
ATOM     34  H   UNL A   1      37.551  21.177  26.243  1.00  0.00     0.071 H 
BRANCH  32  35
ATOM     35  C   UNL A   1      39.478  21.979  26.519  1.00  0.00    -0.016 C 
ATOM     36  H   UNL A   1      39.338  21.449  27.438  1.00  0.00     0.030 H 
ATOM     37  H   UNL A   1      39.506  23.044  26.617  1.00  0.00     0.030 H 
BRANCH  35  38
ATOM     38  C   UNL A   1      40.853  21.587  25.961  1.00  0.00    -0.038 C 
ATOM     39  C   UNL A   1      41.939  22.647  26.191  1.00  0.00    -0.050 C 
ATOM     40  C   UNL A   1      41.358  20.244  26.505  1.00  0.00    -0.050 C 
ATOM     41  H   UNL A   1      40.683  21.501  24.909  1.00  0.00     0.030 H 
ATOM     42  C   UNL A   1      43.213  22.251  25.433  1.00  0.00    -0.053 C 
ATOM     43  H   UNL A   1      42.155  22.717  27.238  1.00  0.00     0.027 H 
ATOM     44  H   UNL A   1      41.592  23.595  25.835  1.00  0.00     0.027 H 
ATOM     45  C   UNL A   1      42.582  19.798  25.712  1.00  0.00    -0.053 C 
ATOM     46  H   UNL A   1      40.585  19.509  26.411  1.00  0.00     0.027 H 
ATOM     47  H   UNL A   1      41.623  20.355  27.536  1.00  0.00     0.027 H 
ATOM     48  C   UNL A   1      43.694  20.841  25.777  1.00  0.00    -0.053 C 
ATOM     49  H   UNL A   1      43.988  22.947  25.679  1.00  0.00     0.027 H 
ATOM     50  H   UNL A   1      42.983  22.267  24.388  1.00  0.00     0.027 H 
ATOM     51  H   UNL A   1      42.943  18.877  26.120  1.00  0.00     0.027 H 
ATOM     52  H   UNL A   1      42.295  19.672  24.690  1.00  0.00     0.027 H 
ATOM     53  H   UNL A   1      44.096  20.850  26.768  1.00  0.00     0.027 H 
ATOM     54  H   UNL A   1      44.430  20.567  25.050  1.00  0.00     0.027 H 
ENDBRANCH  35  38
ENDBRANCH  32  35
ENDBRANCH  31  32
ENDBRANCH  27  31
BRANCH  28  55
ATOM     55  O   UNL A   1      33.100  20.972  25.360  1.00  0.00    -0.477 OA
BRANCH  55  56
ATOM     56  C   UNL A   1      32.256  20.416  24.358  1.00  0.00     0.090 C 
ATOM     57  H   UNL A   1      32.114  21.130  23.574  1.00  0.00     0.071 H 
ATOM     58  H   UNL A   1      31.307  20.166  24.785  1.00  0.00     0.071 H 
BRANCH  56  59
ATOM     59  C   UNL A   1      32.912  19.152  23.788  1.00  0.00    -0.016 C 
ATOM     60  H   UNL A   1      33.701  19.464  23.135  1.00  0.00     0.030 H 
ATOM     61  H   UNL A   1      32.120  18.616  23.311  1.00  0.00     0.030 H 
BRANCH  59  62
ATOM     62  C   UNL A   1      33.517  18.157  24.811  1.00  0.00    -0.038 C 
ATOM     63  C   UNL A   1      32.474  17.420  25.676  1.00  0.00    -0.050 C 
ATOM     64  C   UNL A   1      34.604  17.286  24.170  1.00  0.00    -0.050 C 
ATOM     65  H   UNL A   1      34.029  18.735  25.551  1.00  0.00     0.030 H 
ATOM     66  C   UNL A   1      32.576  15.900  25.841  1.00  0.00    -0.053 C 
ATOM     67  H   UNL A   1      31.513  17.623  25.250  1.00  0.00     0.027 H 
ATOM     68  H   UNL A   1      32.651  17.794  26.663  1.00  0.00     0.027 H 
ATOM     69  C   UNL A   1      34.954  16.081  25.026  1.00  0.00    -0.053 C 
ATOM     70  H   UNL A   1      35.485  17.878  24.033  1.00  0.00     0.027 H 
ATOM     71  H   UNL A   1      34.227  16.926  23.234  1.00  0.00     0.027 H 
ATOM     72  C   UNL A   1      33.729  15.203  25.141  1.00  0.00    -0.053 C 
ATOM     73  H   UNL A   1      31.668  15.474  25.468  1.00  0.00     0.027 H 
ATOM     74  H   UNL A   1      32.754  15.747  26.885  1.00  0.00     0.027 H 
ATOM     75  H   UNL A   1      35.750  15.531  24.567  1.00  0.00     0.027 H 
ATOM     76  H   UNL A   1      35.271  16.399  25.997  1.00  0.00     0.027 H 
ATOM     77  H   UNL A   1      33.414  14.923  24.157  1.00  0.00     0.027 H 
ATOM     78  H   UNL A   1      33.995  14.350  25.728  1.00  0.00     0.027 H 
ENDBRANCH  59  62
ENDBRANCH  56  59
ENDBRANCH  55  56
ENDBRANCH  28  55
ENDBRANCH  23  24
ENDBRANCH   8  23
ENDBRANCH   5   8
ENDBRANCH   1   4
BRANCH   1  79
ATOM     79  C   UNL A   1      33.314  28.752  26.756  1.00  0.00    -0.036 C 
ATOM     80  H   UNL A   1      34.031  28.609  27.537  1.00  0.00     0.028 H 
ATOM     81  H   UNL A   1      32.427  28.172  26.911  1.00  0.00     0.028 H 
BRANCH  79  82
ATOM     82  C   UNL A   1      32.896  30.224  26.743  1.00  0.00    -0.052 C 
ATOM     83  H   UNL A   1      31.878  30.284  27.067  1.00  0.00     0.027 H 
ATOM     84  H   UNL A   1      33.040  30.571  25.741  1.00  0.00     0.027 H 
BRANCH  82  85
ATOM     85  C   UNL A   1      33.738  31.135  27.642  1.00  0.00    -0.052 C 
ATOM     86  H   UNL A   1      34.762  30.839  27.547  1.00  0.00     0.027 H 
ATOM     87  H   UNL A   1      33.350  31.017  28.632  1.00  0.00     0.027 H 
BRANCH  85  88
ATOM     88  C   UNL A   1      33.645  32.631  27.324  1.00  0.00    -0.036 C 
ATOM     89  H   UNL A   1      33.814  32.761  26.276  1.00  0.00     0.028 H 
ATOM     90  H   UNL A   1      34.379  33.115  27.933  1.00  0.00     0.028 H 
BRANCH  88  91
ATOM     91  C   UNL A   1      32.307  33.278  27.671  1.00  0.00     0.018 C 
ATOM     92  H   UNL A   1      31.908  32.802  28.542  1.00  0.00     0.049 H 
ATOM     93  H   UNL A   1      31.655  33.158  26.830  1.00  0.00     0.049 H 
BRANCH  91  94
ATOM     94  N   UNL A   1      32.440  34.702  27.935  1.00  0.00    -0.352 N 
ATOM     95  C   UNL A   1      33.265  35.353  28.807  1.00  0.00     0.251 C 
ATOM     96  H   UNL A   1      31.846  35.283  27.407  1.00  0.00     0.163 HD
ATOM     97  O   UNL A   1      33.105  36.560  29.020  1.00  0.00    -0.269 OA
BRANCH  95  98
ATOM     98  C   UNL A   1      34.339  34.628  29.510  1.00  0.00     0.039 A 
ATOM     99  C   UNL A   1      35.637  34.696  28.997  1.00  0.00    -0.049 A 
ATOM    100  C   UNL A   1      34.070  33.848  30.641  1.00  0.00    -0.049 A 
ATOM    101  C   UNL A   1      36.672  34.015  29.638  1.00  0.00    -0.053 A 
ATOM    102  H   UNL A   1      35.829  35.247  28.147  1.00  0.00     0.063 H 
ATOM    103  C   UNL A   1      35.113  33.217  31.313  1.00  0.00    -0.053 A 
ATOM    104  H   UNL A   1      33.099  33.743  30.976  1.00  0.00     0.063 H 
ATOM    105  C   UNL A   1      36.421  33.287  30.812  1.00  0.00    -0.014 A 
ATOM    106  H   UNL A   1      37.627  34.048  29.248  1.00  0.00     0.063 H 
ATOM    107  H   UNL A   1      34.923  32.695  32.183  1.00  0.00     0.063 H 
BRANCH 105 108
ATOM    108  C   UNL A   1      37.527  32.593  31.517  1.00  0.00     0.031 A 
ATOM    109  C   UNL A   1      38.228  31.431  30.873  1.00  0.00     0.074 A 
ATOM    110  C   UNL A   1      37.871  32.990  32.755  1.00  0.00     0.049 A 
ATOM    111  N   UNL A   1      39.213  30.702  31.334  1.00  0.00    -0.248 NA
ATOM    112  C   UNL A   1      37.746  31.019  29.545  1.00  0.00    -0.034 C 
ATOM    113  C   UNL A   1      37.222  34.066  33.507  1.00  0.00    -0.036 A 
ATOM    114  N   UNL A   1      38.848  32.534  33.602  1.00  0.00    -0.354 N 
ATOM    115  C   UNL A   1      39.458  29.741  30.363  1.00  0.00     0.074 A 
ATOM    116  C   UNL A   1      38.491  29.949  29.306  1.00  0.00    -0.034 C 
ATOM    117  H   UNL A   1      37.018  31.450  28.955  1.00  0.00     0.065 H 
ATOM    118  C   UNL A   1      37.834  34.203  34.694  1.00  0.00    -0.036 A 
ATOM    119  H   UNL A   1      36.423  34.630  33.176  1.00  0.00     0.065 H 
ATOM    120  C   UNL A   1      38.901  33.211  34.795  1.00  0.00     0.049 A 
ATOM    121  H   UNL A   1      39.454  31.791  33.377  1.00  0.00     0.167 HD
ATOM    122  C   UNL A   1      40.419  28.785  30.344  1.00  0.00     0.037 A 
ATOM    123  H   UNL A   1      38.395  29.344  28.475  1.00  0.00     0.065 H 
ATOM    124  H   UNL A   1      37.589  34.896  35.418  1.00  0.00     0.065 H 
ATOM    125  C   UNL A   1      39.723  33.053  35.849  1.00  0.00     0.037 A 
ATOM    126  C   UNL A   1      41.398  28.600  31.382  1.00  0.00     0.049 A 
ATOM    127  C   UNL A   1      40.803  32.009  35.787  1.00  0.00     0.074 A 
ATOM    128  C   UNL A   1      42.453  27.706  31.425  1.00  0.00    -0.036 A 
ATOM    129  N   UNL A   1      41.441  29.327  32.563  1.00  0.00    -0.354 N 
ATOM    130  N   UNL A   1      41.075  31.156  34.829  1.00  0.00    -0.248 NA
ATOM    131  C   UNL A   1      41.698  31.914  36.948  1.00  0.00    -0.034 C 
ATOM    132  C   UNL A   1      43.115  27.867  32.648  1.00  0.00    -0.036 A 
ATOM    133  H   UNL A   1      42.709  27.036  30.684  1.00  0.00     0.065 H 
ATOM    134  C   UNL A   1      42.496  28.890  33.349  1.00  0.00     0.049 A 
ATOM    135  H   UNL A   1      40.816  30.047  32.806  1.00  0.00     0.167 HD
ATOM    136  C   UNL A   1      42.182  30.440  35.261  1.00  0.00     0.074 A 
ATOM    137  C   UNL A   1      42.544  30.971  36.558  1.00  0.00    -0.034 C 
ATOM    138  H   UNL A   1      41.675  32.443  37.834  1.00  0.00     0.065 H 
ATOM    139  H   UNL A   1      43.926  27.319  32.973  1.00  0.00     0.065 H 
ATOM    140  C   UNL A   1      42.840  29.430  34.639  1.00  0.00     0.037 A 
ATOM    141  H   UNL A   1      43.357  30.656  37.110  1.00  0.00     0.065 H 
BRANCH 122 142
ATOM    142  C   UNL A   1      40.462  27.868  29.157  1.00  0.00     0.064 A 
ATOM    143  C   UNL A   1      39.653  26.724  29.083  1.00  0.00     0.173 A 
ATOM    144  C   UNL A   1      41.293  28.156  28.065  1.00  0.00     0.173 A 
ATOM    145  F   UNL A   1      38.851  26.399  30.108  1.00  0.00    -0.203 F 
ATOM    146  C   UNL A   1      39.691  25.891  27.969  1.00  0.00     0.198 A 
ATOM    147  C   UNL A   1      41.309  27.335  26.940  1.00  0.00     0.198 A 
ATOM    148  F   UNL A   1      42.084  29.240  28.082  1.00  0.00    -0.203 F 
ATOM    149  F   UNL A   1      38.940  24.781  27.938  1.00  0.00    -0.200 F 
ATOM    150  C   UNL A   1      40.513  26.200  26.896  1.00  0.00     0.200 A 
ATOM    151  F   UNL A   1      42.096  27.641  25.899  1.00  0.00    -0.200 F 
ATOM    152  F   UNL A   1      40.543  25.401  25.821  1.00  0.00    -0.200 F 
ENDBRANCH 122 142
BRANCH 125 153
ATOM    153  C   UNL A   1      39.579  33.932  37.036  1.00  0.00     0.064 A 
ATOM    154  C   UNL A   1      40.248  35.163  37.104  1.00  0.00     0.173 A 
ATOM    155  C   UNL A   1      38.773  33.565  38.122  1.00  0.00     0.173 A 
ATOM    156  F   UNL A   1      41.046  35.547  36.097  1.00  0.00    -0.203 F 
ATOM    157  C   UNL A   1      40.130  35.983  38.223  1.00  0.00     0.198 A 
ATOM    158  C   UNL A   1      38.637  34.398  39.230  1.00  0.00     0.198 A 
ATOM    159  F   UNL A   1      38.110  32.400  38.101  1.00  0.00    -0.203 F 
ATOM    160  F   UNL A   1      40.814  37.135  38.281  1.00  0.00    -0.200 F 
ATOM    161  C   UNL A   1      39.321  35.603  39.283  1.00  0.00     0.200 A 
ATOM    162  F   UNL A   1      37.845  34.033  40.248  1.00  0.00    -0.200 F 
ATOM    163  F   UNL A   1      39.207  36.395  40.359  1.00  0.00    -0.200 F 
ENDBRANCH 125 153
BRANCH 140 164
ATOM    164  C   UNL A   1      44.026  28.850  35.350  1.00  0.00     0.064 A 
ATOM    165  C   UNL A   1      43.891  27.782  36.249  1.00  0.00     0.173 A 
ATOM    166  C   UNL A   1      45.313  29.354  35.112  1.00  0.00     0.173 A 
ATOM    167  F   UNL A   1      42.677  27.278  36.520  1.00  0.00    -0.203 F 
ATOM    168  C   UNL A   1      44.999  27.258  36.908  1.00  0.00     0.198 A 
ATOM    169  C   UNL A   1      46.423  28.809  35.752  1.00  0.00     0.198 A 
ATOM    170  F   UNL A   1      45.494  30.370  34.257  1.00  0.00    -0.203 F 
ATOM    171  F   UNL A   1      44.841  26.271  37.800  1.00  0.00    -0.200 F 
ATOM    172  C   UNL A   1      46.265  27.768  36.654  1.00  0.00     0.200 A 
ATOM    173  F   UNL A   1      47.646  29.296  35.500  1.00  0.00    -0.200 F 
ATOM    174  F   UNL A   1      47.330  27.262  37.289  1.00  0.00    -0.200 F 
ENDBRANCH 140 164
ENDBRANCH 105 108
ENDBRANCH  95  98
ENDBRANCH  91  94
ENDBRANCH  88  91
ENDBRANCH  85  88
ENDBRANCH  82  85
ENDBRANCH  79  82
ENDBRANCH   1  79
TORSDOF 27
ENDMDL
MODEL 4
REMARK VINA RESULT:     -10.7      2.660      9.048
REMARK SMILES CCCC[C@@H](Sc1nc(OCCC2CCCCC2)cc(OCCC2CCCCC2)n1)C(=O)NCCCCCCNC(=O)c1ccc(-c2c3nc(c(-c4c(F)c(F)c(F)c(F)c4F)c4ccc([nH]4)c(-c4c(F)c(F)c(F)c(F)c4F)c4nc(c(-c5c(F)c(F)c(F)c(F)c5F)c5ccc2[nH]5)C=C4)C=C3)cc1
REMARK SMILES IDX 34 1 33 4 31 5 32 6 5 8 4 10 3 13 2 16 1 19 6 23 7 24 8 25
REMARK SMILES IDX 30 26 9 27 20 28 19 29 10 31 11 32 12 35 13 38 14 39 18 40
REMARK SMILES IDX 15 42 17 45 16 48 21 55 22 56 23 59 24 62 25 63 29 64 26 66
REMARK SMILES IDX 28 69 27 72 35 79 36 82 37 85 38 88 39 91 40 94 41 95 42 97
REMARK SMILES IDX 43 98 44 99 105 100 45 101 104 103 46 105 47 108 48 109
REMARK SMILES IDX 98 110 49 111 103 112 97 113 99 114 50 115 102 116 96 118
REMARK SMILES IDX 95 120 51 122 83 125 63 126 82 127 64 128 67 129 81 130
REMARK SMILES IDX 100 131 65 132 66 134 80 136 101 137 68 140 52 142 53 143
REMARK SMILES IDX 61 144 54 145 55 146 59 147 62 148 56 149 57 150 60 151
REMARK SMILES IDX 58 152 84 153 85 154 93 155 86 156 87 157 91 158 94 159
REMARK SMILES IDX 88 160 89 161 92 162 90 163 69 164 70 165 78 166 71 167
REMARK SMILES IDX 72 168 76 169 79 170 73 171 74 172 77 173 75 174
REMARK H PARENT 34 2 34 3 33 7 5 9 4 11 4 12 3 14 3 15 2 17 2 18 1 20 1 21
REMARK H PARENT 1 22 19 30 11 33 11 34 12 36 12 37 13 41 14 43 14 44 18 46
REMARK H PARENT 18 47 15 49 15 50 17 51 17 52 16 53 16 54 22 57 22 58 23 60
REMARK H PARENT 23 61 24 65 25 67 25 68 29 70 29 71 26 73 26 74 28 75 28 76
REMARK H PARENT 27 77 27 78 35 80 35 81 36 83 36 84 37 86 37 87 38 89 38 90
REMARK H PARENT 39 92 39 93 40 96 44 102 105 104 45 106 104 107 103 117 97 119
REMARK H PARENT 99 121 102 123 96 124 64 133 67 135 100 138 65 139 101 141
REMARK Flexibility Score: inf
ROOT
ATOM      1  C   UNL A   1      35.364  23.150  26.058  1.00  0.00     0.017 C 
ATOM      2  H   UNL A   1      34.742  23.531  25.276  1.00  0.00     0.049 H 
ATOM      3  H   UNL A   1      35.805  22.218  25.769  1.00  0.00     0.049 H 
ENDROOT
BRANCH   1   4
ATOM      4  N   UNL A   1      34.553  22.927  27.244  1.00  0.00    -0.355 N 
ATOM      5  C   UNL A   1      33.232  22.588  27.355  1.00  0.00     0.233 C 
ATOM      6  O   UNL A   1      32.770  22.442  28.490  1.00  0.00    -0.274 OA
ATOM      7  H   UNL A   1      35.028  23.038  28.100  1.00  0.00     0.163 HD
BRANCH   5   8
ATOM      8  C   UNL A   1      32.345  22.428  26.109  1.00  0.00     0.091 C 
ATOM      9  H   UNL A   1      32.548  23.041  25.255  1.00  0.00     0.052 H 
BRANCH   8  10
ATOM     10  C   UNL A   1      32.601  21.030  25.496  1.00  0.00    -0.032 C 
ATOM     11  H   UNL A   1      33.482  20.640  25.960  1.00  0.00     0.028 H 
ATOM     12  H   UNL A   1      31.690  20.499  25.678  1.00  0.00     0.028 H 
BRANCH  10  13
ATOM     13  C   UNL A   1      32.801  20.911  23.979  1.00  0.00    -0.052 C 
ATOM     14  H   UNL A   1      33.574  20.191  23.813  1.00  0.00     0.027 H 
ATOM     15  H   UNL A   1      31.838  20.644  23.595  1.00  0.00     0.027 H 
BRANCH  13  16
ATOM     16  C   UNL A   1      33.185  22.179  23.221  1.00  0.00    -0.056 C 
ATOM     17  H   UNL A   1      33.595  22.879  23.918  1.00  0.00     0.026 H 
ATOM     18  H   UNL A   1      33.891  21.896  22.469  1.00  0.00     0.026 H 
BRANCH  16  19
ATOM     19  C   UNL A   1      32.015  22.835  22.511  1.00  0.00    -0.065 C 
ATOM     20  H   UNL A   1      31.106  22.588  23.018  1.00  0.00     0.023 H 
ATOM     21  H   UNL A   1      31.966  22.484  21.502  1.00  0.00     0.023 H 
ATOM     22  H   UNL A   1      32.146  23.897  22.512  1.00  0.00     0.023 H 
ENDBRANCH  16  19
ENDBRANCH  13  16
ENDBRANCH  10  13
ENDBRANCH   8  10
BRANCH   8  23
ATOM     23  S   UNL A   1      30.656  22.971  26.650  1.00  0.00    -0.073 SA
BRANCH  23  24
ATOM     24  C   UNL A   1      30.694  24.668  26.233  1.00  0.00     0.195 A 
ATOM     25  N   UNL A   1      31.420  25.479  27.013  1.00  0.00    -0.187 NA
ATOM     26  N   UNL A   1      29.998  25.038  25.159  1.00  0.00    -0.187 NA
ATOM     27  C   UNL A   1      31.348  26.786  26.741  1.00  0.00     0.221 A 
ATOM     28  C   UNL A   1      29.983  26.342  24.886  1.00  0.00     0.221 A 
ATOM     29  C   UNL A   1      30.573  27.269  25.711  1.00  0.00     0.063 A 
ATOM     30  H   UNL A   1      30.440  28.281  25.565  1.00  0.00     0.074 H 
BRANCH  27  31
ATOM     31  O   UNL A   1      32.162  27.539  27.541  1.00  0.00    -0.477 OA
BRANCH  31  32
ATOM     32  C   UNL A   1      33.209  28.304  26.956  1.00  0.00     0.090 C 
ATOM     33  H   UNL A   1      33.637  28.913  27.725  1.00  0.00     0.071 H 
ATOM     34  H   UNL A   1      32.753  28.857  26.163  1.00  0.00     0.071 H 
BRANCH  32  35
ATOM     35  C   UNL A   1      34.352  27.495  26.300  1.00  0.00    -0.016 C 
ATOM     36  H   UNL A   1      34.335  26.511  26.719  1.00  0.00     0.030 H 
ATOM     37  H   UNL A   1      35.243  28.052  26.505  1.00  0.00     0.030 H 
BRANCH  35  38
ATOM     38  C   UNL A   1      34.307  27.352  24.773  1.00  0.00    -0.038 C 
ATOM     39  C   UNL A   1      33.701  26.027  24.293  1.00  0.00    -0.050 C 
ATOM     40  C   UNL A   1      33.564  28.507  24.086  1.00  0.00    -0.050 C 
ATOM     41  H   UNL A   1      35.338  27.376  24.487  1.00  0.00     0.030 H 
ATOM     42  C   UNL A   1      33.880  25.899  22.774  1.00  0.00    -0.053 C 
ATOM     43  H   UNL A   1      32.658  26.003  24.531  1.00  0.00     0.027 H 
ATOM     44  H   UNL A   1      34.196  25.212  24.779  1.00  0.00     0.027 H 
ATOM     45  C   UNL A   1      33.793  28.439  22.580  1.00  0.00    -0.053 C 
ATOM     46  H   UNL A   1      33.932  29.440  24.461  1.00  0.00     0.027 H 
ATOM     47  H   UNL A   1      32.517  28.426  24.292  1.00  0.00     0.027 H 
ATOM     48  C   UNL A   1      33.328  27.103  22.008  1.00  0.00    -0.053 C 
ATOM     49  H   UNL A   1      33.370  25.019  22.442  1.00  0.00     0.027 H 
ATOM     50  H   UNL A   1      34.931  25.847  22.578  1.00  0.00     0.027 H 
ATOM     51  H   UNL A   1      33.246  29.229  22.110  1.00  0.00     0.027 H 
ATOM     52  H   UNL A   1      34.841  28.541  22.393  1.00  0.00     0.027 H 
ATOM     53  H   UNL A   1      32.260  27.069  22.046  1.00  0.00     0.027 H 
ATOM     54  H   UNL A   1      33.695  27.040  21.005  1.00  0.00     0.027 H 
ENDBRANCH  35  38
ENDBRANCH  32  35
ENDBRANCH  31  32
ENDBRANCH  27  31
BRANCH  28  55
ATOM     55  O   UNL A   1      29.252  26.636  23.778  1.00  0.00    -0.477 OA
BRANCH  55  56
ATOM     56  C   UNL A   1      29.885  27.275  22.674  1.00  0.00     0.090 C 
ATOM     57  H   UNL A   1      29.321  27.093  21.784  1.00  0.00     0.071 H 
ATOM     58  H   UNL A   1      30.875  26.886  22.553  1.00  0.00     0.071 H 
BRANCH  56  59
ATOM     59  C   UNL A   1      29.955  28.785  22.937  1.00  0.00    -0.016 C 
ATOM     60  H   UNL A   1      30.871  29.144  22.513  1.00  0.00     0.030 H 
ATOM     61  H   UNL A   1      29.881  28.888  23.998  1.00  0.00     0.030 H 
BRANCH  59  62
ATOM     62  C   UNL A   1      28.803  29.649  22.364  1.00  0.00    -0.038 C 
ATOM     63  C   UNL A   1      27.922  30.326  23.434  1.00  0.00    -0.050 C 
ATOM     64  C   UNL A   1      29.290  30.545  21.219  1.00  0.00    -0.050 C 
ATOM     65  H   UNL A   1      28.101  28.981  21.910  1.00  0.00     0.030 H 
ATOM     66  C   UNL A   1      27.594  31.816  23.300  1.00  0.00    -0.053 C 
ATOM     67  H   UNL A   1      28.419  30.200  24.375  1.00  0.00     0.027 H 
ATOM     68  H   UNL A   1      26.972  29.846  23.324  1.00  0.00     0.027 H 
ATOM     69  C   UNL A   1      28.294  31.643  20.886  1.00  0.00    -0.053 C 
ATOM     70  H   UNL A   1      29.440  29.941  20.349  1.00  0.00     0.027 H 
ATOM     71  H   UNL A   1      30.201  31.012  21.533  1.00  0.00     0.027 H 
ATOM     72  C   UNL A   1      28.154  32.544  22.091  1.00  0.00    -0.053 C 
ATOM     73  H   UNL A   1      27.967  32.309  24.174  1.00  0.00     0.027 H 
ATOM     74  H   UNL A   1      26.531  31.854  23.178  1.00  0.00     0.027 H 
ATOM     75  H   UNL A   1      28.650  32.211  20.050  1.00  0.00     0.027 H 
ATOM     76  H   UNL A   1      27.347  31.216  20.633  1.00  0.00     0.027 H 
ATOM     77  H   UNL A   1      29.118  32.934  22.342  1.00  0.00     0.027 H 
ATOM     78  H   UNL A   1      27.466  33.323  21.836  1.00  0.00     0.027 H 
ENDBRANCH  59  62
ENDBRANCH  56  59
ENDBRANCH  55  56
ENDBRANCH  28  55
ENDBRANCH  23  24
ENDBRANCH   8  23
ENDBRANCH   5   8
ENDBRANCH   1   4
BRANCH   1  79
ATOM     79  C   UNL A   1      36.482  24.147  26.335  1.00  0.00    -0.036 C 
ATOM     80  H   UNL A   1      36.593  24.246  27.395  1.00  0.00     0.028 H 
ATOM     81  H   UNL A   1      36.205  25.070  25.870  1.00  0.00     0.028 H 
BRANCH  79  82
ATOM     82  C   UNL A   1      37.830  23.729  25.743  1.00  0.00    -0.052 C 
ATOM     83  H   UNL A   1      38.604  24.116  26.372  1.00  0.00     0.027 H 
ATOM     84  H   UNL A   1      37.859  24.124  24.749  1.00  0.00     0.027 H 
BRANCH  82  85
ATOM     85  C   UNL A   1      38.030  22.216  25.615  1.00  0.00    -0.052 C 
ATOM     86  H   UNL A   1      37.849  21.943  24.595  1.00  0.00     0.027 H 
ATOM     87  H   UNL A   1      37.346  21.766  26.304  1.00  0.00     0.027 H 
BRANCH  85  88
ATOM     88  C   UNL A   1      39.422  21.706  26.002  1.00  0.00    -0.036 C 
ATOM     89  H   UNL A   1      39.930  21.412  25.107  1.00  0.00     0.028 H 
ATOM     90  H   UNL A   1      39.268  20.898  26.685  1.00  0.00     0.028 H 
BRANCH  88  91
ATOM     91  C   UNL A   1      40.297  22.723  26.730  1.00  0.00     0.018 C 
ATOM     92  H   UNL A   1      40.713  22.260  27.600  1.00  0.00     0.049 H 
ATOM     93  H   UNL A   1      39.682  23.559  26.991  1.00  0.00     0.049 H 
BRANCH  91  94
ATOM     94  N   UNL A   1      41.383  23.209  25.892  1.00  0.00    -0.352 N 
ATOM     95  C   UNL A   1      42.024  24.414  25.909  1.00  0.00     0.251 C 
ATOM     96  H   UNL A   1      41.702  22.574  25.211  1.00  0.00     0.163 HD
ATOM     97  O   UNL A   1      42.805  24.708  24.998  1.00  0.00    -0.269 OA
BRANCH  95  98
ATOM     98  C   UNL A   1      41.787  25.377  27.001  1.00  0.00     0.039 A 
ATOM     99  C   UNL A   1      42.565  26.536  27.050  1.00  0.00    -0.049 A 
ATOM    100  C   UNL A   1      40.838  25.125  27.998  1.00  0.00    -0.049 A 
ATOM    101  C   UNL A   1      42.367  27.462  28.074  1.00  0.00    -0.053 A 
ATOM    102  H   UNL A   1      43.285  26.707  26.330  1.00  0.00     0.063 H 
ATOM    103  C   UNL A   1      40.600  26.076  28.987  1.00  0.00    -0.053 A 
ATOM    104  H   UNL A   1      40.315  24.234  27.999  1.00  0.00     0.063 H 
ATOM    105  C   UNL A   1      41.369  27.248  29.039  1.00  0.00    -0.014 A 
ATOM    106  H   UNL A   1      42.955  28.309  28.122  1.00  0.00     0.063 H 
ATOM    107  H   UNL A   1      39.856  25.918  29.684  1.00  0.00     0.063 H 
BRANCH 105 108
ATOM    108  C   UNL A   1      41.130  28.248  30.107  1.00  0.00     0.031 A 
ATOM    109  C   UNL A   1      39.991  29.221  29.997  1.00  0.00     0.074 A 
ATOM    110  C   UNL A   1      41.967  28.302  31.160  1.00  0.00     0.049 A 
ATOM    111  N   UNL A   1      39.626  30.165  30.828  1.00  0.00    -0.248 NA
ATOM    112  C   UNL A   1      39.164  29.138  28.784  1.00  0.00    -0.034 C 
ATOM    113  C   UNL A   1      43.143  27.450  31.346  1.00  0.00    -0.036 A 
ATOM    114  N   UNL A   1      41.961  29.108  32.268  1.00  0.00    -0.354 N 
ATOM    115  C   UNL A   1      38.541  30.794  30.234  1.00  0.00     0.074 A 
ATOM    116  C   UNL A   1      38.332  30.156  28.952  1.00  0.00    -0.034 C 
ATOM    117  H   UNL A   1      39.217  28.464  28.004  1.00  0.00     0.065 H 
ATOM    118  C   UNL A   1      43.731  27.763  32.512  1.00  0.00    -0.036 A 
ATOM    119  H   UNL A   1      43.467  26.724  30.688  1.00  0.00     0.065 H 
ATOM    120  C   UNL A   1      42.988  28.850  33.141  1.00  0.00     0.049 A 
ATOM    121  H   UNL A   1      41.283  29.807  32.423  1.00  0.00     0.167 HD
ATOM    122  C   UNL A   1      37.774  31.797  30.724  1.00  0.00     0.037 A 
ATOM    123  H   UNL A   1      37.626  30.454  28.259  1.00  0.00     0.065 H 
ATOM    124  H   UNL A   1      44.573  27.310  32.900  1.00  0.00     0.065 H 
ATOM    125  C   UNL A   1      43.291  29.424  34.321  1.00  0.00     0.037 A 
ATOM    126  C   UNL A   1      37.966  32.409  32.013  1.00  0.00     0.049 A 
ATOM    127  C   UNL A   1      42.402  30.511  34.858  1.00  0.00     0.074 A 
ATOM    128  C   UNL A   1      37.203  33.385  32.629  1.00  0.00    -0.036 A 
ATOM    129  N   UNL A   1      39.000  32.100  32.885  1.00  0.00    -0.354 N 
ATOM    130  N   UNL A   1      41.332  31.045  34.322  1.00  0.00    -0.248 NA
ATOM    131  C   UNL A   1      42.758  31.066  36.171  1.00  0.00    -0.034 C 
ATOM    132  C   UNL A   1      37.794  33.692  33.860  1.00  0.00    -0.036 A 
ATOM    133  H   UNL A   1      36.346  33.813  32.247  1.00  0.00     0.065 H 
ATOM    134  C   UNL A   1      38.903  32.878  34.028  1.00  0.00     0.049 A 
ATOM    135  H   UNL A   1      39.698  31.426  32.718  1.00  0.00     0.167 HD
ATOM    136  C   UNL A   1      40.874  31.982  35.238  1.00  0.00     0.074 A 
ATOM    137  C   UNL A   1      41.772  31.929  36.373  1.00  0.00    -0.034 C 
ATOM    138  H   UNL A   1      43.563  30.844  36.777  1.00  0.00     0.065 H 
ATOM    139  H   UNL A   1      37.461  34.403  34.529  1.00  0.00     0.065 H 
ATOM    140  C   UNL A   1      39.807  32.813  35.147  1.00  0.00     0.037 A 
ATOM    141  H   UNL A   1      41.659  32.492  37.230  1.00  0.00     0.065 H 
BRANCH 122 142
ATOM    142  C   UNL A   1      36.649  32.294  29.865  1.00  0.00     0.064 A 
ATOM    143  C   UNL A   1      35.587  31.457  29.490  1.00  0.00     0.173 A 
ATOM    144  C   UNL A   1      36.611  33.632  29.445  1.00  0.00     0.173 A 
ATOM    145  F   UNL A   1      35.584  30.168  29.856  1.00  0.00    -0.203 F 
ATOM    146  C   UNL A   1      34.541  31.936  28.707  1.00  0.00     0.198 A 
ATOM    147  C   UNL A   1      35.549  34.114  28.684  1.00  0.00     0.198 A 
ATOM    148  F   UNL A   1      37.599  34.476  29.779  1.00  0.00    -0.203 F 
ATOM    149  F   UNL A   1      33.557  31.108  28.326  1.00  0.00    -0.200 F 
ATOM    150  C   UNL A   1      34.518  33.264  28.310  1.00  0.00     0.200 A 
ATOM    151  F   UNL A   1      35.524  35.401  28.310  1.00  0.00    -0.200 F 
ATOM    152  F   UNL A   1      33.506  33.725  27.562  1.00  0.00    -0.200 F 
ENDBRANCH 122 142
BRANCH 125 153
ATOM    153  C   UNL A   1      44.469  28.951  35.090  1.00  0.00     0.064 A 
ATOM    154  C   UNL A   1      45.733  29.527  34.897  1.00  0.00     0.173 A 
ATOM    155  C   UNL A   1      44.358  27.919  36.032  1.00  0.00     0.173 A 
ATOM    156  F   UNL A   1      45.891  30.505  33.992  1.00  0.00    -0.203 F 
ATOM    157  C   UNL A   1      46.844  29.075  35.604  1.00  0.00     0.198 A 
ATOM    158  C   UNL A   1      45.465  27.485  36.756  1.00  0.00     0.198 A 
ATOM    159  F   UNL A   1      43.169  27.340  36.255  1.00  0.00    -0.203 F 
ATOM    160  F   UNL A   1      48.049  29.614  35.370  1.00  0.00    -0.200 F 
ATOM    161  C   UNL A   1      46.709  28.057  36.537  1.00  0.00     0.200 A 
ATOM    162  F   UNL A   1      45.329  26.509  37.664  1.00  0.00    -0.200 F 
ATOM    163  F   UNL A   1      47.779  27.624  37.218  1.00  0.00    -0.200 F 
ENDBRANCH 125 153
BRANCH 140 164
ATOM    164  C   UNL A   1      39.546  33.717  36.314  1.00  0.00     0.064 A 
ATOM    165  C   UNL A   1      38.780  33.295  37.410  1.00  0.00     0.173 A 
ATOM    166  C   UNL A   1      40.088  35.010  36.347  1.00  0.00     0.173 A 
ATOM    167  F   UNL A   1      38.228  32.072  37.417  1.00  0.00    -0.203 F 
ATOM    168  C   UNL A   1      38.540  34.147  38.485  1.00  0.00     0.198 A 
ATOM    169  C   UNL A   1      39.868  35.850  37.435  1.00  0.00     0.198 A 
ATOM    170  F   UNL A   1      40.832  35.457  35.325  1.00  0.00    -0.203 F 
ATOM    171  F   UNL A   1      37.764  33.741  39.499  1.00  0.00    -0.200 F 
ATOM    172  C   UNL A   1      39.089  35.421  38.499  1.00  0.00     0.200 A 
ATOM    173  F   UNL A   1      40.407  37.077  37.452  1.00  0.00    -0.200 F 
ATOM    174  F   UNL A   1      38.858  36.239  39.534  1.00  0.00    -0.200 F 
ENDBRANCH 140 164
ENDBRANCH 105 108
ENDBRANCH  95  98
ENDBRANCH  91  94
ENDBRANCH  88  91
ENDBRANCH  85  88
ENDBRANCH  82  85
ENDBRANCH  79  82
ENDBRANCH   1  79
TORSDOF 27
ENDMDL
MODEL 5
REMARK VINA RESULT:     -10.7      5.512     10.741
REMARK SMILES CCCC[C@@H](Sc1nc(OCCC2CCCCC2)cc(OCCC2CCCCC2)n1)C(=O)NCCCCCCNC(=O)c1ccc(-c2c3nc(c(-c4c(F)c(F)c(F)c(F)c4F)c4ccc([nH]4)c(-c4c(F)c(F)c(F)c(F)c4F)c4nc(c(-c5c(F)c(F)c(F)c(F)c5F)c5ccc2[nH]5)C=C4)C=C3)cc1
REMARK SMILES IDX 34 1 33 4 31 5 32 6 5 8 4 10 3 13 2 16 1 19 6 23 7 24 8 25
REMARK SMILES IDX 30 26 9 27 20 28 19 29 10 31 11 32 12 35 13 38 14 39 18 40
REMARK SMILES IDX 15 42 17 45 16 48 21 55 22 56 23 59 24 62 25 63 29 64 26 66
REMARK SMILES IDX 28 69 27 72 35 79 36 82 37 85 38 88 39 91 40 94 41 95 42 97
REMARK SMILES IDX 43 98 44 99 105 100 45 101 104 103 46 105 47 108 48 109
REMARK SMILES IDX 98 110 49 111 103 112 97 113 99 114 50 115 102 116 96 118
REMARK SMILES IDX 95 120 51 122 83 125 63 126 82 127 64 128 67 129 81 130
REMARK SMILES IDX 100 131 65 132 66 134 80 136 101 137 68 140 52 142 53 143
REMARK SMILES IDX 61 144 54 145 55 146 59 147 62 148 56 149 57 150 60 151
REMARK SMILES IDX 58 152 84 153 85 154 93 155 86 156 87 157 91 158 94 159
REMARK SMILES IDX 88 160 89 161 92 162 90 163 69 164 70 165 78 166 71 167
REMARK SMILES IDX 72 168 76 169 79 170 73 171 74 172 77 173 75 174
REMARK H PARENT 34 2 34 3 33 7 5 9 4 11 4 12 3 14 3 15 2 17 2 18 1 20 1 21
REMARK H PARENT 1 22 19 30 11 33 11 34 12 36 12 37 13 41 14 43 14 44 18 46
REMARK H PARENT 18 47 15 49 15 50 17 51 17 52 16 53 16 54 22 57 22 58 23 60
REMARK H PARENT 23 61 24 65 25 67 25 68 29 70 29 71 26 73 26 74 28 75 28 76
REMARK H PARENT 27 77 27 78 35 80 35 81 36 83 36 84 37 86 37 87 38 89 38 90
REMARK H PARENT 39 92 39 93 40 96 44 102 105 104 45 106 104 107 103 117 97 119
REMARK H PARENT 99 121 102 123 96 124 64 133 67 135 100 138 65 139 101 141
REMARK Flexibility Score: inf
ROOT
ATOM      1  C   UNL A   1      39.221  22.995  26.536  1.00  0.00     0.017 C 
ATOM      2  H   UNL A   1      38.838  22.685  27.486  1.00  0.00     0.049 H 
ATOM      3  H   UNL A   1      39.119  24.053  26.415  1.00  0.00     0.049 H 
ENDROOT
BRANCH   1   4
ATOM      4  N   UNL A   1      38.468  22.335  25.482  1.00  0.00    -0.355 N 
ATOM      5  C   UNL A   1      37.123  22.341  25.227  1.00  0.00     0.233 C 
ATOM      6  O   UNL A   1      36.721  21.705  24.250  1.00  0.00    -0.274 OA
ATOM      7  H   UNL A   1      39.008  21.802  24.855  1.00  0.00     0.163 HD
BRANCH   5   8
ATOM      8  C   UNL A   1      36.142  23.088  26.147  1.00  0.00     0.091 C 
ATOM      9  H   UNL A   1      36.529  23.573  27.020  1.00  0.00     0.052 H 
BRANCH   8  10
ATOM     10  C   UNL A   1      35.590  24.318  25.387  1.00  0.00    -0.032 C 
ATOM     11  H   UNL A   1      34.697  24.624  25.891  1.00  0.00     0.028 H 
ATOM     12  H   UNL A   1      36.404  25.012  25.393  1.00  0.00     0.028 H 
BRANCH  10  13
ATOM     13  C   UNL A   1      35.239  24.173  23.899  1.00  0.00    -0.052 C 
ATOM     14  H   UNL A   1      36.112  24.428  23.337  1.00  0.00     0.027 H 
ATOM     15  H   UNL A   1      34.907  23.161  23.793  1.00  0.00     0.027 H 
BRANCH  13  16
ATOM     16  C   UNL A   1      34.086  25.019  23.366  1.00  0.00    -0.056 C 
ATOM     17  H   UNL A   1      33.403  25.205  24.167  1.00  0.00     0.026 H 
ATOM     18  H   UNL A   1      34.510  25.921  22.977  1.00  0.00     0.026 H 
BRANCH  16  19
ATOM     19  C   UNL A   1      33.326  24.356  22.231  1.00  0.00    -0.065 C 
ATOM     20  H   UNL A   1      33.966  24.265  21.379  1.00  0.00     0.023 H 
ATOM     21  H   UNL A   1      32.475  24.952  21.975  1.00  0.00     0.023 H 
ATOM     22  H   UNL A   1      33.001  23.384  22.538  1.00  0.00     0.023 H 
ENDBRANCH  16  19
ENDBRANCH  13  16
ENDBRANCH  10  13
ENDBRANCH   8  10
BRANCH   8  23
ATOM     23  S   UNL A   1      35.029  21.772  26.829  1.00  0.00    -0.073 SA
BRANCH  23  24
ATOM     24  C   UNL A   1      33.586  22.017  25.874  1.00  0.00     0.195 A 
ATOM     25  N   UNL A   1      32.657  22.849  26.361  1.00  0.00    -0.187 NA
ATOM     26  N   UNL A   1      33.513  21.359  24.718  1.00  0.00    -0.187 NA
ATOM     27  C   UNL A   1      31.517  22.937  25.667  1.00  0.00     0.221 A 
ATOM     28  C   UNL A   1      32.384  21.504  24.026  1.00  0.00     0.221 A 
ATOM     29  C   UNL A   1      31.314  22.216  24.513  1.00  0.00     0.063 A 
ATOM     30  H   UNL A   1      30.400  22.209  24.035  1.00  0.00     0.074 H 
BRANCH  27  31
ATOM     31  O   UNL A   1      30.646  23.850  26.196  1.00  0.00    -0.477 OA
BRANCH  31  32
ATOM     32  C   UNL A   1      30.113  24.874  25.366  1.00  0.00     0.090 C 
ATOM     33  H   UNL A   1      29.373  25.401  25.931  1.00  0.00     0.071 H 
ATOM     34  H   UNL A   1      29.729  24.374  24.501  1.00  0.00     0.071 H 
BRANCH  32  35
ATOM     35  C   UNL A   1      31.129  25.911  24.833  1.00  0.00    -0.016 C 
ATOM     36  H   UNL A   1      30.913  26.074  23.797  1.00  0.00     0.030 H 
ATOM     37  H   UNL A   1      32.092  25.486  25.027  1.00  0.00     0.030 H 
BRANCH  35  38
ATOM     38  C   UNL A   1      31.144  27.279  25.526  1.00  0.00    -0.038 C 
ATOM     39  C   UNL A   1      31.862  27.279  26.883  1.00  0.00    -0.050 C 
ATOM     40  C   UNL A   1      31.753  28.386  24.653  1.00  0.00    -0.050 C 
ATOM     41  H   UNL A   1      30.109  27.489  25.692  1.00  0.00     0.030 H 
ATOM     42  C   UNL A   1      31.653  28.632  27.577  1.00  0.00    -0.053 C 
ATOM     43  H   UNL A   1      32.909  27.113  26.734  1.00  0.00     0.027 H 
ATOM     44  H   UNL A   1      31.462  26.498  27.497  1.00  0.00     0.027 H 
ATOM     45  C   UNL A   1      31.489  29.745  25.290  1.00  0.00    -0.053 C 
ATOM     46  H   UNL A   1      31.306  28.355  23.680  1.00  0.00     0.027 H 
ATOM     47  H   UNL A   1      32.808  28.230  24.568  1.00  0.00     0.027 H 
ATOM     48  C   UNL A   1      32.064  29.817  26.702  1.00  0.00    -0.053 C 
ATOM     49  H   UNL A   1      32.236  28.650  28.474  1.00  0.00     0.027 H 
ATOM     50  H   UNL A   1      30.607  28.730  27.781  1.00  0.00     0.027 H 
ATOM     51  H   UNL A   1      31.943  30.505  24.689  1.00  0.00     0.027 H 
ATOM     52  H   UNL A   1      30.430  29.891  25.348  1.00  0.00     0.027 H 
ATOM     53  H   UNL A   1      33.131  29.836  26.634  1.00  0.00     0.027 H 
ATOM     54  H   UNL A   1      31.676  30.703  27.160  1.00  0.00     0.027 H 
ENDBRANCH  35  38
ENDBRANCH  32  35
ENDBRANCH  31  32
ENDBRANCH  27  31
BRANCH  28  55
ATOM     55  O   UNL A   1      32.389  20.802  22.862  1.00  0.00    -0.477 OA
BRANCH  55  56
ATOM     56  C   UNL A   1      31.823  19.496  22.832  1.00  0.00     0.090 C 
ATOM     57  H   UNL A   1      31.131  19.424  22.020  1.00  0.00     0.071 H 
ATOM     58  H   UNL A   1      31.312  19.304  23.752  1.00  0.00     0.071 H 
BRANCH  56  59
ATOM     59  C   UNL A   1      32.944  18.465  22.642  1.00  0.00    -0.016 C 
ATOM     60  H   UNL A   1      33.733  18.942  22.099  1.00  0.00     0.030 H 
ATOM     61  H   UNL A   1      32.484  17.642  22.137  1.00  0.00     0.030 H 
BRANCH  59  62
ATOM     62  C   UNL A   1      33.560  17.858  23.928  1.00  0.00    -0.038 C 
ATOM     63  C   UNL A   1      32.575  17.727  25.107  1.00  0.00    -0.050 C 
ATOM     64  C   UNL A   1      34.409  16.620  23.612  1.00  0.00    -0.050 C 
ATOM     65  H   UNL A   1      34.254  18.574  24.315  1.00  0.00     0.030 H 
ATOM     66  C   UNL A   1      32.497  16.404  25.875  1.00  0.00    -0.053 C 
ATOM     67  H   UNL A   1      31.596  17.921  24.720  1.00  0.00     0.027 H 
ATOM     68  H   UNL A   1      32.951  18.419  25.832  1.00  0.00     0.027 H 
ATOM     69  C   UNL A   1      34.722  15.806  24.856  1.00  0.00    -0.053 C 
ATOM     70  H   UNL A   1      35.329  16.937  23.167  1.00  0.00     0.027 H 
ATOM     71  H   UNL A   1      33.847  15.999  22.945  1.00  0.00     0.027 H 
ATOM     72  C   UNL A   1      33.423  15.287  25.429  1.00  0.00    -0.053 C 
ATOM     73  H   UNL A   1      31.493  16.043  25.793  1.00  0.00     0.027 H 
ATOM     74  H   UNL A   1      32.812  16.644  26.870  1.00  0.00     0.027 H 
ATOM     75  H   UNL A   1      35.357  14.982  24.597  1.00  0.00     0.027 H 
ATOM     76  H   UNL A   1      35.225  16.415  25.577  1.00  0.00     0.027 H 
ATOM     77  H   UNL A   1      32.925  14.708  24.680  1.00  0.00     0.027 H 
ATOM     78  H   UNL A   1      33.660  14.700  26.291  1.00  0.00     0.027 H 
ENDBRANCH  59  62
ENDBRANCH  56  59
ENDBRANCH  55  56
ENDBRANCH  28  55
ENDBRANCH  23  24
ENDBRANCH   8  23
ENDBRANCH   5   8
ENDBRANCH   1   4
BRANCH   1  79
ATOM     79  C   UNL A   1      40.701  22.641  26.459  1.00  0.00    -0.036 C 
ATOM     80  H   UNL A   1      41.248  23.339  27.058  1.00  0.00     0.028 H 
ATOM     81  H   UNL A   1      40.983  22.686  25.427  1.00  0.00     0.028 H 
BRANCH  79  82
ATOM     82  C   UNL A   1      41.014  21.226  26.952  1.00  0.00    -0.052 C 
ATOM     83  H   UNL A   1      40.253  20.940  27.646  1.00  0.00     0.027 H 
ATOM     84  H   UNL A   1      41.990  21.268  27.390  1.00  0.00     0.027 H 
BRANCH  82  85
ATOM     85  C   UNL A   1      41.081  20.165  25.849  1.00  0.00    -0.052 C 
ATOM     86  H   UNL A   1      41.630  20.576  25.026  1.00  0.00     0.027 H 
ATOM     87  H   UNL A   1      40.067  19.924  25.607  1.00  0.00     0.027 H 
BRANCH  85  88
ATOM     88  C   UNL A   1      41.748  18.846  26.252  1.00  0.00    -0.036 C 
ATOM     89  H   UNL A   1      41.488  18.106  25.524  1.00  0.00     0.028 H 
ATOM     90  H   UNL A   1      41.392  18.615  27.234  1.00  0.00     0.028 H 
BRANCH  88  91
ATOM     91  C   UNL A   1      43.270  18.901  26.349  1.00  0.00     0.018 C 
ATOM     92  H   UNL A   1      43.605  18.097  26.970  1.00  0.00     0.049 H 
ATOM     93  H   UNL A   1      43.540  19.851  26.761  1.00  0.00     0.049 H 
BRANCH  91  94
ATOM     94  N   UNL A   1      43.905  18.781  25.045  1.00  0.00    -0.352 N 
ATOM     95  C   UNL A   1      44.435  19.750  24.242  1.00  0.00     0.251 C 
ATOM     96  H   UNL A   1      43.960  17.865  24.689  1.00  0.00     0.163 HD
ATOM     97  O   UNL A   1      44.772  19.473  23.086  1.00  0.00    -0.269 OA
BRANCH  95  98
ATOM     98  C   UNL A   1      44.601  21.129  24.737  1.00  0.00     0.039 A 
ATOM     99  C   UNL A   1      45.332  21.335  25.909  1.00  0.00    -0.049 A 
ATOM    100  C   UNL A   1      44.005  22.212  24.080  1.00  0.00    -0.049 A 
ATOM    101  C   UNL A   1      45.500  22.629  26.403  1.00  0.00    -0.053 A 
ATOM    102  H   UNL A   1      45.747  20.533  26.408  1.00  0.00     0.063 H 
ATOM    103  C   UNL A   1      44.221  23.508  24.541  1.00  0.00    -0.053 A 
ATOM    104  H   UNL A   1      43.406  22.049  23.255  1.00  0.00     0.063 H 
ATOM    105  C   UNL A   1      44.962  23.727  25.712  1.00  0.00    -0.014 A 
ATOM    106  H   UNL A   1      46.023  22.780  27.280  1.00  0.00     0.063 H 
ATOM    107  H   UNL A   1      43.835  24.311  24.020  1.00  0.00     0.063 H 
BRANCH 105 108
ATOM    108  C   UNL A   1      45.171  25.107  26.214  1.00  0.00     0.031 A 
ATOM    109  C   UNL A   1      46.528  25.746  26.138  1.00  0.00     0.074 A 
ATOM    110  C   UNL A   1      44.141  25.768  26.774  1.00  0.00     0.049 A 
ATOM    111  N   UNL A   1      46.902  26.939  26.526  1.00  0.00    -0.248 NA
ATOM    112  C   UNL A   1      47.614  24.931  25.573  1.00  0.00    -0.034 C 
ATOM    113  C   UNL A   1      42.792  25.227  26.957  1.00  0.00    -0.036 A 
ATOM    114  N   UNL A   1      44.067  27.034  27.294  1.00  0.00    -0.354 N 
ATOM    115  C   UNL A   1      48.263  27.013  26.265  1.00  0.00     0.074 A 
ATOM    116  C   UNL A   1      48.661  25.729  25.727  1.00  0.00    -0.034 C 
ATOM    117  H   UNL A   1      47.572  23.984  25.164  1.00  0.00     0.065 H 
ATOM    118  C   UNL A   1      42.019  26.165  27.528  1.00  0.00    -0.036 A 
ATOM    119  H   UNL A   1      42.486  24.278  26.691  1.00  0.00     0.065 H 
ATOM    120  C   UNL A   1      42.821  27.360  27.769  1.00  0.00     0.049 A 
ATOM    121  H   UNL A   1      44.834  27.650  27.324  1.00  0.00     0.167 HD
ATOM    122  C   UNL A   1      49.101  28.063  26.436  1.00  0.00     0.037 A 
ATOM    123  H   UNL A   1      49.633  25.469  25.493  1.00  0.00     0.065 H 
ATOM    124  H   UNL A   1      41.019  26.058  27.759  1.00  0.00     0.065 H 
ATOM    125  C   UNL A   1      42.376  28.500  28.330  1.00  0.00     0.037 A 
ATOM    126  C   UNL A   1      48.696  29.349  26.942  1.00  0.00     0.049 A 
ATOM    127  C   UNL A   1      43.318  29.663  28.475  1.00  0.00     0.074 A 
ATOM    128  C   UNL A   1      49.453  30.497  27.090  1.00  0.00    -0.036 A 
ATOM    129  N   UNL A   1      47.417  29.653  27.385  1.00  0.00    -0.354 N 
ATOM    130  N   UNL A   1      44.585  29.746  28.152  1.00  0.00    -0.248 NA
ATOM    131  C   UNL A   1      42.762  30.895  29.052  1.00  0.00    -0.034 C 
ATOM    132  C   UNL A   1      48.642  31.488  27.654  1.00  0.00    -0.036 A 
ATOM    133  H   UNL A   1      50.445  30.606  26.829  1.00  0.00     0.065 H 
ATOM    134  C   UNL A   1      47.368  30.968  27.820  1.00  0.00     0.049 A 
ATOM    135  H   UNL A   1      46.656  29.029  27.387  1.00  0.00     0.167 HD
ATOM    136  C   UNL A   1      44.974  31.041  28.466  1.00  0.00     0.074 A 
ATOM    137  C   UNL A   1      43.802  31.714  28.987  1.00  0.00    -0.034 C 
ATOM    138  H   UNL A   1      41.813  31.075  29.414  1.00  0.00     0.065 H 
ATOM    139  H   UNL A   1      48.940  32.444  27.903  1.00  0.00     0.065 H 
ATOM    140  C   UNL A   1      46.193  31.621  28.336  1.00  0.00     0.037 A 
ATOM    141  H   UNL A   1      43.779  32.706  29.270  1.00  0.00     0.065 H 
BRANCH 122 142
ATOM    142  C   UNL A   1      50.542  27.870  26.066  1.00  0.00     0.064 A 
ATOM    143  C   UNL A   1      51.516  27.582  27.033  1.00  0.00     0.173 A 
ATOM    144  C   UNL A   1      50.947  27.935  24.725  1.00  0.00     0.173 A 
ATOM    145  F   UNL A   1      51.181  27.522  28.330  1.00  0.00    -0.203 F 
ATOM    146  C   UNL A   1      52.847  27.388  26.674  1.00  0.00     0.198 A 
ATOM    147  C   UNL A   1      52.275  27.714  24.366  1.00  0.00     0.198 A 
ATOM    148  F   UNL A   1      50.055  28.204  23.759  1.00  0.00    -0.203 F 
ATOM    149  F   UNL A   1      53.768  27.155  27.620  1.00  0.00    -0.200 F 
ATOM    150  C   UNL A   1      53.224  27.448  25.341  1.00  0.00     0.200 A 
ATOM    151  F   UNL A   1      52.636  27.762  23.076  1.00  0.00    -0.200 F 
ATOM    152  F   UNL A   1      54.504  27.254  24.996  1.00  0.00    -0.200 F 
ENDBRANCH 122 142
BRANCH 125 153
ATOM    153  C   UNL A   1      40.959  28.607  28.759  1.00  0.00     0.064 A 
ATOM    154  C   UNL A   1      40.580  28.301  30.073  1.00  0.00     0.173 A 
ATOM    155  C   UNL A   1      39.957  29.018  27.868  1.00  0.00     0.173 A 
ATOM    156  F   UNL A   1      41.501  27.884  30.955  1.00  0.00    -0.203 F 
ATOM    157  C   UNL A   1      39.249  28.383  30.475  1.00  0.00     0.198 A 
ATOM    158  C   UNL A   1      38.630  29.124  28.278  1.00  0.00     0.198 A 
ATOM    159  F   UNL A   1      40.271  29.327  26.602  1.00  0.00    -0.203 F 
ATOM    160  F   UNL A   1      38.907  28.043  31.726  1.00  0.00    -0.200 F 
ATOM    161  C   UNL A   1      38.276  28.799  29.579  1.00  0.00     0.200 A 
ATOM    162  F   UNL A   1      37.694  29.537  27.413  1.00  0.00    -0.200 F 
ATOM    163  F   UNL A   1      36.995  28.880  29.967  1.00  0.00    -0.200 F 
ENDBRANCH 125 153
BRANCH 140 164
ATOM    164  C   UNL A   1      46.310  33.057  28.749  1.00  0.00     0.064 A 
ATOM    165  C   UNL A   1      46.663  33.417  30.058  1.00  0.00     0.173 A 
ATOM    166  C   UNL A   1      46.090  34.085  27.819  1.00  0.00     0.173 A 
ATOM    167  F   UNL A   1      46.869  32.470  30.986  1.00  0.00    -0.203 F 
ATOM    168  C   UNL A   1      46.763  34.755  30.429  1.00  0.00     0.198 A 
ATOM    169  C   UNL A   1      46.216  35.421  28.188  1.00  0.00     0.198 A 
ATOM    170  F   UNL A   1      45.755  33.791  26.554  1.00  0.00    -0.203 F 
ATOM    171  F   UNL A   1      47.053  35.076  31.697  1.00  0.00    -0.200 F 
ATOM    172  C   UNL A   1      46.545  35.755  29.493  1.00  0.00     0.200 A 
ATOM    173  F   UNL A   1      46.015  36.386  27.280  1.00  0.00    -0.200 F 
ATOM    174  F   UNL A   1      46.642  37.042  29.852  1.00  0.00    -0.200 F 
ENDBRANCH 140 164
ENDBRANCH 105 108
ENDBRANCH  95  98
ENDBRANCH  91  94
ENDBRANCH  88  91
ENDBRANCH  85  88
ENDBRANCH  82  85
ENDBRANCH  79  82
ENDBRANCH   1  79
TORSDOF 27
ENDMDL
MODEL 6
REMARK VINA RESULT:     -10.6      5.554     10.535
REMARK SMILES CCCC[C@@H](Sc1nc(OCCC2CCCCC2)cc(OCCC2CCCCC2)n1)C(=O)NCCCCCCNC(=O)c1ccc(-c2c3nc(c(-c4c(F)c(F)c(F)c(F)c4F)c4ccc([nH]4)c(-c4c(F)c(F)c(F)c(F)c4F)c4nc(c(-c5c(F)c(F)c(F)c(F)c5F)c5ccc2[nH]5)C=C4)C=C3)cc1
REMARK SMILES IDX 34 1 33 4 31 5 32 6 5 8 4 10 3 13 2 16 1 19 6 23 7 24 8 25
REMARK SMILES IDX 30 26 9 27 20 28 19 29 10 31 11 32 12 35 13 38 14 39 18 40
REMARK SMILES IDX 15 42 17 45 16 48 21 55 22 56 23 59 24 62 25 63 29 64 26 66
REMARK SMILES IDX 28 69 27 72 35 79 36 82 37 85 38 88 39 91 40 94 41 95 42 97
REMARK SMILES IDX 43 98 44 99 105 100 45 101 104 103 46 105 47 108 48 109
REMARK SMILES IDX 98 110 49 111 103 112 97 113 99 114 50 115 102 116 96 118
REMARK SMILES IDX 95 120 51 122 83 125 63 126 82 127 64 128 67 129 81 130
REMARK SMILES IDX 100 131 65 132 66 134 80 136 101 137 68 140 52 142 53 143
REMARK SMILES IDX 61 144 54 145 55 146 59 147 62 148 56 149 57 150 60 151
REMARK SMILES IDX 58 152 84 153 85 154 93 155 86 156 87 157 91 158 94 159
REMARK SMILES IDX 88 160 89 161 92 162 90 163 69 164 70 165 78 166 71 167
REMARK SMILES IDX 72 168 76 169 79 170 73 171 74 172 77 173 75 174
REMARK H PARENT 34 2 34 3 33 7 5 9 4 11 4 12 3 14 3 15 2 17 2 18 1 20 1 21
REMARK H PARENT 1 22 19 30 11 33 11 34 12 36 12 37 13 41 14 43 14 44 18 46
REMARK H PARENT 18 47 15 49 15 50 17 51 17 52 16 53 16 54 22 57 22 58 23 60
REMARK H PARENT 23 61 24 65 25 67 25 68 29 70 29 71 26 73 26 74 28 75 28 76
REMARK H PARENT 27 77 27 78 35 80 35 81 36 83 36 84 37 86 37 87 38 89 38 90
REMARK H PARENT 39 92 39 93 40 96 44 102 105 104 45 106 104 107 103 117 97 119
REMARK H PARENT 99 121 102 123 96 124 64 133 67 135 100 138 65 139 101 141
REMARK Flexibility Score: inf
ROOT
ATOM      1  C   UNL A   1      38.864  23.693  26.644  1.00  0.00     0.017 C 
ATOM      2  H   UNL A   1      38.288  23.504  27.525  1.00  0.00     0.049 H 
ATOM      3  H   UNL A   1      38.945  24.746  26.465  1.00  0.00     0.049 H 
ENDROOT
BRANCH   1   4
ATOM      4  N   UNL A   1      38.200  23.084  25.503  1.00  0.00    -0.355 N 
ATOM      5  C   UNL A   1      36.869  23.026  25.187  1.00  0.00     0.233 C 
ATOM      6  O   UNL A   1      36.551  22.455  24.141  1.00  0.00    -0.274 OA
ATOM      7  H   UNL A   1      38.800  22.645  24.857  1.00  0.00     0.163 HD
BRANCH   5   8
ATOM      8  C   UNL A   1      35.803  23.622  26.123  1.00  0.00     0.091 C 
ATOM      9  H   UNL A   1      36.128  24.163  26.987  1.00  0.00     0.052 H 
BRANCH   8  10
ATOM     10  C   UNL A   1      35.061  24.752  25.369  1.00  0.00    -0.032 C 
ATOM     11  H   UNL A   1      34.114  24.881  25.850  1.00  0.00     0.028 H 
ATOM     12  H   UNL A   1      35.737  25.580  25.416  1.00  0.00     0.028 H 
BRANCH  10  13
ATOM     13  C   UNL A   1      34.784  24.585  23.868  1.00  0.00    -0.052 C 
ATOM     14  H   UNL A   1      35.580  25.066  23.340  1.00  0.00     0.027 H 
ATOM     15  H   UNL A   1      34.711  23.528  23.720  1.00  0.00     0.027 H 
BRANCH  13  16
ATOM     16  C   UNL A   1      33.471  25.147  23.331  1.00  0.00    -0.056 C 
ATOM     17  H   UNL A   1      32.985  24.384  22.760  1.00  0.00     0.026 H 
ATOM     18  H   UNL A   1      32.890  25.453  24.175  1.00  0.00     0.026 H 
BRANCH  16  19
ATOM     19  C   UNL A   1      33.654  26.367  22.447  1.00  0.00    -0.065 C 
ATOM     20  H   UNL A   1      32.696  26.735  22.145  1.00  0.00     0.023 H 
ATOM     21  H   UNL A   1      34.222  26.099  21.581  1.00  0.00     0.023 H 
ATOM     22  H   UNL A   1      34.173  27.128  22.991  1.00  0.00     0.023 H 
ENDBRANCH  16  19
ENDBRANCH  13  16
ENDBRANCH  10  13
ENDBRANCH   8  10
BRANCH   8  23
ATOM     23  S   UNL A   1      34.910  22.157  26.827  1.00  0.00    -0.073 SA
BRANCH  23  24
ATOM     24  C   UNL A   1      33.344  22.316  26.068  1.00  0.00     0.195 A 
ATOM     25  N   UNL A   1      33.192  21.786  24.848  1.00  0.00    -0.187 NA
ATOM     26  N   UNL A   1      32.403  22.953  26.763  1.00  0.00    -0.187 NA
ATOM     27  C   UNL A   1      32.021  22.014  24.243  1.00  0.00     0.221 A 
ATOM     28  C   UNL A   1      31.231  23.123  26.152  1.00  0.00     0.221 A 
ATOM     29  C   UNL A   1      31.026  22.748  24.847  1.00  0.00     0.063 A 
ATOM     30  H   UNL A   1      30.164  23.006  24.341  1.00  0.00     0.074 H 
BRANCH  27  31
ATOM     31  O   UNL A   1      31.923  21.390  23.030  1.00  0.00    -0.477 OA
BRANCH  31  32
ATOM     32  C   UNL A   1      32.198  19.998  22.932  1.00  0.00     0.090 C 
ATOM     33  H   UNL A   1      33.180  19.887  22.523  1.00  0.00     0.071 H 
ATOM     34  H   UNL A   1      31.420  19.594  22.319  1.00  0.00     0.071 H 
BRANCH  32  35
ATOM     35  C   UNL A   1      32.143  19.203  24.257  1.00  0.00    -0.016 C 
ATOM     36  H   UNL A   1      31.129  18.897  24.410  1.00  0.00     0.030 H 
ATOM     37  H   UNL A   1      32.525  19.870  25.001  1.00  0.00     0.030 H 
BRANCH  35  38
ATOM     38  C   UNL A   1      33.025  17.950  24.345  1.00  0.00    -0.038 C 
ATOM     39  C   UNL A   1      34.504  18.252  24.627  1.00  0.00    -0.050 C 
ATOM     40  C   UNL A   1      32.526  16.939  25.387  1.00  0.00    -0.050 C 
ATOM     41  H   UNL A   1      32.949  17.519  23.369  1.00  0.00     0.030 H 
ATOM     42  C   UNL A   1      35.326  16.962  24.502  1.00  0.00    -0.053 C 
ATOM     43  H   UNL A   1      34.605  18.645  25.618  1.00  0.00     0.027 H 
ATOM     44  H   UNL A   1      34.861  18.972  23.920  1.00  0.00     0.027 H 
ATOM     45  C   UNL A   1      33.281  15.624  25.228  1.00  0.00    -0.053 C 
ATOM     46  H   UNL A   1      31.479  16.769  25.243  1.00  0.00     0.027 H 
ATOM     47  H   UNL A   1      32.693  17.330  26.369  1.00  0.00     0.027 H 
ATOM     48  C   UNL A   1      34.786  15.828  25.376  1.00  0.00    -0.053 C 
ATOM     49  H   UNL A   1      36.334  17.169  24.794  1.00  0.00     0.027 H 
ATOM     50  H   UNL A   1      35.265  16.641  23.483  1.00  0.00     0.027 H 
ATOM     51  H   UNL A   1      32.947  14.939  25.978  1.00  0.00     0.027 H 
ATOM     52  H   UNL A   1      33.086  15.239  24.249  1.00  0.00     0.027 H 
ATOM     53  H   UNL A   1      35.001  16.055  26.399  1.00  0.00     0.027 H 
ATOM     54  H   UNL A   1      35.263  14.925  25.058  1.00  0.00     0.027 H 
ENDBRANCH  35  38
ENDBRANCH  32  35
ENDBRANCH  31  32
ENDBRANCH  27  31
BRANCH  28  55
ATOM     55  O   UNL A   1      30.327  23.781  26.926  1.00  0.00    -0.477 OA
BRANCH  55  56
ATOM     56  C   UNL A   1      29.780  25.012  26.468  1.00  0.00     0.090 C 
ATOM     57  H   UNL A   1      29.620  25.665  27.300  1.00  0.00     0.071 H 
ATOM     58  H   UNL A   1      28.846  24.830  25.977  1.00  0.00     0.071 H 
BRANCH  56  59
ATOM     59  C   UNL A   1      30.759  25.665  25.484  1.00  0.00    -0.016 C 
ATOM     60  H   UNL A   1      30.284  25.693  24.526  1.00  0.00     0.030 H 
ATOM     61  H   UNL A   1      31.643  25.065  25.530  1.00  0.00     0.030 H 
BRANCH  59  62
ATOM     62  C   UNL A   1      31.230  27.104  25.817  1.00  0.00    -0.038 C 
ATOM     63  C   UNL A   1      32.599  27.180  26.525  1.00  0.00    -0.050 C 
ATOM     64  C   UNL A   1      31.028  28.049  24.626  1.00  0.00    -0.050 C 
ATOM     65  H   UNL A   1      30.581  27.482  26.579  1.00  0.00     0.030 H 
ATOM     66  C   UNL A   1      33.653  28.165  26.012  1.00  0.00    -0.053 C 
ATOM     67  H   UNL A   1      33.032  26.202  26.472  1.00  0.00     0.027 H 
ATOM     68  H   UNL A   1      32.361  27.548  27.501  1.00  0.00     0.027 H 
ATOM     69  C   UNL A   1      31.796  29.350  24.788  1.00  0.00    -0.053 C 
ATOM     70  H   UNL A   1      29.986  28.274  24.536  1.00  0.00     0.027 H 
ATOM     71  H   UNL A   1      31.398  27.556  23.750  1.00  0.00     0.027 H 
ATOM     72  C   UNL A   1      33.274  29.032  24.825  1.00  0.00    -0.053 C 
ATOM     73  H   UNL A   1      34.516  27.596  25.732  1.00  0.00     0.027 H 
ATOM     74  H   UNL A   1      33.805  28.851  26.819  1.00  0.00     0.027 H 
ATOM     75  H   UNL A   1      31.587  29.998  23.962  1.00  0.00     0.027 H 
ATOM     76  H   UNL A   1      31.502  29.839  25.693  1.00  0.00     0.027 H 
ATOM     77  H   UNL A   1      33.536  28.517  23.925  1.00  0.00     0.027 H 
ATOM     78  H   UNL A   1      33.802  29.958  24.919  1.00  0.00     0.027 H 
ENDBRANCH  59  62
ENDBRANCH  56  59
ENDBRANCH  55  56
ENDBRANCH  28  55
ENDBRANCH  23  24
ENDBRANCH   8  23
ENDBRANCH   5   8
ENDBRANCH   1   4
BRANCH   1  79
ATOM     79  C   UNL A   1      40.264  23.125  26.833  1.00  0.00    -0.036 C 
ATOM     80  H   UNL A   1      40.699  23.578  27.701  1.00  0.00     0.028 H 
ATOM     81  H   UNL A   1      40.817  23.345  25.943  1.00  0.00     0.028 H 
BRANCH  79  82
ATOM     82  C   UNL A   1      40.284  21.606  27.016  1.00  0.00    -0.052 C 
ATOM     83  H   UNL A   1      39.277  21.275  27.159  1.00  0.00     0.027 H 
ATOM     84  H   UNL A   1      40.915  21.411  27.858  1.00  0.00     0.027 H 
BRANCH  82  85
ATOM     85  C   UNL A   1      40.882  20.829  25.839  1.00  0.00    -0.052 C 
ATOM     86  H   UNL A   1      41.787  21.317  25.544  1.00  0.00     0.027 H 
ATOM     87  H   UNL A   1      40.132  20.824  25.075  1.00  0.00     0.027 H 
BRANCH  85  88
ATOM     88  C   UNL A   1      41.207  19.359  26.125  1.00  0.00    -0.036 C 
ATOM     89  H   UNL A   1      40.960  18.787  25.256  1.00  0.00     0.028 H 
ATOM     90  H   UNL A   1      40.636  19.086  26.987  1.00  0.00     0.028 H 
BRANCH  88  91
ATOM     91  C   UNL A   1      42.667  19.083  26.473  1.00  0.00     0.018 C 
ATOM     92  H   UNL A   1      42.714  18.227  27.114  1.00  0.00     0.049 H 
ATOM     93  H   UNL A   1      43.062  19.953  26.956  1.00  0.00     0.049 H 
BRANCH  91  94
ATOM     94  N   UNL A   1      43.472  18.825  25.288  1.00  0.00    -0.352 N 
ATOM     95  C   UNL A   1      44.192  19.692  24.518  1.00  0.00     0.251 C 
ATOM     96  H   UNL A   1      43.500  17.884  24.999  1.00  0.00     0.163 HD
ATOM     97  O   UNL A   1      44.667  19.311  23.443  1.00  0.00    -0.269 OA
BRANCH  95  98
ATOM     98  C   UNL A   1      44.401  21.087  24.950  1.00  0.00     0.039 A 
ATOM     99  C   UNL A   1      45.113  21.321  26.129  1.00  0.00    -0.049 A 
ATOM    100  C   UNL A   1      43.863  22.158  24.228  1.00  0.00    -0.049 A 
ATOM    101  C   UNL A   1      45.320  22.630  26.564  1.00  0.00    -0.053 A 
ATOM    102  H   UNL A   1      45.484  20.529  26.676  1.00  0.00     0.063 H 
ATOM    103  C   UNL A   1      44.119  23.466  24.632  1.00  0.00    -0.053 A 
ATOM    104  H   UNL A   1      43.277  21.978  23.397  1.00  0.00     0.063 H 
ATOM    105  C   UNL A   1      44.841  23.712  25.809  1.00  0.00    -0.014 A 
ATOM    106  H   UNL A   1      45.828  22.804  27.446  1.00  0.00     0.063 H 
ATOM    107  H   UNL A   1      43.776  24.256  24.064  1.00  0.00     0.063 H 
BRANCH 105 108
ATOM    108  C   UNL A   1      45.093  25.106  26.250  1.00  0.00     0.031 A 
ATOM    109  C   UNL A   1      46.467  25.702  26.140  1.00  0.00     0.074 A 
ATOM    110  C   UNL A   1      44.085  25.821  26.784  1.00  0.00     0.049 A 
ATOM    111  N   UNL A   1      46.878  26.900  26.474  1.00  0.00    -0.248 NA
ATOM    112  C   UNL A   1      47.526  24.832  25.607  1.00  0.00    -0.034 C 
ATOM    113  C   UNL A   1      42.723  25.329  26.996  1.00  0.00    -0.036 A 
ATOM    114  N   UNL A   1      44.050  27.110  27.248  1.00  0.00    -0.354 N 
ATOM    115  C   UNL A   1      48.239  26.922  26.205  1.00  0.00     0.074 A 
ATOM    116  C   UNL A   1      48.597  25.605  25.722  1.00  0.00    -0.034 C 
ATOM    117  H   UNL A   1      47.455  23.870  25.239  1.00  0.00     0.065 H 
ATOM    118  C   UNL A   1      41.979  26.313  27.528  1.00  0.00    -0.036 A 
ATOM    119  H   UNL A   1      42.387  24.379  26.772  1.00  0.00     0.065 H 
ATOM    120  C   UNL A   1      42.817  27.493  27.713  1.00  0.00     0.049 A 
ATOM    121  H   UNL A   1      44.836  27.705  27.249  1.00  0.00     0.167 HD
ATOM    122  C   UNL A   1      49.108  27.954  26.327  1.00  0.00     0.037 A 
ATOM    123  H   UNL A   1      49.559  25.307  25.496  1.00  0.00     0.065 H 
ATOM    124  H   UNL A   1      40.978  26.244  27.768  1.00  0.00     0.065 H 
ATOM    125  C   UNL A   1      42.408  28.669  28.227  1.00  0.00     0.037 A 
ATOM    126  C   UNL A   1      48.743  29.271  26.778  1.00  0.00     0.049 A 
ATOM    127  C   UNL A   1      43.384  29.809  28.317  1.00  0.00     0.074 A 
ATOM    128  C   UNL A   1      49.534  30.402  26.873  1.00  0.00    -0.036 A 
ATOM    129  N   UNL A   1      47.476  29.632  27.212  1.00  0.00    -0.354 N 
ATOM    130  N   UNL A   1      44.652  29.841  27.986  1.00  0.00    -0.248 NA
ATOM    131  C   UNL A   1      42.868  31.080  28.842  1.00  0.00    -0.034 C 
ATOM    132  C   UNL A   1      48.755  31.440  27.397  1.00  0.00    -0.036 A 
ATOM    133  H   UNL A   1      50.527  30.470  26.603  1.00  0.00     0.065 H 
ATOM    134  C   UNL A   1      47.467  30.965  27.590  1.00  0.00     0.049 A 
ATOM    135  H   UNL A   1      46.697  29.031  27.245  1.00  0.00     0.167 HD
ATOM    136  C   UNL A   1      45.079  31.137  28.241  1.00  0.00     0.074 A 
ATOM    137  C   UNL A   1      43.930  31.866  28.737  1.00  0.00    -0.034 C 
ATOM    138  H   UNL A   1      41.926  31.304  29.199  1.00  0.00     0.065 H 
ATOM    139  H   UNL A   1      49.082  32.397  27.602  1.00  0.00     0.065 H 
ATOM    140  C   UNL A   1      46.314  31.674  28.082  1.00  0.00     0.037 A 
ATOM    141  H   UNL A   1      43.938  32.869  28.977  1.00  0.00     0.065 H 
BRANCH 122 142
ATOM    142  C   UNL A   1      50.541  27.703  25.960  1.00  0.00     0.064 A 
ATOM    143  C   UNL A   1      51.493  27.339  26.924  1.00  0.00     0.173 A 
ATOM    144  C   UNL A   1      50.959  27.788  24.623  1.00  0.00     0.173 A 
ATOM    145  F   UNL A   1      51.145  27.257  28.216  1.00  0.00    -0.203 F 
ATOM    146  C   UNL A   1      52.815  27.093  26.567  1.00  0.00     0.198 A 
ATOM    147  C   UNL A   1      52.277  27.514  24.266  1.00  0.00     0.198 A 
ATOM    148  F   UNL A   1      50.088  28.128  23.661  1.00  0.00    -0.203 F 
ATOM    149  F   UNL A   1      53.717  26.787  27.511  1.00  0.00    -0.200 F 
ATOM    150  C   UNL A   1      53.205  27.174  25.239  1.00  0.00     0.200 A 
ATOM    151  F   UNL A   1      52.650  27.583  22.981  1.00  0.00    -0.200 F 
ATOM    152  F   UNL A   1      54.477  26.929  24.896  1.00  0.00    -0.200 F 
ENDBRANCH 122 142
BRANCH 125 153
ATOM    153  C   UNL A   1      40.998  28.836  28.656  1.00  0.00     0.064 A 
ATOM    154  C   UNL A   1      40.630  28.676  29.999  1.00  0.00     0.173 A 
ATOM    155  C   UNL A   1      39.990  29.160  27.737  1.00  0.00     0.173 A 
ATOM    156  F   UNL A   1      41.558  28.346  30.911  1.00  0.00    -0.203 F 
ATOM    157  C   UNL A   1      39.305  28.814  30.404  1.00  0.00     0.198 A 
ATOM    158  C   UNL A   1      38.669  29.323  28.146  1.00  0.00     0.198 A 
ATOM    159  F   UNL A   1      40.292  29.328  26.441  1.00  0.00    -0.203 F 
ATOM    160  F   UNL A   1      38.974  28.614  31.687  1.00  0.00    -0.200 F 
ATOM    161  C   UNL A   1      38.325  29.142  29.478  1.00  0.00     0.200 A 
ATOM    162  F   UNL A   1      37.727  29.650  27.252  1.00  0.00    -0.200 F 
ATOM    163  F   UNL A   1      37.050  29.277  29.869  1.00  0.00    -0.200 F 
ENDBRANCH 125 153
BRANCH 140 164
ATOM    164  C   UNL A   1      46.476  33.123  28.431  1.00  0.00     0.064 A 
ATOM    165  C   UNL A   1      46.259  34.134  27.483  1.00  0.00     0.173 A 
ATOM    166  C   UNL A   1      46.829  33.506  29.734  1.00  0.00     0.173 A 
ATOM    167  F   UNL A   1      45.936  33.816  26.220  1.00  0.00    -0.203 F 
ATOM    168  C   UNL A   1      46.419  35.475  27.818  1.00  0.00     0.198 A 
ATOM    169  C   UNL A   1      46.962  34.849  30.072  1.00  0.00     0.198 A 
ATOM    170  F   UNL A   1      47.041  32.577  30.677  1.00  0.00    -0.203 F 
ATOM    171  F   UNL A   1      46.256  36.422  26.884  1.00  0.00    -0.200 F 
ATOM    172  C   UNL A   1      46.765  35.832  29.114  1.00  0.00     0.200 A 
ATOM    173  F   UNL A   1      47.286  35.193  31.327  1.00  0.00    -0.200 F 
ATOM    174  F   UNL A   1      46.918  37.123  29.435  1.00  0.00    -0.200 F 
ENDBRANCH 140 164
ENDBRANCH 105 108
ENDBRANCH  95  98
ENDBRANCH  91  94
ENDBRANCH  88  91
ENDBRANCH  85  88
ENDBRANCH  82  85
ENDBRANCH  79  82
ENDBRANCH   1  79
TORSDOF 27
ENDMDL
MODEL 7
REMARK VINA RESULT:     -10.5      5.571     11.492
REMARK SMILES CCCC[C@@H](Sc1nc(OCCC2CCCCC2)cc(OCCC2CCCCC2)n1)C(=O)NCCCCCCNC(=O)c1ccc(-c2c3nc(c(-c4c(F)c(F)c(F)c(F)c4F)c4ccc([nH]4)c(-c4c(F)c(F)c(F)c(F)c4F)c4nc(c(-c5c(F)c(F)c(F)c(F)c5F)c5ccc2[nH]5)C=C4)C=C3)cc1
REMARK SMILES IDX 34 1 33 4 31 5 32 6 5 8 4 10 3 13 2 16 1 19 6 23 7 24 8 25
REMARK SMILES IDX 30 26 9 27 20 28 19 29 10 31 11 32 12 35 13 38 14 39 18 40
REMARK SMILES IDX 15 42 17 45 16 48 21 55 22 56 23 59 24 62 25 63 29 64 26 66
REMARK SMILES IDX 28 69 27 72 35 79 36 82 37 85 38 88 39 91 40 94 41 95 42 97
REMARK SMILES IDX 43 98 44 99 105 100 45 101 104 103 46 105 47 108 48 109
REMARK SMILES IDX 98 110 49 111 103 112 97 113 99 114 50 115 102 116 96 118
REMARK SMILES IDX 95 120 51 122 83 125 63 126 82 127 64 128 67 129 81 130
REMARK SMILES IDX 100 131 65 132 66 134 80 136 101 137 68 140 52 142 53 143
REMARK SMILES IDX 61 144 54 145 55 146 59 147 62 148 56 149 57 150 60 151
REMARK SMILES IDX 58 152 84 153 85 154 93 155 86 156 87 157 91 158 94 159
REMARK SMILES IDX 88 160 89 161 92 162 90 163 69 164 70 165 78 166 71 167
REMARK SMILES IDX 72 168 76 169 79 170 73 171 74 172 77 173 75 174
REMARK H PARENT 34 2 34 3 33 7 5 9 4 11 4 12 3 14 3 15 2 17 2 18 1 20 1 21
REMARK H PARENT 1 22 19 30 11 33 11 34 12 36 12 37 13 41 14 43 14 44 18 46
REMARK H PARENT 18 47 15 49 15 50 17 51 17 52 16 53 16 54 22 57 22 58 23 60
REMARK H PARENT 23 61 24 65 25 67 25 68 29 70 29 71 26 73 26 74 28 75 28 76
REMARK H PARENT 27 77 27 78 35 80 35 81 36 83 36 84 37 86 37 87 38 89 38 90
REMARK H PARENT 39 92 39 93 40 96 44 102 105 104 45 106 104 107 103 117 97 119
REMARK H PARENT 99 121 102 123 96 124 64 133 67 135 100 138 65 139 101 141
REMARK Flexibility Score: inf
ROOT
ATOM      1  C   UNL A   1      39.056  23.385  26.643  1.00  0.00     0.017 C 
ATOM      2  H   UNL A   1      38.602  22.876  27.467  1.00  0.00     0.049 H 
ATOM      3  H   UNL A   1      38.933  24.444  26.739  1.00  0.00     0.049 H 
ENDROOT
BRANCH   1   4
ATOM      4  N   UNL A   1      38.414  22.958  25.410  1.00  0.00    -0.355 N 
ATOM      5  C   UNL A   1      37.086  22.911  25.081  1.00  0.00     0.233 C 
ATOM      6  O   UNL A   1      36.789  22.517  23.950  1.00  0.00    -0.274 OA
ATOM      7  H   UNL A   1      39.029  22.657  24.703  1.00  0.00     0.163 HD
BRANCH   5   8
ATOM      8  C   UNL A   1      36.000  23.302  26.098  1.00  0.00     0.091 C 
ATOM      9  H   UNL A   1      36.306  23.672  27.054  1.00  0.00     0.052 H 
BRANCH   8  10
ATOM     10  C   UNL A   1      35.247  24.544  25.563  1.00  0.00    -0.032 C 
ATOM     11  H   UNL A   1      34.296  24.569  26.052  1.00  0.00     0.028 H 
ATOM     12  H   UNL A   1      35.911  25.356  25.770  1.00  0.00     0.028 H 
BRANCH  10  13
ATOM     13  C   UNL A   1      34.982  24.658  24.056  1.00  0.00    -0.052 C 
ATOM     14  H   UNL A   1      35.743  25.286  23.642  1.00  0.00     0.027 H 
ATOM     15  H   UNL A   1      34.981  23.648  23.701  1.00  0.00     0.027 H 
BRANCH  13  16
ATOM     16  C   UNL A   1      33.634  25.226  23.622  1.00  0.00    -0.056 C 
ATOM     17  H   UNL A   1      32.919  25.026  24.393  1.00  0.00     0.026 H 
ATOM     18  H   UNL A   1      33.770  26.274  23.459  1.00  0.00     0.026 H 
BRANCH  16  19
ATOM     19  C   UNL A   1      33.119  24.633  22.323  1.00  0.00    -0.065 C 
ATOM     20  H   UNL A   1      33.862  23.986  21.908  1.00  0.00     0.023 H 
ATOM     21  H   UNL A   1      32.906  25.421  21.631  1.00  0.00     0.023 H 
ATOM     22  H   UNL A   1      32.226  24.076  22.514  1.00  0.00     0.023 H 
ENDBRANCH  16  19
ENDBRANCH  13  16
ENDBRANCH  10  13
ENDBRANCH   8  10
BRANCH   8  23
ATOM     23  S   UNL A   1      35.125  21.717  26.497  1.00  0.00    -0.073 SA
BRANCH  23  24
ATOM     24  C   UNL A   1      33.645  21.906  25.585  1.00  0.00     0.195 A 
ATOM     25  N   UNL A   1      32.689  22.680  26.114  1.00  0.00    -0.187 NA
ATOM     26  N   UNL A   1      33.574  21.268  24.418  1.00  0.00    -0.187 NA
ATOM     27  C   UNL A   1      31.528  22.724  25.453  1.00  0.00     0.221 A 
ATOM     28  C   UNL A   1      32.420  21.368  23.760  1.00  0.00     0.221 A 
ATOM     29  C   UNL A   1      31.330  22.015  24.290  1.00  0.00     0.063 A 
ATOM     30  H   UNL A   1      30.404  21.971  23.837  1.00  0.00     0.074 H 
BRANCH  27  31
ATOM     31  O   UNL A   1      30.627  23.580  26.023  1.00  0.00    -0.477 OA
BRANCH  31  32
ATOM     32  C   UNL A   1      31.079  24.813  26.569  1.00  0.00     0.090 C 
ATOM     33  H   UNL A   1      32.148  24.813  26.536  1.00  0.00     0.071 H 
ATOM     34  H   UNL A   1      30.671  24.859  27.556  1.00  0.00     0.071 H 
BRANCH  32  35
ATOM     35  C   UNL A   1      30.583  26.091  25.853  1.00  0.00    -0.016 C 
ATOM     36  H   UNL A   1      29.661  26.383  26.312  1.00  0.00     0.030 H 
ATOM     37  H   UNL A   1      30.502  25.822  24.820  1.00  0.00     0.030 H 
BRANCH  35  38
ATOM     38  C   UNL A   1      31.522  27.305  25.881  1.00  0.00    -0.038 C 
ATOM     39  C   UNL A   1      31.337  28.259  24.693  1.00  0.00    -0.050 C 
ATOM     40  C   UNL A   1      31.413  28.116  27.180  1.00  0.00    -0.050 C 
ATOM     41  H   UNL A   1      32.497  26.870  25.816  1.00  0.00     0.030 H 
ATOM     42  C   UNL A   1      32.443  29.323  24.709  1.00  0.00    -0.053 C 
ATOM     43  H   UNL A   1      30.382  28.737  24.764  1.00  0.00     0.027 H 
ATOM     44  H   UNL A   1      31.390  27.704  23.779  1.00  0.00     0.027 H 
ATOM     45  C   UNL A   1      32.550  29.129  27.248  1.00  0.00    -0.053 C 
ATOM     46  H   UNL A   1      31.475  27.452  28.018  1.00  0.00     0.027 H 
ATOM     47  H   UNL A   1      30.475  28.630  27.198  1.00  0.00     0.027 H 
ATOM     48  C   UNL A   1      32.532  30.065  26.043  1.00  0.00    -0.053 C 
ATOM     49  H   UNL A   1      32.246  30.034  23.934  1.00  0.00     0.027 H 
ATOM     50  H   UNL A   1      33.375  28.819  24.558  1.00  0.00     0.027 H 
ATOM     51  H   UNL A   1      32.446  29.708  28.142  1.00  0.00     0.027 H 
ATOM     52  H   UNL A   1      33.478  28.596  27.249  1.00  0.00     0.027 H 
ATOM     53  H   UNL A   1      31.686  30.714  26.129  1.00  0.00     0.027 H 
ATOM     54  H   UNL A   1      33.454  30.608  26.047  1.00  0.00     0.027 H 
ENDBRANCH  35  38
ENDBRANCH  32  35
ENDBRANCH  31  32
ENDBRANCH  27  31
BRANCH  28  55
ATOM     55  O   UNL A   1      32.428  20.690  22.582  1.00  0.00    -0.477 OA
BRANCH  55  56
ATOM     56  C   UNL A   1      31.806  19.411  22.508  1.00  0.00     0.090 C 
ATOM     57  H   UNL A   1      31.168  19.373  21.650  1.00  0.00     0.071 H 
ATOM     58  H   UNL A   1      31.224  19.243  23.390  1.00  0.00     0.071 H 
BRANCH  56  59
ATOM     59  C   UNL A   1      32.888  18.330  22.391  1.00  0.00    -0.016 C 
ATOM     60  H   UNL A   1      33.680  18.729  21.792  1.00  0.00     0.030 H 
ATOM     61  H   UNL A   1      32.391  17.482  21.971  1.00  0.00     0.030 H 
BRANCH  59  62
ATOM     62  C   UNL A   1      33.513  17.819  23.714  1.00  0.00    -0.038 C 
ATOM     63  C   UNL A   1      32.528  17.754  24.900  1.00  0.00    -0.050 C 
ATOM     64  C   UNL A   1      34.380  16.576  23.481  1.00  0.00    -0.050 C 
ATOM     65  H   UNL A   1      34.196  18.570  24.052  1.00  0.00     0.030 H 
ATOM     66  C   UNL A   1      32.470  16.485  25.755  1.00  0.00    -0.053 C 
ATOM     67  H   UNL A   1      31.547  17.907  24.501  1.00  0.00     0.027 H 
ATOM     68  H   UNL A   1      32.894  18.499  25.576  1.00  0.00     0.027 H 
ATOM     69  C   UNL A   1      34.705  15.852  24.777  1.00  0.00    -0.053 C 
ATOM     70  H   UNL A   1      35.295  16.876  23.016  1.00  0.00     0.027 H 
ATOM     71  H   UNL A   1      33.827  15.903  22.858  1.00  0.00     0.027 H 
ATOM     72  C   UNL A   1      33.413  15.354  25.384  1.00  0.00    -0.053 C 
ATOM     73  H   UNL A   1      31.472  16.103  25.698  1.00  0.00     0.027 H 
ATOM     74  H   UNL A   1      32.781  16.795  26.731  1.00  0.00     0.027 H 
ATOM     75  H   UNL A   1      35.351  15.023  24.574  1.00  0.00     0.027 H 
ATOM     76  H   UNL A   1      35.198  16.516  25.455  1.00  0.00     0.027 H 
ATOM     77  H   UNL A   1      32.924  14.718  24.676  1.00  0.00     0.027 H 
ATOM     78  H   UNL A   1      33.658  14.830  26.283  1.00  0.00     0.027 H 
ENDBRANCH  59  62
ENDBRANCH  56  59
ENDBRANCH  55  56
ENDBRANCH  28  55
ENDBRANCH  23  24
ENDBRANCH   8  23
ENDBRANCH   5   8
ENDBRANCH   1   4
BRANCH   1  79
ATOM     79  C   UNL A   1      40.547  23.071  26.624  1.00  0.00    -0.036 C 
ATOM     80  H   UNL A   1      41.048  23.768  27.264  1.00  0.00     0.028 H 
ATOM     81  H   UNL A   1      40.873  23.150  25.607  1.00  0.00     0.028 H 
BRANCH  79  82
ATOM     82  C   UNL A   1      40.875  21.653  27.097  1.00  0.00    -0.052 C 
ATOM     83  H   UNL A   1      40.194  21.398  27.881  1.00  0.00     0.027 H 
ATOM     84  H   UNL A   1      41.897  21.670  27.415  1.00  0.00     0.027 H 
BRANCH  82  85
ATOM     85  C   UNL A   1      40.778  20.578  26.010  1.00  0.00    -0.052 C 
ATOM     86  H   UNL A   1      41.376  20.892  25.179  1.00  0.00     0.027 H 
ATOM     87  H   UNL A   1      39.738  20.486  25.776  1.00  0.00     0.027 H 
BRANCH  85  88
ATOM     88  C   UNL A   1      41.246  19.181  26.430  1.00  0.00    -0.036 C 
ATOM     89  H   UNL A   1      40.963  18.490  25.663  1.00  0.00     0.028 H 
ATOM     90  H   UNL A   1      40.783  18.978  27.372  1.00  0.00     0.028 H 
BRANCH  88  91
ATOM     91  C   UNL A   1      42.750  19.050  26.653  1.00  0.00     0.018 C 
ATOM     92  H   UNL A   1      42.928  18.249  27.340  1.00  0.00     0.049 H 
ATOM     93  H   UNL A   1      43.108  19.981  27.041  1.00  0.00     0.049 H 
BRANCH  91  94
ATOM     94  N   UNL A   1      43.464  18.774  25.416  1.00  0.00    -0.352 N 
ATOM     95  C   UNL A   1      44.136  19.627  24.589  1.00  0.00     0.251 C 
ATOM     96  H   UNL A   1      43.462  17.831  25.134  1.00  0.00     0.163 HD
ATOM     97  O   UNL A   1      44.529  19.233  23.486  1.00  0.00    -0.269 OA
BRANCH  95  98
ATOM     98  C   UNL A   1      44.388  21.023  24.993  1.00  0.00     0.039 A 
ATOM     99  C   UNL A   1      45.179  21.259  26.121  1.00  0.00    -0.049 A 
ATOM    100  C   UNL A   1      43.817  22.095  24.298  1.00  0.00    -0.049 A 
ATOM    101  C   UNL A   1      45.430  22.569  26.529  1.00  0.00    -0.053 A 
ATOM    102  H   UNL A   1      45.576  20.468  26.650  1.00  0.00     0.063 H 
ATOM    103  C   UNL A   1      44.115  23.403  24.671  1.00  0.00    -0.053 A 
ATOM    104  H   UNL A   1      43.176  21.915  23.508  1.00  0.00     0.063 H 
ATOM    105  C   UNL A   1      44.916  23.651  25.796  1.00  0.00    -0.014 A 
ATOM    106  H   UNL A   1      45.997  22.744  27.374  1.00  0.00     0.063 H 
ATOM    107  H   UNL A   1      43.745  24.192  24.119  1.00  0.00     0.063 H 
BRANCH 105 108
ATOM    108  C   UNL A   1      45.212  25.045  26.206  1.00  0.00     0.031 A 
ATOM    109  C   UNL A   1      44.143  25.898  26.827  1.00  0.00     0.074 A 
ATOM    110  C   UNL A   1      46.438  25.552  25.982  1.00  0.00     0.049 A 
ATOM    111  N   UNL A   1      44.214  27.136  27.247  1.00  0.00    -0.248 NA
ATOM    112  C   UNL A   1      42.812  25.289  26.976  1.00  0.00    -0.034 C 
ATOM    113  C   UNL A   1      47.539  24.839  25.331  1.00  0.00    -0.036 A 
ATOM    114  N   UNL A   1      46.964  26.785  26.272  1.00  0.00    -0.354 N 
ATOM    115  C   UNL A   1      42.940  27.457  27.696  1.00  0.00     0.074 A 
ATOM    116  C   UNL A   1      42.103  26.301  27.457  1.00  0.00    -0.034 C 
ATOM    117  H   UNL A   1      42.509  24.326  26.762  1.00  0.00     0.065 H 
ATOM    118  C   UNL A   1      48.617  25.639  25.293  1.00  0.00    -0.036 A 
ATOM    119  H   UNL A   1      47.494  23.876  24.962  1.00  0.00     0.065 H 
ATOM    120  C   UNL A   1      48.276  26.925  25.895  1.00  0.00     0.049 A 
ATOM    121  H   UNL A   1      46.449  27.501  26.709  1.00  0.00     0.167 HD
ATOM    122  C   UNL A   1      42.513  28.604  28.277  1.00  0.00     0.037 A 
ATOM    123  H   UNL A   1      41.087  26.268  27.638  1.00  0.00     0.065 H 
ATOM    124  H   UNL A   1      49.537  25.386  24.900  1.00  0.00     0.065 H 
ATOM    125  C   UNL A   1      49.112  27.972  26.026  1.00  0.00     0.037 A 
ATOM    126  C   UNL A   1      43.355  29.741  28.542  1.00  0.00     0.049 A 
ATOM    127  C   UNL A   1      48.622  29.220  26.707  1.00  0.00     0.074 A 
ATOM    128  C   UNL A   1      43.035  30.923  29.186  1.00  0.00    -0.036 A 
ATOM    129  N   UNL A   1      44.690  29.835  28.173  1.00  0.00    -0.354 N 
ATOM    130  N   UNL A   1      47.436  29.483  27.198  1.00  0.00    -0.248 NA
ATOM    131  C   UNL A   1      49.593  30.312  26.862  1.00  0.00    -0.034 C 
ATOM    132  C   UNL A   1      44.166  31.748  29.177  1.00  0.00    -0.036 A 
ATOM    133  H   UNL A   1      42.120  31.156  29.602  1.00  0.00     0.065 H 
ATOM    134  C   UNL A   1      45.202  31.062  28.563  1.00  0.00     0.049 A 
ATOM    135  H   UNL A   1      45.198  29.134  27.706  1.00  0.00     0.167 HD
ATOM    136  C   UNL A   1      47.522  30.759  27.738  1.00  0.00     0.074 A 
ATOM    137  C   UNL A   1      48.883  31.209  27.532  1.00  0.00    -0.034 C 
ATOM    138  H   UNL A   1      50.570  30.366  26.536  1.00  0.00     0.065 H 
ATOM    139  H   UNL A   1      44.220  32.703  29.563  1.00  0.00     0.065 H 
ATOM    140  C   UNL A   1      46.559  31.493  28.349  1.00  0.00     0.037 A 
ATOM    141  H   UNL A   1      49.253  32.112  27.864  1.00  0.00     0.065 H 
BRANCH 122 142
ATOM    142  C   UNL A   1      41.069  28.685  28.674  1.00  0.00     0.064 A 
ATOM    143  C   UNL A   1      40.073  29.038  27.751  1.00  0.00     0.173 A 
ATOM    144  C   UNL A   1      40.670  28.369  29.981  1.00  0.00     0.173 A 
ATOM    145  F   UNL A   1      40.404  29.362  26.493  1.00  0.00    -0.203 F 
ATOM    146  C   UNL A   1      38.734  29.094  28.128  1.00  0.00     0.198 A 
ATOM    147  C   UNL A   1      39.327  28.399  30.348  1.00  0.00     0.198 A 
ATOM    148  F   UNL A   1      41.582  28.021  30.902  1.00  0.00    -0.203 F 
ATOM    149  F   UNL A   1      37.804  29.474  27.240  1.00  0.00    -0.200 F 
ATOM    150  C   UNL A   1      38.361  28.768  29.423  1.00  0.00     0.200 A 
ATOM    151  F   UNL A   1      38.968  28.074  31.597  1.00  0.00    -0.200 F 
ATOM    152  F   UNL A   1      37.071  28.815  29.783  1.00  0.00    -0.200 F 
ENDBRANCH 122 142
BRANCH 125 153
ATOM    153  C   UNL A   1      50.509  27.868  25.536  1.00  0.00     0.064 A 
ATOM    154  C   UNL A   1      50.805  28.000  24.173  1.00  0.00     0.173 A 
ATOM    155  C   UNL A   1      51.574  27.635  26.417  1.00  0.00     0.173 A 
ATOM    156  F   UNL A   1      49.815  28.203  23.290  1.00  0.00    -0.203 F 
ATOM    157  C   UNL A   1      52.112  27.885  23.706  1.00  0.00     0.198 A 
ATOM    158  C   UNL A   1      52.884  27.546  25.953  1.00  0.00     0.198 A 
ATOM    159  F   UNL A   1      51.342  27.507  27.732  1.00  0.00    -0.203 F 
ATOM    160  F   UNL A   1      52.363  27.974  22.393  1.00  0.00    -0.200 F 
ATOM    161  C   UNL A   1      53.152  27.663  24.597  1.00  0.00     0.200 A 
ATOM    162  F   UNL A   1      53.887  27.342  26.817  1.00  0.00    -0.200 F 
ATOM    163  F   UNL A   1      54.410  27.554  24.148  1.00  0.00    -0.200 F 
ENDBRANCH 125 153
BRANCH 140 164
ATOM    164  C   UNL A   1      46.954  32.850  28.850  1.00  0.00     0.064 A 
ATOM    165  C   UNL A   1      46.814  33.995  28.053  1.00  0.00     0.173 A 
ATOM    166  C   UNL A   1      47.456  33.009  30.151  1.00  0.00     0.173 A 
ATOM    167  F   UNL A   1      46.354  33.891  26.797  1.00  0.00    -0.203 F 
ATOM    168  C   UNL A   1      47.191  35.248  28.529  1.00  0.00     0.198 A 
ATOM    169  C   UNL A   1      47.806  34.267  30.633  1.00  0.00     0.198 A 
ATOM    170  F   UNL A   1      47.603  31.944  30.953  1.00  0.00    -0.203 F 
ATOM    171  F   UNL A   1      47.095  36.321  27.733  1.00  0.00    -0.200 F 
ATOM    172  C   UNL A   1      47.681  35.383  29.820  1.00  0.00     0.200 A 
ATOM    173  F   UNL A   1      48.270  34.398  31.883  1.00  0.00    -0.200 F 
ATOM    174  F   UNL A   1      48.042  36.590  30.277  1.00  0.00    -0.200 F 
ENDBRANCH 140 164
ENDBRANCH 105 108
ENDBRANCH  95  98
ENDBRANCH  91  94
ENDBRANCH  88  91
ENDBRANCH  85  88
ENDBRANCH  82  85
ENDBRANCH  79  82
ENDBRANCH   1  79
TORSDOF 27
ENDMDL
MODEL 8
REMARK VINA RESULT:     -10.3      5.374     10.502
REMARK SMILES CCCC[C@@H](Sc1nc(OCCC2CCCCC2)cc(OCCC2CCCCC2)n1)C(=O)NCCCCCCNC(=O)c1ccc(-c2c3nc(c(-c4c(F)c(F)c(F)c(F)c4F)c4ccc([nH]4)c(-c4c(F)c(F)c(F)c(F)c4F)c4nc(c(-c5c(F)c(F)c(F)c(F)c5F)c5ccc2[nH]5)C=C4)C=C3)cc1
REMARK SMILES IDX 34 1 33 4 31 5 32 6 5 8 4 10 3 13 2 16 1 19 6 23 7 24 8 25
REMARK SMILES IDX 30 26 9 27 20 28 19 29 10 31 11 32 12 35 13 38 14 39 18 40
REMARK SMILES IDX 15 42 17 45 16 48 21 55 22 56 23 59 24 62 25 63 29 64 26 66
REMARK SMILES IDX 28 69 27 72 35 79 36 82 37 85 38 88 39 91 40 94 41 95 42 97
REMARK SMILES IDX 43 98 44 99 105 100 45 101 104 103 46 105 47 108 48 109
REMARK SMILES IDX 98 110 49 111 103 112 97 113 99 114 50 115 102 116 96 118
REMARK SMILES IDX 95 120 51 122 83 125 63 126 82 127 64 128 67 129 81 130
REMARK SMILES IDX 100 131 65 132 66 134 80 136 101 137 68 140 52 142 53 143
REMARK SMILES IDX 61 144 54 145 55 146 59 147 62 148 56 149 57 150 60 151
REMARK SMILES IDX 58 152 84 153 85 154 93 155 86 156 87 157 91 158 94 159
REMARK SMILES IDX 88 160 89 161 92 162 90 163 69 164 70 165 78 166 71 167
REMARK SMILES IDX 72 168 76 169 79 170 73 171 74 172 77 173 75 174
REMARK H PARENT 34 2 34 3 33 7 5 9 4 11 4 12 3 14 3 15 2 17 2 18 1 20 1 21
REMARK H PARENT 1 22 19 30 11 33 11 34 12 36 12 37 13 41 14 43 14 44 18 46
REMARK H PARENT 18 47 15 49 15 50 17 51 17 52 16 53 16 54 22 57 22 58 23 60
REMARK H PARENT 23 61 24 65 25 67 25 68 29 70 29 71 26 73 26 74 28 75 28 76
REMARK H PARENT 27 77 27 78 35 80 35 81 36 83 36 84 37 86 37 87 38 89 38 90
REMARK H PARENT 39 92 39 93 40 96 44 102 105 104 45 106 104 107 103 117 97 119
REMARK H PARENT 99 121 102 123 96 124 64 133 67 135 100 138 65 139 101 141
REMARK Flexibility Score: inf
ROOT
ATOM      1  C   UNL A   1      37.142  22.817  24.613  1.00  0.00     0.017 C 
ATOM      2  H   UNL A   1      36.092  23.012  24.678  1.00  0.00     0.049 H 
ATOM      3  H   UNL A   1      37.522  23.113  23.656  1.00  0.00     0.049 H 
ENDROOT
BRANCH   1   4
ATOM      4  N   UNL A   1      37.372  21.391  24.778  1.00  0.00    -0.355 N 
ATOM      5  C   UNL A   1      36.475  20.362  24.880  1.00  0.00     0.233 C 
ATOM      6  O   UNL A   1      36.923  19.220  25.004  1.00  0.00    -0.274 OA
ATOM      7  H   UNL A   1      38.318  21.125  24.825  1.00  0.00     0.163 HD
BRANCH   5   8
ATOM      8  C   UNL A   1      34.959  20.625  24.875  1.00  0.00     0.091 C 
ATOM      9  H   UNL A   1      34.545  21.209  24.079  1.00  0.00     0.052 H 
BRANCH   8  10
ATOM     10  C   UNL A   1      34.226  19.284  24.626  1.00  0.00    -0.032 C 
ATOM     11  H   UNL A   1      34.864  18.689  24.007  1.00  0.00     0.028 H 
ATOM     12  H   UNL A   1      34.031  18.911  25.609  1.00  0.00     0.028 H 
BRANCH  10  13
ATOM     13  C   UNL A   1      32.844  19.308  23.958  1.00  0.00    -0.052 C 
ATOM     14  H   UNL A   1      32.111  19.266  24.735  1.00  0.00     0.027 H 
ATOM     15  H   UNL A   1      32.839  20.204  23.373  1.00  0.00     0.027 H 
BRANCH  13  16
ATOM     16  C   UNL A   1      32.526  18.192  22.967  1.00  0.00    -0.056 C 
ATOM     17  H   UNL A   1      31.494  17.931  23.070  1.00  0.00     0.026 H 
ATOM     18  H   UNL A   1      32.753  18.564  21.989  1.00  0.00     0.026 H 
BRANCH  16  19
ATOM     19  C   UNL A   1      33.362  16.943  23.176  1.00  0.00    -0.065 C 
ATOM     20  H   UNL A   1      34.400  17.203  23.170  1.00  0.00     0.023 H 
ATOM     21  H   UNL A   1      33.166  16.245  22.388  1.00  0.00     0.023 H 
ATOM     22  H   UNL A   1      33.111  16.498  24.116  1.00  0.00     0.023 H 
ENDBRANCH  16  19
ENDBRANCH  13  16
ENDBRANCH  10  13
ENDBRANCH   8  10
BRANCH   8  23
ATOM     23  S   UNL A   1      34.646  21.651  26.387  1.00  0.00    -0.073 SA
BRANCH  23  24
ATOM     24  C   UNL A   1      33.809  23.023  25.700  1.00  0.00     0.195 A 
ATOM     25  N   UNL A   1      34.001  23.276  24.399  1.00  0.00    -0.187 NA
ATOM     26  N   UNL A   1      33.030  23.724  26.522  1.00  0.00    -0.187 NA
ATOM     27  C   UNL A   1      33.438  24.390  23.921  1.00  0.00     0.221 A 
ATOM     28  C   UNL A   1      32.445  24.804  26.004  1.00  0.00     0.221 A 
ATOM     29  C   UNL A   1      32.699  25.229  24.723  1.00  0.00     0.063 A 
ATOM     30  H   UNL A   1      32.350  26.136  24.378  1.00  0.00     0.074 H 
BRANCH  27  31
ATOM     31  O   UNL A   1      33.630  24.544  22.576  1.00  0.00    -0.477 OA
BRANCH  31  32
ATOM     32  C   UNL A   1      33.279  25.773  21.952  1.00  0.00     0.090 C 
ATOM     33  H   UNL A   1      33.852  25.859  21.053  1.00  0.00     0.071 H 
ATOM     34  H   UNL A   1      33.485  26.533  22.676  1.00  0.00     0.071 H 
BRANCH  32  35
ATOM     35  C   UNL A   1      31.787  25.942  21.582  1.00  0.00    -0.016 C 
ATOM     36  H   UNL A   1      31.259  25.097  21.973  1.00  0.00     0.030 H 
ATOM     37  H   UNL A   1      31.770  26.024  20.515  1.00  0.00     0.030 H 
BRANCH  35  38
ATOM     38  C   UNL A   1      31.088  27.207  22.096  1.00  0.00    -0.038 C 
ATOM     39  C   UNL A   1      29.925  26.925  23.057  1.00  0.00    -0.050 C 
ATOM     40  C   UNL A   1      32.053  28.191  22.772  1.00  0.00    -0.050 C 
ATOM     41  H   UNL A   1      30.692  27.654  21.208  1.00  0.00     0.030 H 
ATOM     42  C   UNL A   1      29.176  28.231  23.356  1.00  0.00    -0.053 C 
ATOM     43  H   UNL A   1      30.307  26.517  23.970  1.00  0.00     0.027 H 
ATOM     44  H   UNL A   1      29.253  26.224  22.607  1.00  0.00     0.027 H 
ATOM     45  C   UNL A   1      31.347  29.521  23.008  1.00  0.00    -0.053 C 
ATOM     46  H   UNL A   1      32.903  28.346  22.138  1.00  0.00     0.027 H 
ATOM     47  H   UNL A   1      32.374  27.786  23.708  1.00  0.00     0.027 H 
ATOM     48  C   UNL A   1      30.097  29.340  23.866  1.00  0.00    -0.053 C 
ATOM     49  H   UNL A   1      28.431  28.036  24.099  1.00  0.00     0.027 H 
ATOM     50  H   UNL A   1      28.742  28.569  22.438  1.00  0.00     0.027 H 
ATOM     51  H   UNL A   1      32.018  30.188  23.507  1.00  0.00     0.027 H 
ATOM     52  H   UNL A   1      31.051  29.920  22.061  1.00  0.00     0.027 H 
ATOM     53  H   UNL A   1      30.401  29.099  24.863  1.00  0.00     0.027 H 
ATOM     54  H   UNL A   1      29.547  30.257  23.826  1.00  0.00     0.027 H 
ENDBRANCH  35  38
ENDBRANCH  32  35
ENDBRANCH  31  32
ENDBRANCH  27  31
BRANCH  28  55
ATOM     55  O   UNL A   1      31.669  25.462  26.906  1.00  0.00    -0.477 OA
BRANCH  55  56
ATOM     56  C   UNL A   1      30.937  26.610  26.490  1.00  0.00     0.090 C 
ATOM     57  H   UNL A   1      29.891  26.440  26.637  1.00  0.00     0.071 H 
ATOM     58  H   UNL A   1      31.122  26.798  25.453  1.00  0.00     0.071 H 
BRANCH  56  59
ATOM     59  C   UNL A   1      31.382  27.821  27.320  1.00  0.00    -0.016 C 
ATOM     60  H   UNL A   1      31.781  27.451  28.242  1.00  0.00     0.030 H 
ATOM     61  H   UNL A   1      30.508  28.428  27.420  1.00  0.00     0.030 H 
BRANCH  59  62
ATOM     62  C   UNL A   1      32.449  28.749  26.687  1.00  0.00    -0.038 C 
ATOM     63  C   UNL A   1      32.169  30.256  26.863  1.00  0.00    -0.050 C 
ATOM     64  C   UNL A   1      33.870  28.279  27.020  1.00  0.00    -0.050 C 
ATOM     65  H   UNL A   1      32.369  28.646  25.625  1.00  0.00     0.030 H 
ATOM     66  C   UNL A   1      33.293  31.175  27.351  1.00  0.00    -0.053 C 
ATOM     67  H   UNL A   1      31.366  30.345  27.565  1.00  0.00     0.027 H 
ATOM     68  H   UNL A   1      31.977  30.598  25.867  1.00  0.00     0.027 H 
ATOM     69  C   UNL A   1      34.912  29.347  26.729  1.00  0.00    -0.053 C 
ATOM     70  H   UNL A   1      34.093  27.412  26.435  1.00  0.00     0.027 H 
ATOM     71  H   UNL A   1      33.906  28.064  28.068  1.00  0.00     0.027 H 
ATOM     72  C   UNL A   1      34.643  30.536  27.623  1.00  0.00    -0.053 C 
ATOM     73  H   UNL A   1      32.963  31.630  28.262  1.00  0.00     0.027 H 
ATOM     74  H   UNL A   1      33.466  31.853  26.542  1.00  0.00     0.027 H 
ATOM     75  H   UNL A   1      35.890  28.960  26.927  1.00  0.00     0.027 H 
ATOM     76  H   UNL A   1      34.859  29.640  25.701  1.00  0.00     0.027 H 
ATOM     77  H   UNL A   1      34.670  30.211  28.642  1.00  0.00     0.027 H 
ATOM     78  H   UNL A   1      35.394  31.270  27.421  1.00  0.00     0.027 H 
ENDBRANCH  59  62
ENDBRANCH  56  59
ENDBRANCH  55  56
ENDBRANCH  28  55
ENDBRANCH  23  24
ENDBRANCH   8  23
ENDBRANCH   5   8
ENDBRANCH   1   4
BRANCH   1  79
ATOM     79  C   UNL A   1      37.865  23.619  25.687  1.00  0.00    -0.036 C 
ATOM     80  H   UNL A   1      37.133  24.053  26.337  1.00  0.00     0.028 H 
ATOM     81  H   UNL A   1      38.452  24.362  25.187  1.00  0.00     0.028 H 
BRANCH  79  82
ATOM     82  C   UNL A   1      38.825  22.778  26.531  1.00  0.00    -0.052 C 
ATOM     83  H   UNL A   1      39.011  21.863  26.010  1.00  0.00     0.027 H 
ATOM     84  H   UNL A   1      38.347  22.633  27.478  1.00  0.00     0.027 H 
BRANCH  82  85
ATOM     85  C   UNL A   1      40.172  23.446  26.824  1.00  0.00    -0.052 C 
ATOM     86  H   UNL A   1      40.139  23.835  27.821  1.00  0.00     0.027 H 
ATOM     87  H   UNL A   1      40.299  24.200  26.075  1.00  0.00     0.027 H 
BRANCH  85  88
ATOM     88  C   UNL A   1      41.394  22.527  26.714  1.00  0.00    -0.036 C 
ATOM     89  H   UNL A   1      41.446  22.161  25.710  1.00  0.00     0.028 H 
ATOM     90  H   UNL A   1      41.255  21.753  27.439  1.00  0.00     0.028 H 
BRANCH  88  91
ATOM     91  C   UNL A   1      42.727  23.192  27.045  1.00  0.00     0.018 C 
ATOM     92  H   UNL A   1      43.176  22.674  27.867  1.00  0.00     0.049 H 
ATOM     93  H   UNL A   1      42.533  24.216  27.291  1.00  0.00     0.049 H 
BRANCH  91  94
ATOM     94  N   UNL A   1      43.645  23.168  25.917  1.00  0.00    -0.352 N 
ATOM     95  C   UNL A   1      44.313  24.195  25.315  1.00  0.00     0.251 C 
ATOM     96  H   UNL A   1      43.808  22.278  25.530  1.00  0.00     0.163 HD
ATOM     97  O   UNL A   1      44.912  24.000  24.252  1.00  0.00    -0.269 OA
BRANCH  95  98
ATOM     98  C   UNL A   1      44.318  25.543  25.914  1.00  0.00     0.039 A 
ATOM     99  C   UNL A   1      43.552  26.544  25.313  1.00  0.00    -0.049 A 
ATOM    100  C   UNL A   1      45.105  25.836  27.034  1.00  0.00    -0.049 A 
ATOM    101  C   UNL A   1      43.543  27.829  25.855  1.00  0.00    -0.053 A 
ATOM    102  H   UNL A   1      42.995  26.334  24.470  1.00  0.00     0.063 H 
ATOM    103  C   UNL A   1      45.051  27.104  27.608  1.00  0.00    -0.053 A 
ATOM    104  H   UNL A   1      45.725  25.113  27.433  1.00  0.00     0.063 H 
ATOM    105  C   UNL A   1      44.277  28.113  27.018  1.00  0.00    -0.014 A 
ATOM    106  H   UNL A   1      42.993  28.575  25.399  1.00  0.00     0.063 H 
ATOM    107  H   UNL A   1      45.582  27.301  28.471  1.00  0.00     0.063 H 
BRANCH 105 108
ATOM    108  C   UNL A   1      44.239  29.469  27.618  1.00  0.00     0.031 A 
ATOM    109  C   UNL A   1      43.073  29.894  28.464  1.00  0.00     0.074 A 
ATOM    110  C   UNL A   1      45.243  30.330  27.367  1.00  0.00     0.049 A 
ATOM    111  N   UNL A   1      42.863  31.036  29.069  1.00  0.00    -0.248 NA
ATOM    112  C   UNL A   1      41.987  28.916  28.635  1.00  0.00    -0.034 C 
ATOM    113  C   UNL A   1      46.398  30.051  26.512  1.00  0.00    -0.036 A 
ATOM    114  N   UNL A   1      45.452  31.613  27.802  1.00  0.00    -0.354 N 
ATOM    115  C   UNL A   1      41.622  30.919  29.679  1.00  0.00     0.074 A 
ATOM    116  C   UNL A   1      41.103  29.612  29.335  1.00  0.00    -0.034 C 
ATOM    117  H   UNL A   1      41.928  27.943  28.297  1.00  0.00     0.065 H 
ATOM    118  C   UNL A   1      47.206  31.124  26.504  1.00  0.00    -0.036 A 
ATOM    119  H   UNL A   1      46.565  29.171  25.998  1.00  0.00     0.065 H 
ATOM    120  C   UNL A   1      46.616  32.169  27.333  1.00  0.00     0.049 A 
ATOM    121  H   UNL A   1      44.826  32.090  28.394  1.00  0.00     0.167 HD
ATOM    122  C   UNL A   1      40.984  31.811  30.474  1.00  0.00     0.037 A 
ATOM    123  H   UNL A   1      40.166  29.267  29.601  1.00  0.00     0.065 H 
ATOM    124  H   UNL A   1      48.100  31.197  25.993  1.00  0.00     0.065 H 
ATOM    125  C   UNL A   1      47.149  33.386  27.554  1.00  0.00     0.037 A 
ATOM    126  C   UNL A   1      41.517  33.097  30.839  1.00  0.00     0.049 A 
ATOM    127  C   UNL A   1      46.437  34.343  28.469  1.00  0.00     0.074 A 
ATOM    128  C   UNL A   1      40.979  34.045  31.692  1.00  0.00    -0.036 A 
ATOM    129  N   UNL A   1      42.715  33.615  30.370  1.00  0.00    -0.354 N 
ATOM    130  N   UNL A   1      45.299  34.191  29.103  1.00  0.00    -0.248 NA
ATOM    131  C   UNL A   1      47.090  35.637  28.708  1.00  0.00    -0.034 C 
ATOM    132  C   UNL A   1      41.835  35.153  31.712  1.00  0.00    -0.036 A 
ATOM    133  H   UNL A   1      40.099  33.952  32.222  1.00  0.00     0.065 H 
ATOM    134  C   UNL A   1      42.926  34.877  30.904  1.00  0.00     0.049 A 
ATOM    135  H   UNL A   1      43.326  33.154  29.751  1.00  0.00     0.167 HD
ATOM    136  C   UNL A   1      45.111  35.358  29.831  1.00  0.00     0.074 A 
ATOM    137  C   UNL A   1      46.261  36.200  29.576  1.00  0.00    -0.034 C 
ATOM    138  H   UNL A   1      47.964  36.010  28.306  1.00  0.00     0.065 H 
ATOM    139  H   UNL A   1      41.681  36.025  32.241  1.00  0.00     0.065 H 
ATOM    140  C   UNL A   1      44.076  35.701  30.637  1.00  0.00     0.037 A 
ATOM    141  H   UNL A   1      46.415  37.121  30.014  1.00  0.00     0.065 H 
BRANCH 122 142
ATOM    142  C   UNL A   1      39.637  31.425  31.009  1.00  0.00     0.064 A 
ATOM    143  C   UNL A   1      39.500  30.734  32.223  1.00  0.00     0.173 A 
ATOM    144  C   UNL A   1      38.467  31.784  30.323  1.00  0.00     0.173 A 
ATOM    145  F   UNL A   1      40.588  30.357  32.910  1.00  0.00    -0.203 F 
ATOM    146  C   UNL A   1      38.244  30.396  32.717  1.00  0.00     0.198 A 
ATOM    147  C   UNL A   1      37.211  31.469  30.834  1.00  0.00     0.198 A 
ATOM    148  F   UNL A   1      38.541  32.450  29.160  1.00  0.00    -0.203 F 
ATOM    149  F   UNL A   1      38.139  29.699  33.858  1.00  0.00    -0.200 F 
ATOM    150  C   UNL A   1      37.100  30.769  32.027  1.00  0.00     0.200 A 
ATOM    151  F   UNL A   1      36.107  31.839  30.171  1.00  0.00    -0.200 F 
ATOM    152  F   UNL A   1      35.891  30.450  32.508  1.00  0.00    -0.200 F 
ENDBRANCH 122 142
BRANCH 125 153
ATOM    153  C   UNL A   1      48.444  33.749  26.928  1.00  0.00     0.064 A 
ATOM    154  C   UNL A   1      49.653  33.256  27.439  1.00  0.00     0.173 A 
ATOM    155  C   UNL A   1      48.502  34.591  25.809  1.00  0.00     0.173 A 
ATOM    156  F   UNL A   1      49.648  32.463  28.521  1.00  0.00    -0.203 F 
ATOM    157  C   UNL A   1      50.872  33.608  26.866  1.00  0.00     0.198 A 
ATOM    158  C   UNL A   1      49.721  34.922  25.221  1.00  0.00     0.198 A 
ATOM    159  F   UNL A   1      47.372  35.083  25.281  1.00  0.00    -0.203 F 
ATOM    160  F   UNL A   1      52.016  33.157  27.400  1.00  0.00    -0.200 F 
ATOM    161  C   UNL A   1      50.905  34.437  25.754  1.00  0.00     0.200 A 
ATOM    162  F   UNL A   1      49.748  35.714  24.141  1.00  0.00    -0.200 F 
ATOM    163  F   UNL A   1      52.079  34.773  25.202  1.00  0.00    -0.200 F 
ENDBRANCH 125 153
BRANCH 140 164
ATOM    164  C   UNL A   1      44.155  37.037  31.313  1.00  0.00     0.064 A 
ATOM    165  C   UNL A   1      43.767  38.214  30.656  1.00  0.00     0.173 A 
ATOM    166  C   UNL A   1      44.601  37.139  32.639  1.00  0.00     0.173 A 
ATOM    167  F   UNL A   1      43.348  38.169  29.381  1.00  0.00    -0.203 F 
ATOM    168  C   UNL A   1      43.851  39.449  31.292  1.00  0.00     0.198 A 
ATOM    169  C   UNL A   1      44.659  38.373  33.281  1.00  0.00     0.198 A 
ATOM    170  F   UNL A   1      44.978  36.042  33.311  1.00  0.00    -0.203 F 
ATOM    171  F   UNL A   1      43.522  40.567  30.629  1.00  0.00    -0.200 F 
ATOM    172  C   UNL A   1      44.291  39.527  32.605  1.00  0.00     0.200 A 
ATOM    173  F   UNL A   1      45.075  38.445  34.553  1.00  0.00    -0.200 F 
ATOM    174  F   UNL A   1      44.371  40.716  33.216  1.00  0.00    -0.200 F 
ENDBRANCH 140 164
ENDBRANCH 105 108
ENDBRANCH  95  98
ENDBRANCH  91  94
ENDBRANCH  88  91
ENDBRANCH  85  88
ENDBRANCH  82  85
ENDBRANCH  79  82
ENDBRANCH   1  79
TORSDOF 27
ENDMDL
MODEL 9
REMARK VINA RESULT:     -10.3      7.923     12.440
REMARK SMILES CCCC[C@@H](Sc1nc(OCCC2CCCCC2)cc(OCCC2CCCCC2)n1)C(=O)NCCCCCCNC(=O)c1ccc(-c2c3nc(c(-c4c(F)c(F)c(F)c(F)c4F)c4ccc([nH]4)c(-c4c(F)c(F)c(F)c(F)c4F)c4nc(c(-c5c(F)c(F)c(F)c(F)c5F)c5ccc2[nH]5)C=C4)C=C3)cc1
REMARK SMILES IDX 34 1 33 4 31 5 32 6 5 8 4 10 3 13 2 16 1 19 6 23 7 24 8 25
REMARK SMILES IDX 30 26 9 27 20 28 19 29 10 31 11 32 12 35 13 38 14 39 18 40
REMARK SMILES IDX 15 42 17 45 16 48 21 55 22 56 23 59 24 62 25 63 29 64 26 66
REMARK SMILES IDX 28 69 27 72 35 79 36 82 37 85 38 88 39 91 40 94 41 95 42 97
REMARK SMILES IDX 43 98 44 99 105 100 45 101 104 103 46 105 47 108 48 109
REMARK SMILES IDX 98 110 49 111 103 112 97 113 99 114 50 115 102 116 96 118
REMARK SMILES IDX 95 120 51 122 83 125 63 126 82 127 64 128 67 129 81 130
REMARK SMILES IDX 100 131 65 132 66 134 80 136 101 137 68 140 52 142 53 143
REMARK SMILES IDX 61 144 54 145 55 146 59 147 62 148 56 149 57 150 60 151
REMARK SMILES IDX 58 152 84 153 85 154 93 155 86 156 87 157 91 158 94 159
REMARK SMILES IDX 88 160 89 161 92 162 90 163 69 164 70 165 78 166 71 167
REMARK SMILES IDX 72 168 76 169 79 170 73 171 74 172 77 173 75 174
REMARK H PARENT 34 2 34 3 33 7 5 9 4 11 4 12 3 14 3 15 2 17 2 18 1 20 1 21
REMARK H PARENT 1 22 19 30 11 33 11 34 12 36 12 37 13 41 14 43 14 44 18 46
REMARK H PARENT 18 47 15 49 15 50 17 51 17 52 16 53 16 54 22 57 22 58 23 60
REMARK H PARENT 23 61 24 65 25 67 25 68 29 70 29 71 26 73 26 74 28 75 28 76
REMARK H PARENT 27 77 27 78 35 80 35 81 36 83 36 84 37 86 37 87 38 89 38 90
REMARK H PARENT 39 92 39 93 40 96 44 102 105 104 45 106 104 107 103 117 97 119
REMARK H PARENT 99 121 102 123 96 124 64 133 67 135 100 138 65 139 101 141
REMARK Flexibility Score: inf
ROOT
ATOM      1  C   UNL A   1      36.379  23.634  25.901  1.00  0.00     0.017 C 
ATOM      2  H   UNL A   1      36.184  24.667  26.099  1.00  0.00     0.049 H 
ATOM      3  H   UNL A   1      36.125  23.389  24.891  1.00  0.00     0.049 H 
ENDROOT
BRANCH   1   4
ATOM      4  N   UNL A   1      35.567  22.819  26.790  1.00  0.00    -0.355 N 
ATOM      5  C   UNL A   1      34.240  22.489  26.714  1.00  0.00     0.233 C 
ATOM      6  O   UNL A   1      33.777  21.762  27.597  1.00  0.00    -0.274 OA
ATOM      7  H   UNL A   1      36.044  22.447  27.566  1.00  0.00     0.163 HD
BRANCH   5   8
ATOM      8  C   UNL A   1      33.349  23.035  25.585  1.00  0.00     0.091 C 
ATOM      9  H   UNL A   1      33.627  23.955  25.115  1.00  0.00     0.052 H 
BRANCH   8  10
ATOM     10  C   UNL A   1      33.447  22.079  24.372  1.00  0.00    -0.032 C 
ATOM     11  H   UNL A   1      33.410  22.685  23.491  1.00  0.00     0.028 H 
ATOM     12  H   UNL A   1      34.354  21.539  24.542  1.00  0.00     0.028 H 
BRANCH  10  13
ATOM     13  C   UNL A   1      32.388  20.980  24.206  1.00  0.00    -0.052 C 
ATOM     14  H   UNL A   1      31.451  21.387  24.522  1.00  0.00     0.027 H 
ATOM     15  H   UNL A   1      32.440  20.703  23.174  1.00  0.00     0.027 H 
BRANCH  13  16
ATOM     16  C   UNL A   1      32.603  19.678  24.972  1.00  0.00    -0.056 C 
ATOM     17  H   UNL A   1      32.648  19.903  26.016  1.00  0.00     0.026 H 
ATOM     18  H   UNL A   1      31.786  19.031  24.732  1.00  0.00     0.026 H 
BRANCH  16  19
ATOM     19  C   UNL A   1      33.878  18.952  24.580  1.00  0.00    -0.065 C 
ATOM     20  H   UNL A   1      33.774  18.556  23.592  1.00  0.00     0.023 H 
ATOM     21  H   UNL A   1      34.059  18.152  25.268  1.00  0.00     0.023 H 
ATOM     22  H   UNL A   1      34.701  19.636  24.606  1.00  0.00     0.023 H 
ENDBRANCH  16  19
ENDBRANCH  13  16
ENDBRANCH  10  13
ENDBRANCH   8  10
BRANCH   8  23
ATOM     23  S   UNL A   1      31.730  23.427  26.401  1.00  0.00    -0.073 SA
BRANCH  23  24
ATOM     24  C   UNL A   1      31.556  25.123  26.016  1.00  0.00     0.195 A 
ATOM     25  N   UNL A   1      32.115  26.006  26.853  1.00  0.00    -0.187 NA
ATOM     26  N   UNL A   1      30.880  25.420  24.907  1.00  0.00    -0.187 NA
ATOM     27  C   UNL A   1      31.879  27.297  26.598  1.00  0.00     0.221 A 
ATOM     28  C   UNL A   1      30.701  26.717  24.656  1.00  0.00     0.221 A 
ATOM     29  C   UNL A   1      31.106  27.694  25.531  1.00  0.00     0.063 A 
ATOM     30  H   UNL A   1      30.843  28.682  25.394  1.00  0.00     0.074 H 
BRANCH  27  31
ATOM     31  O   UNL A   1      32.532  28.134  27.460  1.00  0.00    -0.477 OA
BRANCH  31  32
ATOM     32  C   UNL A   1      33.849  28.573  27.151  1.00  0.00     0.090 C 
ATOM     33  H   UNL A   1      34.039  28.337  26.124  1.00  0.00     0.071 H 
ATOM     34  H   UNL A   1      34.491  28.069  27.841  1.00  0.00     0.071 H 
BRANCH  32  35
ATOM     35  C   UNL A   1      34.123  30.082  27.349  1.00  0.00    -0.016 C 
ATOM     36  H   UNL A   1      33.265  30.507  27.827  1.00  0.00     0.030 H 
ATOM     37  H   UNL A   1      34.323  30.462  26.369  1.00  0.00     0.030 H 
BRANCH  35  38
ATOM     38  C   UNL A   1      35.354  30.454  28.186  1.00  0.00    -0.038 C 
ATOM     39  C   UNL A   1      36.553  29.519  27.975  1.00  0.00    -0.050 C 
ATOM     40  C   UNL A   1      35.817  31.900  27.959  1.00  0.00    -0.050 C 
ATOM     41  H   UNL A   1      35.015  30.345  29.195  1.00  0.00     0.030 H 
ATOM     42  C   UNL A   1      37.653  29.854  28.992  1.00  0.00    -0.053 C 
ATOM     43  H   UNL A   1      36.934  29.645  26.983  1.00  0.00     0.027 H 
ATOM     44  H   UNL A   1      36.240  28.504  28.110  1.00  0.00     0.027 H 
ATOM     45  C   UNL A   1      36.857  32.275  29.009  1.00  0.00    -0.053 C 
ATOM     46  H   UNL A   1      34.976  32.558  28.039  1.00  0.00     0.027 H 
ATOM     47  H   UNL A   1      36.248  31.985  26.984  1.00  0.00     0.027 H 
ATOM     48  C   UNL A   1      38.054  31.330  28.966  1.00  0.00    -0.053 C 
ATOM     49  H   UNL A   1      38.515  29.260  28.771  1.00  0.00     0.027 H 
ATOM     50  H   UNL A   1      37.264  29.643  29.967  1.00  0.00     0.027 H 
ATOM     51  H   UNL A   1      37.195  33.273  28.822  1.00  0.00     0.027 H 
ATOM     52  H   UNL A   1      36.404  32.204  29.975  1.00  0.00     0.027 H 
ATOM     53  H   UNL A   1      38.605  31.517  28.068  1.00  0.00     0.027 H 
ATOM     54  H   UNL A   1      38.641  31.517  29.841  1.00  0.00     0.027 H 
ENDBRANCH  35  38
ENDBRANCH  32  35
ENDBRANCH  31  32
ENDBRANCH  27  31
BRANCH  28  55
ATOM     55  O   UNL A   1      30.003  26.936  23.509  1.00  0.00    -0.477 OA
BRANCH  55  56
ATOM     56  C   UNL A   1      30.686  27.423  22.359  1.00  0.00     0.090 C 
ATOM     57  H   UNL A   1      30.145  27.147  21.479  1.00  0.00     0.071 H 
ATOM     58  H   UNL A   1      31.668  27.001  22.319  1.00  0.00     0.071 H 
BRANCH  56  59
ATOM     59  C   UNL A   1      30.786  28.952  22.441  1.00  0.00    -0.016 C 
ATOM     60  H   UNL A   1      31.314  29.288  21.572  1.00  0.00     0.030 H 
ATOM     61  H   UNL A   1      31.278  29.150  23.370  1.00  0.00     0.030 H 
BRANCH  59  62
ATOM     62  C   UNL A   1      29.453  29.738  22.513  1.00  0.00    -0.038 C 
ATOM     63  C   UNL A   1      29.289  30.601  23.782  1.00  0.00    -0.050 C 
ATOM     64  C   UNL A   1      29.133  30.423  21.179  1.00  0.00    -0.050 C 
ATOM     65  H   UNL A   1      28.669  29.021  22.648  1.00  0.00     0.030 H 
ATOM     66  C   UNL A   1      28.833  32.056  23.643  1.00  0.00    -0.053 C 
ATOM     67  H   UNL A   1      30.240  30.618  24.273  1.00  0.00     0.027 H 
ATOM     68  H   UNL A   1      28.484  30.132  24.308  1.00  0.00     0.027 H 
ATOM     69  C   UNL A   1      28.046  31.476  21.320  1.00  0.00    -0.053 C 
ATOM     70  H   UNL A   1      28.806  29.683  20.480  1.00  0.00     0.027 H 
ATOM     71  H   UNL A   1      30.023  30.913  20.841  1.00  0.00     0.027 H 
ATOM     72  C   UNL A   1      28.550  32.564  22.240  1.00  0.00    -0.053 C 
ATOM     73  H   UNL A   1      29.599  32.676  24.061  1.00  0.00     0.027 H 
ATOM     74  H   UNL A   1      27.890  32.099  24.148  1.00  0.00     0.027 H 
ATOM     75  H   UNL A   1      27.820  31.891  20.360  1.00  0.00     0.027 H 
ATOM     76  H   UNL A   1      27.158  31.035  21.723  1.00  0.00     0.027 H 
ATOM     77  H   UNL A   1      29.453  32.967  21.832  1.00  0.00     0.027 H 
ATOM     78  H   UNL A   1      27.783  33.307  22.314  1.00  0.00     0.027 H 
ENDBRANCH  59  62
ENDBRANCH  56  59
ENDBRANCH  55  56
ENDBRANCH  28  55
ENDBRANCH  23  24
ENDBRANCH   8  23
ENDBRANCH   5   8
ENDBRANCH   1   4
BRANCH   1  79
ATOM     79  C   UNL A   1      37.863  23.360  26.107  1.00  0.00    -0.036 C 
ATOM     80  H   UNL A   1      38.263  22.961  25.198  1.00  0.00     0.028 H 
ATOM     81  H   UNL A   1      37.947  22.670  26.922  1.00  0.00     0.028 H 
BRANCH  79  82
ATOM     82  C   UNL A   1      38.665  24.607  26.484  1.00  0.00    -0.052 C 
ATOM     83  H   UNL A   1      38.013  25.453  26.423  1.00  0.00     0.027 H 
ATOM     84  H   UNL A   1      39.486  24.657  25.799  1.00  0.00     0.027 H 
BRANCH  82  85
ATOM     85  C   UNL A   1      39.275  24.574  27.889  1.00  0.00    -0.052 C 
ATOM     86  H   UNL A   1      38.903  23.704  28.391  1.00  0.00     0.027 H 
ATOM     87  H   UNL A   1      38.991  25.492  28.358  1.00  0.00     0.027 H 
BRANCH  85  88
ATOM     88  C   UNL A   1      40.806  24.528  27.935  1.00  0.00    -0.036 C 
ATOM     89  H   UNL A   1      41.097  23.683  28.522  1.00  0.00     0.028 H 
ATOM     90  H   UNL A   1      41.123  25.461  28.353  1.00  0.00     0.028 H 
BRANCH  88  91
ATOM     91  C   UNL A   1      41.485  24.415  26.573  1.00  0.00     0.018 C 
ATOM     92  H   UNL A   1      42.060  25.301  26.399  1.00  0.00     0.049 H 
ATOM     93  H   UNL A   1      40.721  24.296  25.833  1.00  0.00     0.049 H 
BRANCH  91  94
ATOM     94  N   UNL A   1      42.367  23.261  26.496  1.00  0.00    -0.352 N 
ATOM     95  C   UNL A   1      43.714  23.206  26.276  1.00  0.00     0.251 C 
ATOM     96  H   UNL A   1      41.927  22.389  26.620  1.00  0.00     0.163 HD
ATOM     97  O   UNL A   1      44.259  22.118  26.066  1.00  0.00    -0.269 OA
BRANCH  95  98
ATOM     98  C   UNL A   1      44.526  24.438  26.273  1.00  0.00     0.039 A 
ATOM     99  C   UNL A   1      45.050  24.894  27.486  1.00  0.00    -0.049 A 
ATOM    100  C   UNL A   1      44.735  25.167  25.098  1.00  0.00    -0.049 A 
ATOM    101  C   UNL A   1      45.818  26.058  27.514  1.00  0.00    -0.053 A 
ATOM    102  H   UNL A   1      44.871  24.371  28.357  1.00  0.00     0.063 H 
ATOM    103  C   UNL A   1      45.549  26.297  25.117  1.00  0.00    -0.053 A 
ATOM    104  H   UNL A   1      44.287  24.866  24.217  1.00  0.00     0.063 H 
ATOM    105  C   UNL A   1      46.088  26.758  26.327  1.00  0.00    -0.014 A 
ATOM    106  H   UNL A   1      46.188  26.407  28.412  1.00  0.00     0.063 H 
ATOM    107  H   UNL A   1      45.755  26.797  24.238  1.00  0.00     0.063 H 
BRANCH 105 108
ATOM    108  C   UNL A   1      46.935  27.975  26.349  1.00  0.00     0.031 A 
ATOM    109  C   UNL A   1      48.419  27.874  26.139  1.00  0.00     0.074 A 
ATOM    110  C   UNL A   1      46.366  29.170  26.595  1.00  0.00     0.049 A 
ATOM    111  N   UNL A   1      49.319  28.824  26.125  1.00  0.00    -0.248 NA
ATOM    112  C   UNL A   1      48.969  26.524  25.942  1.00  0.00    -0.034 C 
ATOM    113  C   UNL A   1      44.945  29.385  26.873  1.00  0.00    -0.036 A 
ATOM    114  N   UNL A   1      46.912  30.426  26.656  1.00  0.00    -0.354 N 
ATOM    115  C   UNL A   1      50.538  28.189  25.931  1.00  0.00     0.074 A 
ATOM    116  C   UNL A   1      50.271  26.767  25.878  1.00  0.00    -0.034 C 
ATOM    117  H   UNL A   1      48.472  25.622  25.872  1.00  0.00     0.065 H 
ATOM    118  C   UNL A   1      44.728  30.699  27.052  1.00  0.00    -0.036 A 
ATOM    119  H   UNL A   1      44.226  28.647  26.923  1.00  0.00     0.065 H 
ATOM    120  C   UNL A   1      45.995  31.411  26.922  1.00  0.00     0.049 A 
ATOM    121  H   UNL A   1      47.872  30.604  26.521  1.00  0.00     0.167 HD
ATOM    122  C   UNL A   1      51.766  28.743  25.788  1.00  0.00     0.037 A 
ATOM    123  H   UNL A   1      50.998  26.039  25.800  1.00  0.00     0.065 H 
ATOM    124  H   UNL A   1      43.813  31.133  27.249  1.00  0.00     0.065 H 
ATOM    125  C   UNL A   1      46.159  32.742  27.043  1.00  0.00     0.037 A 
ATOM    126  C   UNL A   1      52.024  30.159  25.810  1.00  0.00     0.049 A 
ATOM    127  C   UNL A   1      47.526  33.334  26.843  1.00  0.00     0.074 A 
ATOM    128  C   UNL A   1      53.220  30.823  25.607  1.00  0.00    -0.036 A 
ATOM    129  N   UNL A   1      51.063  31.131  26.052  1.00  0.00    -0.354 N 
ATOM    130  N   UNL A   1      48.660  32.729  26.583  1.00  0.00    -0.248 NA
ATOM    131  C   UNL A   1      47.634  34.796  26.942  1.00  0.00    -0.034 C 
ATOM    132  C   UNL A   1      52.992  32.195  25.759  1.00  0.00    -0.036 A 
ATOM    133  H   UNL A   1      54.125  30.383  25.380  1.00  0.00     0.065 H 
ATOM    134  C   UNL A   1      51.644  32.389  26.018  1.00  0.00     0.049 A 
ATOM    135  H   UNL A   1      50.110  30.953  26.221  1.00  0.00     0.167 HD
ATOM    136  C   UNL A   1      49.609  33.734  26.466  1.00  0.00     0.074 A 
ATOM    137  C   UNL A   1      48.915  34.990  26.664  1.00  0.00    -0.034 C 
ATOM    138  H   UNL A   1      46.904  35.489  27.168  1.00  0.00     0.065 H 
ATOM    139  H   UNL A   1      53.705  32.937  25.690  1.00  0.00     0.065 H 
ATOM    140  C   UNL A   1      50.938  33.627  26.218  1.00  0.00     0.037 A 
ATOM    141  H   UNL A   1      49.361  35.917  26.597  1.00  0.00     0.065 H 
BRANCH 122 142
ATOM    142  C   UNL A   1      52.927  27.815  25.585  1.00  0.00     0.064 A 
ATOM    143  C   UNL A   1      53.475  27.592  24.313  1.00  0.00     0.173 A 
ATOM    144  C   UNL A   1      53.524  27.172  26.680  1.00  0.00     0.173 A 
ATOM    145  F   UNL A   1      52.932  28.173  23.234  1.00  0.00    -0.203 F 
ATOM    146  C   UNL A   1      54.563  26.742  24.142  1.00  0.00     0.198 A 
ATOM    147  C   UNL A   1      54.630  26.343  26.508  1.00  0.00     0.198 A 
ATOM    148  F   UNL A   1      53.041  27.354  27.918  1.00  0.00    -0.203 F 
ATOM    149  F   UNL A   1      55.045  26.511  22.912  1.00  0.00    -0.200 F 
ATOM    150  C   UNL A   1      55.144  26.123  25.238  1.00  0.00     0.200 A 
ATOM    151  F   UNL A   1      55.196  25.754  27.570  1.00  0.00    -0.200 F 
ATOM    152  F   UNL A   1      56.196  25.310  25.073  1.00  0.00    -0.200 F 
ENDBRANCH 122 142
BRANCH 125 153
ATOM    153  C   UNL A   1      44.987  33.607  27.331  1.00  0.00     0.064 A 
ATOM    154  C   UNL A   1      44.577  33.847  28.649  1.00  0.00     0.173 A 
ATOM    155  C   UNL A   1      44.257  34.211  26.298  1.00  0.00     0.173 A 
ATOM    156  F   UNL A   1      45.234  33.274  29.669  1.00  0.00    -0.203 F 
ATOM    157  C   UNL A   1      43.467  34.643  28.923  1.00  0.00     0.198 A 
ATOM    158  C   UNL A   1      43.163  35.027  26.574  1.00  0.00     0.198 A 
ATOM    159  F   UNL A   1      44.614  34.015  25.021  1.00  0.00    -0.203 F 
ATOM    160  F   UNL A   1      43.071  34.822  30.191  1.00  0.00    -0.200 F 
ATOM    161  C   UNL A   1      42.764  35.237  27.886  1.00  0.00     0.200 A 
ATOM    162  F   UNL A   1      42.492  35.608  25.570  1.00  0.00    -0.200 F 
ATOM    163  F   UNL A   1      41.697  36.005  28.151  1.00  0.00    -0.200 F 
ENDBRANCH 125 153
BRANCH 140 164
ATOM    164  C   UNL A   1      51.719  34.904  26.132  1.00  0.00     0.064 A 
ATOM    165  C   UNL A   1      52.298  35.487  27.268  1.00  0.00     0.173 A 
ATOM    166  C   UNL A   1      51.910  35.538  24.895  1.00  0.00     0.173 A 
ATOM    167  F   UNL A   1      52.130  34.925  28.475  1.00  0.00    -0.203 F 
ATOM    168  C   UNL A   1      53.015  36.676  27.175  1.00  0.00     0.198 A 
ATOM    169  C   UNL A   1      52.650  36.713  24.801  1.00  0.00     0.198 A 
ATOM    170  F   UNL A   1      51.380  35.016  23.779  1.00  0.00    -0.203 F 
ATOM    171  F   UNL A   1      53.519  37.242  28.280  1.00  0.00    -0.200 F 
ATOM    172  C   UNL A   1      53.196  37.285  25.941  1.00  0.00     0.200 A 
ATOM    173  F   UNL A   1      52.832  37.295  23.608  1.00  0.00    -0.200 F 
ATOM    174  F   UNL A   1      53.887  38.429  25.852  1.00  0.00    -0.200 F 
ENDBRANCH 140 164
ENDBRANCH 105 108
ENDBRANCH  95  98
ENDBRANCH  91  94
ENDBRANCH  88  91
ENDBRANCH  85  88
ENDBRANCH  82  85
ENDBRANCH  79  82
ENDBRANCH   1  79
TORSDOF 27
ENDMDL
MODEL 10
REMARK VINA RESULT:     -10.2      2.929      9.309
REMARK SMILES CCCC[C@@H](Sc1nc(OCCC2CCCCC2)cc(OCCC2CCCCC2)n1)C(=O)NCCCCCCNC(=O)c1ccc(-c2c3nc(c(-c4c(F)c(F)c(F)c(F)c4F)c4ccc([nH]4)c(-c4c(F)c(F)c(F)c(F)c4F)c4nc(c(-c5c(F)c(F)c(F)c(F)c5F)c5ccc2[nH]5)C=C4)C=C3)cc1
REMARK SMILES IDX 34 1 33 4 31 5 32 6 5 8 4 10 3 13 2 16 1 19 6 23 7 24 8 25
REMARK SMILES IDX 30 26 9 27 20 28 19 29 10 31 11 32 12 35 13 38 14 39 18 40
REMARK SMILES IDX 15 42 17 45 16 48 21 55 22 56 23 59 24 62 25 63 29 64 26 66
REMARK SMILES IDX 28 69 27 72 35 79 36 82 37 85 38 88 39 91 40 94 41 95 42 97
REMARK SMILES IDX 43 98 44 99 105 100 45 101 104 103 46 105 47 108 48 109
REMARK SMILES IDX 98 110 49 111 103 112 97 113 99 114 50 115 102 116 96 118
REMARK SMILES IDX 95 120 51 122 83 125 63 126 82 127 64 128 67 129 81 130
REMARK SMILES IDX 100 131 65 132 66 134 80 136 101 137 68 140 52 142 53 143
REMARK SMILES IDX 61 144 54 145 55 146 59 147 62 148 56 149 57 150 60 151
REMARK SMILES IDX 58 152 84 153 85 154 93 155 86 156 87 157 91 158 94 159
REMARK SMILES IDX 88 160 89 161 92 162 90 163 69 164 70 165 78 166 71 167
REMARK SMILES IDX 72 168 76 169 79 170 73 171 74 172 77 173 75 174
REMARK H PARENT 34 2 34 3 33 7 5 9 4 11 4 12 3 14 3 15 2 17 2 18 1 20 1 21
REMARK H PARENT 1 22 19 30 11 33 11 34 12 36 12 37 13 41 14 43 14 44 18 46
REMARK H PARENT 18 47 15 49 15 50 17 51 17 52 16 53 16 54 22 57 22 58 23 60
REMARK H PARENT 23 61 24 65 25 67 25 68 29 70 29 71 26 73 26 74 28 75 28 76
REMARK H PARENT 27 77 27 78 35 80 35 81 36 83 36 84 37 86 37 87 38 89 38 90
REMARK H PARENT 39 92 39 93 40 96 44 102 105 104 45 106 104 107 103 117 97 119
REMARK H PARENT 99 121 102 123 96 124 64 133 67 135 100 138 65 139 101 141
REMARK Flexibility Score: inf
ROOT
ATOM      1  C   UNL A   1      38.870  23.801  27.264  1.00  0.00     0.017 C 
ATOM      2  H   UNL A   1      39.614  23.520  27.980  1.00  0.00     0.049 H 
ATOM      3  H   UNL A   1      37.943  24.023  27.751  1.00  0.00     0.049 H 
ENDROOT
BRANCH   1   4
ATOM      4  N   UNL A   1      38.653  22.694  26.346  1.00  0.00    -0.355 N 
ATOM      5  C   UNL A   1      37.537  22.348  25.634  1.00  0.00     0.233 C 
ATOM      6  O   UNL A   1      37.607  21.357  24.902  1.00  0.00    -0.274 OA
ATOM      7  H   UNL A   1      39.429  22.102  26.217  1.00  0.00     0.163 HD
BRANCH   5   8
ATOM      8  C   UNL A   1      36.229  23.146  25.768  1.00  0.00     0.091 C 
ATOM      9  H   UNL A   1      36.270  24.124  26.202  1.00  0.00     0.052 H 
BRANCH   8  10
ATOM     10  C   UNL A   1      35.724  23.509  24.350  1.00  0.00    -0.032 C 
ATOM     11  H   UNL A   1      36.589  23.661  23.739  1.00  0.00     0.028 H 
ATOM     12  H   UNL A   1      35.090  22.690  24.085  1.00  0.00     0.028 H 
BRANCH  10  13
ATOM     13  C   UNL A   1      34.827  24.742  24.176  1.00  0.00    -0.052 C 
ATOM     14  H   UNL A   1      34.261  24.857  25.076  1.00  0.00     0.027 H 
ATOM     15  H   UNL A   1      35.502  25.543  23.956  1.00  0.00     0.027 H 
BRANCH  13  16
ATOM     16  C   UNL A   1      33.841  24.732  23.012  1.00  0.00    -0.056 C 
ATOM     17  H   UNL A   1      34.326  24.304  22.160  1.00  0.00     0.026 H 
ATOM     18  H   UNL A   1      32.991  24.162  23.323  1.00  0.00     0.026 H 
BRANCH  16  19
ATOM     19  C   UNL A   1      33.339  26.114  22.635  1.00  0.00    -0.065 C 
ATOM     20  H   UNL A   1      33.538  26.797  23.434  1.00  0.00     0.023 H 
ATOM     21  H   UNL A   1      32.284  26.075  22.454  1.00  0.00     0.023 H 
ATOM     22  H   UNL A   1      33.839  26.447  21.749  1.00  0.00     0.023 H 
ENDBRANCH  16  19
ENDBRANCH  13  16
ENDBRANCH  10  13
ENDBRANCH   8  10
BRANCH   8  23
ATOM     23  S   UNL A   1      35.195  22.175  26.961  1.00  0.00    -0.073 SA
BRANCH  23  24
ATOM     24  C   UNL A   1      33.616  22.296  26.221  1.00  0.00     0.195 A 
ATOM     25  N   UNL A   1      32.708  23.072  26.827  1.00  0.00    -0.187 NA
ATOM     26  N   UNL A   1      33.426  21.608  25.096  1.00  0.00    -0.187 NA
ATOM     27  C   UNL A   1      31.477  23.065  26.304  1.00  0.00     0.221 A 
ATOM     28  C   UNL A   1      32.202  21.658  24.574  1.00  0.00     0.221 A 
ATOM     29  C   UNL A   1      31.165  22.304  25.201  1.00  0.00     0.063 A 
ATOM     30  H   UNL A   1      30.194  22.223  24.860  1.00  0.00     0.074 H 
BRANCH  27  31
ATOM     31  O   UNL A   1      30.628  23.926  26.941  1.00  0.00    -0.477 OA
BRANCH  31  32
ATOM     32  C   UNL A   1      30.093  25.038  26.233  1.00  0.00     0.090 C 
ATOM     33  H   UNL A   1      29.140  25.270  26.661  1.00  0.00     0.071 H 
ATOM     34  H   UNL A   1      30.052  24.734  25.209  1.00  0.00     0.071 H 
BRANCH  32  35
ATOM     35  C   UNL A   1      30.948  26.327  26.253  1.00  0.00    -0.016 C 
ATOM     36  H   UNL A   1      31.946  26.050  26.526  1.00  0.00     0.030 H 
ATOM     37  H   UNL A   1      30.460  26.977  26.949  1.00  0.00     0.030 H 
BRANCH  35  38
ATOM     38  C   UNL A   1      31.027  27.122  24.943  1.00  0.00    -0.038 C 
ATOM     39  C   UNL A   1      29.741  27.067  24.107  1.00  0.00    -0.050 C 
ATOM     40  C   UNL A   1      31.408  28.593  25.159  1.00  0.00    -0.050 C 
ATOM     41  H   UNL A   1      31.806  26.631  24.398  1.00  0.00     0.030 H 
ATOM     42  C   UNL A   1      29.987  27.722  22.741  1.00  0.00    -0.053 C 
ATOM     43  H   UNL A   1      28.960  27.592  24.618  1.00  0.00     0.027 H 
ATOM     44  H   UNL A   1      29.452  26.047  23.966  1.00  0.00     0.027 H 
ATOM     45  C   UNL A   1      31.729  29.241  23.817  1.00  0.00    -0.053 C 
ATOM     46  H   UNL A   1      32.267  28.648  25.796  1.00  0.00     0.027 H 
ATOM     47  H   UNL A   1      30.589  29.108  25.616  1.00  0.00     0.027 H 
ATOM     48  C   UNL A   1      30.547  29.141  22.856  1.00  0.00    -0.053 C 
ATOM     49  H   UNL A   1      29.060  27.762  22.209  1.00  0.00     0.027 H 
ATOM     50  H   UNL A   1      30.715  27.129  22.227  1.00  0.00     0.027 H 
ATOM     51  H   UNL A   1      31.963  30.273  23.976  1.00  0.00     0.027 H 
ATOM     52  H   UNL A   1      32.561  28.727  23.384  1.00  0.00     0.027 H 
ATOM     53  H   UNL A   1      29.770  29.787  23.204  1.00  0.00     0.027 H 
ATOM     54  H   UNL A   1      30.899  29.426  21.887  1.00  0.00     0.027 H 
ENDBRANCH  35  38
ENDBRANCH  32  35
ENDBRANCH  31  32
ENDBRANCH  27  31
BRANCH  28  55
ATOM     55  O   UNL A   1      32.091  20.932  23.430  1.00  0.00    -0.477 OA
BRANCH  55  56
ATOM     56  C   UNL A   1      32.145  19.511  23.497  1.00  0.00     0.090 C 
ATOM     57  H   UNL A   1      31.806  19.095  22.572  1.00  0.00     0.071 H 
ATOM     58  H   UNL A   1      31.518  19.164  24.292  1.00  0.00     0.071 H 
BRANCH  56  59
ATOM     59  C   UNL A   1      33.592  19.072  23.757  1.00  0.00    -0.016 C 
ATOM     60  H   UNL A   1      34.154  19.948  24.009  1.00  0.00     0.030 H 
ATOM     61  H   UNL A   1      33.902  18.584  22.857  1.00  0.00     0.030 H 
BRANCH  59  62
ATOM     62  C   UNL A   1      33.817  18.031  24.882  1.00  0.00    -0.038 C 
ATOM     63  C   UNL A   1      32.527  17.572  25.593  1.00  0.00    -0.050 C 
ATOM     64  C   UNL A   1      34.778  16.922  24.436  1.00  0.00    -0.050 C 
ATOM     65  H   UNL A   1      34.327  18.531  25.679  1.00  0.00     0.030 H 
ATOM     66  C   UNL A   1      32.281  16.076  25.806  1.00  0.00    -0.053 C 
ATOM     67  H   UNL A   1      31.704  17.946  25.019  1.00  0.00     0.027 H 
ATOM     68  H   UNL A   1      32.634  17.956  26.586  1.00  0.00     0.027 H 
ATOM     69  C   UNL A   1      34.736  15.719  25.362  1.00  0.00    -0.053 C 
ATOM     70  H   UNL A   1      35.774  17.312  24.423  1.00  0.00     0.027 H 
ATOM     71  H   UNL A   1      34.473  16.597  23.462  1.00  0.00     0.027 H 
ATOM     72  C   UNL A   1      33.350  15.119  25.307  1.00  0.00    -0.053 C 
ATOM     73  H   UNL A   1      31.367  15.825  25.307  1.00  0.00     0.027 H 
ATOM     74  H   UNL A   1      32.268  15.946  26.868  1.00  0.00     0.027 H 
ATOM     75  H   UNL A   1      35.456  14.993  25.044  1.00  0.00     0.027 H 
ATOM     76  H   UNL A   1      34.968  16.018  26.363  1.00  0.00     0.027 H 
ATOM     77  H   UNL A   1      33.130  14.857  24.293  1.00  0.00     0.027 H 
ATOM     78  H   UNL A   1      33.341  14.262  25.947  1.00  0.00     0.027 H 
ENDBRANCH  59  62
ENDBRANCH  56  59
ENDBRANCH  55  56
ENDBRANCH  28  55
ENDBRANCH  23  24
ENDBRANCH   8  23
ENDBRANCH   5   8
ENDBRANCH   1   4
BRANCH   1  79
ATOM     79  C   UNL A   1      39.338  25.046  26.523  1.00  0.00    -0.036 C 
ATOM     80  H   UNL A   1      38.779  25.885  26.884  1.00  0.00     0.028 H 
ATOM     81  H   UNL A   1      39.176  24.872  25.479  1.00  0.00     0.028 H 
BRANCH  79  82
ATOM     82  C   UNL A   1      40.828  25.340  26.707  1.00  0.00    -0.052 C 
ATOM     83  H   UNL A   1      40.922  26.191  27.348  1.00  0.00     0.027 H 
ATOM     84  H   UNL A   1      41.227  25.504  25.728  1.00  0.00     0.027 H 
BRANCH  82  85
ATOM     85  C   UNL A   1      41.635  24.190  27.317  1.00  0.00    -0.052 C 
ATOM     86  H   UNL A   1      40.945  23.486  27.736  1.00  0.00     0.027 H 
ATOM     87  H   UNL A   1      42.284  24.634  28.043  1.00  0.00     0.027 H 
BRANCH  85  88
ATOM     88  C   UNL A   1      42.543  23.438  26.338  1.00  0.00    -0.036 C 
ATOM     89  H   UNL A   1      43.216  24.145  25.898  1.00  0.00     0.028 H 
ATOM     90  H   UNL A   1      41.897  22.970  25.626  1.00  0.00     0.028 H 
BRANCH  88  91
ATOM     91  C   UNL A   1      43.374  22.321  26.964  1.00  0.00     0.018 C 
ATOM     92  H   UNL A   1      43.136  21.399  26.475  1.00  0.00     0.049 H 
ATOM     93  H   UNL A   1      43.139  22.280  28.007  1.00  0.00     0.049 H 
BRANCH  91  94
ATOM     94  N   UNL A   1      44.803  22.564  26.836  1.00  0.00    -0.352 N 
ATOM     95  C   UNL A   1      45.566  23.568  27.360  1.00  0.00     0.251 C 
ATOM     96  H   UNL A   1      45.291  21.908  26.289  1.00  0.00     0.163 HD
ATOM     97  O   UNL A   1      46.737  23.706  26.990  1.00  0.00    -0.269 OA
BRANCH  95  98
ATOM     98  C   UNL A   1      45.004  24.499  28.356  1.00  0.00     0.039 A 
ATOM     99  C   UNL A   1      45.045  25.869  28.086  1.00  0.00    -0.049 A 
ATOM    100  C   UNL A   1      44.480  24.036  29.568  1.00  0.00    -0.049 A 
ATOM    101  C   UNL A   1      44.525  26.774  29.013  1.00  0.00    -0.053 A 
ATOM    102  H   UNL A   1      45.457  26.211  27.205  1.00  0.00     0.063 H 
ATOM    103  C   UNL A   1      43.910  24.934  30.466  1.00  0.00    -0.053 A 
ATOM    104  H   UNL A   1      44.516  23.029  29.795  1.00  0.00     0.063 H 
ATOM    105  C   UNL A   1      43.937  26.311  30.201  1.00  0.00    -0.014 A 
ATOM    106  H   UNL A   1      44.574  27.787  28.824  1.00  0.00     0.063 H 
ATOM    107  H   UNL A   1      43.467  24.586  31.331  1.00  0.00     0.063 H 
BRANCH 105 108
ATOM    108  C   UNL A   1      43.350  27.268  31.171  1.00  0.00     0.031 A 
ATOM    109  C   UNL A   1      43.964  27.444  32.531  1.00  0.00     0.074 A 
ATOM    110  C   UNL A   1      42.240  27.950  30.835  1.00  0.00     0.049 A 
ATOM    111  N   UNL A   1      43.592  28.230  33.510  1.00  0.00    -0.248 NA
ATOM    112  C   UNL A   1      45.136  26.612  32.842  1.00  0.00    -0.034 C 
ATOM    113  C   UNL A   1      41.521  27.818  29.566  1.00  0.00    -0.036 A 
ATOM    114  N   UNL A   1      41.520  28.887  31.531  1.00  0.00    -0.354 N 
ATOM    115  C   UNL A   1      44.473  27.979  34.552  1.00  0.00     0.074 A 
ATOM    116  C   UNL A   1      45.371  26.935  34.106  1.00  0.00    -0.034 C 
ATOM    117  H   UNL A   1      45.643  25.949  32.235  1.00  0.00     0.065 H 
ATOM    118  C   UNL A   1      40.475  28.661  29.566  1.00  0.00    -0.036 A 
ATOM    119  H   UNL A   1      41.777  27.180  28.796  1.00  0.00     0.065 H 
ATOM    120  C   UNL A   1      40.439  29.373  30.839  1.00  0.00     0.049 A 
ATOM    121  H   UNL A   1      41.756  29.182  32.440  1.00  0.00     0.167 HD
ATOM    122  C   UNL A   1      44.541  28.580  35.764  1.00  0.00     0.037 A 
ATOM    123  H   UNL A   1      46.099  26.500  34.694  1.00  0.00     0.065 H 
ATOM    124  H   UNL A   1      39.805  28.783  28.791  1.00  0.00     0.065 H 
ATOM    125  C   UNL A   1      39.525  30.297  31.192  1.00  0.00     0.037 A 
ATOM    126  C   UNL A   1      43.665  29.639  36.194  1.00  0.00     0.049 A 
ATOM    127  C   UNL A   1      39.645  30.974  32.529  1.00  0.00     0.074 A 
ATOM    128  C   UNL A   1      43.695  30.360  37.374  1.00  0.00    -0.036 A 
ATOM    129  N   UNL A   1      42.599  30.129  35.453  1.00  0.00    -0.354 N 
ATOM    130  N   UNL A   1      40.530  30.783  33.477  1.00  0.00    -0.248 NA
ATOM    131  C   UNL A   1      38.646  32.006  32.839  1.00  0.00    -0.034 C 
ATOM    132  C   UNL A   1      42.626  31.263  37.365  1.00  0.00    -0.036 A 
ATOM    133  H   UNL A   1      44.387  30.251  38.132  1.00  0.00     0.065 H 
ATOM    134  C   UNL A   1      41.954  31.132  36.159  1.00  0.00     0.049 A 
ATOM    135  H   UNL A   1      42.340  29.812  34.558  1.00  0.00     0.167 HD
ATOM    136  C   UNL A   1      40.209  31.682  34.484  1.00  0.00     0.074 A 
ATOM    137  C   UNL A   1      39.059  32.432  34.024  1.00  0.00    -0.034 C 
ATOM    138  H   UNL A   1      37.835  32.316  32.281  1.00  0.00     0.065 H 
ATOM    139  H   UNL A   1      42.379  31.916  38.124  1.00  0.00     0.065 H 
ATOM    140  C   UNL A   1      40.811  31.867  35.685  1.00  0.00     0.037 A 
ATOM    141  H   UNL A   1      38.618  33.201  34.551  1.00  0.00     0.065 H 
BRANCH 122 142
ATOM    142  C   UNL A   1      45.604  28.112  36.713  1.00  0.00     0.064 A 
ATOM    143  C   UNL A   1      45.363  27.084  37.637  1.00  0.00     0.173 A 
ATOM    144  C   UNL A   1      46.891  28.670  36.672  1.00  0.00     0.173 A 
ATOM    145  F   UNL A   1      44.146  26.527  37.723  1.00  0.00    -0.203 F 
ATOM    146  C   UNL A   1      46.364  26.647  38.500  1.00  0.00     0.198 A 
ATOM    147  C   UNL A   1      47.898  28.212  37.519  1.00  0.00     0.198 A 
ATOM    148  F   UNL A   1      47.176  29.653  35.805  1.00  0.00    -0.203 F 
ATOM    149  F   UNL A   1      46.099  25.692  39.403  1.00  0.00    -0.200 F 
ATOM    150  C   UNL A   1      47.631  27.206  38.436  1.00  0.00     0.200 A 
ATOM    151  F   UNL A   1      49.125  28.746  37.449  1.00  0.00    -0.200 F 
ATOM    152  F   UNL A   1      48.596  26.780  39.263  1.00  0.00    -0.200 F 
ENDBRANCH 122 142
BRANCH 125 153
ATOM    153  C   UNL A   1      38.440  30.660  30.247  1.00  0.00     0.064 A 
ATOM    154  C   UNL A   1      38.432  31.908  29.607  1.00  0.00     0.173 A 
ATOM    155  C   UNL A   1      37.393  29.773  29.963  1.00  0.00     0.173 A 
ATOM    156  F   UNL A   1      39.404  32.797  29.863  1.00  0.00    -0.203 F 
ATOM    157  C   UNL A   1      37.407  32.260  28.732  1.00  0.00     0.198 A 
ATOM    158  C   UNL A   1      36.382  30.117  29.069  1.00  0.00     0.198 A 
ATOM    159  F   UNL A   1      37.360  28.566  30.547  1.00  0.00    -0.203 F 
ATOM    160  F   UNL A   1      37.401  33.475  28.166  1.00  0.00    -0.200 F 
ATOM    161  C   UNL A   1      36.385  31.363  28.460  1.00  0.00     0.200 A 
ATOM    162  F   UNL A   1      35.402  29.244  28.800  1.00  0.00    -0.200 F 
ATOM    163  F   UNL A   1      35.400  31.703  27.617  1.00  0.00    -0.200 F 
ENDBRANCH 125 153
BRANCH 140 164
ATOM    164  C   UNL A   1      40.245  32.935  36.572  1.00  0.00     0.064 A 
ATOM    165  C   UNL A   1      39.126  32.696  37.384  1.00  0.00     0.173 A 
ATOM    166  C   UNL A   1      40.841  34.204  36.628  1.00  0.00     0.173 A 
ATOM    167  F   UNL A   1      38.512  31.503  37.352  1.00  0.00    -0.203 F 
ATOM    168  C   UNL A   1      38.606  33.698  38.198  1.00  0.00     0.198 A 
ATOM    169  C   UNL A   1      40.335  35.195  37.464  1.00  0.00     0.198 A 
ATOM    170  F   UNL A   1      41.916  34.479  35.875  1.00  0.00    -0.203 F 
ATOM    171  F   UNL A   1      37.507  33.464  38.928  1.00  0.00    -0.200 F 
ATOM    172  C   UNL A   1      39.214  34.945  38.242  1.00  0.00     0.200 A 
ATOM    173  F   UNL A   1      40.929  36.395  37.513  1.00  0.00    -0.200 F 
ATOM    174  F   UNL A   1      38.713  35.908  39.026  1.00  0.00    -0.200 F 
ENDBRANCH 140 164
ENDBRANCH 105 108
ENDBRANCH  95  98
ENDBRANCH  91  94
ENDBRANCH  88  91
ENDBRANCH  85  88
ENDBRANCH  82  85
ENDBRANCH  79  82
ENDBRANCH   1  79
TORSDOF 27
ENDMDL
