MODEL 1
REMARK VINA RESULT:     -12.5      0.000      0.000
REMARK SMILES O=C(NCCCCCCNC(=O)[C@H]1C[C@](O)(c2ccccc2Cl)[C@@H](c2ccccc2Cl)O1)c1ccc(-c2c3nc(c(-c4c(F)c(F)c(F)c(F)c4F)c4ccc([nH]4)c(-c4c(F)c(F)c(F)c(F)c4F)c4nc(c(-c5c(F)c(F)c(F)c(F)c5F)c5ccc2[nH]5)C=C4)C=C3)cc1
REMARK SMILES IDX 6 1 5 4 4 7 3 10 1 11 2 12 33 14 34 15 95 16 35 17 94 19
REMARK SMILES IDX 36 21 37 24 38 25 88 26 39 27 93 28 87 29 89 30 40 31 92 32
REMARK SMILES IDX 86 34 85 36 41 38 73 41 53 42 72 43 54 44 57 45 71 46 90 47
REMARK SMILES IDX 55 48 56 50 70 52 91 53 58 56 42 58 43 59 51 60 44 61 45 62
REMARK SMILES IDX 49 63 52 64 46 65 47 66 50 67 48 68 74 69 75 70 83 71 76 72
REMARK SMILES IDX 77 73 81 74 84 75 78 76 79 77 82 78 80 79 59 80 60 81 68 82
REMARK SMILES IDX 61 83 62 84 66 85 69 86 63 87 64 88 67 89 65 90 7 91 8 94
REMARK SMILES IDX 9 97 10 100 11 101 12 103 13 104 14 105 32 106 15 108 24 111
REMARK SMILES IDX 17 113 18 114 22 115 19 116 21 118 23 119 20 120 16 124
REMARK SMILES IDX 25 126 26 127 30 128 27 129 29 131 31 132 28 133
REMARK H PARENT 6 2 6 3 5 5 5 6 4 8 4 9 3 13 34 18 95 20 35 22 94 23 93 33
REMARK H PARENT 87 35 89 37 92 39 86 40 54 49 57 51 90 54 55 55 91 57 7 92
REMARK H PARENT 7 93 8 95 8 96 9 98 9 99 10 102 13 107 14 109 14 110 24 112
REMARK H PARENT 18 117 19 121 21 122 20 123 16 125 26 130 27 134 29 135 28 136
REMARK Flexibility Score: inf
ROOT
ATOM      1  C   UNL A   1      31.618  27.113  26.691  1.00  0.00    -0.052 C 
ATOM      2  H   UNL A   1      31.270  26.527  27.516  1.00  0.00     0.027 H 
ATOM      3  H   UNL A   1      32.605  26.871  26.358  1.00  0.00     0.027 H 
ENDROOT
BRANCH   1   4
ATOM      4  C   UNL A   1      31.694  28.568  27.155  1.00  0.00    -0.036 C 
ATOM      5  H   UNL A   1      30.734  29.012  26.993  1.00  0.00     0.028 H 
ATOM      6  H   UNL A   1      31.992  28.525  28.182  1.00  0.00     0.028 H 
BRANCH   4   7
ATOM      7  C   UNL A   1      32.733  29.441  26.464  1.00  0.00     0.018 C 
ATOM      8  H   UNL A   1      33.696  29.200  26.865  1.00  0.00     0.049 H 
ATOM      9  H   UNL A   1      32.661  29.237  25.416  1.00  0.00     0.049 H 
BRANCH   7  10
ATOM     10  N   UNL A   1      32.512  30.865  26.631  1.00  0.00    -0.352 N 
ATOM     11  O   UNL A   1      32.918  32.954  27.385  1.00  0.00    -0.269 OA
ATOM     12  C   UNL A   1      33.292  31.794  27.285  1.00  0.00     0.251 C 
ATOM     13  H   UNL A   1      31.690  31.218  26.219  1.00  0.00     0.163 HD
BRANCH  12  14
ATOM     14  C   UNL A   1      34.568  31.375  27.909  1.00  0.00     0.039 A 
ATOM     15  C   UNL A   1      34.774  30.059  28.330  1.00  0.00    -0.049 A 
ATOM     16  C   UNL A   1      35.575  32.330  28.083  1.00  0.00    -0.049 A 
ATOM     17  C   UNL A   1      35.919  29.734  29.051  1.00  0.00    -0.053 A 
ATOM     18  H   UNL A   1      34.079  29.330  28.105  1.00  0.00     0.063 H 
ATOM     19  C   UNL A   1      36.759  31.983  28.739  1.00  0.00    -0.053 A 
ATOM     20  H   UNL A   1      35.443  33.290  27.727  1.00  0.00     0.063 H 
ATOM     21  C   UNL A   1      36.925  30.691  29.263  1.00  0.00    -0.014 A 
ATOM     22  H   UNL A   1      36.031  28.782  29.433  1.00  0.00     0.063 H 
ATOM     23  H   UNL A   1      37.514  32.679  28.839  1.00  0.00     0.063 H 
BRANCH  21  24
ATOM     24  C   UNL A   1      38.156  30.314  30.003  1.00  0.00     0.031 A 
ATOM     25  C   UNL A   1      38.366  30.738  31.430  1.00  0.00     0.074 A 
ATOM     26  C   UNL A   1      39.082  29.559  29.382  1.00  0.00     0.049 A 
ATOM     27  N   UNL A   1      39.370  30.478  32.230  1.00  0.00    -0.248 NA
ATOM     28  C   UNL A   1      37.317  31.570  32.037  1.00  0.00    -0.034 C 
ATOM     29  C   UNL A   1      38.994  29.095  27.996  1.00  0.00    -0.036 A 
ATOM     30  N   UNL A   1      40.267  29.039  29.834  1.00  0.00    -0.354 N 
ATOM     31  C   UNL A   1      39.087  31.131  33.422  1.00  0.00     0.074 A 
ATOM     32  C   UNL A   1      37.828  31.819  33.235  1.00  0.00    -0.034 C 
ATOM     33  H   UNL A   1      36.418  31.880  31.635  1.00  0.00     0.065 H 
ATOM     34  C   UNL A   1      40.055  28.321  27.725  1.00  0.00    -0.036 A 
ATOM     35  H   UNL A   1      38.238  29.327  27.334  1.00  0.00     0.065 H 
ATOM     36  C   UNL A   1      40.922  28.278  28.898  1.00  0.00     0.049 A 
ATOM     37  H   UNL A   1      40.614  29.194  30.742  1.00  0.00     0.167 HD
ATOM     38  C   UNL A   1      39.810  31.148  34.569  1.00  0.00     0.037 A 
ATOM     39  H   UNL A   1      37.384  32.426  33.943  1.00  0.00     0.065 H 
ATOM     40  H   UNL A   1      40.229  27.833  26.832  1.00  0.00     0.065 H 
ATOM     41  C   UNL A   1      42.097  27.626  28.970  1.00  0.00     0.037 A 
ATOM     42  C   UNL A   1      41.055  30.445  34.757  1.00  0.00     0.049 A 
ATOM     43  C   UNL A   1      42.885  27.674  30.247  1.00  0.00     0.074 A 
ATOM     44  C   UNL A   1      41.837  30.362  35.896  1.00  0.00    -0.036 A 
ATOM     45  N   UNL A   1      41.702  29.709  33.775  1.00  0.00    -0.354 N 
ATOM     46  N   UNL A   1      42.586  28.260  31.380  1.00  0.00    -0.248 NA
ATOM     47  C   UNL A   1      44.173  26.971  30.253  1.00  0.00    -0.034 C 
ATOM     48  C   UNL A   1      42.980  29.615  35.591  1.00  0.00    -0.036 A 
ATOM     49  H   UNL A   1      41.616  30.781  36.812  1.00  0.00     0.065 H 
ATOM     50  C   UNL A   1      42.887  29.189  34.275  1.00  0.00     0.049 A 
ATOM     51  H   UNL A   1      41.371  29.577  32.858  1.00  0.00     0.167 HD
ATOM     52  C   UNL A   1      43.638  27.981  32.241  1.00  0.00     0.074 A 
ATOM     53  C   UNL A   1      44.575  27.160  31.502  1.00  0.00    -0.034 C 
ATOM     54  H   UNL A   1      44.644  26.463  29.487  1.00  0.00     0.065 H 
ATOM     55  H   UNL A   1      43.760  29.414  36.235  1.00  0.00     0.065 H 
ATOM     56  C   UNL A   1      43.808  28.371  33.528  1.00  0.00     0.037 A 
ATOM     57  H   UNL A   1      45.445  26.772  31.899  1.00  0.00     0.065 H 
BRANCH  38  58
ATOM     58  C   UNL A   1      39.284  31.973  35.709  1.00  0.00     0.064 A 
ATOM     59  C   UNL A   1      38.409  31.439  36.667  1.00  0.00     0.173 A 
ATOM     60  C   UNL A   1      39.684  33.309  35.861  1.00  0.00     0.173 A 
ATOM     61  F   UNL A   1      37.988  30.169  36.564  1.00  0.00    -0.203 F 
ATOM     62  C   UNL A   1      37.931  32.221  37.717  1.00  0.00     0.198 A 
ATOM     63  C   UNL A   1      39.225  34.081  36.926  1.00  0.00     0.198 A 
ATOM     64  F   UNL A   1      40.525  33.869  34.978  1.00  0.00    -0.203 F 
ATOM     65  F   UNL A   1      37.058  31.703  38.591  1.00  0.00    -0.200 F 
ATOM     66  C   UNL A   1      38.343  33.539  37.848  1.00  0.00     0.200 A 
ATOM     67  F   UNL A   1      39.634  35.350  37.058  1.00  0.00    -0.200 F 
ATOM     68  F   UNL A   1      37.883  34.289  38.858  1.00  0.00    -0.200 F 
ENDBRANCH  38  58
BRANCH  41  69
ATOM     69  C   UNL A   1      42.577  26.853  27.797  1.00  0.00     0.064 A 
ATOM     70  C   UNL A   1      43.288  27.482  26.767  1.00  0.00     0.173 A 
ATOM     71  C   UNL A   1      42.364  25.471  27.698  1.00  0.00     0.173 A 
ATOM     72  F   UNL A   1      43.500  28.806  26.811  1.00  0.00    -0.203 F 
ATOM     73  C   UNL A   1      43.766  26.756  25.679  1.00  0.00     0.198 A 
ATOM     74  C   UNL A   1      42.865  24.743  26.623  1.00  0.00     0.198 A 
ATOM     75  F   UNL A   1      41.693  24.824  28.662  1.00  0.00    -0.203 F 
ATOM     76  F   UNL A   1      44.421  27.386  24.693  1.00  0.00    -0.200 F 
ATOM     77  C   UNL A   1      43.563  25.386  25.611  1.00  0.00     0.200 A 
ATOM     78  F   UNL A   1      42.680  23.416  26.570  1.00  0.00    -0.200 F 
ATOM     79  F   UNL A   1      44.035  24.687  24.572  1.00  0.00    -0.200 F 
ENDBRANCH  41  69
BRANCH  56  80
ATOM     80  C   UNL A   1      45.042  27.884  34.229  1.00  0.00     0.064 A 
ATOM     81  C   UNL A   1      46.228  28.632  34.237  1.00  0.00     0.173 A 
ATOM     82  C   UNL A   1      45.030  26.662  34.919  1.00  0.00     0.173 A 
ATOM     83  F   UNL A   1      46.296  29.798  33.577  1.00  0.00    -0.203 F 
ATOM     84  C   UNL A   1      47.366  28.162  34.890  1.00  0.00     0.198 A 
ATOM     85  C   UNL A   1      46.160  26.208  35.593  1.00  0.00     0.198 A 
ATOM     86  F   UNL A   1      43.919  25.911  34.943  1.00  0.00    -0.203 F 
ATOM     87  F   UNL A   1      48.503  28.870  34.844  1.00  0.00    -0.200 F 
ATOM     88  C   UNL A   1      47.329  26.954  35.571  1.00  0.00     0.200 A 
ATOM     89  F   UNL A   1      46.120  25.046  36.258  1.00  0.00    -0.200 F 
ATOM     90  F   UNL A   1      48.424  26.504  36.200  1.00  0.00    -0.200 F 
ENDBRANCH  56  80
ENDBRANCH  21  24
ENDBRANCH  12  14
ENDBRANCH   7  10
ENDBRANCH   4   7
ENDBRANCH   1   4
BRANCH   1  91
ATOM     91  C   UNL A   1      30.705  26.822  25.496  1.00  0.00    -0.052 C 
ATOM     92  H   UNL A   1      31.112  27.331  24.647  1.00  0.00     0.027 H 
ATOM     93  H   UNL A   1      29.735  27.158  25.798  1.00  0.00     0.027 H 
BRANCH  91  94
ATOM     94  C   UNL A   1      30.517  25.349  25.106  1.00  0.00    -0.036 C 
ATOM     95  H   UNL A   1      31.116  25.158  24.240  1.00  0.00     0.028 H 
ATOM     96  H   UNL A   1      29.467  25.221  24.943  1.00  0.00     0.028 H 
BRANCH  94  97
ATOM     97  C   UNL A   1      30.901  24.331  26.178  1.00  0.00     0.017 C 
ATOM     98  H   UNL A   1      30.142  24.327  26.931  1.00  0.00     0.049 H 
ATOM     99  H   UNL A   1      31.852  24.624  26.569  1.00  0.00     0.049 H 
BRANCH  97 100
ATOM    100  N   UNL A   1      31.044  22.989  25.659  1.00  0.00    -0.354 N 
ATOM    101  C   UNL A   1      32.099  22.132  25.623  1.00  0.00     0.249 C 
ATOM    102  H   UNL A   1      30.221  22.627  25.258  1.00  0.00     0.163 HD
ATOM    103  O   UNL A   1      31.845  21.020  25.140  1.00  0.00    -0.272 OA
BRANCH 101 104
ATOM    104  C   UNL A   1      33.542  22.485  26.086  1.00  0.00     0.140 C 
ATOM    105  C   UNL A   1      34.746  21.806  25.461  1.00  0.00     0.019 C 
ATOM    106  O   UNL A   1      33.752  23.901  25.944  1.00  0.00    -0.357 OA
ATOM    107  H   UNL A   1      33.526  22.104  27.086  1.00  0.00     0.071 H 
ATOM    108  C   UNL A   1      35.619  22.896  24.829  1.00  0.00     0.124 C 
ATOM    109  H   UNL A   1      34.424  21.115  24.709  1.00  0.00     0.033 H 
ATOM    110  H   UNL A   1      35.298  21.264  26.200  1.00  0.00     0.033 H 
ATOM    111  C   UNL A   1      34.710  24.151  24.897  1.00  0.00     0.118 C 
ATOM    112  H   UNL A   1      35.381  24.967  25.064  1.00  0.00     0.069 H 
BRANCH 108 113
ATOM    113  C   UNL A   1      37.020  22.838  25.473  1.00  0.00     0.005 A 
ATOM    114  C   UNL A   1      37.482  24.062  26.039  1.00  0.00    -0.055 A 
ATOM    115  C   UNL A   1      37.913  21.752  25.551  1.00  0.00     0.047 A 
ATOM    116  C   UNL A   1      38.717  24.191  26.674  1.00  0.00    -0.062 A 
ATOM    117  H   UNL A   1      36.872  24.893  25.975  1.00  0.00     0.063 H 
ATOM    118  C   UNL A   1      39.143  21.879  26.227  1.00  0.00    -0.043 A 
ATOM    119  Cl  UNL A   1      37.688  20.215  24.805  1.00  0.00    -0.084 Cl
ATOM    120  C   UNL A   1      39.545  23.088  26.786  1.00  0.00    -0.061 A 
ATOM    121  H   UNL A   1      39.012  25.103  27.058  1.00  0.00     0.062 H 
ATOM    122  H   UNL A   1      39.761  21.056  26.308  1.00  0.00     0.064 H 
ATOM    123  H   UNL A   1      40.448  23.161  27.279  1.00  0.00     0.062 H 
ENDBRANCH 108 113
BRANCH 108 124
ATOM    124  O   UNL A   1      35.831  22.524  23.447  1.00  0.00    -0.382 OA
ATOM    125  H   UNL A   1      36.126  21.601  23.401  1.00  0.00     0.212 HD
ENDBRANCH 108 124
BRANCH 111 126
ATOM    126  C   UNL A   1      33.967  24.607  23.637  1.00  0.00     0.003 A 
ATOM    127  C   UNL A   1      33.527  23.679  22.675  1.00  0.00    -0.055 A 
ATOM    128  C   UNL A   1      33.649  25.962  23.407  1.00  0.00     0.046 A 
ATOM    129  C   UNL A   1      32.748  24.062  21.579  1.00  0.00    -0.062 A 
ATOM    130  H   UNL A   1      33.788  22.685  22.781  1.00  0.00     0.063 H 
ATOM    131  C   UNL A   1      32.879  26.347  22.300  1.00  0.00    -0.043 A 
ATOM    132  Cl  UNL A   1      34.198  27.246  24.432  1.00  0.00    -0.084 Cl
ATOM    133  C   UNL A   1      32.413  25.396  21.398  1.00  0.00    -0.061 A 
ATOM    134  H   UNL A   1      32.421  23.352  20.906  1.00  0.00     0.062 H 
ATOM    135  H   UNL A   1      32.654  27.344  22.155  1.00  0.00     0.064 H 
ATOM    136  H   UNL A   1      31.825  25.681  20.599  1.00  0.00     0.062 H 
ENDBRANCH 111 126
ENDBRANCH 101 104
ENDBRANCH  97 100
ENDBRANCH  94  97
ENDBRANCH  91  94
ENDBRANCH   1  91
TORSDOF 16
ENDMDL
MODEL 2
REMARK VINA RESULT:     -12.5      5.063     10.643
REMARK SMILES O=C(NCCCCCCNC(=O)[C@H]1C[C@](O)(c2ccccc2Cl)[C@@H](c2ccccc2Cl)O1)c1ccc(-c2c3nc(c(-c4c(F)c(F)c(F)c(F)c4F)c4ccc([nH]4)c(-c4c(F)c(F)c(F)c(F)c4F)c4nc(c(-c5c(F)c(F)c(F)c(F)c5F)c5ccc2[nH]5)C=C4)C=C3)cc1
REMARK SMILES IDX 6 1 5 4 4 7 3 10 1 11 2 12 33 14 34 15 95 16 35 17 94 19
REMARK SMILES IDX 36 21 37 24 38 25 88 26 39 27 93 28 87 29 89 30 40 31 92 32
REMARK SMILES IDX 86 34 85 36 41 38 73 41 53 42 72 43 54 44 57 45 71 46 90 47
REMARK SMILES IDX 55 48 56 50 70 52 91 53 58 56 42 58 43 59 51 60 44 61 45 62
REMARK SMILES IDX 49 63 52 64 46 65 47 66 50 67 48 68 74 69 75 70 83 71 76 72
REMARK SMILES IDX 77 73 81 74 84 75 78 76 79 77 82 78 80 79 59 80 60 81 68 82
REMARK SMILES IDX 61 83 62 84 66 85 69 86 63 87 64 88 67 89 65 90 7 91 8 94
REMARK SMILES IDX 9 97 10 100 11 101 12 103 13 104 14 105 32 106 15 108 24 111
REMARK SMILES IDX 17 113 18 114 22 115 19 116 21 118 23 119 20 120 16 124
REMARK SMILES IDX 25 126 26 127 30 128 27 129 29 131 31 132 28 133
REMARK H PARENT 6 2 6 3 5 5 5 6 4 8 4 9 3 13 34 18 95 20 35 22 94 23 93 33
REMARK H PARENT 87 35 89 37 92 39 86 40 54 49 57 51 90 54 55 55 91 57 7 92
REMARK H PARENT 7 93 8 95 8 96 9 98 9 99 10 102 13 107 14 109 14 110 24 112
REMARK H PARENT 18 117 19 121 21 122 20 123 16 125 26 130 27 134 29 135 28 136
REMARK Flexibility Score: inf
ROOT
ATOM      1  C   UNL A   1      42.426  19.835  27.001  1.00  0.00    -0.052 C 
ATOM      2  H   UNL A   1      42.606  19.626  28.035  1.00  0.00     0.027 H 
ATOM      3  H   UNL A   1      42.996  20.650  26.605  1.00  0.00     0.027 H 
ENDROOT
BRANCH   1   4
ATOM      4  C   UNL A   1      40.964  20.260  26.862  1.00  0.00    -0.036 C 
ATOM      5  H   UNL A   1      40.521  19.658  26.096  1.00  0.00     0.028 H 
ATOM      6  H   UNL A   1      40.534  20.124  27.832  1.00  0.00     0.028 H 
BRANCH   4   7
ATOM      7  C   UNL A   1      40.718  21.720  26.507  1.00  0.00     0.018 C 
ATOM      8  H   UNL A   1      40.877  22.311  27.385  1.00  0.00     0.049 H 
ATOM      9  H   UNL A   1      41.399  21.966  25.718  1.00  0.00     0.049 H 
BRANCH   7  10
ATOM     10  N   UNL A   1      39.382  21.991  26.010  1.00  0.00    -0.352 N 
ATOM     11  O   UNL A   1      37.493  23.180  25.675  1.00  0.00    -0.269 OA
ATOM     12  C   UNL A   1      38.641  23.147  26.098  1.00  0.00     0.251 C 
ATOM     13  H   UNL A   1      38.944  21.241  25.544  1.00  0.00     0.163 HD
BRANCH  12  14
ATOM     14  C   UNL A   1      39.219  24.346  26.748  1.00  0.00     0.039 A 
ATOM     15  C   UNL A   1      39.015  24.606  28.105  1.00  0.00    -0.049 A 
ATOM     16  C   UNL A   1      39.975  25.231  25.973  1.00  0.00    -0.049 A 
ATOM     17  C   UNL A   1      39.439  25.814  28.650  1.00  0.00    -0.053 A 
ATOM     18  H   UNL A   1      38.553  23.903  28.702  1.00  0.00     0.063 H 
ATOM     19  C   UNL A   1      40.468  26.409  26.541  1.00  0.00    -0.053 A 
ATOM     20  H   UNL A   1      40.169  25.014  24.983  1.00  0.00     0.063 H 
ATOM     21  C   UNL A   1      40.171  26.729  27.875  1.00  0.00    -0.014 A 
ATOM     22  H   UNL A   1      39.214  26.041  29.631  1.00  0.00     0.063 H 
ATOM     23  H   UNL A   1      41.052  27.046  25.977  1.00  0.00     0.063 H 
BRANCH  21  24
ATOM     24  C   UNL A   1      40.645  27.997  28.486  1.00  0.00     0.031 A 
ATOM     25  C   UNL A   1      42.109  28.242  28.729  1.00  0.00     0.074 A 
ATOM     26  C   UNL A   1      39.743  28.944  28.802  1.00  0.00     0.049 A 
ATOM     27  N   UNL A   1      42.697  29.299  29.233  1.00  0.00    -0.248 NA
ATOM     28  C   UNL A   1      43.033  27.156  28.369  1.00  0.00    -0.034 C 
ATOM     29  C   UNL A   1      38.295  28.817  28.623  1.00  0.00    -0.036 A 
ATOM     30  N   UNL A   1      39.905  30.201  29.326  1.00  0.00    -0.354 N 
ATOM     31  C   UNL A   1      44.052  28.998  29.272  1.00  0.00     0.074 A 
ATOM     32  C   UNL A   1      44.198  27.652  28.762  1.00  0.00    -0.034 C 
ATOM     33  H   UNL A   1      42.828  26.247  27.926  1.00  0.00     0.065 H 
ATOM     34  C   UNL A   1      37.706  29.966  28.985  1.00  0.00    -0.036 A 
ATOM     35  H   UNL A   1      37.807  27.978  28.274  1.00  0.00     0.065 H 
ATOM     36  C   UNL A   1      38.727  30.889  29.471  1.00  0.00     0.049 A 
ATOM     37  H   UNL A   1      40.783  30.574  29.572  1.00  0.00     0.167 HD
ATOM     38  C   UNL A   1      45.079  29.779  29.689  1.00  0.00     0.037 A 
ATOM     39  H   UNL A   1      45.095  27.142  28.712  1.00  0.00     0.065 H 
ATOM     40  H   UNL A   1      36.695  30.166  28.928  1.00  0.00     0.065 H 
ATOM     41  C   UNL A   1      38.490  32.123  29.953  1.00  0.00     0.037 A 
ATOM     42  C   UNL A   1      44.931  31.127  30.177  1.00  0.00     0.049 A 
ATOM     43  C   UNL A   1      39.644  32.960  30.423  1.00  0.00     0.074 A 
ATOM     44  C   UNL A   1      45.914  32.015  30.578  1.00  0.00    -0.036 A 
ATOM     45  N   UNL A   1      43.716  31.780  30.338  1.00  0.00    -0.354 N 
ATOM     46  N   UNL A   1      40.924  32.681  30.416  1.00  0.00    -0.248 NA
ATOM     47  C   UNL A   1      39.319  34.283  30.969  1.00  0.00    -0.034 C 
ATOM     48  C   UNL A   1      45.294  33.187  31.024  1.00  0.00    -0.036 A 
ATOM     49  H   UNL A   1      46.931  31.842  30.553  1.00  0.00     0.065 H 
ATOM     50  C   UNL A   1      43.925  33.049  30.856  1.00  0.00     0.049 A 
ATOM     51  H   UNL A   1      42.836  31.397  30.119  1.00  0.00     0.167 HD
ATOM     52  C   UNL A   1      41.560  33.799  30.935  1.00  0.00     0.074 A 
ATOM     53  C   UNL A   1      40.524  34.766  31.234  1.00  0.00    -0.034 C 
ATOM     54  H   UNL A   1      38.395  34.722  31.109  1.00  0.00     0.065 H 
ATOM     55  H   UNL A   1      45.773  34.014  31.413  1.00  0.00     0.065 H 
ATOM     56  C   UNL A   1      42.884  34.003  31.145  1.00  0.00     0.037 A 
ATOM     57  H   UNL A   1      40.703  35.712  31.606  1.00  0.00     0.065 H 
BRANCH  38  58
ATOM     58  C   UNL A   1      46.459  29.186  29.656  1.00  0.00     0.064 A 
ATOM     59  C   UNL A   1      47.252  29.221  28.499  1.00  0.00     0.173 A 
ATOM     60  C   UNL A   1      47.007  28.600  30.807  1.00  0.00     0.173 A 
ATOM     61  F   UNL A   1      46.774  29.761  27.368  1.00  0.00    -0.203 F 
ATOM     62  C   UNL A   1      48.530  28.665  28.488  1.00  0.00     0.198 A 
ATOM     63  C   UNL A   1      48.294  28.069  30.801  1.00  0.00     0.198 A 
ATOM     64  F   UNL A   1      46.295  28.547  31.943  1.00  0.00    -0.203 F 
ATOM     65  F   UNL A   1      49.250  28.666  27.358  1.00  0.00    -0.200 F 
ATOM     66  C   UNL A   1      49.051  28.094  29.640  1.00  0.00     0.200 A 
ATOM     67  F   UNL A   1      48.801  27.529  31.918  1.00  0.00    -0.200 F 
ATOM     68  F   UNL A   1      50.280  27.560  29.628  1.00  0.00    -0.200 F 
ENDBRANCH  38  58
BRANCH  41  69
ATOM     69  C   UNL A   1      37.099  32.639  29.988  1.00  0.00     0.064 A 
ATOM     70  C   UNL A   1      36.303  32.478  31.129  1.00  0.00     0.173 A 
ATOM     71  C   UNL A   1      36.550  33.330  28.898  1.00  0.00     0.173 A 
ATOM     72  F   UNL A   1      36.780  31.808  32.189  1.00  0.00    -0.203 F 
ATOM     73  C   UNL A   1      35.007  32.987  31.177  1.00  0.00     0.198 A 
ATOM     74  C   UNL A   1      35.265  33.860  28.957  1.00  0.00     0.198 A 
ATOM     75  F   UNL A   1      37.276  33.513  27.785  1.00  0.00    -0.203 F 
ATOM     76  F   UNL A   1      34.256  32.796  32.271  1.00  0.00    -0.200 F 
ATOM     77  C   UNL A   1      34.492  33.685  30.095  1.00  0.00     0.200 A 
ATOM     78  F   UNL A   1      34.777  34.548  27.915  1.00  0.00    -0.200 F 
ATOM     79  F   UNL A   1      33.251  34.186  30.148  1.00  0.00    -0.200 F 
ENDBRANCH  41  69
BRANCH  56  80
ATOM     80  C   UNL A   1      43.288  35.339  31.694  1.00  0.00     0.064 A 
ATOM     81  C   UNL A   1      43.281  35.601  33.072  1.00  0.00     0.173 A 
ATOM     82  C   UNL A   1      43.708  36.363  30.832  1.00  0.00     0.173 A 
ATOM     83  F   UNL A   1      42.870  34.661  33.936  1.00  0.00    -0.203 F 
ATOM     84  C   UNL A   1      43.655  36.849  33.564  1.00  0.00     0.198 A 
ATOM     85  C   UNL A   1      44.107  37.600  31.329  1.00  0.00     0.198 A 
ATOM     86  F   UNL A   1      43.736  36.160  29.506  1.00  0.00    -0.203 F 
ATOM     87  F   UNL A   1      43.594  37.095  34.881  1.00  0.00    -0.200 F 
ATOM     88  C   UNL A   1      44.074  37.845  32.693  1.00  0.00     0.200 A 
ATOM     89  F   UNL A   1      44.520  38.557  30.487  1.00  0.00    -0.200 F 
ATOM     90  F   UNL A   1      44.435  39.045  33.169  1.00  0.00    -0.200 F 
ENDBRANCH  56  80
ENDBRANCH  21  24
ENDBRANCH  12  14
ENDBRANCH   7  10
ENDBRANCH   4   7
ENDBRANCH   1   4
BRANCH   1  91
ATOM     91  C   UNL A   1      42.862  18.607  26.195  1.00  0.00    -0.052 C 
ATOM     92  H   UNL A   1      41.977  18.129  25.830  1.00  0.00     0.027 H 
ATOM     93  H   UNL A   1      43.443  18.019  26.875  1.00  0.00     0.027 H 
BRANCH  91  94
ATOM     94  C   UNL A   1      43.782  18.857  24.992  1.00  0.00    -0.036 C 
ATOM     95  H   UNL A   1      43.167  18.976  24.125  1.00  0.00     0.028 H 
ATOM     96  H   UNL A   1      44.437  18.012  24.944  1.00  0.00     0.028 H 
BRANCH  94  97
ATOM     97  C   UNL A   1      44.688  20.082  25.099  1.00  0.00     0.017 C 
ATOM     98  H   UNL A   1      45.521  19.948  24.442  1.00  0.00     0.049 H 
ATOM     99  H   UNL A   1      44.991  20.165  26.120  1.00  0.00     0.049 H 
BRANCH  97 100
ATOM    100  N   UNL A   1      44.018  21.315  24.748  1.00  0.00    -0.354 N 
ATOM    101  C   UNL A   1      44.470  22.587  24.589  1.00  0.00     0.249 C 
ATOM    102  H   UNL A   1      43.051  21.213  24.594  1.00  0.00     0.163 HD
ATOM    103  O   UNL A   1      43.609  23.400  24.228  1.00  0.00    -0.272 OA
BRANCH 101 104
ATOM    104  C   UNL A   1      45.928  23.049  24.875  1.00  0.00     0.140 C 
ATOM    105  C   UNL A   1      46.305  24.517  24.800  1.00  0.00     0.019 C 
ATOM    106  O   UNL A   1      46.322  22.592  26.181  1.00  0.00    -0.357 OA
ATOM    107  H   UNL A   1      46.440  22.612  24.043  1.00  0.00     0.071 H 
ATOM    108  C   UNL A   1      46.831  24.934  26.178  1.00  0.00     0.124 C 
ATOM    109  H   UNL A   1      45.446  25.101  24.545  1.00  0.00     0.033 H 
ATOM    110  H   UNL A   1      47.052  24.675  24.050  1.00  0.00     0.033 H 
ATOM    111  C   UNL A   1      46.467  23.717  27.070  1.00  0.00     0.118 C 
ATOM    112  H   UNL A   1      47.264  23.650  27.780  1.00  0.00     0.069 H 
BRANCH 108 113
ATOM    113  C   UNL A   1      48.273  25.456  26.017  1.00  0.00     0.005 A 
ATOM    114  C   UNL A   1      49.194  25.019  27.015  1.00  0.00    -0.055 A 
ATOM    115  C   UNL A   1      48.795  26.325  25.041  1.00  0.00     0.047 A 
ATOM    116  C   UNL A   1      50.542  25.381  27.020  1.00  0.00    -0.062 A 
ATOM    117  H   UNL A   1      48.846  24.406  27.769  1.00  0.00     0.063 H 
ATOM    118  C   UNL A   1      50.165  26.657  25.030  1.00  0.00    -0.043 A 
ATOM    119  Cl  UNL A   1      47.877  27.137  23.829  1.00  0.00    -0.084 Cl
ATOM    120  C   UNL A   1      51.035  26.188  26.010  1.00  0.00    -0.061 A 
ATOM    121  H   UNL A   1      51.167  25.049  27.770  1.00  0.00     0.062 H 
ATOM    122  H   UNL A   1      50.531  27.261  24.277  1.00  0.00     0.064 H 
ATOM    123  H   UNL A   1      52.035  26.440  25.984  1.00  0.00     0.062 H 
ENDBRANCH 108 113
BRANCH 108 124
ATOM    124  O   UNL A   1      46.063  26.088  26.595  1.00  0.00    -0.382 OA
ATOM    125  H   UNL A   1      46.396  26.407  27.449  1.00  0.00     0.212 HD
ENDBRANCH 108 124
BRANCH 111 126
ATOM    126  C   UNL A   1      45.239  23.796  27.981  1.00  0.00     0.003 A 
ATOM    127  C   UNL A   1      43.997  23.270  27.577  1.00  0.00    -0.055 A 
ATOM    128  C   UNL A   1      45.303  24.351  29.277  1.00  0.00     0.046 A 
ATOM    129  C   UNL A   1      42.896  23.227  28.438  1.00  0.00    -0.062 A 
ATOM    130  H   UNL A   1      43.896  22.904  26.616  1.00  0.00     0.063 H 
ATOM    131  C   UNL A   1      44.194  24.320  30.134  1.00  0.00    -0.043 A 
ATOM    132  Cl  UNL A   1      46.719  25.133  29.897  1.00  0.00    -0.084 Cl
ATOM    133  C   UNL A   1      42.998  23.742  29.722  1.00  0.00    -0.061 A 
ATOM    134  H   UNL A   1      42.008  22.811  28.118  1.00  0.00     0.062 H 
ATOM    135  H   UNL A   1      44.267  24.728  31.080  1.00  0.00     0.064 H 
ATOM    136  H   UNL A   1      42.192  23.698  30.366  1.00  0.00     0.062 H 
ENDBRANCH 111 126
ENDBRANCH 101 104
ENDBRANCH  97 100
ENDBRANCH  94  97
ENDBRANCH  91  94
ENDBRANCH   1  91
TORSDOF 16
ENDMDL
MODEL 3
REMARK VINA RESULT:     -12.4      2.882      5.623
REMARK SMILES O=C(NCCCCCCNC(=O)[C@H]1C[C@](O)(c2ccccc2Cl)[C@@H](c2ccccc2Cl)O1)c1ccc(-c2c3nc(c(-c4c(F)c(F)c(F)c(F)c4F)c4ccc([nH]4)c(-c4c(F)c(F)c(F)c(F)c4F)c4nc(c(-c5c(F)c(F)c(F)c(F)c5F)c5ccc2[nH]5)C=C4)C=C3)cc1
REMARK SMILES IDX 6 1 5 4 4 7 3 10 1 11 2 12 33 14 34 15 95 16 35 17 94 19
REMARK SMILES IDX 36 21 37 24 38 25 88 26 39 27 93 28 87 29 89 30 40 31 92 32
REMARK SMILES IDX 86 34 85 36 41 38 73 41 53 42 72 43 54 44 57 45 71 46 90 47
REMARK SMILES IDX 55 48 56 50 70 52 91 53 58 56 42 58 43 59 51 60 44 61 45 62
REMARK SMILES IDX 49 63 52 64 46 65 47 66 50 67 48 68 74 69 75 70 83 71 76 72
REMARK SMILES IDX 77 73 81 74 84 75 78 76 79 77 82 78 80 79 59 80 60 81 68 82
REMARK SMILES IDX 61 83 62 84 66 85 69 86 63 87 64 88 67 89 65 90 7 91 8 94
REMARK SMILES IDX 9 97 10 100 11 101 12 103 13 104 14 105 32 106 15 108 24 111
REMARK SMILES IDX 17 113 18 114 22 115 19 116 21 118 23 119 20 120 16 124
REMARK SMILES IDX 25 126 26 127 30 128 27 129 29 131 31 132 28 133
REMARK H PARENT 6 2 6 3 5 5 5 6 4 8 4 9 3 13 34 18 95 20 35 22 94 23 93 33
REMARK H PARENT 87 35 89 37 92 39 86 40 54 49 57 51 90 54 55 55 91 57 7 92
REMARK H PARENT 7 93 8 95 8 96 9 98 9 99 10 102 13 107 14 109 14 110 24 112
REMARK H PARENT 18 117 19 121 21 122 20 123 16 125 26 130 27 134 29 135 28 136
REMARK Flexibility Score: inf
ROOT
ATOM      1  C   UNL A   1      34.602  34.831  28.247  1.00  0.00    -0.052 C 
ATOM      2  H   UNL A   1      35.262  35.672  28.304  1.00  0.00     0.027 H 
ATOM      3  H   UNL A   1      34.394  34.495  27.253  1.00  0.00     0.027 H 
ENDROOT
BRANCH   1   4
ATOM      4  C   UNL A   1      33.251  35.263  28.819  1.00  0.00    -0.036 C 
ATOM      5  H   UNL A   1      32.617  35.521  27.996  1.00  0.00     0.028 H 
ATOM      6  H   UNL A   1      32.907  34.431  29.396  1.00  0.00     0.028 H 
BRANCH   4   7
ATOM      7  C   UNL A   1      33.273  36.445  29.779  1.00  0.00     0.018 C 
ATOM      8  H   UNL A   1      34.270  36.555  30.154  1.00  0.00     0.049 H 
ATOM      9  H   UNL A   1      32.947  37.300  29.224  1.00  0.00     0.049 H 
BRANCH   7  10
ATOM     10  N   UNL A   1      32.373  36.306  30.908  1.00  0.00    -0.352 N 
ATOM     11  O   UNL A   1      31.645  35.532  32.899  1.00  0.00    -0.269 OA
ATOM     12  C   UNL A   1      32.545  35.592  32.072  1.00  0.00     0.251 C 
ATOM     13  H   UNL A   1      31.519  36.791  30.830  1.00  0.00     0.163 HD
BRANCH  12  14
ATOM     14  C   UNL A   1      33.809  34.856  32.305  1.00  0.00     0.039 A 
ATOM     15  C   UNL A   1      33.809  33.494  32.617  1.00  0.00    -0.049 A 
ATOM     16  C   UNL A   1      35.018  35.553  32.218  1.00  0.00    -0.049 A 
ATOM     17  C   UNL A   1      34.997  32.868  32.982  1.00  0.00    -0.053 A 
ATOM     18  H   UNL A   1      32.932  32.954  32.574  1.00  0.00     0.063 H 
ATOM     19  C   UNL A   1      36.220  34.904  32.509  1.00  0.00    -0.053 A 
ATOM     20  H   UNL A   1      35.022  36.547  31.939  1.00  0.00     0.063 H 
ATOM     21  C   UNL A   1      36.216  33.565  32.932  1.00  0.00    -0.014 A 
ATOM     22  H   UNL A   1      34.984  31.884  33.292  1.00  0.00     0.063 H 
ATOM     23  H   UNL A   1      37.114  35.410  32.415  1.00  0.00     0.063 H 
BRANCH  21  24
ATOM     24  C   UNL A   1      37.477  32.868  33.290  1.00  0.00     0.031 A 
ATOM     25  C   UNL A   1      38.174  33.142  34.593  1.00  0.00     0.074 A 
ATOM     26  C   UNL A   1      37.984  31.960  32.435  1.00  0.00     0.049 A 
ATOM     27  N   UNL A   1      39.270  32.608  35.074  1.00  0.00    -0.248 NA
ATOM     28  C   UNL A   1      37.568  34.156  35.470  1.00  0.00    -0.034 C 
ATOM     29  C   UNL A   1      37.403  31.616  31.136  1.00  0.00    -0.036 A 
ATOM     30  N   UNL A   1      39.087  31.152  32.531  1.00  0.00    -0.354 N 
ATOM     31  C   UNL A   1      39.498  33.234  36.292  1.00  0.00     0.074 A 
ATOM     32  C   UNL A   1      38.439  34.205  36.469  1.00  0.00    -0.034 C 
ATOM     33  H   UNL A   1      36.695  34.689  35.341  1.00  0.00     0.065 H 
ATOM     34  C   UNL A   1      38.128  30.635  30.577  1.00  0.00    -0.036 A 
ATOM     35  H   UNL A   1      36.570  32.056  30.717  1.00  0.00     0.065 H 
ATOM     36  C   UNL A   1      39.252  30.320  31.452  1.00  0.00     0.049 A 
ATOM     37  H   UNL A   1      39.702  31.167  33.301  1.00  0.00     0.167 HD
ATOM     38  C   UNL A   1      40.495  33.013  37.183  1.00  0.00     0.037 A 
ATOM     39  H   UNL A   1      38.370  34.853  37.270  1.00  0.00     0.065 H 
ATOM     40  H   UNL A   1      37.923  30.177  29.676  1.00  0.00     0.065 H 
ATOM     41  C   UNL A   1      40.209  29.411  31.189  1.00  0.00     0.037 A 
ATOM     42  C   UNL A   1      41.537  32.031  37.011  1.00  0.00     0.049 A 
ATOM     43  C   UNL A   1      41.311  29.196  32.186  1.00  0.00     0.074 A 
ATOM     44  C   UNL A   1      42.564  31.698  37.878  1.00  0.00    -0.036 A 
ATOM     45  N   UNL A   1      41.687  31.227  35.889  1.00  0.00    -0.354 N 
ATOM     46  N   UNL A   1      41.491  29.764  33.353  1.00  0.00    -0.248 NA
ATOM     47  C   UNL A   1      42.342  28.216  31.827  1.00  0.00    -0.034 C 
ATOM     48  C   UNL A   1      43.362  30.727  37.263  1.00  0.00    -0.036 A 
ATOM     49  H   UNL A   1      42.715  32.099  38.816  1.00  0.00     0.065 H 
ATOM     50  C   UNL A   1      42.804  30.418  36.032  1.00  0.00     0.049 A 
ATOM     51  H   UNL A   1      41.090  31.232  35.107  1.00  0.00     0.167 HD
ATOM     52  C   UNL A   1      42.643  29.197  33.877  1.00  0.00     0.074 A 
ATOM     53  C   UNL A   1      43.111  28.229  32.906  1.00  0.00    -0.034 C 
ATOM     54  H   UNL A   1      42.443  27.661  30.961  1.00  0.00     0.065 H 
ATOM     55  H   UNL A   1      44.220  30.312  37.658  1.00  0.00     0.065 H 
ATOM     56  C   UNL A   1      43.256  29.456  35.058  1.00  0.00     0.037 A 
ATOM     57  H   UNL A   1      43.938  27.627  33.039  1.00  0.00     0.065 H 
BRANCH  38  58
ATOM     58  C   UNL A   1      40.523  33.865  38.420  1.00  0.00     0.064 A 
ATOM     59  C   UNL A   1      41.265  35.054  38.482  1.00  0.00     0.173 A 
ATOM     60  C   UNL A   1      39.772  33.502  39.548  1.00  0.00     0.173 A 
ATOM     61  F   UNL A   1      42.008  35.442  37.435  1.00  0.00    -0.203 F 
ATOM     62  C   UNL A   1      41.279  35.831  39.639  1.00  0.00     0.198 A 
ATOM     63  C   UNL A   1      39.767  34.294  40.694  1.00  0.00     0.198 A 
ATOM     64  F   UNL A   1      39.038  32.379  39.539  1.00  0.00    -0.203 F 
ATOM     65  F   UNL A   1      42.035  36.936  39.693  1.00  0.00    -0.200 F 
ATOM     66  C   UNL A   1      40.527  35.453  40.741  1.00  0.00     0.200 A 
ATOM     67  F   UNL A   1      39.029  33.934  41.753  1.00  0.00    -0.200 F 
ATOM     68  F   UNL A   1      40.541  36.201  41.853  1.00  0.00    -0.200 F 
ENDBRANCH  38  58
BRANCH  41  69
ATOM     69  C   UNL A   1      40.141  28.623  29.933  1.00  0.00     0.064 A 
ATOM     70  C   UNL A   1      40.730  29.099  28.755  1.00  0.00     0.173 A 
ATOM     71  C   UNL A   1      39.518  27.367  29.893  1.00  0.00     0.173 A 
ATOM     72  F   UNL A   1      41.322  30.303  28.742  1.00  0.00    -0.203 F 
ATOM     73  C   UNL A   1      40.696  28.350  27.581  1.00  0.00     0.198 A 
ATOM     74  C   UNL A   1      39.507  26.608  28.727  1.00  0.00     0.198 A 
ATOM     75  F   UNL A   1      38.945  26.867  30.997  1.00  0.00    -0.203 F 
ATOM     76  F   UNL A   1      41.243  28.840  26.461  1.00  0.00    -0.200 F 
ATOM     77  C   UNL A   1      40.092  27.102  27.570  1.00  0.00     0.200 A 
ATOM     78  F   UNL A   1      38.937  25.395  28.724  1.00  0.00    -0.200 F 
ATOM     79  F   UNL A   1      40.071  26.376  26.445  1.00  0.00    -0.200 F 
ENDBRANCH  41  69
BRANCH  56  80
ATOM     80  C   UNL A   1      44.483  28.654  35.379  1.00  0.00     0.064 A 
ATOM     81  C   UNL A   1      45.767  29.107  35.043  1.00  0.00     0.173 A 
ATOM     82  C   UNL A   1      44.373  27.428  36.051  1.00  0.00     0.173 A 
ATOM     83  F   UNL A   1      45.924  30.265  34.384  1.00  0.00    -0.203 F 
ATOM     84  C   UNL A   1      46.895  28.347  35.344  1.00  0.00     0.198 A 
ATOM     85  C   UNL A   1      45.503  26.684  36.375  1.00  0.00     0.198 A 
ATOM     86  F   UNL A   1      43.166  26.953  36.397  1.00  0.00    -0.203 F 
ATOM     87  F   UNL A   1      48.109  28.775  34.970  1.00  0.00    -0.200 F 
ATOM     88  C   UNL A   1      46.762  27.140  36.015  1.00  0.00     0.200 A 
ATOM     89  F   UNL A   1      45.374  25.523  37.031  1.00  0.00    -0.200 F 
ATOM     90  F   UNL A   1      47.849  26.411  36.306  1.00  0.00    -0.200 F 
ENDBRANCH  56  80
ENDBRANCH  21  24
ENDBRANCH  12  14
ENDBRANCH   7  10
ENDBRANCH   4   7
ENDBRANCH   1   4
BRANCH   1  91
ATOM     91  C   UNL A   1      35.292  33.651  28.938  1.00  0.00    -0.052 C 
ATOM     92  H   UNL A   1      35.603  33.980  29.907  1.00  0.00     0.027 H 
ATOM     93  H   UNL A   1      36.089  33.370  28.280  1.00  0.00     0.027 H 
BRANCH  91  94
ATOM     94  C   UNL A   1      34.460  32.374  29.127  1.00  0.00    -0.036 C 
ATOM     95  H   UNL A   1      33.613  32.619  29.732  1.00  0.00     0.028 H 
ATOM     96  H   UNL A   1      35.119  31.659  29.574  1.00  0.00     0.028 H 
BRANCH  94  97
ATOM     97  C   UNL A   1      33.949  31.725  27.842  1.00  0.00     0.017 C 
ATOM     98  H   UNL A   1      34.384  32.233  27.008  1.00  0.00     0.049 H 
ATOM     99  H   UNL A   1      32.882  31.806  27.848  1.00  0.00     0.049 H 
BRANCH  97 100
ATOM    100  N   UNL A   1      34.273  30.319  27.748  1.00  0.00    -0.354 N 
ATOM    101  C   UNL A   1      33.611  29.263  27.204  1.00  0.00     0.249 C 
ATOM    102  H   UNL A   1      35.138  30.082  28.154  1.00  0.00     0.163 HD
ATOM    103  O   UNL A   1      34.222  28.188  27.259  1.00  0.00    -0.272 OA
BRANCH 101 104
ATOM    104  C   UNL A   1      32.181  29.335  26.595  1.00  0.00     0.140 C 
ATOM    105  C   UNL A   1      31.979  29.641  25.124  1.00  0.00     0.019 C 
ATOM    106  O   UNL A   1      31.495  28.097  26.853  1.00  0.00    -0.357 OA
ATOM    107  H   UNL A   1      31.799  30.203  27.091  1.00  0.00     0.071 H 
ATOM    108  C   UNL A   1      31.240  28.452  24.498  1.00  0.00     0.124 C 
ATOM    109  H   UNL A   1      32.927  29.774  24.646  1.00  0.00     0.033 H 
ATOM    110  H   UNL A   1      31.413  30.541  25.001  1.00  0.00     0.033 H 
ATOM    111  C   UNL A   1      31.296  27.381  25.618  1.00  0.00     0.118 C 
ATOM    112  H   UNL A   1      30.373  26.847  25.533  1.00  0.00     0.069 H 
BRANCH 108 113
ATOM    113  C   UNL A   1      29.918  28.961  23.887  1.00  0.00     0.005 A 
ATOM    114  C   UNL A   1      29.807  30.378  23.770  1.00  0.00    -0.055 A 
ATOM    115  C   UNL A   1      28.800  28.222  23.459  1.00  0.00     0.047 A 
ATOM    116  C   UNL A   1      28.689  31.013  23.227  1.00  0.00    -0.062 A 
ATOM    117  H   UNL A   1      30.591  30.961  24.102  1.00  0.00     0.063 H 
ATOM    118  C   UNL A   1      27.689  28.867  22.879  1.00  0.00    -0.043 A 
ATOM    119  Cl  UNL A   1      28.593  26.521  23.645  1.00  0.00    -0.084 Cl
ATOM    120  C   UNL A   1      27.632  30.253  22.761  1.00  0.00    -0.061 A 
ATOM    121  H   UNL A   1      28.651  32.043  23.175  1.00  0.00     0.062 H 
ATOM    122  H   UNL A   1      26.900  28.299  22.532  1.00  0.00     0.064 H 
ATOM    123  H   UNL A   1      26.811  30.706  22.330  1.00  0.00     0.062 H 
ENDBRANCH 108 113
BRANCH 108 124
ATOM    124  O   UNL A   1      32.026  28.011  23.365  1.00  0.00    -0.382 OA
ATOM    125  H   UNL A   1      31.554  28.218  22.543  1.00  0.00     0.212 HD
ENDBRANCH 108 124
BRANCH 111 126
ATOM    126  C   UNL A   1      32.324  26.250  25.524  1.00  0.00     0.003 A 
ATOM    127  C   UNL A   1      33.611  26.477  24.999  1.00  0.00    -0.055 A 
ATOM    128  C   UNL A   1      32.051  24.950  25.999  1.00  0.00     0.046 A 
ATOM    129  C   UNL A   1      34.600  25.489  25.012  1.00  0.00    -0.062 A 
ATOM    130  H   UNL A   1      33.830  27.401  24.592  1.00  0.00     0.063 H 
ATOM    131  C   UNL A   1      33.040  23.956  25.999  1.00  0.00    -0.043 A 
ATOM    132  Cl  UNL A   1      30.492  24.468  26.581  1.00  0.00    -0.084 Cl
ATOM    133  C   UNL A   1      34.318  24.231  25.523  1.00  0.00    -0.061 A 
ATOM    134  H   UNL A   1      35.540  25.697  24.642  1.00  0.00     0.062 H 
ATOM    135  H   UNL A   1      32.818  23.013  26.355  1.00  0.00     0.064 H 
ATOM    136  H   UNL A   1      35.050  23.504  25.549  1.00  0.00     0.062 H 
ENDBRANCH 111 126
ENDBRANCH 101 104
ENDBRANCH  97 100
ENDBRANCH  94  97
ENDBRANCH  91  94
ENDBRANCH   1  91
TORSDOF 16
ENDMDL
MODEL 4
REMARK VINA RESULT:     -12.4      2.657      4.503
REMARK SMILES O=C(NCCCCCCNC(=O)[C@H]1C[C@](O)(c2ccccc2Cl)[C@@H](c2ccccc2Cl)O1)c1ccc(-c2c3nc(c(-c4c(F)c(F)c(F)c(F)c4F)c4ccc([nH]4)c(-c4c(F)c(F)c(F)c(F)c4F)c4nc(c(-c5c(F)c(F)c(F)c(F)c5F)c5ccc2[nH]5)C=C4)C=C3)cc1
REMARK SMILES IDX 6 1 5 4 4 7 3 10 1 11 2 12 33 14 34 15 95 16 35 17 94 19
REMARK SMILES IDX 36 21 37 24 38 25 88 26 39 27 93 28 87 29 89 30 40 31 92 32
REMARK SMILES IDX 86 34 85 36 41 38 73 41 53 42 72 43 54 44 57 45 71 46 90 47
REMARK SMILES IDX 55 48 56 50 70 52 91 53 58 56 42 58 43 59 51 60 44 61 45 62
REMARK SMILES IDX 49 63 52 64 46 65 47 66 50 67 48 68 74 69 75 70 83 71 76 72
REMARK SMILES IDX 77 73 81 74 84 75 78 76 79 77 82 78 80 79 59 80 60 81 68 82
REMARK SMILES IDX 61 83 62 84 66 85 69 86 63 87 64 88 67 89 65 90 7 91 8 94
REMARK SMILES IDX 9 97 10 100 11 101 12 103 13 104 14 105 32 106 15 108 24 111
REMARK SMILES IDX 17 113 18 114 22 115 19 116 21 118 23 119 20 120 16 124
REMARK SMILES IDX 25 126 26 127 30 128 27 129 29 131 31 132 28 133
REMARK H PARENT 6 2 6 3 5 5 5 6 4 8 4 9 3 13 34 18 95 20 35 22 94 23 93 33
REMARK H PARENT 87 35 89 37 92 39 86 40 54 49 57 51 90 54 55 55 91 57 7 92
REMARK H PARENT 7 93 8 95 8 96 9 98 9 99 10 102 13 107 14 109 14 110 24 112
REMARK H PARENT 18 117 19 121 21 122 20 123 16 125 26 130 27 134 29 135 28 136
REMARK Flexibility Score: inf
ROOT
ATOM      1  C   UNL A   1      34.543  33.609  29.362  1.00  0.00    -0.052 C 
ATOM      2  H   UNL A   1      34.391  33.226  30.349  1.00  0.00     0.027 H 
ATOM      3  H   UNL A   1      35.399  34.241  29.256  1.00  0.00     0.027 H 
ENDROOT
BRANCH   1   4
ATOM      4  C   UNL A   1      33.343  34.494  29.019  1.00  0.00    -0.036 C 
ATOM      5  H   UNL A   1      33.312  34.603  27.955  1.00  0.00     0.028 H 
ATOM      6  H   UNL A   1      32.493  33.997  29.436  1.00  0.00     0.028 H 
BRANCH   4   7
ATOM      7  C   UNL A   1      33.341  35.890  29.629  1.00  0.00     0.018 C 
ATOM      8  H   UNL A   1      34.326  36.101  29.991  1.00  0.00     0.049 H 
ATOM      9  H   UNL A   1      33.033  36.564  28.858  1.00  0.00     0.049 H 
BRANCH   7  10
ATOM     10  N   UNL A   1      32.408  36.052  30.728  1.00  0.00    -0.352 N 
ATOM     11  O   UNL A   1      31.618  35.829  32.832  1.00  0.00    -0.269 OA
ATOM     12  C   UNL A   1      32.542  35.670  32.045  1.00  0.00     0.251 C 
ATOM     13  H   UNL A   1      31.559  36.498  30.501  1.00  0.00     0.163 HD
BRANCH  12  14
ATOM     14  C   UNL A   1      33.794  35.023  32.500  1.00  0.00     0.039 A 
ATOM     15  C   UNL A   1      35.016  35.699  32.463  1.00  0.00    -0.049 A 
ATOM     16  C   UNL A   1      33.738  33.705  32.965  1.00  0.00    -0.049 A 
ATOM     17  C   UNL A   1      36.193  35.016  32.750  1.00  0.00    -0.053 A 
ATOM     18  H   UNL A   1      35.044  36.702  32.226  1.00  0.00     0.063 H 
ATOM     19  C   UNL A   1      34.914  33.043  33.328  1.00  0.00    -0.053 A 
ATOM     20  H   UNL A   1      32.828  33.222  33.040  1.00  0.00     0.063 H 
ATOM     21  C   UNL A   1      36.157  33.680  33.186  1.00  0.00    -0.014 A 
ATOM     22  H   UNL A   1      37.102  35.493  32.642  1.00  0.00     0.063 H 
ATOM     23  H   UNL A   1      34.869  32.082  33.700  1.00  0.00     0.063 H 
BRANCH  21  24
ATOM     24  C   UNL A   1      37.422  32.981  33.523  1.00  0.00     0.031 A 
ATOM     25  C   UNL A   1      38.136  33.247  34.819  1.00  0.00     0.074 A 
ATOM     26  C   UNL A   1      37.917  32.079  32.655  1.00  0.00     0.049 A 
ATOM     27  N   UNL A   1      39.239  32.710  35.280  1.00  0.00    -0.248 NA
ATOM     28  C   UNL A   1      37.542  34.254  35.710  1.00  0.00    -0.034 C 
ATOM     29  C   UNL A   1      37.319  31.744  31.361  1.00  0.00    -0.036 A 
ATOM     30  N   UNL A   1      39.022  31.271  32.731  1.00  0.00    -0.354 N 
ATOM     31  C   UNL A   1      39.483  33.328  36.500  1.00  0.00     0.074 A 
ATOM     32  C   UNL A   1      38.426  34.296  36.698  1.00  0.00    -0.034 C 
ATOM     33  H   UNL A   1      36.667  34.788  35.596  1.00  0.00     0.065 H 
ATOM     34  C   UNL A   1      38.037  30.768  30.786  1.00  0.00    -0.036 A 
ATOM     35  H   UNL A   1      36.480  32.187  30.956  1.00  0.00     0.065 H 
ATOM     36  C   UNL A   1      39.173  30.447  31.644  1.00  0.00     0.049 A 
ATOM     37  H   UNL A   1      39.647  31.280  33.492  1.00  0.00     0.167 HD
ATOM     38  C   UNL A   1      40.492  33.100  37.376  1.00  0.00     0.037 A 
ATOM     39  H   UNL A   1      38.368  34.939  37.504  1.00  0.00     0.065 H 
ATOM     40  H   UNL A   1      37.820  30.315  29.884  1.00  0.00     0.065 H 
ATOM     41  C   UNL A   1      40.126  29.540  31.362  1.00  0.00     0.037 A 
ATOM     42  C   UNL A   1      41.531  32.119  37.183  1.00  0.00     0.049 A 
ATOM     43  C   UNL A   1      41.241  29.318  32.342  1.00  0.00     0.074 A 
ATOM     44  C   UNL A   1      42.569  31.782  38.034  1.00  0.00    -0.036 A 
ATOM     45  N   UNL A   1      41.667  31.323  36.054  1.00  0.00    -0.354 N 
ATOM     46  N   UNL A   1      41.437  29.878  33.510  1.00  0.00    -0.248 NA
ATOM     47  C   UNL A   1      42.268  28.340  31.963  1.00  0.00    -0.034 C 
ATOM     48  C   UNL A   1      43.359  30.815  37.402  1.00  0.00    -0.036 A 
ATOM     49  H   UNL A   1      42.734  32.176  38.973  1.00  0.00     0.065 H 
ATOM     50  C   UNL A   1      42.786  30.513  36.177  1.00  0.00     0.049 A 
ATOM     51  H   UNL A   1      41.059  31.334  35.280  1.00  0.00     0.167 HD
ATOM     52  C   UNL A   1      42.596  29.308  34.016  1.00  0.00     0.074 A 
ATOM     53  C   UNL A   1      43.051  28.347  33.032  1.00  0.00    -0.034 C 
ATOM     54  H   UNL A   1      42.357  27.792  31.092  1.00  0.00     0.065 H 
ATOM     55  H   UNL A   1      44.223  30.397  37.782  1.00  0.00     0.065 H 
ATOM     56  C   UNL A   1      43.224  29.559  35.190  1.00  0.00     0.037 A 
ATOM     57  H   UNL A   1      43.880  27.743  33.149  1.00  0.00     0.065 H 
BRANCH  38  58
ATOM     58  C   UNL A   1      40.536  33.944  38.618  1.00  0.00     0.064 A 
ATOM     59  C   UNL A   1      41.273  35.136  38.676  1.00  0.00     0.173 A 
ATOM     60  C   UNL A   1      39.807  33.569  39.756  1.00  0.00     0.173 A 
ATOM     61  F   UNL A   1      41.995  35.536  37.619  1.00  0.00    -0.203 F 
ATOM     62  C   UNL A   1      41.302  35.905  39.838  1.00  0.00     0.198 A 
ATOM     63  C   UNL A   1      39.816  34.353  40.908  1.00  0.00     0.198 A 
ATOM     64  F   UNL A   1      39.078  32.442  39.752  1.00  0.00    -0.203 F 
ATOM     65  F   UNL A   1      42.052  37.014  39.887  1.00  0.00    -0.200 F 
ATOM     66  C   UNL A   1      40.570  35.515  40.950  1.00  0.00     0.200 A 
ATOM     67  F   UNL A   1      39.099  33.981  41.977  1.00  0.00    -0.200 F 
ATOM     68  F   UNL A   1      40.599  36.256  42.067  1.00  0.00    -0.200 F 
ENDBRANCH  38  58
BRANCH  41  69
ATOM     69  C   UNL A   1      40.041  28.760  30.101  1.00  0.00     0.064 A 
ATOM     70  C   UNL A   1      40.606  29.249  28.917  1.00  0.00     0.173 A 
ATOM     71  C   UNL A   1      39.427  27.500  30.063  1.00  0.00     0.173 A 
ATOM     72  F   UNL A   1      41.190  30.458  28.902  1.00  0.00    -0.203 F 
ATOM     73  C   UNL A   1      40.556  28.508  27.738  1.00  0.00     0.198 A 
ATOM     74  C   UNL A   1      39.400  26.750  28.891  1.00  0.00     0.198 A 
ATOM     75  F   UNL A   1      38.877  26.988  31.173  1.00  0.00    -0.203 F 
ATOM     76  F   UNL A   1      41.081  29.010  26.612  1.00  0.00    -0.200 F 
ATOM     77  C   UNL A   1      39.962  27.256  27.728  1.00  0.00     0.200 A 
ATOM     78  F   UNL A   1      38.839  25.532  28.890  1.00  0.00    -0.200 F 
ATOM     79  F   UNL A   1      39.926  26.538  26.598  1.00  0.00    -0.200 F 
ENDBRANCH  41  69
BRANCH  56  80
ATOM     80  C   UNL A   1      44.456  28.755  35.489  1.00  0.00     0.064 A 
ATOM     81  C   UNL A   1      45.731  29.191  35.101  1.00  0.00     0.173 A 
ATOM     82  C   UNL A   1      44.359  27.545  36.192  1.00  0.00     0.173 A 
ATOM     83  F   UNL A   1      45.874  30.332  34.411  1.00  0.00    -0.203 F 
ATOM     84  C   UNL A   1      46.863  28.429  35.383  1.00  0.00     0.198 A 
ATOM     85  C   UNL A   1      45.495  26.800  36.495  1.00  0.00     0.198 A 
ATOM     86  F   UNL A   1      43.161  27.087  36.587  1.00  0.00    -0.203 F 
ATOM     87  F   UNL A   1      48.067  28.839  34.960  1.00  0.00    -0.200 F 
ATOM     88  C   UNL A   1      46.744  27.238  36.085  1.00  0.00     0.200 A 
ATOM     89  F   UNL A   1      45.379  25.655  37.181  1.00  0.00    -0.200 F 
ATOM     90  F   UNL A   1      47.835  26.508  36.357  1.00  0.00    -0.200 F 
ENDBRANCH  56  80
ENDBRANCH  21  24
ENDBRANCH  12  14
ENDBRANCH   7  10
ENDBRANCH   4   7
ENDBRANCH   1   4
BRANCH   1  91
ATOM     91  C   UNL A   1      34.801  32.418  28.435  1.00  0.00    -0.052 C 
ATOM     92  H   UNL A   1      35.331  31.679  28.998  1.00  0.00     0.027 H 
ATOM     93  H   UNL A   1      35.342  32.823  27.604  1.00  0.00     0.027 H 
BRANCH  91  94
ATOM     94  C   UNL A   1      33.571  31.737  27.818  1.00  0.00    -0.036 C 
ATOM     95  H   UNL A   1      33.204  32.367  27.035  1.00  0.00     0.028 H 
ATOM     96  H   UNL A   1      32.879  31.598  28.622  1.00  0.00     0.028 H 
BRANCH  94  97
ATOM     97  C   UNL A   1      33.813  30.348  27.230  1.00  0.00     0.017 C 
ATOM     98  H   UNL A   1      34.676  29.926  27.699  1.00  0.00     0.049 H 
ATOM     99  H   UNL A   1      33.947  30.468  26.176  1.00  0.00     0.049 H 
BRANCH  97 100
ATOM    100  N   UNL A   1      32.697  29.449  27.422  1.00  0.00    -0.354 N 
ATOM    101  C   UNL A   1      32.506  28.145  27.085  1.00  0.00     0.249 C 
ATOM    102  H   UNL A   1      31.930  29.858  27.884  1.00  0.00     0.163 HD
ATOM    103  O   UNL A   1      31.426  27.669  27.458  1.00  0.00    -0.272 OA
BRANCH 101 104
ATOM    104  C   UNL A   1      33.507  27.291  26.255  1.00  0.00     0.140 C 
ATOM    105  C   UNL A   1      33.453  25.775  26.295  1.00  0.00     0.019 C 
ATOM    106  O   UNL A   1      33.414  27.666  24.869  1.00  0.00    -0.357 OA
ATOM    107  H   UNL A   1      34.426  27.525  26.751  1.00  0.00     0.071 H 
ATOM    108  C   UNL A   1      33.197  25.280  24.867  1.00  0.00     0.124 C 
ATOM    109  H   UNL A   1      32.660  25.457  26.939  1.00  0.00     0.033 H 
ATOM    110  H   UNL A   1      34.371  25.376  26.672  1.00  0.00     0.033 H 
ATOM    111  C   UNL A   1      32.843  26.585  24.106  1.00  0.00     0.118 C 
ATOM    112  H   UNL A   1      33.242  26.446  23.124  1.00  0.00     0.069 H 
BRANCH 108 113
ATOM    113  C   UNL A   1      34.359  24.355  24.452  1.00  0.00     0.005 A 
ATOM    114  C   UNL A   1      35.476  24.345  25.338  1.00  0.00    -0.055 A 
ATOM    115  C   UNL A   1      34.479  23.545  23.307  1.00  0.00     0.047 A 
ATOM    116  C   UNL A   1      36.609  23.557  25.129  1.00  0.00    -0.062 A 
ATOM    117  H   UNL A   1      35.445  24.949  26.174  1.00  0.00     0.063 H 
ATOM    118  C   UNL A   1      35.609  22.724  23.120  1.00  0.00    -0.043 A 
ATOM    119  Cl  UNL A   1      33.364  23.498  21.992  1.00  0.00    -0.084 Cl
ATOM    120  C   UNL A   1      36.668  22.727  24.024  1.00  0.00    -0.061 A 
ATOM    121  H   UNL A   1      37.398  23.593  25.793  1.00  0.00     0.062 H 
ATOM    122  H   UNL A   1      35.653  22.106  22.294  1.00  0.00     0.064 H 
ATOM    123  H   UNL A   1      37.486  22.117  23.871  1.00  0.00     0.062 H 
ENDBRANCH 108 113
BRANCH 108 124
ATOM    124  O   UNL A   1      32.036  24.417  24.917  1.00  0.00    -0.382 OA
ATOM    125  H   UNL A   1      31.690  24.392  25.823  1.00  0.00     0.212 HD
ENDBRANCH 108 124
BRANCH 111 126
ATOM    126  C   UNL A   1      31.375  26.904  23.807  1.00  0.00     0.003 A 
ATOM    127  C   UNL A   1      30.339  26.073  24.276  1.00  0.00    -0.055 A 
ATOM    128  C   UNL A   1      30.991  28.061  23.097  1.00  0.00     0.046 A 
ATOM    129  C   UNL A   1      28.992  26.409  24.114  1.00  0.00    -0.062 A 
ATOM    130  H   UNL A   1      30.582  25.190  24.753  1.00  0.00     0.063 H 
ATOM    131  C   UNL A   1      29.639  28.389  22.924  1.00  0.00    -0.043 A 
ATOM    132  Cl  UNL A   1      32.132  29.137  22.363  1.00  0.00    -0.084 Cl
ATOM    133  C   UNL A   1      28.641  27.574  23.448  1.00  0.00    -0.061 A 
ATOM    134  H   UNL A   1      28.258  25.789  24.492  1.00  0.00     0.062 H 
ATOM    135  H   UNL A   1      29.382  29.243  22.404  1.00  0.00     0.064 H 
ATOM    136  H   UNL A   1      27.647  27.833  23.340  1.00  0.00     0.062 H 
ENDBRANCH 111 126
ENDBRANCH 101 104
ENDBRANCH  97 100
ENDBRANCH  94  97
ENDBRANCH  91  94
ENDBRANCH   1  91
TORSDOF 16
ENDMDL
MODEL 5
REMARK VINA RESULT:     -12.3      4.395      9.856
REMARK SMILES O=C(NCCCCCCNC(=O)[C@H]1C[C@](O)(c2ccccc2Cl)[C@@H](c2ccccc2Cl)O1)c1ccc(-c2c3nc(c(-c4c(F)c(F)c(F)c(F)c4F)c4ccc([nH]4)c(-c4c(F)c(F)c(F)c(F)c4F)c4nc(c(-c5c(F)c(F)c(F)c(F)c5F)c5ccc2[nH]5)C=C4)C=C3)cc1
REMARK SMILES IDX 6 1 5 4 4 7 3 10 1 11 2 12 33 14 34 15 95 16 35 17 94 19
REMARK SMILES IDX 36 21 37 24 38 25 88 26 39 27 93 28 87 29 89 30 40 31 92 32
REMARK SMILES IDX 86 34 85 36 41 38 73 41 53 42 72 43 54 44 57 45 71 46 90 47
REMARK SMILES IDX 55 48 56 50 70 52 91 53 58 56 42 58 43 59 51 60 44 61 45 62
REMARK SMILES IDX 49 63 52 64 46 65 47 66 50 67 48 68 74 69 75 70 83 71 76 72
REMARK SMILES IDX 77 73 81 74 84 75 78 76 79 77 82 78 80 79 59 80 60 81 68 82
REMARK SMILES IDX 61 83 62 84 66 85 69 86 63 87 64 88 67 89 65 90 7 91 8 94
REMARK SMILES IDX 9 97 10 100 11 101 12 103 13 104 14 105 32 106 15 108 24 111
REMARK SMILES IDX 17 113 18 114 22 115 19 116 21 118 23 119 20 120 16 124
REMARK SMILES IDX 25 126 26 127 30 128 27 129 29 131 31 132 28 133
REMARK H PARENT 6 2 6 3 5 5 5 6 4 8 4 9 3 13 34 18 95 20 35 22 94 23 93 33
REMARK H PARENT 87 35 89 37 92 39 86 40 54 49 57 51 90 54 55 55 91 57 7 92
REMARK H PARENT 7 93 8 95 8 96 9 98 9 99 10 102 13 107 14 109 14 110 24 112
REMARK H PARENT 18 117 19 121 21 122 20 123 16 125 26 130 27 134 29 135 28 136
REMARK Flexibility Score: inf
ROOT
ATOM      1  C   UNL A   1      36.438  19.408  25.004  1.00  0.00    -0.052 C 
ATOM      2  H   UNL A   1      36.581  18.818  25.886  1.00  0.00     0.027 H 
ATOM      3  H   UNL A   1      36.128  18.855  24.143  1.00  0.00     0.027 H 
ENDROOT
BRANCH   1   4
ATOM      4  C   UNL A   1      37.791  20.014  24.629  1.00  0.00    -0.036 C 
ATOM      5  H   UNL A   1      38.240  19.379  23.895  1.00  0.00     0.028 H 
ATOM      6  H   UNL A   1      37.574  21.003  24.282  1.00  0.00     0.028 H 
BRANCH   4   7
ATOM      7  C   UNL A   1      38.789  20.189  25.766  1.00  0.00     0.018 C 
ATOM      8  H   UNL A   1      39.259  21.145  25.657  1.00  0.00     0.049 H 
ATOM      9  H   UNL A   1      38.237  20.104  26.678  1.00  0.00     0.049 H 
BRANCH   7  10
ATOM     10  N   UNL A   1      39.825  19.174  25.804  1.00  0.00    -0.352 N 
ATOM     11  O   UNL A   1      41.917  18.348  26.000  1.00  0.00    -0.269 OA
ATOM     12  C   UNL A   1      41.167  19.313  26.075  1.00  0.00     0.251 C 
ATOM     13  H   UNL A   1      39.525  18.256  25.609  1.00  0.00     0.163 HD
BRANCH  12  14
ATOM     14  C   UNL A   1      41.716  20.646  26.417  1.00  0.00     0.039 A 
ATOM     15  C   UNL A   1      41.921  21.028  27.745  1.00  0.00    -0.049 A 
ATOM     16  C   UNL A   1      42.020  21.532  25.379  1.00  0.00    -0.049 A 
ATOM     17  C   UNL A   1      42.289  22.337  28.039  1.00  0.00    -0.053 A 
ATOM     18  H   UNL A   1      41.802  20.341  28.505  1.00  0.00     0.063 H 
ATOM     19  C   UNL A   1      42.466  22.824  25.674  1.00  0.00    -0.053 A 
ATOM     20  H   UNL A   1      41.917  21.233  24.397  1.00  0.00     0.063 H 
ATOM     21  C   UNL A   1      42.567  23.250  27.007  1.00  0.00    -0.014 A 
ATOM     22  H   UNL A   1      42.359  22.641  29.022  1.00  0.00     0.063 H 
ATOM     23  H   UNL A   1      42.720  23.467  24.908  1.00  0.00     0.063 H 
BRANCH  21  24
ATOM     24  C   UNL A   1      42.994  24.632  27.343  1.00  0.00     0.031 A 
ATOM     25  C   UNL A   1      44.390  25.107  27.049  1.00  0.00     0.074 A 
ATOM     26  C   UNL A   1      42.101  25.472  27.899  1.00  0.00     0.049 A 
ATOM     27  N   UNL A   1      44.923  26.286  27.257  1.00  0.00    -0.248 NA
ATOM     28  C   UNL A   1      45.313  24.129  26.453  1.00  0.00    -0.034 C 
ATOM     29  C   UNL A   1      40.720  25.122  28.240  1.00  0.00    -0.036 A 
ATOM     30  N   UNL A   1      42.211  26.789  28.261  1.00  0.00    -0.354 N 
ATOM     31  C   UNL A   1      46.244  26.186  26.841  1.00  0.00     0.074 A 
ATOM     32  C   UNL A   1      46.439  24.825  26.389  1.00  0.00    -0.034 C 
ATOM     33  H   UNL A   1      45.130  23.157  26.161  1.00  0.00     0.065 H 
ATOM     34  C   UNL A   1      40.099  26.210  28.719  1.00  0.00    -0.036 A 
ATOM     35  H   UNL A   1      40.294  24.190  28.131  1.00  0.00     0.065 H 
ATOM     36  C   UNL A   1      41.049  27.316  28.768  1.00  0.00     0.049 A 
ATOM     37  H   UNL A   1      43.043  27.308  28.167  1.00  0.00     0.167 HD
ATOM     38  C   UNL A   1      47.202  27.145  26.831  1.00  0.00     0.037 A 
ATOM     39  H   UNL A   1      47.341  24.444  26.060  1.00  0.00     0.065 H 
ATOM     40  H   UNL A   1      39.108  26.258  29.004  1.00  0.00     0.065 H 
ATOM     41  C   UNL A   1      40.780  28.550  29.231  1.00  0.00     0.037 A 
ATOM     42  C   UNL A   1      46.996  28.505  27.263  1.00  0.00     0.049 A 
ATOM     43  C   UNL A   1      41.863  29.590  29.223  1.00  0.00     0.074 A 
ATOM     44  C   UNL A   1      47.890  29.562  27.247  1.00  0.00    -0.036 A 
ATOM     45  N   UNL A   1      45.812  28.993  27.799  1.00  0.00    -0.354 N 
ATOM     46  N   UNL A   1      43.095  29.495  28.788  1.00  0.00    -0.248 NA
ATOM     47  C   UNL A   1      41.517  30.906  29.772  1.00  0.00    -0.034 C 
ATOM     48  C   UNL A   1      47.263  30.677  27.814  1.00  0.00    -0.036 A 
ATOM     49  H   UNL A   1      48.854  29.532  26.881  1.00  0.00     0.065 H 
ATOM     50  C   UNL A   1      45.961  30.329  28.139  1.00  0.00     0.049 A 
ATOM     51  H   UNL A   1      44.989  28.468  27.920  1.00  0.00     0.167 HD
ATOM     52  C   UNL A   1      43.667  30.742  28.991  1.00  0.00     0.074 A 
ATOM     53  C   UNL A   1      42.641  31.581  29.576  1.00  0.00    -0.034 C 
ATOM     54  H   UNL A   1      40.632  31.223  30.200  1.00  0.00     0.065 H 
ATOM     55  H   UNL A   1      47.696  31.601  27.965  1.00  0.00     0.065 H 
ATOM     56  C   UNL A   1      44.929  31.153  28.717  1.00  0.00     0.037 A 
ATOM     57  H   UNL A   1      42.769  32.578  29.808  1.00  0.00     0.065 H 
BRANCH  38  58
ATOM     58  C   UNL A   1      48.571  26.753  26.355  1.00  0.00     0.064 A 
ATOM     59  C   UNL A   1      49.502  26.139  27.207  1.00  0.00     0.173 A 
ATOM     60  C   UNL A   1      48.947  26.967  25.021  1.00  0.00     0.173 A 
ATOM     61  F   UNL A   1      49.198  25.919  28.495  1.00  0.00    -0.203 F 
ATOM     62  C   UNL A   1      50.769  25.783  26.747  1.00  0.00     0.198 A 
ATOM     63  C   UNL A   1      50.205  26.586  24.557  1.00  0.00     0.198 A 
ATOM     64  F   UNL A   1      48.093  27.543  24.161  1.00  0.00    -0.203 F 
ATOM     65  F   UNL A   1      51.659  25.243  27.592  1.00  0.00    -0.200 F 
ATOM     66  C   UNL A   1      51.117  26.002  25.423  1.00  0.00     0.200 A 
ATOM     67  F   UNL A   1      50.534  26.787  23.274  1.00  0.00    -0.200 F 
ATOM     68  F   UNL A   1      52.335  25.659  24.982  1.00  0.00    -0.200 F 
ENDBRANCH  38  58
BRANCH  41  69
ATOM     69  C   UNL A   1      39.412  28.866  29.717  1.00  0.00     0.064 A 
ATOM     70  C   UNL A   1      39.052  28.627  31.049  1.00  0.00     0.173 A 
ATOM     71  C   UNL A   1      38.453  29.441  28.871  1.00  0.00     0.173 A 
ATOM     72  F   UNL A   1      39.933  28.062  31.890  1.00  0.00    -0.203 F 
ATOM     73  C   UNL A   1      37.781  28.949  31.517  1.00  0.00     0.198 A 
ATOM     74  C   UNL A   1      37.191  29.786  29.347  1.00  0.00     0.198 A 
ATOM     75  F   UNL A   1      38.754  29.693  27.589  1.00  0.00    -0.203 F 
ATOM     76  F   UNL A   1      37.452  28.686  32.790  1.00  0.00    -0.200 F 
ATOM     77  C   UNL A   1      36.854  29.536  30.669  1.00  0.00     0.200 A 
ATOM     78  F   UNL A   1      36.305  30.368  28.528  1.00  0.00    -0.200 F 
ATOM     79  F   UNL A   1      35.636  29.858  31.123  1.00  0.00    -0.200 F 
ENDBRANCH  41  69
BRANCH  56  80
ATOM     80  C   UNL A   1      45.259  32.586  29.015  1.00  0.00     0.064 A 
ATOM     81  C   UNL A   1      45.023  33.605  28.081  1.00  0.00     0.173 A 
ATOM     82  C   UNL A   1      45.795  32.946  30.261  1.00  0.00     0.173 A 
ATOM     83  F   UNL A   1      44.528  33.310  26.870  1.00  0.00    -0.203 F 
ATOM     84  C   UNL A   1      45.339  34.930  28.374  1.00  0.00     0.198 A 
ATOM     85  C   UNL A   1      46.084  34.274  30.560  1.00  0.00     0.198 A 
ATOM     86  F   UNL A   1      46.036  32.008  31.190  1.00  0.00    -0.203 F 
ATOM     87  F   UNL A   1      45.153  35.882  27.449  1.00  0.00    -0.200 F 
ATOM     88  C   UNL A   1      45.863  35.264  29.615  1.00  0.00     0.200 A 
ATOM     89  F   UNL A   1      46.582  34.595  31.762  1.00  0.00    -0.200 F 
ATOM     90  F   UNL A   1      46.165  36.539  29.895  1.00  0.00    -0.200 F 
ENDBRANCH  56  80
ENDBRANCH  21  24
ENDBRANCH  12  14
ENDBRANCH   7  10
ENDBRANCH   4   7
ENDBRANCH   1   4
BRANCH   1  91
ATOM     91  C   UNL A   1      35.300  20.395  25.283  1.00  0.00    -0.052 C 
ATOM     92  H   UNL A   1      35.534  21.309  24.779  1.00  0.00     0.027 H 
ATOM     93  H   UNL A   1      35.251  20.469  26.350  1.00  0.00     0.027 H 
BRANCH  91  94
ATOM     94  C   UNL A   1      33.890  19.972  24.845  1.00  0.00    -0.036 C 
ATOM     95  H   UNL A   1      33.623  19.096  25.398  1.00  0.00     0.028 H 
ATOM     96  H   UNL A   1      33.946  19.817  23.788  1.00  0.00     0.028 H 
BRANCH  94  97
ATOM     97  C   UNL A   1      32.795  21.015  25.058  1.00  0.00     0.017 C 
ATOM     98  H   UNL A   1      31.848  20.559  24.862  1.00  0.00     0.049 H 
ATOM     99  H   UNL A   1      32.995  21.827  24.392  1.00  0.00     0.049 H 
BRANCH  97 100
ATOM    100  N   UNL A   1      32.778  21.554  26.400  1.00  0.00    -0.354 N 
ATOM    101  C   UNL A   1      32.270  22.706  26.915  1.00  0.00     0.249 C 
ATOM    102  H   UNL A   1      33.217  20.978  27.066  1.00  0.00     0.163 HD
ATOM    103  O   UNL A   1      32.394  22.821  28.141  1.00  0.00    -0.272 OA
BRANCH 101 104
ATOM    104  C   UNL A   1      31.624  23.843  26.072  1.00  0.00     0.140 C 
ATOM    105  C   UNL A   1      31.837  25.299  26.440  1.00  0.00     0.019 C 
ATOM    106  O   UNL A   1      32.034  23.705  24.699  1.00  0.00    -0.357 OA
ATOM    107  H   UNL A   1      30.588  23.677  26.278  1.00  0.00     0.071 H 
ATOM    108  C   UNL A   1      32.512  25.988  25.249  1.00  0.00     0.124 C 
ATOM    109  H   UNL A   1      32.465  25.367  27.305  1.00  0.00     0.033 H 
ATOM    110  H   UNL A   1      30.903  25.769  26.666  1.00  0.00     0.033 H 
ATOM    111  C   UNL A   1      32.903  24.796  24.336  1.00  0.00     0.118 C 
ATOM    112  H   UNL A   1      32.793  25.167  23.339  1.00  0.00     0.069 H 
BRANCH 108 113
ATOM    113  C   UNL A   1      31.611  27.147  24.776  1.00  0.00     0.005 A 
ATOM    114  C   UNL A   1      32.037  28.449  25.172  1.00  0.00    -0.055 A 
ATOM    115  C   UNL A   1      30.414  27.092  24.037  1.00  0.00     0.047 A 
ATOM    116  C   UNL A   1      31.352  29.614  24.823  1.00  0.00    -0.062 A 
ATOM    117  H   UNL A   1      32.892  28.534  25.744  1.00  0.00     0.063 H 
ATOM    118  C   UNL A   1      29.749  28.275  23.656  1.00  0.00    -0.043 A 
ATOM    119  Cl  UNL A   1      29.584  25.653  23.581  1.00  0.00    -0.084 Cl
ATOM    120  C   UNL A   1      30.213  29.528  24.043  1.00  0.00    -0.061 A 
ATOM    121  H   UNL A   1      31.694  30.534  25.143  1.00  0.00     0.062 H 
ATOM    122  H   UNL A   1      28.897  28.210  23.076  1.00  0.00     0.064 H 
ATOM    123  H   UNL A   1      29.713  30.383  23.753  1.00  0.00     0.062 H 
ENDBRANCH 108 113
BRANCH 108 124
ATOM    124  O   UNL A   1      33.709  26.629  25.750  1.00  0.00    -0.382 OA
ATOM    125  H   UNL A   1      33.770  27.527  25.388  1.00  0.00     0.212 HD
ENDBRANCH 108 124
BRANCH 111 126
ATOM    126  C   UNL A   1      34.352  24.300  24.329  1.00  0.00     0.003 A 
ATOM    127  C   UNL A   1      35.190  24.484  25.447  1.00  0.00    -0.055 A 
ATOM    128  C   UNL A   1      34.898  23.599  23.234  1.00  0.00     0.046 A 
ATOM    129  C   UNL A   1      36.475  23.938  25.505  1.00  0.00    -0.062 A 
ATOM    130  H   UNL A   1      34.844  25.039  26.246  1.00  0.00     0.063 H 
ATOM    131  C   UNL A   1      36.193  23.064  23.288  1.00  0.00    -0.043 A 
ATOM    132  Cl  UNL A   1      34.046  23.373  21.743  1.00  0.00    -0.084 Cl
ATOM    133  C   UNL A   1      36.973  23.217  24.430  1.00  0.00    -0.061 A 
ATOM    134  H   UNL A   1      37.053  24.071  26.349  1.00  0.00     0.062 H 
ATOM    135  H   UNL A   1      36.569  22.551  22.476  1.00  0.00     0.064 H 
ATOM    136  H   UNL A   1      37.916  22.799  24.475  1.00  0.00     0.062 H 
ENDBRANCH 111 126
ENDBRANCH 101 104
ENDBRANCH  97 100
ENDBRANCH  94  97
ENDBRANCH  91  94
ENDBRANCH   1  91
TORSDOF 16
ENDMDL
MODEL 6
REMARK VINA RESULT:     -12.3      2.624      4.588
REMARK SMILES O=C(NCCCCCCNC(=O)[C@H]1C[C@](O)(c2ccccc2Cl)[C@@H](c2ccccc2Cl)O1)c1ccc(-c2c3nc(c(-c4c(F)c(F)c(F)c(F)c4F)c4ccc([nH]4)c(-c4c(F)c(F)c(F)c(F)c4F)c4nc(c(-c5c(F)c(F)c(F)c(F)c5F)c5ccc2[nH]5)C=C4)C=C3)cc1
REMARK SMILES IDX 6 1 5 4 4 7 3 10 1 11 2 12 33 14 34 15 95 16 35 17 94 19
REMARK SMILES IDX 36 21 37 24 38 25 88 26 39 27 93 28 87 29 89 30 40 31 92 32
REMARK SMILES IDX 86 34 85 36 41 38 73 41 53 42 72 43 54 44 57 45 71 46 90 47
REMARK SMILES IDX 55 48 56 50 70 52 91 53 58 56 42 58 43 59 51 60 44 61 45 62
REMARK SMILES IDX 49 63 52 64 46 65 47 66 50 67 48 68 74 69 75 70 83 71 76 72
REMARK SMILES IDX 77 73 81 74 84 75 78 76 79 77 82 78 80 79 59 80 60 81 68 82
REMARK SMILES IDX 61 83 62 84 66 85 69 86 63 87 64 88 67 89 65 90 7 91 8 94
REMARK SMILES IDX 9 97 10 100 11 101 12 103 13 104 14 105 32 106 15 108 24 111
REMARK SMILES IDX 17 113 18 114 22 115 19 116 21 118 23 119 20 120 16 124
REMARK SMILES IDX 25 126 26 127 30 128 27 129 29 131 31 132 28 133
REMARK H PARENT 6 2 6 3 5 5 5 6 4 8 4 9 3 13 34 18 95 20 35 22 94 23 93 33
REMARK H PARENT 87 35 89 37 92 39 86 40 54 49 57 51 90 54 55 55 91 57 7 92
REMARK H PARENT 7 93 8 95 8 96 9 98 9 99 10 102 13 107 14 109 14 110 24 112
REMARK H PARENT 18 117 19 121 21 122 20 123 16 125 26 130 27 134 29 135 28 136
REMARK Flexibility Score: inf
ROOT
ATOM      1  C   UNL A   1      34.633  33.418  28.968  1.00  0.00    -0.052 C 
ATOM      2  H   UNL A   1      35.003  33.622  29.950  1.00  0.00     0.027 H 
ATOM      3  H   UNL A   1      35.297  33.695  28.175  1.00  0.00     0.027 H 
ENDROOT
BRANCH   1   4
ATOM      4  C   UNL A   1      33.379  34.268  28.759  1.00  0.00    -0.036 C 
ATOM      5  H   UNL A   1      33.187  34.313  27.707  1.00  0.00     0.028 H 
ATOM      6  H   UNL A   1      32.610  33.787  29.327  1.00  0.00     0.028 H 
BRANCH   4   7
ATOM      7  C   UNL A   1      33.440  35.697  29.283  1.00  0.00     0.018 C 
ATOM      8  H   UNL A   1      34.438  35.889  29.621  1.00  0.00     0.049 H 
ATOM      9  H   UNL A   1      33.149  36.336  28.475  1.00  0.00     0.049 H 
BRANCH   7  10
ATOM     10  N   UNL A   1      32.528  35.963  30.380  1.00  0.00    -0.352 N 
ATOM     11  O   UNL A   1      31.758  35.902  32.501  1.00  0.00    -0.269 OA
ATOM     12  C   UNL A   1      32.665  35.659  31.716  1.00  0.00     0.251 C 
ATOM     13  H   UNL A   1      31.694  36.427  30.134  1.00  0.00     0.163 HD
BRANCH  12  14
ATOM     14  C   UNL A   1      33.897  34.994  32.198  1.00  0.00     0.039 A 
ATOM     15  C   UNL A   1      35.129  35.653  32.190  1.00  0.00    -0.049 A 
ATOM     16  C   UNL A   1      33.813  33.676  32.658  1.00  0.00    -0.049 A 
ATOM     17  C   UNL A   1      36.291  34.953  32.501  1.00  0.00    -0.053 A 
ATOM     18  H   UNL A   1      35.177  36.657  31.955  1.00  0.00     0.063 H 
ATOM     19  C   UNL A   1      34.971  32.997  33.045  1.00  0.00    -0.053 A 
ATOM     20  H   UNL A   1      32.896  33.206  32.711  1.00  0.00     0.063 H 
ATOM     21  C   UNL A   1      36.226  33.618  32.933  1.00  0.00    -0.014 A 
ATOM     22  H   UNL A   1      37.208  35.418  32.414  1.00  0.00     0.063 H 
ATOM     23  H   UNL A   1      34.905  32.036  33.414  1.00  0.00     0.063 H 
BRANCH  21  24
ATOM     24  C   UNL A   1      37.474  32.900  33.296  1.00  0.00     0.031 A 
ATOM     25  C   UNL A   1      38.165  33.157  34.606  1.00  0.00     0.074 A 
ATOM     26  C   UNL A   1      37.974  31.991  32.438  1.00  0.00     0.049 A 
ATOM     27  N   UNL A   1      39.249  32.604  35.091  1.00  0.00    -0.248 NA
ATOM     28  C   UNL A   1      37.567  34.173  35.485  1.00  0.00    -0.034 C 
ATOM     29  C   UNL A   1      37.398  31.664  31.133  1.00  0.00    -0.036 A 
ATOM     30  N   UNL A   1      39.065  31.167  32.538  1.00  0.00    -0.354 N 
ATOM     31  C   UNL A   1      39.477  33.219  36.315  1.00  0.00     0.074 A 
ATOM     32  C   UNL A   1      38.430  34.203  36.491  1.00  0.00    -0.034 C 
ATOM     33  H   UNL A   1      36.702  34.719  35.353  1.00  0.00     0.065 H 
ATOM     34  C   UNL A   1      38.113  30.677  30.573  1.00  0.00    -0.036 A 
ATOM     35  H   UNL A   1      36.574  32.119  30.710  1.00  0.00     0.065 H 
ATOM     36  C   UNL A   1      39.226  30.340  31.454  1.00  0.00     0.049 A 
ATOM     37  H   UNL A   1      39.674  31.168  33.312  1.00  0.00     0.167 HD
ATOM     38  C   UNL A   1      40.464  32.977  37.212  1.00  0.00     0.037 A 
ATOM     39  H   UNL A   1      38.365  34.846  37.295  1.00  0.00     0.065 H 
ATOM     40  H   UNL A   1      37.909  30.227  29.667  1.00  0.00     0.065 H 
ATOM     41  C   UNL A   1      40.172  29.419  31.193  1.00  0.00     0.037 A 
ATOM     42  C   UNL A   1      41.493  31.981  37.042  1.00  0.00     0.049 A 
ATOM     43  C   UNL A   1      41.263  29.182  32.196  1.00  0.00     0.074 A 
ATOM     44  C   UNL A   1      42.508  31.629  37.914  1.00  0.00    -0.036 A 
ATOM     45  N   UNL A   1      41.640  31.183  35.916  1.00  0.00    -0.354 N 
ATOM     46  N   UNL A   1      41.443  29.740  33.368  1.00  0.00    -0.248 NA
ATOM     47  C   UNL A   1      42.283  28.189  31.838  1.00  0.00    -0.034 C 
ATOM     48  C   UNL A   1      43.297  30.651  37.298  1.00  0.00    -0.036 A 
ATOM     49  H   UNL A   1      42.658  32.021  38.856  1.00  0.00     0.065 H 
ATOM     50  C   UNL A   1      42.745  30.357  36.062  1.00  0.00     0.049 A 
ATOM     51  H   UNL A   1      41.049  31.201  35.129  1.00  0.00     0.167 HD
ATOM     52  C   UNL A   1      42.582  29.153  33.897  1.00  0.00     0.074 A 
ATOM     53  C   UNL A   1      43.044  28.185  32.923  1.00  0.00    -0.034 C 
ATOM     54  H   UNL A   1      42.382  27.639  30.970  1.00  0.00     0.065 H 
ATOM     55  H   UNL A   1      44.146  30.221  37.697  1.00  0.00     0.065 H 
ATOM     56  C   UNL A   1      43.190  29.396  35.085  1.00  0.00     0.037 A 
ATOM     57  H   UNL A   1      43.861  27.570  33.058  1.00  0.00     0.065 H 
BRANCH  38  58
ATOM     58  C   UNL A   1      40.494  33.820  38.455  1.00  0.00     0.064 A 
ATOM     59  C   UNL A   1      39.754  33.481  39.597  1.00  0.00     0.173 A 
ATOM     60  C   UNL A   1      41.298  34.968  38.513  1.00  0.00     0.173 A 
ATOM     61  F   UNL A   1      38.962  32.399  39.592  1.00  0.00    -0.203 F 
ATOM     62  C   UNL A   1      39.795  34.277  40.741  1.00  0.00     0.198 A 
ATOM     63  C   UNL A   1      41.358  35.748  39.666  1.00  0.00     0.198 A 
ATOM     64  F   UNL A   1      42.033  35.334  37.452  1.00  0.00    -0.203 F 
ATOM     65  F   UNL A   1      39.041  33.960  41.802  1.00  0.00    -0.200 F 
ATOM     66  C   UNL A   1      40.599  35.406  40.775  1.00  0.00     0.200 A 
ATOM     67  F   UNL A   1      42.145  36.831  39.702  1.00  0.00    -0.200 F 
ATOM     68  F   UNL A   1      40.638  36.170  41.876  1.00  0.00    -0.200 F 
ENDBRANCH  38  58
BRANCH  41  69
ATOM     69  C   UNL A   1      40.102  28.640  29.931  1.00  0.00     0.064 A 
ATOM     70  C   UNL A   1      40.692  29.124  28.756  1.00  0.00     0.173 A 
ATOM     71  C   UNL A   1      39.477  27.386  29.882  1.00  0.00     0.173 A 
ATOM     72  F   UNL A   1      41.287  30.327  28.752  1.00  0.00    -0.203 F 
ATOM     73  C   UNL A   1      40.656  28.383  27.577  1.00  0.00     0.198 A 
ATOM     74  C   UNL A   1      39.464  26.635  28.710  1.00  0.00     0.198 A 
ATOM     75  F   UNL A   1      38.903  26.879  30.982  1.00  0.00    -0.203 F 
ATOM     76  F   UNL A   1      41.205  28.880  26.460  1.00  0.00    -0.200 F 
ATOM     77  C   UNL A   1      40.050  27.136  27.556  1.00  0.00     0.200 A 
ATOM     78  F   UNL A   1      38.892  25.423  28.698  1.00  0.00    -0.200 F 
ATOM     79  F   UNL A   1      40.028  26.418  26.426  1.00  0.00    -0.200 F 
ENDBRANCH  41  69
BRANCH  56  80
ATOM     80  C   UNL A   1      44.403  28.574  35.409  1.00  0.00     0.064 A 
ATOM     81  C   UNL A   1      44.301  27.340  36.067  1.00  0.00     0.173 A 
ATOM     82  C   UNL A   1      45.681  29.017  35.036  1.00  0.00     0.173 A 
ATOM     83  F   UNL A   1      43.104  26.881  36.461  1.00  0.00    -0.203 F 
ATOM     84  C   UNL A   1      45.438  26.592  36.364  1.00  0.00     0.198 A 
ATOM     85  C   UNL A   1      46.812  28.255  35.310  1.00  0.00     0.198 A 
ATOM     86  F   UNL A   1      45.830  30.190  34.401  1.00  0.00    -0.203 F 
ATOM     87  F   UNL A   1      45.323  25.439  37.038  1.00  0.00    -0.200 F 
ATOM     88  C   UNL A   1      46.691  27.047  35.980  1.00  0.00     0.200 A 
ATOM     89  F   UNL A   1      48.020  28.692  34.930  1.00  0.00    -0.200 F 
ATOM     90  F   UNL A   1      47.784  26.325  36.265  1.00  0.00    -0.200 F 
ENDBRANCH  56  80
ENDBRANCH  21  24
ENDBRANCH  12  14
ENDBRANCH   7  10
ENDBRANCH   4   7
ENDBRANCH   1   4
BRANCH   1  91
ATOM     91  C   UNL A   1      34.461  31.902  28.840  1.00  0.00    -0.052 C 
ATOM     92  H   UNL A   1      33.612  31.622  29.429  1.00  0.00     0.027 H 
ATOM     93  H   UNL A   1      35.392  31.487  29.168  1.00  0.00     0.027 H 
BRANCH  91  94
ATOM     94  C   UNL A   1      34.247  31.342  27.426  1.00  0.00    -0.036 C 
ATOM     95  H   UNL A   1      35.080  31.641  26.825  1.00  0.00     0.028 H 
ATOM     96  H   UNL A   1      33.310  31.736  27.094  1.00  0.00     0.028 H 
BRANCH  94  97
ATOM     97  C   UNL A   1      34.120  29.823  27.332  1.00  0.00     0.017 C 
ATOM     98  H   UNL A   1      34.802  29.381  28.027  1.00  0.00     0.049 H 
ATOM     99  H   UNL A   1      34.341  29.548  26.323  1.00  0.00     0.049 H 
BRANCH  97 100
ATOM    100  N   UNL A   1      32.787  29.346  27.626  1.00  0.00    -0.354 N 
ATOM    101  C   UNL A   1      32.190  28.137  27.448  1.00  0.00     0.249 C 
ATOM    102  H   UNL A   1      32.202  30.025  28.033  1.00  0.00     0.163 HD
ATOM    103  O   UNL A   1      31.028  28.069  27.871  1.00  0.00    -0.272 OA
BRANCH 101 104
ATOM    104  C   UNL A   1      32.847  26.923  26.731  1.00  0.00     0.140 C 
ATOM    105  C   UNL A   1      32.071  25.637  26.516  1.00  0.00     0.019 C 
ATOM    106  O   UNL A   1      33.320  27.336  25.437  1.00  0.00    -0.357 OA
ATOM    107  H   UNL A   1      33.594  26.652  27.448  1.00  0.00     0.071 H 
ATOM    108  C   UNL A   1      32.007  25.379  25.006  1.00  0.00     0.124 C 
ATOM    109  H   UNL A   1      31.082  25.738  26.911  1.00  0.00     0.033 H 
ATOM    110  H   UNL A   1      32.551  24.821  27.015  1.00  0.00     0.033 H 
ATOM    111  C   UNL A   1      32.534  26.709  24.405  1.00  0.00     0.118 C 
ATOM    112  H   UNL A   1      33.067  26.419  23.524  1.00  0.00     0.069 H 
BRANCH 108 113
ATOM    113  C   UNL A   1      32.653  24.010  24.712  1.00  0.00     0.005 A 
ATOM    114  C   UNL A   1      31.746  22.975  24.342  1.00  0.00    -0.055 A 
ATOM    115  C   UNL A   1      34.009  23.638  24.790  1.00  0.00     0.047 A 
ATOM    116  C   UNL A   1      32.155  21.678  24.027  1.00  0.00    -0.062 A 
ATOM    117  H   UNL A   1      30.738  23.195  24.304  1.00  0.00     0.063 H 
ATOM    118  C   UNL A   1      34.419  22.337  24.435  1.00  0.00    -0.043 A 
ATOM    119  Cl  UNL A   1      35.289  24.632  25.376  1.00  0.00    -0.084 Cl
ATOM    120  C   UNL A   1      33.502  21.363  24.055  1.00  0.00    -0.061 A 
ATOM    121  H   UNL A   1      31.458  20.960  23.775  1.00  0.00     0.062 H 
ATOM    122  H   UNL A   1      35.424  22.102  24.458  1.00  0.00     0.064 H 
ATOM    123  H   UNL A   1      33.822  20.416  23.796  1.00  0.00     0.062 H 
ENDBRANCH 108 113
BRANCH 108 124
ATOM    124  O   UNL A   1      30.611  25.211  24.662  1.00  0.00    -0.382 OA
ATOM    125  H   UNL A   1      30.406  24.266  24.595  1.00  0.00     0.212 HD
ENDBRANCH 108 124
BRANCH 111 126
ATOM    126  C   UNL A   1      31.535  27.728  23.848  1.00  0.00     0.003 A 
ATOM    127  C   UNL A   1      31.097  28.818  24.624  1.00  0.00    -0.055 A 
ATOM    128  C   UNL A   1      31.049  27.652  22.526  1.00  0.00     0.046 A 
ATOM    129  C   UNL A   1      30.278  29.821  24.096  1.00  0.00    -0.062 A 
ATOM    130  H   UNL A   1      31.388  28.878  25.613  1.00  0.00     0.063 H 
ATOM    131  C   UNL A   1      30.217  28.652  22.001  1.00  0.00    -0.043 A 
ATOM    132  Cl  UNL A   1      31.403  26.328  21.467  1.00  0.00    -0.084 Cl
ATOM    133  C   UNL A   1      29.847  29.744  22.779  1.00  0.00    -0.061 A 
ATOM    134  H   UNL A   1      29.996  30.619  24.686  1.00  0.00     0.062 H 
ATOM    135  H   UNL A   1      29.877  28.577  21.029  1.00  0.00     0.064 H 
ATOM    136  H   UNL A   1      29.256  30.491  22.381  1.00  0.00     0.062 H 
ENDBRANCH 111 126
ENDBRANCH 101 104
ENDBRANCH  97 100
ENDBRANCH  94  97
ENDBRANCH  91  94
ENDBRANCH   1  91
TORSDOF 16
ENDMDL
MODEL 7
REMARK VINA RESULT:     -12.2      2.375      4.211
REMARK SMILES O=C(NCCCCCCNC(=O)[C@H]1C[C@](O)(c2ccccc2Cl)[C@@H](c2ccccc2Cl)O1)c1ccc(-c2c3nc(c(-c4c(F)c(F)c(F)c(F)c4F)c4ccc([nH]4)c(-c4c(F)c(F)c(F)c(F)c4F)c4nc(c(-c5c(F)c(F)c(F)c(F)c5F)c5ccc2[nH]5)C=C4)C=C3)cc1
REMARK SMILES IDX 6 1 5 4 4 7 3 10 1 11 2 12 33 14 34 15 95 16 35 17 94 19
REMARK SMILES IDX 36 21 37 24 38 25 88 26 39 27 93 28 87 29 89 30 40 31 92 32
REMARK SMILES IDX 86 34 85 36 41 38 73 41 53 42 72 43 54 44 57 45 71 46 90 47
REMARK SMILES IDX 55 48 56 50 70 52 91 53 58 56 42 58 43 59 51 60 44 61 45 62
REMARK SMILES IDX 49 63 52 64 46 65 47 66 50 67 48 68 74 69 75 70 83 71 76 72
REMARK SMILES IDX 77 73 81 74 84 75 78 76 79 77 82 78 80 79 59 80 60 81 68 82
REMARK SMILES IDX 61 83 62 84 66 85 69 86 63 87 64 88 67 89 65 90 7 91 8 94
REMARK SMILES IDX 9 97 10 100 11 101 12 103 13 104 14 105 32 106 15 108 24 111
REMARK SMILES IDX 17 113 18 114 22 115 19 116 21 118 23 119 20 120 16 124
REMARK SMILES IDX 25 126 26 127 30 128 27 129 29 131 31 132 28 133
REMARK H PARENT 6 2 6 3 5 5 5 6 4 8 4 9 3 13 34 18 95 20 35 22 94 23 93 33
REMARK H PARENT 87 35 89 37 92 39 86 40 54 49 57 51 90 54 55 55 91 57 7 92
REMARK H PARENT 7 93 8 95 8 96 9 98 9 99 10 102 13 107 14 109 14 110 24 112
REMARK H PARENT 18 117 19 121 21 122 20 123 16 125 26 130 27 134 29 135 28 136
REMARK Flexibility Score: inf
ROOT
ATOM      1  C   UNL A   1      31.417  30.998  25.799  1.00  0.00    -0.052 C 
ATOM      2  H   UNL A   1      32.189  31.312  25.128  1.00  0.00     0.027 H 
ATOM      3  H   UNL A   1      30.441  30.943  25.362  1.00  0.00     0.027 H 
ENDROOT
BRANCH   1   4
ATOM      4  C   UNL A   1      31.306  32.050  26.904  1.00  0.00    -0.036 C 
ATOM      5  H   UNL A   1      30.529  32.732  26.628  1.00  0.00     0.028 H 
ATOM      6  H   UNL A   1      31.112  31.501  27.802  1.00  0.00     0.028 H 
BRANCH   4   7
ATOM      7  C   UNL A   1      32.562  32.864  27.185  1.00  0.00     0.018 C 
ATOM      8  H   UNL A   1      33.128  32.359  27.941  1.00  0.00     0.049 H 
ATOM      9  H   UNL A   1      33.092  32.945  26.260  1.00  0.00     0.049 H 
BRANCH   7  10
ATOM     10  N   UNL A   1      32.299  34.216  27.640  1.00  0.00    -0.352 N 
ATOM     11  O   UNL A   1      32.567  36.073  28.896  1.00  0.00    -0.269 OA
ATOM     12  C   UNL A   1      32.969  34.960  28.587  1.00  0.00     0.251 C 
ATOM     13  H   UNL A   1      31.534  34.666  27.212  1.00  0.00     0.163 HD
BRANCH  12  14
ATOM     14  C   UNL A   1      34.156  34.391  29.266  1.00  0.00     0.039 A 
ATOM     15  C   UNL A   1      35.443  34.576  28.755  1.00  0.00    -0.049 A 
ATOM     16  C   UNL A   1      33.968  33.647  30.435  1.00  0.00    -0.049 A 
ATOM     17  C   UNL A   1      36.518  33.902  29.326  1.00  0.00    -0.053 A 
ATOM     18  H   UNL A   1      35.596  35.212  27.958  1.00  0.00     0.063 H 
ATOM     19  C   UNL A   1      35.061  33.034  31.054  1.00  0.00    -0.053 A 
ATOM     20  H   UNL A   1      33.024  33.553  30.841  1.00  0.00     0.063 H 
ATOM     21  C   UNL A   1      36.340  33.123  30.483  1.00  0.00    -0.014 A 
ATOM     22  H   UNL A   1      37.454  33.973  28.898  1.00  0.00     0.063 H 
ATOM     23  H   UNL A   1      34.927  32.512  31.934  1.00  0.00     0.063 H 
BRANCH  21  24
ATOM     24  C   UNL A   1      37.507  32.442  31.098  1.00  0.00     0.031 A 
ATOM     25  C   UNL A   1      37.967  32.791  32.486  1.00  0.00     0.074 A 
ATOM     26  C   UNL A   1      38.141  31.482  30.400  1.00  0.00     0.049 A 
ATOM     27  N   UNL A   1      38.953  32.280  33.183  1.00  0.00    -0.248 NA
ATOM     28  C   UNL A   1      37.232  33.858  33.182  1.00  0.00    -0.034 C 
ATOM     29  C   UNL A   1      37.793  31.064  29.040  1.00  0.00    -0.036 A 
ATOM     30  N   UNL A   1      39.198  30.676  30.736  1.00  0.00    -0.354 N 
ATOM     31  C   UNL A   1      38.972  32.977  34.384  1.00  0.00     0.074 A 
ATOM     32  C   UNL A   1      37.913  33.961  34.314  1.00  0.00    -0.034 C 
ATOM     33  H   UNL A   1      36.403  34.387  32.869  1.00  0.00     0.065 H 
ATOM     34  C   UNL A   1      38.590  30.049  28.677  1.00  0.00    -0.036 A 
ATOM     35  H   UNL A   1      37.054  31.484  28.456  1.00  0.00     0.065 H 
ATOM     36  C   UNL A   1      39.537  29.780  29.753  1.00  0.00     0.049 A 
ATOM     37  H   UNL A   1      39.667  30.733  31.600  1.00  0.00     0.167 HD
ATOM     38  C   UNL A   1      39.793  32.803  35.448  1.00  0.00     0.037 A 
ATOM     39  H   UNL A   1      37.715  34.656  35.052  1.00  0.00     0.065 H 
ATOM     40  H   UNL A   1      38.540  29.538  27.781  1.00  0.00     0.065 H 
ATOM     41  C   UNL A   1      40.510  28.852  29.717  1.00  0.00     0.037 A 
ATOM     42  C   UNL A   1      40.832  31.807  35.521  1.00  0.00     0.049 A 
ATOM     43  C   UNL A   1      41.416  28.691  30.904  1.00  0.00     0.074 A 
ATOM     44  C   UNL A   1      41.685  31.522  36.573  1.00  0.00    -0.036 A 
ATOM     45  N   UNL A   1      41.166  30.937  34.492  1.00  0.00    -0.354 N 
ATOM     46  N   UNL A   1      41.397  29.326  32.049  1.00  0.00    -0.248 NA
ATOM     47  C   UNL A   1      42.479  27.685  30.790  1.00  0.00    -0.034 C 
ATOM     48  C   UNL A   1      42.563  30.511  36.166  1.00  0.00    -0.036 A 
ATOM     49  H   UNL A   1      41.675  31.977  37.499  1.00  0.00     0.065 H 
ATOM     50  C   UNL A   1      42.227  30.132  34.876  1.00  0.00     0.049 A 
ATOM     51  H   UNL A   1      40.716  30.898  33.617  1.00  0.00     0.167 HD
ATOM     52  C   UNL A   1      42.429  28.786  32.801  1.00  0.00     0.074 A 
ATOM     53  C   UNL A   1      43.045  27.759  31.986  1.00  0.00    -0.034 C 
ATOM     54  H   UNL A   1      42.722  27.080  29.989  1.00  0.00     0.065 H 
ATOM     55  H   UNL A   1      43.332  30.116  36.730  1.00  0.00     0.065 H 
ATOM     56  C   UNL A   1      42.828  29.112  34.055  1.00  0.00     0.037 A 
ATOM     57  H   UNL A   1      43.826  27.161  32.297  1.00  0.00     0.065 H 
BRANCH  38  58
ATOM     58  C   UNL A   1      39.615  33.727  36.619  1.00  0.00     0.064 A 
ATOM     59  C   UNL A   1      40.230  34.988  36.666  1.00  0.00     0.173 A 
ATOM     60  C   UNL A   1      38.795  33.359  37.696  1.00  0.00     0.173 A 
ATOM     61  F   UNL A   1      41.032  35.386  35.668  1.00  0.00    -0.203 F 
ATOM     62  C   UNL A   1      40.054  35.831  37.762  1.00  0.00     0.198 A 
ATOM     63  C   UNL A   1      38.599  34.215  38.777  1.00  0.00     0.198 A 
ATOM     64  F   UNL A   1      38.176  32.169  37.698  1.00  0.00    -0.203 F 
ATOM     65  F   UNL A   1      40.691  37.009  37.807  1.00  0.00    -0.200 F 
ATOM     66  C   UNL A   1      39.236  35.446  38.813  1.00  0.00     0.200 A 
ATOM     67  F   UNL A   1      37.798  33.846  39.786  1.00  0.00    -0.200 F 
ATOM     68  F   UNL A   1      39.067  36.258  39.865  1.00  0.00    -0.200 F 
ENDBRANCH  38  58
BRANCH  41  69
ATOM     69  C   UNL A   1      40.653  27.990  28.516  1.00  0.00     0.064 A 
ATOM     70  C   UNL A   1      40.008  26.749  28.444  1.00  0.00     0.173 A 
ATOM     71  C   UNL A   1      41.405  28.403  27.408  1.00  0.00     0.173 A 
ATOM     72  F   UNL A   1      39.291  26.305  29.488  1.00  0.00    -0.203 F 
ATOM     73  C   UNL A   1      40.114  25.950  27.308  1.00  0.00     0.198 A 
ATOM     74  C   UNL A   1      41.490  27.616  26.263  1.00  0.00     0.198 A 
ATOM     75  F   UNL A   1      42.037  29.586  27.428  1.00  0.00    -0.203 F 
ATOM     76  F   UNL A   1      39.509  24.755  27.274  1.00  0.00    -0.200 F 
ATOM     77  C   UNL A   1      40.847  26.387  26.215  1.00  0.00     0.200 A 
ATOM     78  F   UNL A   1      42.185  28.050  25.203  1.00  0.00    -0.200 F 
ATOM     79  F   UNL A   1      40.937  25.625  25.118  1.00  0.00    -0.200 F 
ENDBRANCH  41  69
BRANCH  56  80
ATOM     80  C   UNL A   1      43.966  28.324  34.633  1.00  0.00     0.064 A 
ATOM     81  C   UNL A   1      43.753  27.121  35.323  1.00  0.00     0.173 A 
ATOM     82  C   UNL A   1      45.288  28.766  34.475  1.00  0.00     0.173 A 
ATOM     83  F   UNL A   1      42.507  26.665  35.517  1.00  0.00    -0.203 F 
ATOM     84  C   UNL A   1      44.821  26.405  35.857  1.00  0.00     0.198 A 
ATOM     85  C   UNL A   1      46.355  28.034  34.986  1.00  0.00     0.198 A 
ATOM     86  F   UNL A   1      45.544  29.909  33.820  1.00  0.00    -0.203 F 
ATOM     87  F   UNL A   1      44.592  25.284  36.556  1.00  0.00    -0.200 F 
ATOM     88  C   UNL A   1      46.121  26.858  35.683  1.00  0.00     0.200 A 
ATOM     89  F   UNL A   1      47.610  28.468  34.809  1.00  0.00    -0.200 F 
ATOM     90  F   UNL A   1      47.148  26.166  36.196  1.00  0.00    -0.200 F 
ENDBRANCH  56  80
ENDBRANCH  21  24
ENDBRANCH  12  14
ENDBRANCH   7  10
ENDBRANCH   4   7
ENDBRANCH   1   4
BRANCH   1  91
ATOM     91  C   UNL A   1      31.740  29.569  26.245  1.00  0.00    -0.052 C 
ATOM     92  H   UNL A   1      31.821  28.966  25.365  1.00  0.00     0.027 H 
ATOM     93  H   UNL A   1      30.944  29.296  26.906  1.00  0.00     0.027 H 
BRANCH  91  94
ATOM     94  C   UNL A   1      33.025  29.369  27.062  1.00  0.00    -0.036 C 
ATOM     95  H   UNL A   1      32.800  28.709  27.873  1.00  0.00     0.028 H 
ATOM     96  H   UNL A   1      33.330  30.347  27.372  1.00  0.00     0.028 H 
BRANCH  94  97
ATOM     97  C   UNL A   1      34.209  28.785  26.294  1.00  0.00     0.017 C 
ATOM     98  H   UNL A   1      34.153  27.719  26.342  1.00  0.00     0.049 H 
ATOM     99  H   UNL A   1      35.100  29.160  26.751  1.00  0.00     0.049 H 
BRANCH  97 100
ATOM    100  N   UNL A   1      34.237  29.185  24.905  1.00  0.00    -0.354 N 
ATOM    101  C   UNL A   1      33.955  28.514  23.756  1.00  0.00     0.249 C 
ATOM    102  H   UNL A   1      34.511  30.120  24.764  1.00  0.00     0.163 HD
ATOM    103  O   UNL A   1      34.037  29.197  22.726  1.00  0.00    -0.272 OA
BRANCH 101 104
ATOM    104  C   UNL A   1      33.605  27.000  23.679  1.00  0.00     0.140 C 
ATOM    105  C   UNL A   1      33.033  26.274  24.882  1.00  0.00     0.019 C 
ATOM    106  O   UNL A   1      32.684  26.782  22.595  1.00  0.00    -0.357 OA
ATOM    107  H   UNL A   1      34.581  26.577  23.566  1.00  0.00     0.071 H 
ATOM    108  C   UNL A   1      31.662  25.719  24.483  1.00  0.00     0.124 C 
ATOM    109  H   UNL A   1      32.927  26.955  25.701  1.00  0.00     0.033 H 
ATOM    110  H   UNL A   1      33.685  25.482  25.187  1.00  0.00     0.033 H 
ATOM    111  C   UNL A   1      31.395  26.403  23.116  1.00  0.00     0.118 C 
ATOM    112  H   UNL A   1      30.857  25.676  22.546  1.00  0.00     0.069 H 
BRANCH 108 113
ATOM    113  C   UNL A   1      31.679  24.187  24.666  1.00  0.00     0.005 A 
ATOM    114  C   UNL A   1      30.911  23.697  25.763  1.00  0.00    -0.055 A 
ATOM    115  C   UNL A   1      32.371  23.215  23.919  1.00  0.00     0.047 A 
ATOM    116  C   UNL A   1      30.801  22.340  26.071  1.00  0.00    -0.062 A 
ATOM    117  H   UNL A   1      30.413  24.378  26.358  1.00  0.00     0.063 H 
ATOM    118  C   UNL A   1      32.225  21.845  24.213  1.00  0.00    -0.043 A 
ATOM    119  Cl  UNL A   1      33.501  23.538  22.659  1.00  0.00    -0.084 Cl
ATOM    120  C   UNL A   1      31.445  21.407  25.278  1.00  0.00    -0.061 A 
ATOM    121  H   UNL A   1      30.242  22.035  26.883  1.00  0.00     0.062 H 
ATOM    122  H   UNL A   1      32.708  21.149  23.622  1.00  0.00     0.064 H 
ATOM    123  H   UNL A   1      31.349  20.398  25.476  1.00  0.00     0.062 H 
ENDBRANCH 108 113
BRANCH 108 124
ATOM    124  O   UNL A   1      30.707  26.198  25.460  1.00  0.00    -0.382 OA
ATOM    125  H   UNL A   1      30.947  25.864  26.338  1.00  0.00     0.212 HD
ENDBRANCH 108 124
BRANCH 111 126
ATOM    126  C   UNL A   1      30.455  27.611  23.053  1.00  0.00     0.003 A 
ATOM    127  C   UNL A   1      30.929  28.883  22.678  1.00  0.00    -0.055 A 
ATOM    128  C   UNL A   1      29.074  27.498  23.317  1.00  0.00     0.046 A 
ATOM    129  C   UNL A   1      30.067  29.970  22.501  1.00  0.00    -0.062 A 
ATOM    130  H   UNL A   1      31.942  29.017  22.530  1.00  0.00     0.063 H 
ATOM    131  C   UNL A   1      28.213  28.593  23.152  1.00  0.00    -0.043 A 
ATOM    132  Cl  UNL A   1      28.341  26.036  23.887  1.00  0.00    -0.084 Cl
ATOM    133  C   UNL A   1      28.706  29.822  22.727  1.00  0.00    -0.061 A 
ATOM    134  H   UNL A   1      30.444  30.883  22.202  1.00  0.00     0.062 H 
ATOM    135  H   UNL A   1      27.205  28.485  23.347  1.00  0.00     0.064 H 
ATOM    136  H   UNL A   1      28.065  30.618  22.582  1.00  0.00     0.062 H 
ENDBRANCH 111 126
ENDBRANCH 101 104
ENDBRANCH  97 100
ENDBRANCH  94  97
ENDBRANCH  91  94
ENDBRANCH   1  91
TORSDOF 16
ENDMDL
MODEL 8
REMARK VINA RESULT:     -12.2      2.688      8.141
REMARK SMILES O=C(NCCCCCCNC(=O)[C@H]1C[C@](O)(c2ccccc2Cl)[C@@H](c2ccccc2Cl)O1)c1ccc(-c2c3nc(c(-c4c(F)c(F)c(F)c(F)c4F)c4ccc([nH]4)c(-c4c(F)c(F)c(F)c(F)c4F)c4nc(c(-c5c(F)c(F)c(F)c(F)c5F)c5ccc2[nH]5)C=C4)C=C3)cc1
REMARK SMILES IDX 6 1 5 4 4 7 3 10 1 11 2 12 33 14 34 15 95 16 35 17 94 19
REMARK SMILES IDX 36 21 37 24 38 25 88 26 39 27 93 28 87 29 89 30 40 31 92 32
REMARK SMILES IDX 86 34 85 36 41 38 73 41 53 42 72 43 54 44 57 45 71 46 90 47
REMARK SMILES IDX 55 48 56 50 70 52 91 53 58 56 42 58 43 59 51 60 44 61 45 62
REMARK SMILES IDX 49 63 52 64 46 65 47 66 50 67 48 68 74 69 75 70 83 71 76 72
REMARK SMILES IDX 77 73 81 74 84 75 78 76 79 77 82 78 80 79 59 80 60 81 68 82
REMARK SMILES IDX 61 83 62 84 66 85 69 86 63 87 64 88 67 89 65 90 7 91 8 94
REMARK SMILES IDX 9 97 10 100 11 101 12 103 13 104 14 105 32 106 15 108 24 111
REMARK SMILES IDX 17 113 18 114 22 115 19 116 21 118 23 119 20 120 16 124
REMARK SMILES IDX 25 126 26 127 30 128 27 129 29 131 31 132 28 133
REMARK H PARENT 6 2 6 3 5 5 5 6 4 8 4 9 3 13 34 18 95 20 35 22 94 23 93 33
REMARK H PARENT 87 35 89 37 92 39 86 40 54 49 57 51 90 54 55 55 91 57 7 92
REMARK H PARENT 7 93 8 95 8 96 9 98 9 99 10 102 13 107 14 109 14 110 24 112
REMARK H PARENT 18 117 19 121 21 122 20 123 16 125 26 130 27 134 29 135 28 136
REMARK Flexibility Score: inf
ROOT
ATOM      1  C   UNL A   1      34.841  33.764  29.039  1.00  0.00    -0.052 C 
ATOM      2  H   UNL A   1      34.922  33.560  30.086  1.00  0.00     0.027 H 
ATOM      3  H   UNL A   1      35.619  34.383  28.643  1.00  0.00     0.027 H 
ENDROOT
BRANCH   1   4
ATOM      4  C   UNL A   1      33.548  34.551  28.820  1.00  0.00    -0.036 C 
ATOM      5  H   UNL A   1      33.402  34.650  27.764  1.00  0.00     0.028 H 
ATOM      6  H   UNL A   1      32.785  33.992  29.319  1.00  0.00     0.028 H 
BRANCH   4   7
ATOM      7  C   UNL A   1      33.498  35.946  29.429  1.00  0.00     0.018 C 
ATOM      8  H   UNL A   1      34.455  36.160  29.858  1.00  0.00     0.049 H 
ATOM      9  H   UNL A   1      33.241  36.620  28.639  1.00  0.00     0.049 H 
BRANCH   7  10
ATOM     10  N   UNL A   1      32.490  36.103  30.462  1.00  0.00    -0.352 N 
ATOM     11  O   UNL A   1      31.552  35.862  32.501  1.00  0.00    -0.269 OA
ATOM     12  C   UNL A   1      32.528  35.705  31.779  1.00  0.00     0.251 C 
ATOM     13  H   UNL A   1      31.664  36.559  30.181  1.00  0.00     0.163 HD
BRANCH  12  14
ATOM     14  C   UNL A   1      33.740  35.041  32.314  1.00  0.00     0.039 A 
ATOM     15  C   UNL A   1      34.980  35.683  32.310  1.00  0.00    -0.049 A 
ATOM     16  C   UNL A   1      33.626  33.743  32.821  1.00  0.00    -0.049 A 
ATOM     17  C   UNL A   1      36.125  34.980  32.674  1.00  0.00    -0.053 A 
ATOM     18  H   UNL A   1      35.048  36.676  32.040  1.00  0.00     0.063 H 
ATOM     19  C   UNL A   1      34.765  33.064  33.261  1.00  0.00    -0.053 A 
ATOM     20  H   UNL A   1      32.701  33.288  32.871  1.00  0.00     0.063 H 
ATOM     21  C   UNL A   1      36.031  33.662  33.154  1.00  0.00    -0.014 A 
ATOM     22  H   UNL A   1      37.050  35.428  32.591  1.00  0.00     0.063 H 
ATOM     23  H   UNL A   1      34.677  32.118  33.664  1.00  0.00     0.063 H 
BRANCH  21  24
ATOM     24  C   UNL A   1      37.260  32.942  33.573  1.00  0.00     0.031 A 
ATOM     25  C   UNL A   1      37.903  31.919  32.679  1.00  0.00     0.074 A 
ATOM     26  C   UNL A   1      37.811  33.236  34.765  1.00  0.00     0.049 A 
ATOM     27  N   UNL A   1      38.989  31.213  32.878  1.00  0.00    -0.248 NA
ATOM     28  C   UNL A   1      37.237  31.643  31.397  1.00  0.00    -0.034 C 
ATOM     29  C   UNL A   1      37.272  34.203  35.723  1.00  0.00    -0.036 A 
ATOM     30  N   UNL A   1      38.948  32.765  35.370  1.00  0.00    -0.354 N 
ATOM     31  C   UNL A   1      39.123  30.396  31.764  1.00  0.00     0.074 A 
ATOM     32  C   UNL A   1      37.996  30.677  30.900  1.00  0.00    -0.034 C 
ATOM     33  H   UNL A   1      36.398  32.086  30.992  1.00  0.00     0.065 H 
ATOM     34  C   UNL A   1      38.102  34.288  36.773  1.00  0.00    -0.036 A 
ATOM     35  H   UNL A   1      36.395  34.733  35.610  1.00  0.00     0.065 H 
ATOM     36  C   UNL A   1      39.200  33.346  36.588  1.00  0.00     0.049 A 
ATOM     37  H   UNL A   1      39.529  32.078  34.968  1.00  0.00     0.167 HD
ATOM     38  C   UNL A   1      40.102  29.501  31.485  1.00  0.00     0.037 A 
ATOM     39  H   UNL A   1      37.807  30.186  30.012  1.00  0.00     0.065 H 
ATOM     40  H   UNL A   1      37.984  34.920  37.581  1.00  0.00     0.065 H 
ATOM     41  C   UNL A   1      40.199  33.135  37.465  1.00  0.00     0.037 A 
ATOM     42  C   UNL A   1      41.234  29.240  32.339  1.00  0.00     0.049 A 
ATOM     43  C   UNL A   1      41.262  32.127  37.138  1.00  0.00     0.074 A 
ATOM     44  C   UNL A   1      42.303  28.387  32.122  1.00  0.00    -0.036 A 
ATOM     45  N   UNL A   1      41.439  29.827  33.580  1.00  0.00    -0.354 N 
ATOM     46  N   UNL A   1      41.400  31.392  36.063  1.00  0.00    -0.248 NA
ATOM     47  C   UNL A   1      42.305  31.918  38.149  1.00  0.00    -0.034 C 
ATOM     48  C   UNL A   1      43.130  28.423  33.250  1.00  0.00    -0.036 A 
ATOM     49  H   UNL A   1      42.461  27.821  31.274  1.00  0.00     0.065 H 
ATOM     50  C   UNL A   1      42.603  29.335  34.151  1.00  0.00     0.049 A 
ATOM     51  H   UNL A   1      40.844  30.492  33.995  1.00  0.00     0.167 HD
ATOM     52  C   UNL A   1      42.555  30.648  36.256  1.00  0.00     0.074 A 
ATOM     53  C   UNL A   1      43.087  31.033  37.548  1.00  0.00    -0.034 C 
ATOM     54  H   UNL A   1      42.404  32.348  39.083  1.00  0.00     0.065 H 
ATOM     55  H   UNL A   1      43.986  27.864  33.389  1.00  0.00     0.065 H 
ATOM     56  C   UNL A   1      43.122  29.730  35.436  1.00  0.00     0.037 A 
ATOM     57  H   UNL A   1      43.964  30.665  37.947  1.00  0.00     0.065 H 
BRANCH  38  58
ATOM     58  C   UNL A   1      39.983  28.717  30.209  1.00  0.00     0.064 A 
ATOM     59  C   UNL A   1      40.493  29.199  28.994  1.00  0.00     0.173 A 
ATOM     60  C   UNL A   1      39.374  27.453  30.208  1.00  0.00     0.173 A 
ATOM     61  F   UNL A   1      41.076  30.405  28.937  1.00  0.00    -0.203 F 
ATOM     62  C   UNL A   1      40.372  28.457  27.821  1.00  0.00     0.198 A 
ATOM     63  C   UNL A   1      39.278  26.702  29.039  1.00  0.00     0.198 A 
ATOM     64  F   UNL A   1      38.877  26.941  31.343  1.00  0.00    -0.203 F 
ATOM     65  F   UNL A   1      40.823  28.959  26.663  1.00  0.00    -0.200 F 
ATOM     66  C   UNL A   1      39.769  27.208  27.845  1.00  0.00     0.200 A 
ATOM     67  F   UNL A   1      38.707  25.490  29.067  1.00  0.00    -0.200 F 
ATOM     68  F   UNL A   1      39.653  26.496  26.716  1.00  0.00    -0.200 F 
ENDBRANCH  38  58
BRANCH  41  69
ATOM     69  C   UNL A   1      40.243  33.922  38.723  1.00  0.00     0.064 A 
ATOM     70  C   UNL A   1      40.941  35.134  38.787  1.00  0.00     0.173 A 
ATOM     71  C   UNL A   1      39.562  33.496  39.873  1.00  0.00     0.173 A 
ATOM     72  F   UNL A   1      41.621  35.573  37.716  1.00  0.00    -0.203 F 
ATOM     73  C   UNL A   1      40.961  35.890  39.957  1.00  0.00     0.198 A 
ATOM     74  C   UNL A   1      39.561  34.265  41.033  1.00  0.00     0.198 A 
ATOM     75  F   UNL A   1      38.875  32.344  39.858  1.00  0.00    -0.203 F 
ATOM     76  F   UNL A   1      41.658  37.034  40.000  1.00  0.00    -0.200 F 
ATOM     77  C   UNL A   1      40.263  35.460  41.076  1.00  0.00     0.200 A 
ATOM     78  F   UNL A   1      38.872  33.854  42.107  1.00  0.00    -0.200 F 
ATOM     79  F   UNL A   1      40.271  36.195  42.195  1.00  0.00    -0.200 F 
ENDBRANCH  41  69
BRANCH  56  80
ATOM     80  C   UNL A   1      44.405  29.104  35.899  1.00  0.00     0.064 A 
ATOM     81  C   UNL A   1      45.651  29.671  35.598  1.00  0.00     0.173 A 
ATOM     82  C   UNL A   1      44.383  27.934  36.673  1.00  0.00     0.173 A 
ATOM     83  F   UNL A   1      45.725  30.780  34.846  1.00  0.00    -0.203 F 
ATOM     84  C   UNL A   1      46.832  29.074  36.032  1.00  0.00     0.198 A 
ATOM     85  C   UNL A   1      45.564  27.355  37.128  1.00  0.00     0.198 A 
ATOM     86  F   UNL A   1      43.216  27.354  36.990  1.00  0.00    -0.203 F 
ATOM     87  F   UNL A   1      48.015  29.605  35.692  1.00  0.00    -0.200 F 
ATOM     88  C   UNL A   1      46.787  27.920  36.802  1.00  0.00     0.200 A 
ATOM     89  F   UNL A   1      45.518  26.246  37.878  1.00  0.00    -0.200 F 
ATOM     90  F   UNL A   1      47.925  27.348  37.220  1.00  0.00    -0.200 F 
ENDBRANCH  56  80
ENDBRANCH  21  24
ENDBRANCH  12  14
ENDBRANCH   7  10
ENDBRANCH   4   7
ENDBRANCH   1   4
BRANCH   1  91
ATOM     91  C   UNL A   1      34.965  32.431  28.294  1.00  0.00    -0.052 C 
ATOM     92  H   UNL A   1      35.580  31.786  28.886  1.00  0.00     0.027 H 
ATOM     93  H   UNL A   1      35.370  32.684  27.337  1.00  0.00     0.027 H 
BRANCH  91  94
ATOM     94  C   UNL A   1      33.661  31.679  27.992  1.00  0.00    -0.036 C 
ATOM     95  H   UNL A   1      33.044  32.317  27.395  1.00  0.00     0.028 H 
ATOM     96  H   UNL A   1      33.238  31.433  28.943  1.00  0.00     0.028 H 
BRANCH  94  97
ATOM     97  C   UNL A   1      33.823  30.354  27.251  1.00  0.00     0.017 C 
ATOM     98  H   UNL A   1      34.696  29.860  27.623  1.00  0.00     0.049 H 
ATOM     99  H   UNL A   1      33.903  30.580  26.209  1.00  0.00     0.049 H 
BRANCH  97 100
ATOM    100  N   UNL A   1      32.689  29.471  27.413  1.00  0.00    -0.354 N 
ATOM    101  C   UNL A   1      32.479  28.177  27.051  1.00  0.00     0.249 C 
ATOM    102  H   UNL A   1      31.924  29.885  27.874  1.00  0.00     0.163 HD
ATOM    103  O   UNL A   1      31.387  27.713  27.402  1.00  0.00    -0.272 OA
BRANCH 101 104
ATOM    104  C   UNL A   1      33.475  27.320  26.216  1.00  0.00     0.140 C 
ATOM    105  C   UNL A   1      33.439  25.805  26.284  1.00  0.00     0.019 C 
ATOM    106  O   UNL A   1      33.351  27.670  24.827  1.00  0.00    -0.357 OA
ATOM    107  H   UNL A   1      34.400  27.574  26.691  1.00  0.00     0.071 H 
ATOM    108  C   UNL A   1      33.163  25.282  24.870  1.00  0.00     0.124 C 
ATOM    109  H   UNL A   1      32.663  25.489  26.949  1.00  0.00     0.033 H 
ATOM    110  H   UNL A   1      34.370  25.424  26.650  1.00  0.00     0.033 H 
ATOM    111  C   UNL A   1      32.778  26.569  24.094  1.00  0.00     0.118 C 
ATOM    112  H   UNL A   1      33.160  26.417  23.106  1.00  0.00     0.069 H 
BRANCH 108 113
ATOM    113  C   UNL A   1      34.328  24.363  24.449  1.00  0.00     0.005 A 
ATOM    114  C   UNL A   1      35.465  24.389  25.308  1.00  0.00    -0.055 A 
ATOM    115  C   UNL A   1      34.432  23.529  23.320  1.00  0.00     0.047 A 
ATOM    116  C   UNL A   1      36.604  23.612  25.091  1.00  0.00    -0.062 A 
ATOM    117  H   UNL A   1      35.445  25.012  26.131  1.00  0.00     0.063 H 
ATOM    118  C   UNL A   1      35.570  22.719  23.126  1.00  0.00    -0.043 A 
ATOM    119  Cl  UNL A   1      33.288  23.436  22.034  1.00  0.00    -0.084 Cl
ATOM    120  C   UNL A   1      36.649  22.757  24.004  1.00  0.00    -0.061 A 
ATOM    121  H   UNL A   1      37.407  23.675  25.735  1.00  0.00     0.062 H 
ATOM    122  H   UNL A   1      35.603  22.083  22.313  1.00  0.00     0.064 H 
ATOM    123  H   UNL A   1      37.472  22.155  23.846  1.00  0.00     0.062 H 
ENDBRANCH 108 113
BRANCH 108 124
ATOM    124  O   UNL A   1      32.013  24.406  24.958  1.00  0.00    -0.382 OA
ATOM    125  H   UNL A   1      31.831  24.023  24.085  1.00  0.00     0.212 HD
ENDBRANCH 108 124
BRANCH 111 126
ATOM    126  C   UNL A   1      31.301  26.865  23.818  1.00  0.00     0.003 A 
ATOM    127  C   UNL A   1      30.286  26.014  24.296  1.00  0.00    -0.055 A 
ATOM    128  C   UNL A   1      30.888  28.019  23.120  1.00  0.00     0.046 A 
ATOM    129  C   UNL A   1      28.931  26.328  24.156  1.00  0.00    -0.062 A 
ATOM    130  H   UNL A   1      30.550  25.132  24.764  1.00  0.00     0.063 H 
ATOM    131  C   UNL A   1      29.528  28.326  22.968  1.00  0.00    -0.043 A 
ATOM    132  Cl  UNL A   1      32.001  29.119  22.376  1.00  0.00    -0.084 Cl
ATOM    133  C   UNL A   1      28.551  27.491  23.501  1.00  0.00    -0.061 A 
ATOM    134  H   UNL A   1      28.213  25.694  24.540  1.00  0.00     0.062 H 
ATOM    135  H   UNL A   1      29.249  29.178  22.457  1.00  0.00     0.064 H 
ATOM    136  H   UNL A   1      27.552  27.734  23.409  1.00  0.00     0.062 H 
ENDBRANCH 111 126
ENDBRANCH 101 104
ENDBRANCH  97 100
ENDBRANCH  94  97
ENDBRANCH  91  94
ENDBRANCH   1  91
TORSDOF 16
ENDMDL
MODEL 9
REMARK VINA RESULT:     -12.2      5.209     10.702
REMARK SMILES O=C(NCCCCCCNC(=O)[C@H]1C[C@](O)(c2ccccc2Cl)[C@@H](c2ccccc2Cl)O1)c1ccc(-c2c3nc(c(-c4c(F)c(F)c(F)c(F)c4F)c4ccc([nH]4)c(-c4c(F)c(F)c(F)c(F)c4F)c4nc(c(-c5c(F)c(F)c(F)c(F)c5F)c5ccc2[nH]5)C=C4)C=C3)cc1
REMARK SMILES IDX 6 1 5 4 4 7 3 10 1 11 2 12 33 14 34 15 95 16 35 17 94 19
REMARK SMILES IDX 36 21 37 24 38 25 88 26 39 27 93 28 87 29 89 30 40 31 92 32
REMARK SMILES IDX 86 34 85 36 41 38 73 41 53 42 72 43 54 44 57 45 71 46 90 47
REMARK SMILES IDX 55 48 56 50 70 52 91 53 58 56 42 58 43 59 51 60 44 61 45 62
REMARK SMILES IDX 49 63 52 64 46 65 47 66 50 67 48 68 74 69 75 70 83 71 76 72
REMARK SMILES IDX 77 73 81 74 84 75 78 76 79 77 82 78 80 79 59 80 60 81 68 82
REMARK SMILES IDX 61 83 62 84 66 85 69 86 63 87 64 88 67 89 65 90 7 91 8 94
REMARK SMILES IDX 9 97 10 100 11 101 12 103 13 104 14 105 32 106 15 108 24 111
REMARK SMILES IDX 17 113 18 114 22 115 19 116 21 118 23 119 20 120 16 124
REMARK SMILES IDX 25 126 26 127 30 128 27 129 29 131 31 132 28 133
REMARK H PARENT 6 2 6 3 5 5 5 6 4 8 4 9 3 13 34 18 95 20 35 22 94 23 93 33
REMARK H PARENT 87 35 89 37 92 39 86 40 54 49 57 51 90 54 55 55 91 57 7 92
REMARK H PARENT 7 93 8 95 8 96 9 98 9 99 10 102 13 107 14 109 14 110 24 112
REMARK H PARENT 18 117 19 121 21 122 20 123 16 125 26 130 27 134 29 135 28 136
REMARK Flexibility Score: inf
ROOT
ATOM      1  C   UNL A   1      42.127  20.175  27.242  1.00  0.00    -0.052 C 
ATOM      2  H   UNL A   1      43.057  20.246  27.767  1.00  0.00     0.027 H 
ATOM      3  H   UNL A   1      41.306  19.829  27.834  1.00  0.00     0.027 H 
ENDROOT
BRANCH   1   4
ATOM      4  C   UNL A   1      42.298  19.129  26.138  1.00  0.00    -0.036 C 
ATOM      5  H   UNL A   1      41.626  18.323  26.347  1.00  0.00     0.028 H 
ATOM      6  H   UNL A   1      42.096  19.645  25.223  1.00  0.00     0.028 H 
BRANCH   4   7
ATOM      7  C   UNL A   1      43.694  18.542  25.978  1.00  0.00     0.018 C 
ATOM      8  H   UNL A   1      44.374  19.126  26.564  1.00  0.00     0.049 H 
ATOM      9  H   UNL A   1      43.641  17.524  26.302  1.00  0.00     0.049 H 
BRANCH   7  10
ATOM     10  N   UNL A   1      44.172  18.523  24.608  1.00  0.00    -0.352 N 
ATOM     11  O   UNL A   1      44.953  19.378  22.670  1.00  0.00    -0.269 OA
ATOM     12  C   UNL A   1      44.649  19.562  23.841  1.00  0.00     0.251 C 
ATOM     13  H   UNL A   1      44.153  17.644  24.165  1.00  0.00     0.163 HD
BRANCH  12  14
ATOM     14  C   UNL A   1      44.753  20.921  24.423  1.00  0.00     0.039 A 
ATOM     15  C   UNL A   1      44.158  22.023  23.804  1.00  0.00    -0.049 A 
ATOM     16  C   UNL A   1      45.472  21.089  25.610  1.00  0.00    -0.049 A 
ATOM     17  C   UNL A   1      44.403  23.304  24.289  1.00  0.00    -0.053 A 
ATOM     18  H   UNL A   1      43.538  21.887  22.992  1.00  0.00     0.063 H 
ATOM     19  C   UNL A   1      45.652  22.369  26.140  1.00  0.00    -0.053 A 
ATOM     20  H   UNL A   1      45.869  20.268  26.095  1.00  0.00     0.063 H 
ATOM     21  C   UNL A   1      45.153  23.493  25.463  1.00  0.00    -0.014 A 
ATOM     22  H   UNL A   1      44.033  24.123  23.783  1.00  0.00     0.063 H 
ATOM     23  H   UNL A   1      46.156  22.490  27.033  1.00  0.00     0.063 H 
BRANCH  21  24
ATOM     24  C   UNL A   1      45.371  24.866  25.984  1.00  0.00     0.031 A 
ATOM     25  C   UNL A   1      46.714  25.534  25.875  1.00  0.00     0.074 A 
ATOM     26  C   UNL A   1      44.336  25.522  26.540  1.00  0.00     0.049 A 
ATOM     27  N   UNL A   1      47.073  26.734  26.257  1.00  0.00    -0.248 NA
ATOM     28  C   UNL A   1      47.799  24.749  25.266  1.00  0.00    -0.034 C 
ATOM     29  C   UNL A   1      42.989  24.974  26.711  1.00  0.00    -0.036 A 
ATOM     30  N   UNL A   1      44.247  26.791  27.051  1.00  0.00    -0.354 N 
ATOM     31  C   UNL A   1      48.425  26.841  25.958  1.00  0.00     0.074 A 
ATOM     32  C   UNL A   1      48.828  25.576  25.383  1.00  0.00    -0.034 C 
ATOM     33  H   UNL A   1      47.766  23.804  24.855  1.00  0.00     0.065 H 
ATOM     34  C   UNL A   1      42.197  25.916  27.244  1.00  0.00    -0.036 A 
ATOM     35  H   UNL A   1      42.696  24.017  26.463  1.00  0.00     0.065 H 
ATOM     36  C   UNL A   1      42.991  27.113  27.500  1.00  0.00     0.049 A 
ATOM     37  H   UNL A   1      45.011  27.412  27.091  1.00  0.00     0.167 HD
ATOM     38  C   UNL A   1      49.249  27.902  26.141  1.00  0.00     0.037 A 
ATOM     39  H   UNL A   1      49.795  25.346  25.101  1.00  0.00     0.065 H 
ATOM     40  H   UNL A   1      41.189  25.812  27.439  1.00  0.00     0.065 H 
ATOM     41  C   UNL A   1      42.530  28.243  28.067  1.00  0.00     0.037 A 
ATOM     42  C   UNL A   1      48.838  29.167  26.696  1.00  0.00     0.049 A 
ATOM     43  C   UNL A   1      43.468  29.397  28.272  1.00  0.00     0.074 A 
ATOM     44  C   UNL A   1      49.587  30.316  26.878  1.00  0.00    -0.036 A 
ATOM     45  N   UNL A   1      47.562  29.445  27.168  1.00  0.00    -0.354 N 
ATOM     46  N   UNL A   1      44.733  29.501  27.946  1.00  0.00    -0.248 NA
ATOM     47  C   UNL A   1      42.914  30.589  28.925  1.00  0.00    -0.034 C 
ATOM     48  C   UNL A   1      48.779  31.275  27.500  1.00  0.00    -0.036 A 
ATOM     49  H   UNL A   1      50.573  30.445  26.602  1.00  0.00     0.065 H 
ATOM     50  C   UNL A   1      47.511  30.740  27.662  1.00  0.00     0.049 A 
ATOM     51  H   UNL A   1      46.806  28.815  27.154  1.00  0.00     0.167 HD
ATOM     52  C   UNL A   1      45.122  30.774  28.335  1.00  0.00     0.074 A 
ATOM     53  C   UNL A   1      43.954  31.411  28.908  1.00  0.00    -0.034 C 
ATOM     54  H   UNL A   1      41.965  30.747  29.299  1.00  0.00     0.065 H 
ATOM     55  H   UNL A   1      49.077  32.219  27.789  1.00  0.00     0.065 H 
ATOM     56  C   UNL A   1      46.340  31.361  28.226  1.00  0.00     0.037 A 
ATOM     57  H   UNL A   1      43.934  32.381  29.257  1.00  0.00     0.065 H 
BRANCH  38  58
ATOM     58  C   UNL A   1      50.692  27.733  25.756  1.00  0.00     0.064 A 
ATOM     59  C   UNL A   1      51.131  27.914  24.436  1.00  0.00     0.173 A 
ATOM     60  C   UNL A   1      51.652  27.415  26.728  1.00  0.00     0.173 A 
ATOM     61  F   UNL A   1      50.253  28.210  23.466  1.00  0.00    -0.203 F 
ATOM     62  C   UNL A   1      52.474  27.752  24.099  1.00  0.00     0.198 A 
ATOM     63  C   UNL A   1      52.998  27.280  26.393  1.00  0.00     0.198 A 
ATOM     64  F   UNL A   1      51.288  27.239  28.007  1.00  0.00    -0.203 F 
ATOM     65  F   UNL A   1      52.862  27.881  22.823  1.00  0.00    -0.200 F 
ATOM     66  C   UNL A   1      53.406  27.441  25.078  1.00  0.00     0.200 A 
ATOM     67  F   UNL A   1      53.898  26.991  27.342  1.00  0.00    -0.200 F 
ATOM     68  F   UNL A   1      54.696  27.286  24.752  1.00  0.00    -0.200 F 
ENDBRANCH  38  58
BRANCH  41  69
ATOM     69  C   UNL A   1      41.099  28.335  28.453  1.00  0.00     0.064 A 
ATOM     70  C   UNL A   1      40.667  27.898  29.711  1.00  0.00     0.173 A 
ATOM     71  C   UNL A   1      40.145  28.891  27.589  1.00  0.00     0.173 A 
ATOM     72  F   UNL A   1      41.543  27.343  30.565  1.00  0.00    -0.203 F 
ATOM     73  C   UNL A   1      39.332  28.009  30.091  1.00  0.00     0.198 A 
ATOM     74  C   UNL A   1      38.816  29.025  27.979  1.00  0.00     0.198 A 
ATOM     75  F   UNL A   1      40.512  29.329  26.376  1.00  0.00    -0.203 F 
ATOM     76  F   UNL A   1      38.939  27.558  31.290  1.00  0.00    -0.200 F 
ATOM     77  C   UNL A   1      38.409  28.580  29.228  1.00  0.00     0.200 A 
ATOM     78  F   UNL A   1      37.930  29.593  27.148  1.00  0.00    -0.200 F 
ATOM     79  F   UNL A   1      37.127  28.700  29.598  1.00  0.00    -0.200 F 
ENDBRANCH  41  69
BRANCH  56  80
ATOM     80  C   UNL A   1      46.458  32.777  28.707  1.00  0.00     0.064 A 
ATOM     81  C   UNL A   1      46.829  33.079  30.025  1.00  0.00     0.173 A 
ATOM     82  C   UNL A   1      46.218  33.846  27.830  1.00  0.00     0.173 A 
ATOM     83  F   UNL A   1      47.052  32.092  30.906  1.00  0.00    -0.203 F 
ATOM     84  C   UNL A   1      46.930  34.400  30.455  1.00  0.00     0.198 A 
ATOM     85  C   UNL A   1      46.346  35.165  28.256  1.00  0.00     0.198 A 
ATOM     86  F   UNL A   1      45.863  33.610  26.558  1.00  0.00    -0.203 F 
ATOM     87  F   UNL A   1      47.238  34.665  31.732  1.00  0.00    -0.200 F 
ATOM     88  C   UNL A   1      46.694  35.441  29.569  1.00  0.00     0.200 A 
ATOM     89  F   UNL A   1      46.126  36.169  27.396  1.00  0.00    -0.200 F 
ATOM     90  F   UNL A   1      46.793  36.712  29.984  1.00  0.00    -0.200 F 
ENDBRANCH  56  80
ENDBRANCH  21  24
ENDBRANCH  12  14
ENDBRANCH   7  10
ENDBRANCH   4   7
ENDBRANCH   1   4
BRANCH   1  91
ATOM     91  C   UNL A   1      41.737  21.586  26.792  1.00  0.00    -0.052 C 
ATOM     92  H   UNL A   1      41.798  21.614  25.724  1.00  0.00     0.027 H 
ATOM     93  H   UNL A   1      42.419  22.238  27.298  1.00  0.00     0.027 H 
BRANCH  91  94
ATOM     94  C   UNL A   1      40.339  22.081  27.190  1.00  0.00    -0.036 C 
ATOM     95  H   UNL A   1      40.401  23.134  27.368  1.00  0.00     0.028 H 
ATOM     96  H   UNL A   1      40.061  21.512  28.052  1.00  0.00     0.028 H 
BRANCH  94  97
ATOM     97  C   UNL A   1      39.238  21.841  26.159  1.00  0.00     0.017 C 
ATOM     98  H   UNL A   1      38.685  20.973  26.447  1.00  0.00     0.049 H 
ATOM     99  H   UNL A   1      39.714  21.716  25.209  1.00  0.00     0.049 H 
BRANCH  97 100
ATOM    100  N   UNL A   1      38.323  22.954  26.037  1.00  0.00    -0.354 N 
ATOM    101  C   UNL A   1      37.095  23.068  25.463  1.00  0.00     0.249 C 
ATOM    102  H   UNL A   1      38.650  23.786  26.449  1.00  0.00     0.163 HD
ATOM    103  O   UNL A   1      36.566  24.180  25.595  1.00  0.00    -0.272 OA
BRANCH 101 104
ATOM    104  C   UNL A   1      36.390  21.944  24.651  1.00  0.00     0.140 C 
ATOM    105  C   UNL A   1      35.541  20.899  25.350  1.00  0.00     0.019 C 
ATOM    106  O   UNL A   1      35.556  22.540  23.643  1.00  0.00    -0.357 OA
ATOM    107  H   UNL A   1      37.238  21.391  24.303  1.00  0.00     0.071 H 
ATOM    108  C   UNL A   1      34.121  20.996  24.782  1.00  0.00     0.124 C 
ATOM    109  H   UNL A   1      35.527  21.087  26.403  1.00  0.00     0.033 H 
ATOM    110  H   UNL A   1      35.943  19.920  25.190  1.00  0.00     0.033 H 
ATOM    111  C   UNL A   1      34.168  22.308  23.955  1.00  0.00     0.118 C 
ATOM    112  H   UNL A   1      33.526  22.129  23.119  1.00  0.00     0.069 H 
BRANCH 108 113
ATOM    113  C   UNL A   1      33.740  19.632  24.171  1.00  0.00     0.005 A 
ATOM    114  C   UNL A   1      34.516  18.525  24.624  1.00  0.00    -0.055 A 
ATOM    115  C   UNL A   1      32.756  19.338  23.209  1.00  0.00     0.047 A 
ATOM    116  C   UNL A   1      34.303  17.215  24.191  1.00  0.00    -0.062 A 
ATOM    117  H   UNL A   1      35.271  18.700  25.306  1.00  0.00     0.063 H 
ATOM    118  C   UNL A   1      32.521  18.009  22.803  1.00  0.00    -0.043 A 
ATOM    119  Cl  UNL A   1      31.800  20.498  22.367  1.00  0.00    -0.084 Cl
ATOM    120  C   UNL A   1      33.286  16.953  23.289  1.00  0.00    -0.061 A 
ATOM    121  H   UNL A   1      34.898  16.448  24.539  1.00  0.00     0.062 H 
ATOM    122  H   UNL A   1      31.764  17.814  22.129  1.00  0.00     0.064 H 
ATOM    123  H   UNL A   1      33.097  15.986  22.982  1.00  0.00     0.062 H 
ENDBRANCH 108 113
BRANCH 108 124
ATOM    124  O   UNL A   1      33.223  21.163  25.905  1.00  0.00    -0.382 OA
ATOM    125  H   UNL A   1      32.876  20.298  26.173  1.00  0.00     0.212 HD
ENDBRANCH 108 124
BRANCH 111 126
ATOM    126  C   UNL A   1      33.567  23.588  24.544  1.00  0.00     0.003 A 
ATOM    127  C   UNL A   1      33.411  23.746  25.935  1.00  0.00    -0.055 A 
ATOM    128  C   UNL A   1      33.191  24.679  23.733  1.00  0.00     0.046 A 
ATOM    129  C   UNL A   1      32.974  24.949  26.498  1.00  0.00    -0.062 A 
ATOM    130  H   UNL A   1      33.625  22.950  26.557  1.00  0.00     0.063 H 
ATOM    131  C   UNL A   1      32.739  25.880  24.299  1.00  0.00    -0.043 A 
ATOM    132  Cl  UNL A   1      33.220  24.620  22.002  1.00  0.00    -0.084 Cl
ATOM    133  C   UNL A   1      32.649  26.021  25.680  1.00  0.00    -0.061 A 
ATOM    134  H   UNL A   1      32.894  25.039  27.523  1.00  0.00     0.062 H 
ATOM    135  H   UNL A   1      32.473  26.667  23.686  1.00  0.00     0.064 H 
ATOM    136  H   UNL A   1      32.341  26.916  26.093  1.00  0.00     0.062 H 
ENDBRANCH 111 126
ENDBRANCH 101 104
ENDBRANCH  97 100
ENDBRANCH  94  97
ENDBRANCH  91  94
ENDBRANCH   1  91
TORSDOF 16
ENDMDL
MODEL 10
REMARK VINA RESULT:     -12.1      5.002     10.551
REMARK SMILES O=C(NCCCCCCNC(=O)[C@H]1C[C@](O)(c2ccccc2Cl)[C@@H](c2ccccc2Cl)O1)c1ccc(-c2c3nc(c(-c4c(F)c(F)c(F)c(F)c4F)c4ccc([nH]4)c(-c4c(F)c(F)c(F)c(F)c4F)c4nc(c(-c5c(F)c(F)c(F)c(F)c5F)c5ccc2[nH]5)C=C4)C=C3)cc1
REMARK SMILES IDX 6 1 5 4 4 7 3 10 1 11 2 12 33 14 34 15 95 16 35 17 94 19
REMARK SMILES IDX 36 21 37 24 38 25 88 26 39 27 93 28 87 29 89 30 40 31 92 32
REMARK SMILES IDX 86 34 85 36 41 38 73 41 53 42 72 43 54 44 57 45 71 46 90 47
REMARK SMILES IDX 55 48 56 50 70 52 91 53 58 56 42 58 43 59 51 60 44 61 45 62
REMARK SMILES IDX 49 63 52 64 46 65 47 66 50 67 48 68 74 69 75 70 83 71 76 72
REMARK SMILES IDX 77 73 81 74 84 75 78 76 79 77 82 78 80 79 59 80 60 81 68 82
REMARK SMILES IDX 61 83 62 84 66 85 69 86 63 87 64 88 67 89 65 90 7 91 8 94
REMARK SMILES IDX 9 97 10 100 11 101 12 103 13 104 14 105 32 106 15 108 24 111
REMARK SMILES IDX 17 113 18 114 22 115 19 116 21 118 23 119 20 120 16 124
REMARK SMILES IDX 25 126 26 127 30 128 27 129 29 131 31 132 28 133
REMARK H PARENT 6 2 6 3 5 5 5 6 4 8 4 9 3 13 34 18 95 20 35 22 94 23 93 33
REMARK H PARENT 87 35 89 37 92 39 86 40 54 49 57 51 90 54 55 55 91 57 7 92
REMARK H PARENT 7 93 8 95 8 96 9 98 9 99 10 102 13 107 14 109 14 110 24 112
REMARK H PARENT 18 117 19 121 21 122 20 123 16 125 26 130 27 134 29 135 28 136
REMARK Flexibility Score: inf
ROOT
ATOM      1  C   UNL A   1      40.766  21.127  26.966  1.00  0.00    -0.052 C 
ATOM      2  H   UNL A   1      41.595  21.362  27.599  1.00  0.00     0.027 H 
ATOM      3  H   UNL A   1      39.864  20.881  27.486  1.00  0.00     0.027 H 
ENDROOT
BRANCH   1   4
ATOM      4  C   UNL A   1      41.130  19.870  26.174  1.00  0.00    -0.036 C 
ATOM      5  H   UNL A   1      40.362  19.145  26.343  1.00  0.00     0.028 H 
ATOM      6  H   UNL A   1      41.219  20.189  25.157  1.00  0.00     0.028 H 
BRANCH   4   7
ATOM      7  C   UNL A   1      42.465  19.222  26.518  1.00  0.00     0.018 C 
ATOM      8  H   UNL A   1      43.048  19.927  27.075  1.00  0.00     0.049 H 
ATOM      9  H   UNL A   1      42.245  18.337  27.078  1.00  0.00     0.049 H 
BRANCH   7  10
ATOM     10  N   UNL A   1      43.235  18.807  25.360  1.00  0.00    -0.352 N 
ATOM     11  O   UNL A   1      44.661  19.035  23.625  1.00  0.00    -0.269 OA
ATOM     12  C   UNL A   1      44.147  19.527  24.621  1.00  0.00     0.251 C 
ATOM     13  H   UNL A   1      43.085  17.880  25.062  1.00  0.00     0.163 HD
BRANCH  12  14
ATOM     14  C   UNL A   1      44.473  20.919  25.006  1.00  0.00     0.039 A 
ATOM     15  C   UNL A   1      45.278  21.197  26.113  1.00  0.00    -0.049 A 
ATOM     16  C   UNL A   1      43.950  21.967  24.242  1.00  0.00    -0.049 A 
ATOM     17  C   UNL A   1      45.438  22.511  26.540  1.00  0.00    -0.053 A 
ATOM     18  H   UNL A   1      45.753  20.429  26.612  1.00  0.00     0.063 H 
ATOM     19  C   UNL A   1      44.177  23.291  24.627  1.00  0.00    -0.053 A 
ATOM     20  H   UNL A   1      43.398  21.762  23.394  1.00  0.00     0.063 H 
ATOM     21  C   UNL A   1      44.890  23.574  25.802  1.00  0.00    -0.014 A 
ATOM     22  H   UNL A   1      45.963  22.709  27.406  1.00  0.00     0.063 H 
ATOM     23  H   UNL A   1      43.817  24.064  24.045  1.00  0.00     0.063 H 
BRANCH  21  24
ATOM     24  C   UNL A   1      45.104  24.972  26.254  1.00  0.00     0.031 A 
ATOM     25  C   UNL A   1      46.444  25.638  26.112  1.00  0.00     0.074 A 
ATOM     26  C   UNL A   1      44.068  25.651  26.779  1.00  0.00     0.049 A 
ATOM     27  N   UNL A   1      46.800  26.857  26.434  1.00  0.00    -0.248 NA
ATOM     28  C   UNL A   1      47.532  24.829  25.541  1.00  0.00    -0.034 C 
ATOM     29  C   UNL A   1      42.723  25.107  26.978  1.00  0.00    -0.036 A 
ATOM     30  N   UNL A   1      43.975  26.943  27.227  1.00  0.00    -0.354 N 
ATOM     31  C   UNL A   1      48.151  26.954  26.129  1.00  0.00     0.074 A 
ATOM     32  C   UNL A   1      48.559  25.664  25.616  1.00  0.00    -0.034 C 
ATOM     33  H   UNL A   1      47.502  23.864  25.177  1.00  0.00     0.065 H 
ATOM     34  C   UNL A   1      41.928  26.072  27.464  1.00  0.00    -0.036 A 
ATOM     35  H   UNL A   1      42.433  24.138  26.777  1.00  0.00     0.065 H 
ATOM     36  C   UNL A   1      42.718  27.283  27.661  1.00  0.00     0.049 A 
ATOM     37  H   UNL A   1      44.736  27.568  27.236  1.00  0.00     0.167 HD
ATOM     38  C   UNL A   1      48.972  28.025  26.259  1.00  0.00     0.037 A 
ATOM     39  H   UNL A   1      49.526  25.424  25.345  1.00  0.00     0.065 H 
ATOM     40  H   UNL A   1      40.920  25.974  27.665  1.00  0.00     0.065 H 
ATOM     41  C   UNL A   1      42.253  28.438  28.172  1.00  0.00     0.037 A 
ATOM     42  C   UNL A   1      48.557  29.315  26.752  1.00  0.00     0.049 A 
ATOM     43  C   UNL A   1      43.188  29.603  28.319  1.00  0.00     0.074 A 
ATOM     44  C   UNL A   1      49.302  30.474  26.876  1.00  0.00    -0.036 A 
ATOM     45  N   UNL A   1      47.280  29.611  27.210  1.00  0.00    -0.354 N 
ATOM     46  N   UNL A   1      44.452  29.695  27.988  1.00  0.00    -0.248 NA
ATOM     47  C   UNL A   1      42.629  30.824  28.913  1.00  0.00    -0.034 C 
ATOM     48  C   UNL A   1      48.491  31.459  27.451  1.00  0.00    -0.036 A 
ATOM     49  H   UNL A   1      50.287  30.592  26.594  1.00  0.00     0.065 H 
ATOM     50  C   UNL A   1      47.225  30.928  27.640  1.00  0.00     0.049 A 
ATOM     51  H   UNL A   1      46.526  28.979  27.229  1.00  0.00     0.167 HD
ATOM     52  C   UNL A   1      44.837  30.987  28.313  1.00  0.00     0.074 A 
ATOM     53  C   UNL A   1      43.666  31.648  28.855  1.00  0.00    -0.034 C 
ATOM     54  H   UNL A   1      41.680  30.997  29.280  1.00  0.00     0.065 H 
ATOM     55  H   UNL A   1      48.785  32.418  27.694  1.00  0.00     0.065 H 
ATOM     56  C   UNL A   1      46.052  31.572  28.174  1.00  0.00     0.037 A 
ATOM     57  H   UNL A   1      43.644  32.634  29.157  1.00  0.00     0.065 H 
BRANCH  38  58
ATOM     58  C   UNL A   1      50.415  27.843  25.882  1.00  0.00     0.064 A 
ATOM     59  C   UNL A   1      50.852  27.957  24.553  1.00  0.00     0.173 A 
ATOM     60  C   UNL A   1      51.378  27.580  26.867  1.00  0.00     0.173 A 
ATOM     61  F   UNL A   1      49.972  28.198  23.570  1.00  0.00    -0.203 F 
ATOM     62  C   UNL A   1      52.195  27.783  24.223  1.00  0.00     0.198 A 
ATOM     63  C   UNL A   1      52.723  27.434  26.538  1.00  0.00     0.198 A 
ATOM     64  F   UNL A   1      51.016  27.470  28.154  1.00  0.00    -0.203 F 
ATOM     65  F   UNL A   1      52.581  27.847  22.942  1.00  0.00    -0.200 F 
ATOM     66  C   UNL A   1      53.129  27.527  25.216  1.00  0.00     0.200 A 
ATOM     67  F   UNL A   1      53.626  27.199  27.500  1.00  0.00    -0.200 F 
ATOM     68  F   UNL A   1      54.420  27.361  24.896  1.00  0.00    -0.200 F 
ENDBRANCH  38  58
BRANCH  41  69
ATOM     69  C   UNL A   1      40.822  28.543  28.555  1.00  0.00     0.064 A 
ATOM     70  C   UNL A   1      40.401  28.219  29.850  1.00  0.00     0.173 A 
ATOM     71  C   UNL A   1      39.857  29.001  27.647  1.00  0.00     0.173 A 
ATOM     72  F   UNL A   1      41.288  27.761  30.748  1.00  0.00    -0.203 F 
ATOM     73  C   UNL A   1      39.065  28.345  30.224  1.00  0.00     0.198 A 
ATOM     74  C   UNL A   1      38.527  29.150  28.028  1.00  0.00     0.198 A 
ATOM     75  F   UNL A   1      40.213  29.328  26.396  1.00  0.00    -0.203 F 
ATOM     76  F   UNL A   1      38.683  28.003  31.462  1.00  0.00    -0.200 F 
ATOM     77  C   UNL A   1      38.131  28.819  29.316  1.00  0.00     0.200 A 
ATOM     78  F   UNL A   1      37.629  29.624  27.152  1.00  0.00    -0.200 F 
ATOM     79  F   UNL A   1      36.849  28.953  29.679  1.00  0.00    -0.200 F 
ENDBRANCH  41  69
BRANCH  56  80
ATOM     80  C   UNL A   1      46.165  33.011  28.585  1.00  0.00     0.064 A 
ATOM     81  C   UNL A   1      46.543  33.378  29.885  1.00  0.00     0.173 A 
ATOM     82  C   UNL A   1      45.915  34.035  27.658  1.00  0.00     0.173 A 
ATOM     83  F   UNL A   1      46.775  32.437  30.812  1.00  0.00    -0.203 F 
ATOM     84  C   UNL A   1      46.639  34.719  30.249  1.00  0.00     0.198 A 
ATOM     85  C   UNL A   1      46.038  35.373  28.019  1.00  0.00     0.198 A 
ATOM     86  F   UNL A   1      45.554  33.735  26.401  1.00  0.00    -0.203 F 
ATOM     87  F   UNL A   1      46.953  35.048  31.510  1.00  0.00    -0.200 F 
ATOM     88  C   UNL A   1      46.393  35.715  29.315  1.00  0.00     0.200 A 
ATOM     89  F   UNL A   1      45.809  36.333  27.113  1.00  0.00    -0.200 F 
ATOM     90  F   UNL A   1      46.488  37.005  29.668  1.00  0.00    -0.200 F 
ENDBRANCH  56  80
ENDBRANCH  21  24
ENDBRANCH  12  14
ENDBRANCH   7  10
ENDBRANCH   4   7
ENDBRANCH   1   4
BRANCH   1  91
ATOM     91  C   UNL A   1      40.434  22.378  26.148  1.00  0.00    -0.052 C 
ATOM     92  H   UNL A   1      40.722  22.188  25.135  1.00  0.00     0.027 H 
ATOM     93  H   UNL A   1      40.968  23.173  26.625  1.00  0.00     0.027 H 
BRANCH  91  94
ATOM     94  C   UNL A   1      38.967  22.832  26.135  1.00  0.00    -0.036 C 
ATOM     95  H   UNL A   1      38.888  23.671  25.476  1.00  0.00     0.028 H 
ATOM     96  H   UNL A   1      38.721  23.056  27.152  1.00  0.00     0.028 H 
BRANCH  94  97
ATOM     97  C   UNL A   1      37.957  21.780  25.682  1.00  0.00     0.017 C 
ATOM     98  H   UNL A   1      37.165  21.738  26.399  1.00  0.00     0.049 H 
ATOM     99  H   UNL A   1      38.479  20.850  25.606  1.00  0.00     0.049 H 
BRANCH  97 100
ATOM    100  N   UNL A   1      37.389  22.062  24.382  1.00  0.00    -0.354 N 
ATOM    101  C   UNL A   1      36.444  22.949  23.971  1.00  0.00     0.249 C 
ATOM    102  H   UNL A   1      37.757  21.506  23.658  1.00  0.00     0.163 HD
ATOM    103  O   UNL A   1      36.236  22.953  22.751  1.00  0.00    -0.272 OA
BRANCH 101 104
ATOM    104  C   UNL A   1      35.624  23.870  24.920  1.00  0.00     0.140 C 
ATOM    105  C   UNL A   1      34.783  25.004  24.364  1.00  0.00     0.019 C 
ATOM    106  O   UNL A   1      34.742  23.062  25.719  1.00  0.00    -0.357 OA
ATOM    107  H   UNL A   1      36.414  24.371  25.441  1.00  0.00     0.071 H 
ATOM    108  C   UNL A   1      33.329  24.752  24.777  1.00  0.00     0.124 C 
ATOM    109  H   UNL A   1      34.861  25.026  23.297  1.00  0.00     0.033 H 
ATOM    110  H   UNL A   1      35.124  25.945  24.744  1.00  0.00     0.033 H 
ATOM    111  C   UNL A   1      33.374  23.306  25.337  1.00  0.00     0.118 C 
ATOM    112  H   UNL A   1      32.659  23.298  26.133  1.00  0.00     0.069 H 
BRANCH 108 113
ATOM    113  C   UNL A   1      32.836  25.958  25.604  1.00  0.00     0.005 A 
ATOM    114  C   UNL A   1      33.820  26.954  25.875  1.00  0.00    -0.055 A 
ATOM    115  C   UNL A   1      31.560  26.193  26.150  1.00  0.00     0.047 A 
ATOM    116  C   UNL A   1      33.550  28.118  26.595  1.00  0.00    -0.062 A 
ATOM    117  H   UNL A   1      34.779  26.806  25.521  1.00  0.00     0.063 H 
ATOM    118  C   UNL A   1      31.284  27.388  26.844  1.00  0.00    -0.043 A 
ATOM    119  Cl  UNL A   1      30.241  25.085  26.126  1.00  0.00    -0.084 Cl
ATOM    120  C   UNL A   1      32.269  28.346  27.066  1.00  0.00    -0.061 A 
ATOM    121  H   UNL A   1      34.299  28.804  26.776  1.00  0.00     0.062 H 
ATOM    122  H   UNL A   1      30.328  27.557  27.197  1.00  0.00     0.064 H 
ATOM    123  H   UNL A   1      32.046  29.216  27.574  1.00  0.00     0.062 H 
ENDBRANCH 108 113
BRANCH 108 124
ATOM    124  O   UNL A   1      32.532  24.781  23.569  1.00  0.00    -0.382 OA
ATOM    125  H   UNL A   1      32.313  25.699  23.348  1.00  0.00     0.212 HD
ENDBRANCH 108 124
BRANCH 111 126
ATOM    126  C   UNL A   1      32.883  22.148  24.463  1.00  0.00     0.003 A 
ATOM    127  C   UNL A   1      32.456  22.366  23.139  1.00  0.00    -0.055 A 
ATOM    128  C   UNL A   1      32.882  20.814  24.920  1.00  0.00     0.046 A 
ATOM    129  C   UNL A   1      32.116  21.309  22.288  1.00  0.00    -0.062 A 
ATOM    130  H   UNL A   1      32.391  23.334  22.785  1.00  0.00     0.063 H 
ATOM    131  C   UNL A   1      32.528  19.757  24.070  1.00  0.00    -0.043 A 
ATOM    132  Cl  UNL A   1      33.278  20.377  26.549  1.00  0.00    -0.084 Cl
ATOM    133  C   UNL A   1      32.163  20.002  22.751  1.00  0.00    -0.061 A 
ATOM    134  H   UNL A   1      31.831  21.503  21.315  1.00  0.00     0.062 H 
ATOM    135  H   UNL A   1      32.539  18.788  24.426  1.00  0.00     0.064 H 
ATOM    136  H   UNL A   1      31.928  19.219  22.121  1.00  0.00     0.062 H 
ENDBRANCH 111 126
ENDBRANCH 101 104
ENDBRANCH  97 100
ENDBRANCH  94  97
ENDBRANCH  91  94
ENDBRANCH   1  91
TORSDOF 16
ENDMDL
