MODEL 1
REMARK VINA RESULT:     -11.7      0.000      0.000
REMARK SMILES [NH3+][C@@H](Cc1c[nH]c2ccccc12)C(=O)N[C@@H](CS)C(=O)N[C@@H](CO)C(=O)NCCCCCCNC(=O)c1ccc(-c2c3nc(c(-c4c(F)c(F)c(F)c(F)c4F)c4ccc([nH]4)c(-c4c(F)c(F)c(F)c(F)c4F)c4nc(c(-c5c(F)c(F)c(F)c(F)c5F)c5ccc2[nH]5)C=C4)C=C3)cc1
REMARK SMILES IDX 28 1 27 4 25 5 26 6 22 8 21 10 19 11 20 12 16 14 15 16 13 17
REMARK SMILES IDX 14 18 2 20 1 22 3 26 4 29 5 30 12 31 6 32 7 34 11 35 8 37
REMARK SMILES IDX 10 38 9 40 17 44 18 47 23 49 24 52 29 54 30 57 31 60 32 63
REMARK SMILES IDX 33 66 34 69 35 70 36 72 37 73 38 74 99 75 39 76 98 78 40 80
REMARK SMILES IDX 41 83 42 84 92 85 43 86 97 87 91 88 93 89 44 90 96 91 90 93
REMARK SMILES IDX 89 95 45 97 77 100 57 101 76 102 58 103 61 104 75 105 94 106
REMARK SMILES IDX 59 107 60 109 74 111 95 112 62 115 46 117 47 118 55 119
REMARK SMILES IDX 48 120 49 121 53 122 56 123 50 124 51 125 54 126 52 127
REMARK SMILES IDX 78 128 79 129 87 130 80 131 81 132 85 133 88 134 82 135
REMARK SMILES IDX 83 136 86 137 84 138 63 139 64 140 72 141 65 142 66 143
REMARK SMILES IDX 70 144 73 145 67 146 68 147 71 148 69 149
REMARK H PARENT 28 2 28 3 27 7 22 9 21 13 16 15 15 19 2 21 1 23 1 24 1 25 3 27
REMARK H PARENT 3 28 5 33 6 36 11 39 8 41 10 42 9 43 17 45 17 46 18 48 23 50
REMARK H PARENT 23 51 24 53 29 55 29 56 30 58 30 59 31 61 31 62 32 64 32 65
REMARK H PARENT 33 67 33 68 34 71 38 77 99 79 39 81 98 82 97 92 91 94 93 96
REMARK H PARENT 96 98 90 99 58 108 61 110 94 113 59 114 95 116
REMARK Flexibility Score: inf
ROOT
ATOM      1  C   UNL A   1      32.600  27.312  25.803  1.00  0.00     0.017 C 
ATOM      2  H   UNL A   1      33.279  26.808  25.146  1.00  0.00     0.049 H 
ATOM      3  H   UNL A   1      32.732  26.989  26.814  1.00  0.00     0.049 H 
ENDROOT
BRANCH   1   4
ATOM      4  N   UNL A   1      31.244  26.999  25.403  1.00  0.00    -0.354 N 
ATOM      5  C   UNL A   1      30.659  26.965  24.175  1.00  0.00     0.244 C 
ATOM      6  O   UNL A   1      29.579  26.374  24.081  1.00  0.00    -0.273 OA
ATOM      7  H   UNL A   1      30.641  26.771  26.148  1.00  0.00     0.163 HD
BRANCH   5   8
ATOM      8  C   UNL A   1      31.331  27.561  22.936  1.00  0.00     0.131 C 
ATOM      9  H   UNL A   1      32.310  27.878  23.229  1.00  0.00     0.066 H 
BRANCH   8  10
ATOM     10  N   UNL A   1      31.514  26.554  21.896  1.00  0.00    -0.340 N 
ATOM     11  C   UNL A   1      32.605  25.778  21.745  1.00  0.00     0.244 C 
ATOM     12  O   UNL A   1      33.176  25.898  20.656  1.00  0.00    -0.273 OA
ATOM     13  H   UNL A   1      30.781  26.432  21.252  1.00  0.00     0.164 HD
BRANCH  11  14
ATOM     14  C   UNL A   1      33.169  24.914  22.887  1.00  0.00     0.117 C 
ATOM     15  H   UNL A   1      32.514  25.042  23.724  1.00  0.00     0.064 H 
BRANCH  14  16
ATOM     16  N   UNL A   1      33.104  23.517  22.513  1.00  0.00    -0.338 N 
ATOM     17  C   UNL A   1      32.212  22.604  23.022  1.00  0.00     0.279 C 
ATOM     18  O   UNL A   1      31.824  21.724  22.246  1.00  0.00    -0.268 OA
ATOM     19  H   UNL A   1      33.750  23.196  21.842  1.00  0.00     0.164 HD
BRANCH  17  20
ATOM     20  C   UNL A   1      31.792  22.587  24.528  1.00  0.00     0.168 C 
ATOM     21  H   UNL A   1      32.613  23.048  25.037  1.00  0.00     0.107 H 
BRANCH  20  22
ATOM     22  N   UNL A   1      30.581  23.413  24.717  1.00  0.00    -0.347 N 
ATOM     23  H   UNL A   1      30.408  23.540  25.714  1.00  0.00     0.345 HD
ATOM     24  H   UNL A   1      29.780  22.946  24.291  1.00  0.00     0.345 HD
ATOM     25  H   UNL A   1      30.717  24.323  24.277  1.00  0.00     0.345 HD
ENDBRANCH  20  22
BRANCH  20  26
ATOM     26  C   UNL A   1      31.874  21.268  25.345  1.00  0.00     0.036 C 
ATOM     27  H   UNL A   1      31.045  20.666  25.037  1.00  0.00     0.038 H 
ATOM     28  H   UNL A   1      31.893  21.616  26.358  1.00  0.00     0.038 H 
BRANCH  26  29
ATOM     29  C   UNL A   1      33.098  20.386  25.271  1.00  0.00    -0.016 A 
ATOM     30  C   UNL A   1      34.394  20.854  25.409  1.00  0.00     0.005 A 
ATOM     31  C   UNL A   1      33.220  18.974  25.007  1.00  0.00     0.003 A 
ATOM     32  N   UNL A   1      35.263  19.863  25.046  1.00  0.00    -0.361 N 
ATOM     33  H   UNL A   1      34.660  21.796  25.734  1.00  0.00     0.082 H 
ATOM     34  C   UNL A   1      34.564  18.730  24.707  1.00  0.00     0.046 A 
ATOM     35  C   UNL A   1      32.316  17.901  24.865  1.00  0.00    -0.053 A 
ATOM     36  H   UNL A   1      36.243  19.948  25.029  1.00  0.00     0.166 HD
ATOM     37  C   UNL A   1      35.018  17.527  24.150  1.00  0.00    -0.038 A 
ATOM     38  C   UNL A   1      32.750  16.692  24.307  1.00  0.00    -0.062 A 
ATOM     39  H   UNL A   1      31.335  18.007  25.169  1.00  0.00     0.063 H 
ATOM     40  C   UNL A   1      34.076  16.521  23.927  1.00  0.00    -0.060 A 
ATOM     41  H   UNL A   1      36.013  17.390  23.913  1.00  0.00     0.064 H 
ATOM     42  H   UNL A   1      32.078  15.919  24.177  1.00  0.00     0.062 H 
ATOM     43  H   UNL A   1      34.369  15.641  23.475  1.00  0.00     0.062 H 
ENDBRANCH  26  29
ENDBRANCH  20  26
ENDBRANCH  17  20
ENDBRANCH  14  16
BRANCH  14  44
ATOM     44  C   UNL A   1      34.387  25.421  23.673  1.00  0.00     0.020 C 
ATOM     45  H   UNL A   1      34.131  26.383  24.065  1.00  0.00     0.040 H 
ATOM     46  H   UNL A   1      35.183  25.393  22.959  1.00  0.00     0.040 H 
BRANCH  44  47
ATOM     47  S   UNL A   1      35.009  24.428  25.063  1.00  0.00    -0.177 SA
ATOM     48  H   UNL A   1      34.738  25.067  26.233  1.00  0.00     0.102 HD
ENDBRANCH  44  47
ENDBRANCH  14  44
ENDBRANCH  11  14
ENDBRANCH   8  10
BRANCH   8  49
ATOM     49  C   UNL A   1      30.634  28.839  22.435  1.00  0.00     0.072 C 
ATOM     50  H   UNL A   1      30.237  29.360  23.281  1.00  0.00     0.059 H 
ATOM     51  H   UNL A   1      29.874  28.531  21.749  1.00  0.00     0.059 H 
BRANCH  49  52
ATOM     52  O   UNL A   1      31.499  29.724  21.727  1.00  0.00    -0.394 OA
ATOM     53  H   UNL A   1      31.160  29.856  20.827  1.00  0.00     0.210 HD
ENDBRANCH  49  52
ENDBRANCH   8  49
ENDBRANCH   5   8
ENDBRANCH   1   4
BRANCH   1  54
ATOM     54  C   UNL A   1      32.878  28.808  25.744  1.00  0.00    -0.036 C 
ATOM     55  H   UNL A   1      32.862  29.115  24.718  1.00  0.00     0.028 H 
ATOM     56  H   UNL A   1      33.831  28.967  26.204  1.00  0.00     0.028 H 
BRANCH  54  57
ATOM     57  C   UNL A   1      31.865  29.657  26.516  1.00  0.00    -0.052 C 
ATOM     58  H   UNL A   1      32.351  30.050  27.384  1.00  0.00     0.027 H 
ATOM     59  H   UNL A   1      31.045  29.011  26.750  1.00  0.00     0.027 H 
BRANCH  57  60
ATOM     60  C   UNL A   1      31.281  30.829  25.722  1.00  0.00    -0.052 C 
ATOM     61  H   UNL A   1      30.286  30.568  25.426  1.00  0.00     0.027 H 
ATOM     62  H   UNL A   1      31.940  30.989  24.895  1.00  0.00     0.027 H 
BRANCH  60  63
ATOM     63  C   UNL A   1      31.219  32.156  26.483  1.00  0.00    -0.036 C 
ATOM     64  H   UNL A   1      30.453  32.081  27.226  1.00  0.00     0.028 H 
ATOM     65  H   UNL A   1      31.021  32.917  25.757  1.00  0.00     0.028 H 
BRANCH  63  66
ATOM     66  C   UNL A   1      32.517  32.540  27.173  1.00  0.00     0.018 C 
ATOM     67  H   UNL A   1      33.332  32.369  26.500  1.00  0.00     0.049 H 
ATOM     68  H   UNL A   1      32.616  31.942  28.055  1.00  0.00     0.049 H 
BRANCH  66  69
ATOM     69  N   UNL A   1      32.523  33.936  27.571  1.00  0.00    -0.352 N 
ATOM     70  C   UNL A   1      33.294  34.560  28.517  1.00  0.00     0.251 C 
ATOM     71  H   UNL A   1      31.884  34.515  27.096  1.00  0.00     0.163 HD
ATOM     72  O   UNL A   1      33.024  35.693  28.890  1.00  0.00    -0.269 OA
BRANCH  70  73
ATOM     73  C   UNL A   1      34.449  33.842  29.094  1.00  0.00     0.039 A 
ATOM     74  C   UNL A   1      35.736  34.252  28.745  1.00  0.00    -0.049 A 
ATOM     75  C   UNL A   1      34.259  32.769  29.971  1.00  0.00    -0.049 A 
ATOM     76  C   UNL A   1      36.837  33.607  29.309  1.00  0.00    -0.053 A 
ATOM     77  H   UNL A   1      35.872  35.026  28.076  1.00  0.00     0.063 H 
ATOM     78  C   UNL A   1      35.355  32.187  30.597  1.00  0.00    -0.053 A 
ATOM     79  H   UNL A   1      33.309  32.411  30.151  1.00  0.00     0.063 H 
ATOM     80  C   UNL A   1      36.654  32.588  30.259  1.00  0.00    -0.014 A 
ATOM     81  H   UNL A   1      37.791  33.881  29.027  1.00  0.00     0.063 H 
ATOM     82  H   UNL A   1      35.210  31.458  31.314  1.00  0.00     0.063 H 
BRANCH  80  83
ATOM     83  C   UNL A   1      37.822  31.927  30.892  1.00  0.00     0.031 A 
ATOM     84  C   UNL A   1      38.245  32.306  32.283  1.00  0.00     0.074 A 
ATOM     85  C   UNL A   1      38.520  31.010  30.196  1.00  0.00     0.049 A 
ATOM     86  N   UNL A   1      39.232  31.837  33.004  1.00  0.00    -0.248 NA
ATOM     87  C   UNL A   1      37.479  33.376  32.943  1.00  0.00    -0.034 C 
ATOM     88  C   UNL A   1      38.243  30.608  28.816  1.00  0.00    -0.036 A 
ATOM     89  N   UNL A   1      39.605  30.251  30.552  1.00  0.00    -0.354 N 
ATOM     90  C   UNL A   1      39.210  32.559  34.191  1.00  0.00     0.074 A 
ATOM     91  C   UNL A   1      38.156  33.541  34.069  1.00  0.00    -0.034 C 
ATOM     92  H   UNL A   1      36.635  33.869  32.613  1.00  0.00     0.065 H 
ATOM     93  C   UNL A   1      39.111  29.651  28.454  1.00  0.00    -0.036 A 
ATOM     94  H   UNL A   1      37.499  30.999  28.217  1.00  0.00     0.065 H 
ATOM     95  C   UNL A   1      40.028  29.397  29.563  1.00  0.00     0.049 A 
ATOM     96  H   UNL A   1      40.040  30.312  31.433  1.00  0.00     0.167 HD
ATOM     97  C   UNL A   1      39.980  32.395  35.292  1.00  0.00     0.037 A 
ATOM     98  H   UNL A   1      37.958  34.274  34.767  1.00  0.00     0.065 H 
ATOM     99  H   UNL A   1      39.129  29.172  27.541  1.00  0.00     0.065 H 
ATOM    100  C   UNL A   1      41.038  28.508  29.552  1.00  0.00     0.037 A 
ATOM    101  C   UNL A   1      41.012  31.400  35.413  1.00  0.00     0.049 A 
ATOM    102  C   UNL A   1      41.874  28.339  30.792  1.00  0.00     0.074 A 
ATOM    103  C   UNL A   1      41.804  31.105  36.508  1.00  0.00    -0.036 A 
ATOM    104  N   UNL A   1      41.401  30.540  34.395  1.00  0.00    -0.354 N 
ATOM    105  N   UNL A   1      41.786  28.964  31.941  1.00  0.00    -0.248 NA
ATOM    106  C   UNL A   1      42.941  27.331  30.738  1.00  0.00    -0.034 C 
ATOM    107  C   UNL A   1      42.711  30.109  36.136  1.00  0.00    -0.036 A 
ATOM    108  H   UNL A   1      41.736  31.545  37.439  1.00  0.00     0.065 H 
ATOM    109  C   UNL A   1      42.442  29.733  34.829  1.00  0.00     0.049 A 
ATOM    110  H   UNL A   1      40.997  30.506  33.498  1.00  0.00     0.167 HD
ATOM    111  C   UNL A   1      42.762  28.406  32.757  1.00  0.00     0.074 A 
ATOM    112  C   UNL A   1      43.420  27.381  31.973  1.00  0.00    -0.034 C 
ATOM    113  H   UNL A   1      43.239  26.740  29.947  1.00  0.00     0.065 H 
ATOM    114  H   UNL A   1      43.458  29.719  36.733  1.00  0.00     0.065 H 
ATOM    115  C   UNL A   1      43.082  28.713  34.038  1.00  0.00     0.037 A 
ATOM    116  H   UNL A   1      44.169  26.767  32.331  1.00  0.00     0.065 H 
BRANCH  97 117
ATOM    117  C   UNL A   1      39.735  33.317  36.455  1.00  0.00     0.064 A 
ATOM    118  C   UNL A   1      38.816  33.002  37.468  1.00  0.00     0.173 A 
ATOM    119  C   UNL A   1      40.450  34.518  36.573  1.00  0.00     0.173 A 
ATOM    120  F   UNL A   1      38.097  31.871  37.401  1.00  0.00    -0.203 F 
ATOM    121  C   UNL A   1      38.595  33.871  38.533  1.00  0.00     0.198 A 
ATOM    122  C   UNL A   1      40.252  35.369  37.657  1.00  0.00     0.198 A 
ATOM    123  F   UNL A   1      41.346  34.868  35.636  1.00  0.00    -0.203 F 
ATOM    124  F   UNL A   1      37.667  33.577  39.455  1.00  0.00    -0.200 F 
ATOM    125  C   UNL A   1      39.318  35.050  38.631  1.00  0.00     0.200 A 
ATOM    126  F   UNL A   1      40.963  36.500  37.758  1.00  0.00    -0.200 F 
ATOM    127  F   UNL A   1      39.109  35.883  39.659  1.00  0.00    -0.200 F 
ENDBRANCH  97 117
BRANCH 100 128
ATOM    128  C   UNL A   1      41.289  27.688  28.339  1.00  0.00     0.064 A 
ATOM    129  C   UNL A   1      42.180  28.120  27.346  1.00  0.00     0.173 A 
ATOM    130  C   UNL A   1      40.653  26.452  28.151  1.00  0.00     0.173 A 
ATOM    131  F   UNL A   1      42.801  29.301  27.472  1.00  0.00    -0.203 F 
ATOM    132  C   UNL A   1      42.408  27.357  26.203  1.00  0.00     0.198 A 
ATOM    133  C   UNL A   1      40.906  25.675  27.022  1.00  0.00     0.198 A 
ATOM    134  F   UNL A   1      39.799  25.989  29.076  1.00  0.00    -0.203 F 
ATOM    135  F   UNL A   1      43.231  27.814  25.248  1.00  0.00    -0.200 F 
ATOM    136  C   UNL A   1      41.776  26.132  26.045  1.00  0.00     0.200 A 
ATOM    137  F   UNL A   1      40.307  24.485  26.883  1.00  0.00    -0.200 F 
ATOM    138  F   UNL A   1      42.002  25.395  24.949  1.00  0.00    -0.200 F 
ENDBRANCH 100 128
BRANCH 115 139
ATOM    139  C   UNL A   1      44.166  27.903  34.691  1.00  0.00     0.064 A 
ATOM    140  C   UNL A   1      45.505  28.318  34.686  1.00  0.00     0.173 A 
ATOM    141  C   UNL A   1      43.849  26.715  35.368  1.00  0.00     0.173 A 
ATOM    142  F   UNL A   1      45.863  29.439  34.041  1.00  0.00    -0.203 F 
ATOM    143  C   UNL A   1      46.492  27.559  35.308  1.00  0.00     0.198 A 
ATOM    144  C   UNL A   1      44.833  25.978  36.020  1.00  0.00     0.198 A 
ATOM    145  F   UNL A   1      42.582  26.278  35.412  1.00  0.00    -0.203 F 
ATOM    146  F   UNL A   1      47.774  27.947  35.245  1.00  0.00    -0.200 F 
ATOM    147  C   UNL A   1      46.154  26.395  35.983  1.00  0.00     0.200 A 
ATOM    148  F   UNL A   1      44.501  24.862  36.685  1.00  0.00    -0.200 F 
ATOM    149  F   UNL A   1      47.104  25.670  36.590  1.00  0.00    -0.200 F 
ENDBRANCH 115 139
ENDBRANCH  80  83
ENDBRANCH  70  73
ENDBRANCH  66  69
ENDBRANCH  63  66
ENDBRANCH  60  63
ENDBRANCH  57  60
ENDBRANCH  54  57
ENDBRANCH   1  54
TORSDOF 24
ENDMDL
MODEL 2
REMARK VINA RESULT:     -11.7      1.168      2.446
REMARK SMILES [NH3+][C@@H](Cc1c[nH]c2ccccc12)C(=O)N[C@@H](CS)C(=O)N[C@@H](CO)C(=O)NCCCCCCNC(=O)c1ccc(-c2c3nc(c(-c4c(F)c(F)c(F)c(F)c4F)c4ccc([nH]4)c(-c4c(F)c(F)c(F)c(F)c4F)c4nc(c(-c5c(F)c(F)c(F)c(F)c5F)c5ccc2[nH]5)C=C4)C=C3)cc1
REMARK SMILES IDX 28 1 27 4 25 5 26 6 22 8 21 10 19 11 20 12 16 14 15 16 13 17
REMARK SMILES IDX 14 18 2 20 1 22 3 26 4 29 5 30 12 31 6 32 7 34 11 35 8 37
REMARK SMILES IDX 10 38 9 40 17 44 18 47 23 49 24 52 29 54 30 57 31 60 32 63
REMARK SMILES IDX 33 66 34 69 35 70 36 72 37 73 38 74 99 75 39 76 98 78 40 80
REMARK SMILES IDX 41 83 42 84 92 85 43 86 97 87 91 88 93 89 44 90 96 91 90 93
REMARK SMILES IDX 89 95 45 97 77 100 57 101 76 102 58 103 61 104 75 105 94 106
REMARK SMILES IDX 59 107 60 109 74 111 95 112 62 115 46 117 47 118 55 119
REMARK SMILES IDX 48 120 49 121 53 122 56 123 50 124 51 125 54 126 52 127
REMARK SMILES IDX 78 128 79 129 87 130 80 131 81 132 85 133 88 134 82 135
REMARK SMILES IDX 83 136 86 137 84 138 63 139 64 140 72 141 65 142 66 143
REMARK SMILES IDX 70 144 73 145 67 146 68 147 71 148 69 149
REMARK H PARENT 28 2 28 3 27 7 22 9 21 13 16 15 15 19 2 21 1 23 1 24 1 25 3 27
REMARK H PARENT 3 28 5 33 6 36 11 39 8 41 10 42 9 43 17 45 17 46 18 48 23 50
REMARK H PARENT 23 51 24 53 29 55 29 56 30 58 30 59 31 61 31 62 32 64 32 65
REMARK H PARENT 33 67 33 68 34 71 38 77 99 79 39 81 98 82 97 92 91 94 93 96
REMARK H PARENT 96 98 90 99 58 108 61 110 94 113 59 114 95 116
REMARK Flexibility Score: inf
ROOT
ATOM      1  C   UNL A   1      31.756  27.580  26.198  1.00  0.00     0.017 C 
ATOM      2  H   UNL A   1      32.283  26.651  26.123  1.00  0.00     0.049 H 
ATOM      3  H   UNL A   1      31.103  27.585  27.044  1.00  0.00     0.049 H 
ENDROOT
BRANCH   1   4
ATOM      4  N   UNL A   1      30.951  27.759  25.007  1.00  0.00    -0.354 N 
ATOM      5  C   UNL A   1      31.186  27.420  23.710  1.00  0.00     0.244 C 
ATOM      6  O   UNL A   1      30.216  27.406  22.948  1.00  0.00    -0.273 OA
ATOM      7  H   UNL A   1      30.086  28.201  25.162  1.00  0.00     0.163 HD
BRANCH   5   8
ATOM      8  C   UNL A   1      32.571  26.996  23.216  1.00  0.00     0.131 C 
ATOM      9  H   UNL A   1      33.132  26.688  24.074  1.00  0.00     0.066 H 
BRANCH   8  10
ATOM     10  N   UNL A   1      32.489  25.836  22.337  1.00  0.00    -0.340 N 
ATOM     11  C   UNL A   1      32.979  24.611  22.612  1.00  0.00     0.244 C 
ATOM     12  O   UNL A   1      33.820  24.200  21.806  1.00  0.00    -0.273 OA
ATOM     13  H   UNL A   1      32.037  25.957  21.471  1.00  0.00     0.164 HD
BRANCH  11  14
ATOM     14  C   UNL A   1      32.618  23.847  23.897  1.00  0.00     0.117 C 
ATOM     15  H   UNL A   1      32.629  22.805  23.652  1.00  0.00     0.064 H 
BRANCH  14  16
ATOM     16  N   UNL A   1      33.651  24.056  24.890  1.00  0.00    -0.338 N 
ATOM     17  C   UNL A   1      34.971  23.706  24.741  1.00  0.00     0.279 C 
ATOM     18  O   UNL A   1      35.800  24.448  25.277  1.00  0.00    -0.268 OA
ATOM     19  H   UNL A   1      33.387  24.483  25.738  1.00  0.00     0.164 HD
BRANCH  17  20
ATOM     20  C   UNL A   1      35.416  22.380  24.041  1.00  0.00     0.168 C 
ATOM     21  H   UNL A   1      34.565  22.088  23.462  1.00  0.00     0.107 H 
BRANCH  20  22
ATOM     22  N   UNL A   1      36.549  22.653  23.131  1.00  0.00    -0.347 N 
ATOM     23  H   UNL A   1      36.252  23.304  22.405  1.00  0.00     0.345 HD
ATOM     24  H   UNL A   1      36.856  21.781  22.699  1.00  0.00     0.345 HD
ATOM     25  H   UNL A   1      37.320  23.061  23.659  1.00  0.00     0.345 HD
ENDBRANCH  20  22
BRANCH  20  26
ATOM     26  C   UNL A   1      35.471  21.054  24.847  1.00  0.00     0.036 C 
ATOM     27  H   UNL A   1      35.737  21.316  25.850  1.00  0.00     0.038 H 
ATOM     28  H   UNL A   1      36.160  20.460  24.283  1.00  0.00     0.038 H 
BRANCH  26  29
ATOM     29  C   UNL A   1      34.259  20.157  24.945  1.00  0.00    -0.016 A 
ATOM     30  C   UNL A   1      33.004  20.598  25.329  1.00  0.00     0.005 A 
ATOM     31  C   UNL A   1      34.125  18.737  24.735  1.00  0.00     0.003 A 
ATOM     32  N   UNL A   1      32.204  19.513  25.554  1.00  0.00    -0.361 N 
ATOM     33  H   UNL A   1      32.719  21.585  25.429  1.00  0.00     0.082 H 
ATOM     34  C   UNL A   1      32.896  18.358  25.286  1.00  0.00     0.046 A 
ATOM     35  C   UNL A   1      34.967  17.713  24.255  1.00  0.00    -0.053 A 
ATOM     36  H   UNL A   1      31.270  19.553  25.863  1.00  0.00     0.166 HD
ATOM     37  C   UNL A   1      32.534  17.022  25.501  1.00  0.00    -0.038 A 
ATOM     38  C   UNL A   1      34.623  16.371  24.463  1.00  0.00    -0.062 A 
ATOM     39  H   UNL A   1      35.836  17.951  23.751  1.00  0.00     0.063 H 
ATOM     40  C   UNL A   1      33.437  16.033  25.106  1.00  0.00    -0.060 A 
ATOM     41  H   UNL A   1      31.630  16.777  25.937  1.00  0.00     0.064 H 
ATOM     42  H   UNL A   1      35.257  15.625  24.136  1.00  0.00     0.062 H 
ATOM     43  H   UNL A   1      33.222  15.042  25.293  1.00  0.00     0.062 H 
ENDBRANCH  26  29
ENDBRANCH  20  26
ENDBRANCH  17  20
ENDBRANCH  14  16
BRANCH  14  44
ATOM     44  C   UNL A   1      31.150  23.797  24.347  1.00  0.00     0.020 C 
ATOM     45  H   UNL A   1      30.714  22.928  23.900  1.00  0.00     0.040 H 
ATOM     46  H   UNL A   1      30.754  24.742  24.039  1.00  0.00     0.040 H 
BRANCH  44  47
ATOM     47  S   UNL A   1      30.779  23.725  26.125  1.00  0.00    -0.177 SA
ATOM     48  H   UNL A   1      31.892  23.339  26.805  1.00  0.00     0.102 HD
ENDBRANCH  44  47
ENDBRANCH  14  44
ENDBRANCH  11  14
ENDBRANCH   8  10
BRANCH   8  49
ATOM     49  C   UNL A   1      33.375  28.164  22.617  1.00  0.00     0.072 C 
ATOM     50  H   UNL A   1      33.494  27.988  21.568  1.00  0.00     0.059 H 
ATOM     51  H   UNL A   1      34.310  28.197  23.136  1.00  0.00     0.059 H 
BRANCH  49  52
ATOM     52  O   UNL A   1      32.757  29.436  22.792  1.00  0.00    -0.394 OA
ATOM     53  H   UNL A   1      32.383  29.493  23.686  1.00  0.00     0.210 HD
ENDBRANCH  49  52
ENDBRANCH   8  49
ENDBRANCH   5   8
ENDBRANCH   1   4
BRANCH   1  54
ATOM     54  C   UNL A   1      32.767  28.706  26.374  1.00  0.00    -0.036 C 
ATOM     55  H   UNL A   1      33.143  28.976  25.409  1.00  0.00     0.028 H 
ATOM     56  H   UNL A   1      33.533  28.339  27.024  1.00  0.00     0.028 H 
BRANCH  54  57
ATOM     57  C   UNL A   1      32.188  29.960  27.033  1.00  0.00    -0.052 C 
ATOM     58  H   UNL A   1      32.997  30.518  27.458  1.00  0.00     0.027 H 
ATOM     59  H   UNL A   1      31.483  29.621  27.762  1.00  0.00     0.027 H 
BRANCH  57  60
ATOM     60  C   UNL A   1      31.419  30.882  26.081  1.00  0.00    -0.052 C 
ATOM     61  H   UNL A   1      30.425  30.498  25.977  1.00  0.00     0.027 H 
ATOM     62  H   UNL A   1      31.968  30.888  25.163  1.00  0.00     0.027 H 
BRANCH  60  63
ATOM     63  C   UNL A   1      31.323  32.341  26.533  1.00  0.00    -0.036 C 
ATOM     64  H   UNL A   1      30.494  32.429  27.205  1.00  0.00     0.028 H 
ATOM     65  H   UNL A   1      31.204  32.930  25.647  1.00  0.00     0.028 H 
BRANCH  63  66
ATOM     66  C   UNL A   1      32.565  32.859  27.238  1.00  0.00     0.018 C 
ATOM     67  H   UNL A   1      33.395  32.804  26.563  1.00  0.00     0.049 H 
ATOM     68  H   UNL A   1      32.735  32.253  28.103  1.00  0.00     0.049 H 
BRANCH  66  69
ATOM     69  N   UNL A   1      32.404  34.234  27.673  1.00  0.00    -0.352 N 
ATOM     70  C   UNL A   1      33.044  34.899  28.686  1.00  0.00     0.251 C 
ATOM     71  H   UNL A   1      31.743  34.763  27.171  1.00  0.00     0.163 HD
ATOM     72  O   UNL A   1      32.637  35.986  29.070  1.00  0.00    -0.269 OA
BRANCH  70  73
ATOM     73  C   UNL A   1      34.225  34.279  29.321  1.00  0.00     0.039 A 
ATOM     74  C   UNL A   1      34.029  33.380  30.370  1.00  0.00    -0.049 A 
ATOM     75  C   UNL A   1      35.517  34.589  28.884  1.00  0.00    -0.049 A 
ATOM     76  C   UNL A   1      35.132  32.760  30.956  1.00  0.00    -0.053 A 
ATOM     77  H   UNL A   1      33.076  33.175  30.708  1.00  0.00     0.063 H 
ATOM     78  C   UNL A   1      36.607  33.904  29.411  1.00  0.00    -0.053 A 
ATOM     79  H   UNL A   1      35.661  35.323  28.174  1.00  0.00     0.063 H 
ATOM     80  C   UNL A   1      36.426  32.997  30.464  1.00  0.00    -0.014 A 
ATOM     81  H   UNL A   1      34.996  32.123  31.756  1.00  0.00     0.063 H 
ATOM     82  H   UNL A   1      37.551  34.065  29.024  1.00  0.00     0.063 H 
BRANCH  80  83
ATOM     83  C   UNL A   1      37.599  32.309  31.057  1.00  0.00     0.031 A 
ATOM     84  C   UNL A   1      38.086  32.685  32.428  1.00  0.00     0.074 A 
ATOM     85  C   UNL A   1      38.246  31.370  30.340  1.00  0.00     0.049 A 
ATOM     86  N   UNL A   1      39.086  32.194  33.114  1.00  0.00    -0.248 NA
ATOM     87  C   UNL A   1      37.374  33.778  33.109  1.00  0.00    -0.034 C 
ATOM     88  C   UNL A   1      37.906  30.967  28.975  1.00  0.00    -0.036 A 
ATOM     89  N   UNL A   1      39.324  30.584  30.660  1.00  0.00    -0.354 N 
ATOM     90  C   UNL A   1      39.129  32.922  34.295  1.00  0.00     0.074 A 
ATOM     91  C   UNL A   1      38.098  33.932  34.207  1.00  0.00    -0.034 C 
ATOM     92  H   UNL A   1      36.531  34.291  32.809  1.00  0.00     0.065 H 
ATOM     93  C   UNL A   1      38.734  29.985  28.587  1.00  0.00    -0.036 A 
ATOM     94  H   UNL A   1      37.150  31.374  28.402  1.00  0.00     0.065 H 
ATOM     95  C   UNL A   1      39.685  29.713  29.661  1.00  0.00     0.049 A 
ATOM     96  H   UNL A   1      39.794  30.638  31.524  1.00  0.00     0.167 HD
ATOM     97  C   UNL A   1      39.936  32.745  35.368  1.00  0.00     0.037 A 
ATOM     98  H   UNL A   1      37.946  34.674  34.908  1.00  0.00     0.065 H 
ATOM     99  H   UNL A   1      38.704  29.500  27.677  1.00  0.00     0.065 H 
ATOM    100  C   UNL A   1      40.671  28.798  29.618  1.00  0.00     0.037 A 
ATOM    101  C   UNL A   1      40.945  31.724  35.456  1.00  0.00     0.049 A 
ATOM    102  C   UNL A   1      41.549  28.614  30.826  1.00  0.00     0.074 A 
ATOM    103  C   UNL A   1      41.770  31.414  36.521  1.00  0.00    -0.036 A 
ATOM    104  N   UNL A   1      41.272  30.847  34.430  1.00  0.00    -0.354 N 
ATOM    105  N   UNL A   1      41.522  29.248  31.974  1.00  0.00    -0.248 NA
ATOM    106  C   UNL A   1      42.587  27.578  30.739  1.00  0.00    -0.034 C 
ATOM    107  C   UNL A   1      42.636  30.392  36.122  1.00  0.00    -0.036 A 
ATOM    108  H   UNL A   1      41.750  31.861  37.452  1.00  0.00     0.065 H 
ATOM    109  C   UNL A   1      42.307  30.016  34.829  1.00  0.00     0.049 A 
ATOM    110  H   UNL A   1      40.834  30.820  33.549  1.00  0.00     0.167 HD
ATOM    111  C   UNL A   1      42.513  28.668  32.755  1.00  0.00     0.074 A 
ATOM    112  C   UNL A   1      43.114  27.622  31.954  1.00  0.00    -0.034 C 
ATOM    113  H   UNL A   1      42.837  26.975  29.941  1.00  0.00     0.065 H 
ATOM    114  H   UNL A   1      43.395  29.985  36.693  1.00  0.00     0.065 H 
ATOM    115  C   UNL A   1      42.890  28.975  34.021  1.00  0.00     0.037 A 
ATOM    116  H   UNL A   1      43.859  26.991  32.288  1.00  0.00     0.065 H 
BRANCH  97 117
ATOM    117  C   UNL A   1      39.760  33.680  36.533  1.00  0.00     0.064 A 
ATOM    118  C   UNL A   1      40.412  34.922  36.589  1.00  0.00     0.173 A 
ATOM    119  C   UNL A   1      38.907  33.342  37.593  1.00  0.00     0.173 A 
ATOM    120  F   UNL A   1      41.248  35.292  35.607  1.00  0.00    -0.203 F 
ATOM    121  C   UNL A   1      40.246  35.772  37.679  1.00  0.00     0.198 A 
ATOM    122  C   UNL A   1      38.714  34.210  38.665  1.00  0.00     0.198 A 
ATOM    123  F   UNL A   1      38.253  32.170  37.590  1.00  0.00    -0.203 F 
ATOM    124  F   UNL A   1      40.927  36.925  37.738  1.00  0.00    -0.200 F 
ATOM    125  C   UNL A   1      39.391  35.419  38.712  1.00  0.00     0.200 A 
ATOM    126  F   UNL A   1      37.876  33.874  39.655  1.00  0.00    -0.200 F 
ATOM    127  F   UNL A   1      39.227  36.240  39.759  1.00  0.00    -0.200 F 
ENDBRANCH  97 117
BRANCH 100 128
ATOM    128  C   UNL A   1      40.854  27.965  28.402  1.00  0.00     0.064 A 
ATOM    129  C   UNL A   1      40.241  26.709  28.287  1.00  0.00     0.173 A 
ATOM    130  C   UNL A   1      41.635  28.410  27.325  1.00  0.00     0.173 A 
ATOM    131  F   UNL A   1      39.497  26.233  29.296  1.00  0.00    -0.203 F 
ATOM    132  C   UNL A   1      40.420  25.922  27.151  1.00  0.00     0.198 A 
ATOM    133  C   UNL A   1      41.788  27.635  26.176  1.00  0.00     0.198 A 
ATOM    134  F   UNL A   1      42.235  29.608  27.380  1.00  0.00    -0.203 F 
ATOM    135  F   UNL A   1      39.859  24.706  27.086  1.00  0.00    -0.200 F 
ATOM    136  C   UNL A   1      41.188  26.388  26.095  1.00  0.00     0.200 A 
ATOM    137  F   UNL A   1      42.515  28.098  25.151  1.00  0.00    -0.200 F 
ATOM    138  F   UNL A   1      41.352  25.634  25.000  1.00  0.00    -0.200 F 
ENDBRANCH 100 128
BRANCH 115 139
ATOM    139  C   UNL A   1      43.976  28.140  34.638  1.00  0.00     0.064 A 
ATOM    140  C   UNL A   1      43.703  26.914  35.261  1.00  0.00     0.173 A 
ATOM    141  C   UNL A   1      45.315  28.555  34.564  1.00  0.00     0.173 A 
ATOM    142  F   UNL A   1      42.439  26.477  35.371  1.00  0.00    -0.203 F 
ATOM    143  C   UNL A   1      44.727  26.150  35.815  1.00  0.00     0.198 A 
ATOM    144  C   UNL A   1      46.339  27.771  35.086  1.00  0.00     0.198 A 
ATOM    145  F   UNL A   1      45.632  29.716  33.970  1.00  0.00    -0.203 F 
ATOM    146  F   UNL A   1      44.438  25.007  36.453  1.00  0.00    -0.200 F 
ATOM    147  C   UNL A   1      46.044  26.574  35.719  1.00  0.00     0.200 A 
ATOM    148  F   UNL A   1      47.612  28.176  34.978  1.00  0.00    -0.200 F 
ATOM    149  F   UNL A   1      47.029  25.832  36.244  1.00  0.00    -0.200 F 
ENDBRANCH 115 139
ENDBRANCH  80  83
ENDBRANCH  70  73
ENDBRANCH  66  69
ENDBRANCH  63  66
ENDBRANCH  60  63
ENDBRANCH  57  60
ENDBRANCH  54  57
ENDBRANCH   1  54
TORSDOF 24
ENDMDL
MODEL 3
REMARK VINA RESULT:     -11.5      1.422      7.082
REMARK SMILES [NH3+][C@@H](Cc1c[nH]c2ccccc12)C(=O)N[C@@H](CS)C(=O)N[C@@H](CO)C(=O)NCCCCCCNC(=O)c1ccc(-c2c3nc(c(-c4c(F)c(F)c(F)c(F)c4F)c4ccc([nH]4)c(-c4c(F)c(F)c(F)c(F)c4F)c4nc(c(-c5c(F)c(F)c(F)c(F)c5F)c5ccc2[nH]5)C=C4)C=C3)cc1
REMARK SMILES IDX 28 1 27 4 25 5 26 6 22 8 21 10 19 11 20 12 16 14 15 16 13 17
REMARK SMILES IDX 14 18 2 20 1 22 3 26 4 29 5 30 12 31 6 32 7 34 11 35 8 37
REMARK SMILES IDX 10 38 9 40 17 44 18 47 23 49 24 52 29 54 30 57 31 60 32 63
REMARK SMILES IDX 33 66 34 69 35 70 36 72 37 73 38 74 99 75 39 76 98 78 40 80
REMARK SMILES IDX 41 83 42 84 92 85 43 86 97 87 91 88 93 89 44 90 96 91 90 93
REMARK SMILES IDX 89 95 45 97 77 100 57 101 76 102 58 103 61 104 75 105 94 106
REMARK SMILES IDX 59 107 60 109 74 111 95 112 62 115 46 117 47 118 55 119
REMARK SMILES IDX 48 120 49 121 53 122 56 123 50 124 51 125 54 126 52 127
REMARK SMILES IDX 78 128 79 129 87 130 80 131 81 132 85 133 88 134 82 135
REMARK SMILES IDX 83 136 86 137 84 138 63 139 64 140 72 141 65 142 66 143
REMARK SMILES IDX 70 144 73 145 67 146 68 147 71 148 69 149
REMARK H PARENT 28 2 28 3 27 7 22 9 21 13 16 15 15 19 2 21 1 23 1 24 1 25 3 27
REMARK H PARENT 3 28 5 33 6 36 11 39 8 41 10 42 9 43 17 45 17 46 18 48 23 50
REMARK H PARENT 23 51 24 53 29 55 29 56 30 58 30 59 31 61 31 62 32 64 32 65
REMARK H PARENT 33 67 33 68 34 71 38 77 99 79 39 81 98 82 97 92 91 94 93 96
REMARK H PARENT 96 98 90 99 58 108 61 110 94 113 59 114 95 116
REMARK Flexibility Score: inf
ROOT
ATOM      1  C   UNL A   1      31.568  27.834  26.072  1.00  0.00     0.017 C 
ATOM      2  H   UNL A   1      31.847  26.801  26.113  1.00  0.00     0.049 H 
ATOM      3  H   UNL A   1      30.802  28.053  26.785  1.00  0.00     0.049 H 
ENDROOT
BRANCH   1   4
ATOM      4  N   UNL A   1      31.052  28.128  24.751  1.00  0.00    -0.354 N 
ATOM      5  C   UNL A   1      31.480  27.744  23.519  1.00  0.00     0.244 C 
ATOM      6  O   UNL A   1      30.689  27.877  22.581  1.00  0.00    -0.273 OA
ATOM      7  H   UNL A   1      30.254  28.704  24.744  1.00  0.00     0.163 HD
BRANCH   5   8
ATOM      8  C   UNL A   1      32.850  27.098  23.296  1.00  0.00     0.131 C 
ATOM      9  H   UNL A   1      33.196  26.755  24.248  1.00  0.00     0.066 H 
BRANCH   8  10
ATOM     10  N   UNL A   1      32.750  25.921  22.441  1.00  0.00    -0.340 N 
ATOM     11  C   UNL A   1      33.174  24.683  22.764  1.00  0.00     0.244 C 
ATOM     12  O   UNL A   1      34.027  24.216  22.002  1.00  0.00    -0.273 OA
ATOM     13  H   UNL A   1      32.338  26.041  21.555  1.00  0.00     0.164 HD
BRANCH  11  14
ATOM     14  C   UNL A   1      32.729  23.968  24.051  1.00  0.00     0.117 C 
ATOM     15  H   UNL A   1      32.655  22.927  23.818  1.00  0.00     0.064 H 
BRANCH  14  16
ATOM     16  N   UNL A   1      33.762  24.100  25.058  1.00  0.00    -0.338 N 
ATOM     17  C   UNL A   1      35.062  23.678  24.915  1.00  0.00     0.279 C 
ATOM     18  O   UNL A   1      35.926  24.363  25.474  1.00  0.00    -0.268 OA
ATOM     19  H   UNL A   1      33.513  24.526  25.911  1.00  0.00     0.164 HD
BRANCH  17  20
ATOM     20  C   UNL A   1      35.439  22.344  24.194  1.00  0.00     0.168 C 
ATOM     21  H   UNL A   1      34.567  22.094  23.626  1.00  0.00     0.107 H 
BRANCH  20  22
ATOM     22  N   UNL A   1      36.568  22.578  23.269  1.00  0.00    -0.347 N 
ATOM     23  H   UNL A   1      36.210  22.725  22.326  1.00  0.00     0.345 HD
ATOM     24  H   UNL A   1      37.187  21.767  23.275  1.00  0.00     0.345 HD
ATOM     25  H   UNL A   1      37.088  23.403  23.568  1.00  0.00     0.345 HD
ENDBRANCH  20  22
BRANCH  20  26
ATOM     26  C   UNL A   1      35.449  21.007  24.985  1.00  0.00     0.036 C 
ATOM     27  H   UNL A   1      35.638  21.258  26.009  1.00  0.00     0.038 H 
ATOM     28  H   UNL A   1      36.185  20.428  24.466  1.00  0.00     0.038 H 
BRANCH  26  29
ATOM     29  C   UNL A   1      34.244  20.097  24.982  1.00  0.00    -0.016 A 
ATOM     30  C   UNL A   1      32.960  20.517  25.287  1.00  0.00     0.005 A 
ATOM     31  C   UNL A   1      34.141  18.679  24.737  1.00  0.00     0.003 A 
ATOM     32  N   UNL A   1      32.159  19.420  25.435  1.00  0.00    -0.361 N 
ATOM     33  H   UNL A   1      32.658  21.499  25.385  1.00  0.00     0.082 H 
ATOM     34  C   UNL A   1      32.881  18.277  25.194  1.00  0.00     0.046 A 
ATOM     35  C   UNL A   1      35.026  17.673  24.297  1.00  0.00    -0.053 A 
ATOM     36  H   UNL A   1      31.206  19.444  25.679  1.00  0.00     0.166 HD
ATOM     37  C   UNL A   1      32.520  16.934  25.359  1.00  0.00    -0.038 A 
ATOM     38  C   UNL A   1      34.683  16.324  24.456  1.00  0.00    -0.062 A 
ATOM     39  H   UNL A   1      35.925  17.930  23.860  1.00  0.00     0.063 H 
ATOM     40  C   UNL A   1      33.460  15.962  25.008  1.00  0.00    -0.060 A 
ATOM     41  H   UNL A   1      31.591  16.671  25.727  1.00  0.00     0.064 H 
ATOM     42  H   UNL A   1      35.347  15.591  24.160  1.00  0.00     0.062 H 
ATOM     43  H   UNL A   1      33.243  14.965  25.162  1.00  0.00     0.062 H 
ENDBRANCH  26  29
ENDBRANCH  20  26
ENDBRANCH  17  20
ENDBRANCH  14  16
BRANCH  14  44
ATOM     44  C   UNL A   1      31.257  24.050  24.479  1.00  0.00     0.020 C 
ATOM     45  H   UNL A   1      30.679  23.589  23.705  1.00  0.00     0.040 H 
ATOM     46  H   UNL A   1      31.092  25.095  24.639  1.00  0.00     0.040 H 
BRANCH  44  47
ATOM     47  S   UNL A   1      30.754  23.282  26.048  1.00  0.00    -0.177 SA
ATOM     48  H   UNL A   1      29.649  23.914  26.528  1.00  0.00     0.102 HD
ENDBRANCH  44  47
ENDBRANCH  14  44
ENDBRANCH  11  14
ENDBRANCH   8  10
BRANCH   8  49
ATOM     49  C   UNL A   1      33.916  28.106  22.829  1.00  0.00     0.072 C 
ATOM     50  H   UNL A   1      34.034  28.006  21.770  1.00  0.00     0.059 H 
ATOM     51  H   UNL A   1      34.814  27.881  23.364  1.00  0.00     0.059 H 
BRANCH  49  52
ATOM     52  O   UNL A   1      33.589  29.463  23.118  1.00  0.00    -0.394 OA
ATOM     53  H   UNL A   1      33.562  29.591  24.080  1.00  0.00     0.210 HD
ENDBRANCH  49  52
ENDBRANCH   8  49
ENDBRANCH   5   8
ENDBRANCH   1   4
BRANCH   1  54
ATOM     54  C   UNL A   1      32.786  28.686  26.409  1.00  0.00    -0.036 C 
ATOM     55  H   UNL A   1      33.353  28.833  25.513  1.00  0.00     0.028 H 
ATOM     56  H   UNL A   1      33.336  28.162  27.161  1.00  0.00     0.028 H 
BRANCH  54  57
ATOM     57  C   UNL A   1      32.438  30.060  26.988  1.00  0.00    -0.052 C 
ATOM     58  H   UNL A   1      33.338  30.637  27.041  1.00  0.00     0.027 H 
ATOM     59  H   UNL A   1      31.997  29.882  27.946  1.00  0.00     0.027 H 
BRANCH  57  60
ATOM     60  C   UNL A   1      31.409  30.851  26.176  1.00  0.00    -0.052 C 
ATOM     61  H   UNL A   1      30.445  30.416  26.345  1.00  0.00     0.027 H 
ATOM     62  H   UNL A   1      31.725  30.794  25.155  1.00  0.00     0.027 H 
BRANCH  60  63
ATOM     63  C   UNL A   1      31.325  32.341  26.517  1.00  0.00    -0.036 C 
ATOM     64  H   UNL A   1      30.466  32.495  27.136  1.00  0.00     0.028 H 
ATOM     65  H   UNL A   1      31.265  32.866  25.586  1.00  0.00     0.028 H 
BRANCH  63  66
ATOM     66  C   UNL A   1      32.543  32.883  27.246  1.00  0.00     0.018 C 
ATOM     67  H   UNL A   1      33.395  32.803  26.604  1.00  0.00     0.049 H 
ATOM     68  H   UNL A   1      32.680  32.309  28.139  1.00  0.00     0.049 H 
BRANCH  66  69
ATOM     69  N   UNL A   1      32.369  34.273  27.626  1.00  0.00    -0.352 N 
ATOM     70  C   UNL A   1      32.956  34.966  28.652  1.00  0.00     0.251 C 
ATOM     71  H   UNL A   1      31.742  34.789  27.069  1.00  0.00     0.163 HD
ATOM     72  O   UNL A   1      32.536  36.069  28.976  1.00  0.00    -0.269 OA
BRANCH  70  73
ATOM     73  C   UNL A   1      34.092  34.361  29.374  1.00  0.00     0.039 A 
ATOM     74  C   UNL A   1      33.836  33.628  30.535  1.00  0.00    -0.049 A 
ATOM     75  C   UNL A   1      35.401  34.518  28.909  1.00  0.00    -0.049 A 
ATOM     76  C   UNL A   1      34.895  33.020  31.209  1.00  0.00    -0.053 A 
ATOM     77  H   UNL A   1      32.872  33.538  30.890  1.00  0.00     0.063 H 
ATOM     78  C   UNL A   1      36.442  33.839  29.532  1.00  0.00    -0.053 A 
ATOM     79  H   UNL A   1      35.594  35.136  28.106  1.00  0.00     0.063 H 
ATOM     80  C   UNL A   1      36.201  33.099  30.698  1.00  0.00    -0.014 A 
ATOM     81  H   UNL A   1      34.717  32.510  32.087  1.00  0.00     0.063 H 
ATOM     82  H   UNL A   1      37.394  33.880  29.134  1.00  0.00     0.063 H 
BRANCH  80  83
ATOM     83  C   UNL A   1      37.325  32.420  31.388  1.00  0.00     0.031 A 
ATOM     84  C   UNL A   1      38.042  31.277  30.727  1.00  0.00     0.074 A 
ATOM     85  C   UNL A   1      37.673  32.813  32.628  1.00  0.00     0.049 A 
ATOM     86  N   UNL A   1      39.048  30.565  31.167  1.00  0.00    -0.248 NA
ATOM     87  C   UNL A   1      37.546  30.856  29.406  1.00  0.00    -0.034 C 
ATOM     88  C   UNL A   1      37.010  33.866  33.397  1.00  0.00    -0.036 A 
ATOM     89  N   UNL A   1      38.671  32.373  33.460  1.00  0.00    -0.354 N 
ATOM     90  C   UNL A   1      39.295  29.612  30.188  1.00  0.00     0.074 A 
ATOM     91  C   UNL A   1      38.294  29.791  29.160  1.00  0.00    -0.034 C 
ATOM     92  H   UNL A   1      36.806  31.280  28.825  1.00  0.00     0.065 H 
ATOM     93  C   UNL A   1      37.639  34.016  34.573  1.00  0.00    -0.036 A 
ATOM     94  H   UNL A   1      36.188  34.407  33.085  1.00  0.00     0.065 H 
ATOM     95  C   UNL A   1      38.728  33.047  34.655  1.00  0.00     0.049 A 
ATOM     96  H   UNL A   1      39.289  31.643  33.223  1.00  0.00     0.167 HD
ATOM     97  C   UNL A   1      40.285  28.689  30.138  1.00  0.00     0.037 A 
ATOM     98  H   UNL A   1      38.178  29.172  28.344  1.00  0.00     0.065 H 
ATOM     99  H   UNL A   1      37.394  34.705  35.300  1.00  0.00     0.065 H 
ATOM    100  C   UNL A   1      39.566  32.901  35.699  1.00  0.00     0.037 A 
ATOM    101  C   UNL A   1      41.291  28.532  31.155  1.00  0.00     0.049 A 
ATOM    102  C   UNL A   1      40.664  31.875  35.615  1.00  0.00     0.074 A 
ATOM    103  C   UNL A   1      42.376  27.676  31.171  1.00  0.00    -0.036 A 
ATOM    104  N   UNL A   1      41.327  29.245  32.345  1.00  0.00    -0.354 N 
ATOM    105  N   UNL A   1      40.943  31.039  34.644  1.00  0.00    -0.248 NA
ATOM    106  C   UNL A   1      41.570  31.781  36.767  1.00  0.00    -0.034 C 
ATOM    107  C   UNL A   1      43.035  27.827  32.394  1.00  0.00    -0.036 A 
ATOM    108  H   UNL A   1      42.653  27.035  30.409  1.00  0.00     0.065 H 
ATOM    109  C   UNL A   1      42.401  28.827  33.115  1.00  0.00     0.049 A 
ATOM    110  H   UNL A   1      40.685  29.945  32.605  1.00  0.00     0.167 HD
ATOM    111  C   UNL A   1      42.074  30.344  35.052  1.00  0.00     0.074 A 
ATOM    112  C   UNL A   1      42.436  30.867  36.353  1.00  0.00    -0.034 C 
ATOM    113  H   UNL A   1      41.541  32.294  37.661  1.00  0.00     0.065 H 
ATOM    114  H   UNL A   1      43.856  27.286  32.709  1.00  0.00     0.065 H 
ATOM    115  C   UNL A   1      42.752  29.362  34.406  1.00  0.00     0.037 A 
ATOM    116  H   UNL A   1      43.264  30.565  36.891  1.00  0.00     0.065 H 
BRANCH  97 117
ATOM    117  C   UNL A   1      40.326  27.778  28.943  1.00  0.00     0.064 A 
ATOM    118  C   UNL A   1      39.619  26.565  28.913  1.00  0.00     0.173 A 
ATOM    119  C   UNL A   1      41.060  28.133  27.802  1.00  0.00     0.173 A 
ATOM    120  F   UNL A   1      38.909  26.170  29.981  1.00  0.00    -0.203 F 
ATOM    121  C   UNL A   1      39.675  25.728  27.802  1.00  0.00     0.198 A 
ATOM    122  C   UNL A   1      41.086  27.311  26.678  1.00  0.00     0.198 A 
ATOM    123  F   UNL A   1      41.751  29.284  27.772  1.00  0.00    -0.203 F 
ATOM    124  F   UNL A   1      39.041  24.547  27.821  1.00  0.00    -0.200 F 
ATOM    125  C   UNL A   1      40.402  26.105  26.683  1.00  0.00     0.200 A 
ATOM    126  F   UNL A   1      41.776  27.684  25.592  1.00  0.00    -0.200 F 
ATOM    127  F   UNL A   1      40.451  25.301  25.612  1.00  0.00    -0.200 F 
ENDBRANCH  97 117
BRANCH 100 128
ATOM    128  C   UNL A   1      39.418  33.772  36.893  1.00  0.00     0.064 A 
ATOM    129  C   UNL A   1      39.997  35.049  36.934  1.00  0.00     0.173 A 
ATOM    130  C   UNL A   1      38.687  33.352  38.015  1.00  0.00     0.173 A 
ATOM    131  F   UNL A   1      40.718  35.488  35.893  1.00  0.00    -0.203 F 
ATOM    132  C   UNL A   1      39.868  35.862  38.057  1.00  0.00     0.198 A 
ATOM    133  C   UNL A   1      38.532  34.180  39.125  1.00  0.00     0.198 A 
ATOM    134  F   UNL A   1      38.105  32.144  38.024  1.00  0.00    -0.203 F 
ATOM    135  F   UNL A   1      40.469  37.060  38.086  1.00  0.00    -0.200 F 
ATOM    136  C   UNL A   1      39.130  35.430  39.149  1.00  0.00     0.200 A 
ATOM    137  F   UNL A   1      37.804  33.765  40.170  1.00  0.00    -0.200 F 
ATOM    138  F   UNL A   1      39.000  36.216  40.226  1.00  0.00    -0.200 F 
ENDBRANCH 100 128
BRANCH 115 139
ATOM    139  C   UNL A   1      43.980  28.818  35.076  1.00  0.00     0.064 A 
ATOM    140  C   UNL A   1      45.243  29.399  34.893  1.00  0.00     0.173 A 
ATOM    141  C   UNL A   1      43.883  27.723  35.950  1.00  0.00     0.173 A 
ATOM    142  F   UNL A   1      45.394  30.439  34.058  1.00  0.00    -0.203 F 
ATOM    143  C   UNL A   1      46.367  28.886  35.534  1.00  0.00     0.198 A 
ATOM    144  C   UNL A   1      45.003  27.236  36.617  1.00  0.00     0.198 A 
ATOM    145  F   UNL A   1      42.697  27.135  36.169  1.00  0.00    -0.203 F 
ATOM    146  F   UNL A   1      47.573  29.424  35.302  1.00  0.00    -0.200 F 
ATOM    147  C   UNL A   1      46.245  27.811  36.402  1.00  0.00     0.200 A 
ATOM    148  F   UNL A   1      44.878  26.207  37.468  1.00  0.00    -0.200 F 
ATOM    149  F   UNL A   1      47.327  27.325  37.026  1.00  0.00    -0.200 F 
ENDBRANCH 115 139
ENDBRANCH  80  83
ENDBRANCH  70  73
ENDBRANCH  66  69
ENDBRANCH  63  66
ENDBRANCH  60  63
ENDBRANCH  57  60
ENDBRANCH  54  57
ENDBRANCH   1  54
TORSDOF 24
ENDMDL
MODEL 4
REMARK VINA RESULT:     -11.4      4.980     10.991
REMARK SMILES [NH3+][C@@H](Cc1c[nH]c2ccccc12)C(=O)N[C@@H](CS)C(=O)N[C@@H](CO)C(=O)NCCCCCCNC(=O)c1ccc(-c2c3nc(c(-c4c(F)c(F)c(F)c(F)c4F)c4ccc([nH]4)c(-c4c(F)c(F)c(F)c(F)c4F)c4nc(c(-c5c(F)c(F)c(F)c(F)c5F)c5ccc2[nH]5)C=C4)C=C3)cc1
REMARK SMILES IDX 28 1 27 4 25 5 26 6 22 8 21 10 19 11 20 12 16 14 15 16 13 17
REMARK SMILES IDX 14 18 2 20 1 22 3 26 4 29 5 30 12 31 6 32 7 34 11 35 8 37
REMARK SMILES IDX 10 38 9 40 17 44 18 47 23 49 24 52 29 54 30 57 31 60 32 63
REMARK SMILES IDX 33 66 34 69 35 70 36 72 37 73 38 74 99 75 39 76 98 78 40 80
REMARK SMILES IDX 41 83 42 84 92 85 43 86 97 87 91 88 93 89 44 90 96 91 90 93
REMARK SMILES IDX 89 95 45 97 77 100 57 101 76 102 58 103 61 104 75 105 94 106
REMARK SMILES IDX 59 107 60 109 74 111 95 112 62 115 46 117 47 118 55 119
REMARK SMILES IDX 48 120 49 121 53 122 56 123 50 124 51 125 54 126 52 127
REMARK SMILES IDX 78 128 79 129 87 130 80 131 81 132 85 133 88 134 82 135
REMARK SMILES IDX 83 136 86 137 84 138 63 139 64 140 72 141 65 142 66 143
REMARK SMILES IDX 70 144 73 145 67 146 68 147 71 148 69 149
REMARK H PARENT 28 2 28 3 27 7 22 9 21 13 16 15 15 19 2 21 1 23 1 24 1 25 3 27
REMARK H PARENT 3 28 5 33 6 36 11 39 8 41 10 42 9 43 17 45 17 46 18 48 23 50
REMARK H PARENT 23 51 24 53 29 55 29 56 30 58 30 59 31 61 31 62 32 64 32 65
REMARK H PARENT 33 67 33 68 34 71 38 77 99 79 39 81 98 82 97 92 91 94 93 96
REMARK H PARENT 96 98 90 99 58 108 61 110 94 113 59 114 95 116
REMARK Flexibility Score: inf
ROOT
ATOM      1  C   UNL A   1      35.213  23.444  24.188  1.00  0.00     0.017 C 
ATOM      2  H   UNL A   1      34.676  24.138  24.799  1.00  0.00     0.049 H 
ATOM      3  H   UNL A   1      35.448  23.870  23.236  1.00  0.00     0.049 H 
ENDROOT
BRANCH   1   4
ATOM      4  N   UNL A   1      34.384  22.277  23.966  1.00  0.00    -0.354 N 
ATOM      5  C   UNL A   1      33.274  21.833  24.615  1.00  0.00     0.244 C 
ATOM      6  O   UNL A   1      32.585  20.986  24.038  1.00  0.00    -0.273 OA
ATOM      7  H   UNL A   1      34.674  21.706  23.218  1.00  0.00     0.163 HD
BRANCH   5   8
ATOM      8  C   UNL A   1      32.835  22.404  25.965  1.00  0.00     0.131 C 
ATOM      9  H   UNL A   1      33.162  23.423  25.999  1.00  0.00     0.066 H 
BRANCH   8  10
ATOM     10  N   UNL A   1      31.382  22.431  26.085  1.00  0.00    -0.340 N 
ATOM     11  C   UNL A   1      30.630  23.541  26.222  1.00  0.00     0.244 C 
ATOM     12  O   UNL A   1      29.947  23.576  27.251  1.00  0.00    -0.273 OA
ATOM     13  H   UNL A   1      30.912  21.567  26.062  1.00  0.00     0.164 HD
BRANCH  11  14
ATOM     14  C   UNL A   1      30.719  24.725  25.244  1.00  0.00     0.117 C 
ATOM     15  H   UNL A   1      31.610  25.263  25.489  1.00  0.00     0.064 H 
BRANCH  14  16
ATOM     16  N   UNL A   1      30.889  24.226  23.895  1.00  0.00    -0.338 N 
ATOM     17  C   UNL A   1      31.838  24.665  23.004  1.00  0.00     0.279 C 
ATOM     18  O   UNL A   1      32.299  23.820  22.230  1.00  0.00    -0.268 OA
ATOM     19  H   UNL A   1      30.276  23.515  23.593  1.00  0.00     0.164 HD
BRANCH  17  20
ATOM     20  C   UNL A   1      32.240  26.171  22.877  1.00  0.00     0.168 C 
ATOM     21  H   UNL A   1      32.143  26.555  23.871  1.00  0.00     0.107 H 
BRANCH  20  22
ATOM     22  N   UNL A   1      33.652  26.277  22.454  1.00  0.00    -0.347 N 
ATOM     23  H   UNL A   1      33.717  26.126  21.448  1.00  0.00     0.345 HD
ATOM     24  H   UNL A   1      34.207  25.572  22.939  1.00  0.00     0.345 HD
ATOM     25  H   UNL A   1      34.007  27.205  22.682  1.00  0.00     0.345 HD
ENDBRANCH  20  22
BRANCH  20  26
ATOM     26  C   UNL A   1      31.246  27.193  22.260  1.00  0.00     0.036 C 
ATOM     27  H   UNL A   1      30.302  26.694  22.185  1.00  0.00     0.038 H 
ATOM     28  H   UNL A   1      31.735  27.483  21.353  1.00  0.00     0.038 H 
BRANCH  26  29
ATOM     29  C   UNL A   1      30.980  28.518  22.936  1.00  0.00    -0.016 A 
ATOM     30  C   UNL A   1      31.669  28.967  24.049  1.00  0.00     0.005 A 
ATOM     31  C   UNL A   1      29.995  29.532  22.652  1.00  0.00     0.003 A 
ATOM     32  N   UNL A   1      31.028  30.065  24.553  1.00  0.00    -0.361 N 
ATOM     33  H   UNL A   1      32.528  28.544  24.435  1.00  0.00     0.082 H 
ATOM     34  C   UNL A   1      29.945  30.376  23.767  1.00  0.00     0.046 A 
ATOM     35  C   UNL A   1      29.050  29.751  21.628  1.00  0.00    -0.053 A 
ATOM     36  H   UNL A   1      31.301  30.559  25.359  1.00  0.00     0.166 HD
ATOM     37  C   UNL A   1      28.931  31.320  23.968  1.00  0.00    -0.038 A 
ATOM     38  C   UNL A   1      28.027  30.690  21.811  1.00  0.00    -0.062 A 
ATOM     39  H   UNL A   1      29.112  29.220  20.745  1.00  0.00     0.063 H 
ATOM     40  C   UNL A   1      27.952  31.440  22.979  1.00  0.00    -0.060 A 
ATOM     41  H   UNL A   1      28.908  31.907  24.817  1.00  0.00     0.064 H 
ATOM     42  H   UNL A   1      27.320  30.825  21.071  1.00  0.00     0.062 H 
ATOM     43  H   UNL A   1      27.165  32.093  23.118  1.00  0.00     0.062 H 
ENDBRANCH  26  29
ENDBRANCH  20  26
ENDBRANCH  17  20
ENDBRANCH  14  16
BRANCH  14  44
ATOM     44  C   UNL A   1      29.828  25.953  25.477  1.00  0.00     0.020 C 
ATOM     45  H   UNL A   1      30.473  26.807  25.514  1.00  0.00     0.040 H 
ATOM     46  H   UNL A   1      29.296  25.718  26.375  1.00  0.00     0.040 H 
BRANCH  44  47
ATOM     47  S   UNL A   1      28.516  26.328  24.276  1.00  0.00    -0.177 SA
ATOM     48  H   UNL A   1      28.620  25.485  23.214  1.00  0.00     0.102 HD
ENDBRANCH  44  47
ENDBRANCH  14  44
ENDBRANCH  11  14
ENDBRANCH   8  10
BRANCH   8  49
ATOM     49  C   UNL A   1      33.535  21.726  27.156  1.00  0.00     0.072 C 
ATOM     50  H   UNL A   1      33.196  22.192  28.058  1.00  0.00     0.059 H 
ATOM     51  H   UNL A   1      34.588  21.841  27.006  1.00  0.00     0.059 H 
BRANCH  49  52
ATOM     52  O   UNL A   1      33.281  20.326  27.251  1.00  0.00    -0.394 OA
ATOM     53  H   UNL A   1      32.616  20.164  27.939  1.00  0.00     0.210 HD
ENDBRANCH  49  52
ENDBRANCH   8  49
ENDBRANCH   5   8
ENDBRANCH   1   4
BRANCH   1  54
ATOM     54  C   UNL A   1      36.522  23.087  24.882  1.00  0.00    -0.036 C 
ATOM     55  H   UNL A   1      36.307  22.844  25.903  1.00  0.00     0.028 H 
ATOM     56  H   UNL A   1      37.166  23.936  24.789  1.00  0.00     0.028 H 
BRANCH  54  57
ATOM     57  C   UNL A   1      37.254  21.901  24.250  1.00  0.00    -0.052 C 
ATOM     58  H   UNL A   1      38.307  22.084  24.320  1.00  0.00     0.027 H 
ATOM     59  H   UNL A   1      36.907  21.833  23.241  1.00  0.00     0.027 H 
BRANCH  57  60
ATOM     60  C   UNL A   1      36.958  20.548  24.905  1.00  0.00    -0.052 C 
ATOM     61  H   UNL A   1      36.197  20.061  24.331  1.00  0.00     0.027 H 
ATOM     62  H   UNL A   1      36.660  20.760  25.910  1.00  0.00     0.027 H 
BRANCH  60  63
ATOM     63  C   UNL A   1      38.158  19.603  25.003  1.00  0.00    -0.036 C 
ATOM     64  H   UNL A   1      38.584  19.499  24.027  1.00  0.00     0.028 H 
ATOM     65  H   UNL A   1      37.789  18.678  25.396  1.00  0.00     0.028 H 
BRANCH  63  66
ATOM     66  C   UNL A   1      39.248  20.076  25.952  1.00  0.00     0.018 C 
ATOM     67  H   UNL A   1      38.830  20.189  26.930  1.00  0.00     0.049 H 
ATOM     68  H   UNL A   1      39.626  21.007  25.586  1.00  0.00     0.049 H 
BRANCH  66  69
ATOM     69  N   UNL A   1      40.350  19.134  26.018  1.00  0.00    -0.352 N 
ATOM     70  C   UNL A   1      41.694  19.385  26.117  1.00  0.00     0.251 C 
ATOM     71  H   UNL A   1      40.097  18.183  25.986  1.00  0.00     0.163 HD
ATOM     72  O   UNL A   1      42.508  18.489  25.938  1.00  0.00    -0.269 OA
BRANCH  70  73
ATOM     73  C   UNL A   1      42.150  20.754  26.430  1.00  0.00     0.039 A 
ATOM     74  C   UNL A   1      42.379  21.642  25.377  1.00  0.00    -0.049 A 
ATOM     75  C   UNL A   1      42.353  21.156  27.754  1.00  0.00    -0.049 A 
ATOM     76  C   UNL A   1      42.776  22.949  25.658  1.00  0.00    -0.053 A 
ATOM     77  H   UNL A   1      42.255  21.333  24.401  1.00  0.00     0.063 H 
ATOM     78  C   UNL A   1      42.663  22.482  28.033  1.00  0.00    -0.053 A 
ATOM     79  H   UNL A   1      42.273  20.470  28.520  1.00  0.00     0.063 H 
ATOM     80  C   UNL A   1      42.895  23.386  26.988  1.00  0.00    -0.014 A 
ATOM     81  H   UNL A   1      42.983  23.598  24.883  1.00  0.00     0.063 H 
ATOM     82  H   UNL A   1      42.721  22.801  29.013  1.00  0.00     0.063 H 
BRANCH  80  83
ATOM     83  C   UNL A   1      43.277  24.787  27.292  1.00  0.00     0.031 A 
ATOM     84  C   UNL A   1      44.671  25.272  27.006  1.00  0.00     0.074 A 
ATOM     85  C   UNL A   1      42.376  25.609  27.860  1.00  0.00     0.049 A 
ATOM     86  N   UNL A   1      45.188  26.459  27.196  1.00  0.00    -0.248 NA
ATOM     87  C   UNL A   1      45.619  24.287  26.461  1.00  0.00    -0.034 C 
ATOM     88  C   UNL A   1      41.014  25.233  28.243  1.00  0.00    -0.036 A 
ATOM     89  N   UNL A   1      42.467  26.931  28.215  1.00  0.00    -0.354 N 
ATOM     90  C   UNL A   1      46.518  26.358  26.806  1.00  0.00     0.074 A 
ATOM     91  C   UNL A   1      46.746  24.981  26.432  1.00  0.00    -0.034 C 
ATOM     92  H   UNL A   1      45.449  23.309  26.178  1.00  0.00     0.065 H 
ATOM     93  C   UNL A   1      40.386  26.306  28.746  1.00  0.00    -0.036 A 
ATOM     94  H   UNL A   1      40.603  24.291  28.143  1.00  0.00     0.065 H 
ATOM     95  C   UNL A   1      41.309  27.437  28.754  1.00  0.00     0.049 A 
ATOM     96  H   UNL A   1      43.284  27.466  28.094  1.00  0.00     0.167 HD
ATOM     97  C   UNL A   1      47.454  27.334  26.740  1.00  0.00     0.037 A 
ATOM     98  H   UNL A   1      47.666  24.590  26.175  1.00  0.00     0.065 H 
ATOM     99  H   UNL A   1      39.408  26.330  29.074  1.00  0.00     0.065 H 
ATOM    100  C   UNL A   1      41.026  28.674  29.202  1.00  0.00     0.037 A 
ATOM    101  C   UNL A   1      47.212  28.708  27.094  1.00  0.00     0.049 A 
ATOM    102  C   UNL A   1      42.080  29.744  29.109  1.00  0.00     0.074 A 
ATOM    103  C   UNL A   1      48.070  29.788  27.000  1.00  0.00    -0.036 A 
ATOM    104  N   UNL A   1      46.021  29.188  27.621  1.00  0.00    -0.354 N 
ATOM    105  N   UNL A   1      43.307  29.659  28.654  1.00  0.00    -0.248 NA
ATOM    106  C   UNL A   1      41.706  31.084  29.579  1.00  0.00    -0.034 C 
ATOM    107  C   UNL A   1      47.420  30.909  27.524  1.00  0.00    -0.036 A 
ATOM    108  H   UNL A   1      49.026  29.769  26.609  1.00  0.00     0.065 H 
ATOM    109  C   UNL A   1      46.132  30.545  27.883  1.00  0.00     0.049 A 
ATOM    110  H   UNL A   1      45.216  28.646  27.784  1.00  0.00     0.167 HD
ATOM    111  C   UNL A   1      43.841  30.938  28.753  1.00  0.00     0.074 A 
ATOM    112  C   UNL A   1      42.798  31.781  29.298  1.00  0.00    -0.034 C 
ATOM    113  H   UNL A   1      40.825  31.399  30.013  1.00  0.00     0.065 H 
ATOM    114  H   UNL A   1      47.830  31.852  27.627  1.00  0.00     0.065 H 
ATOM    115  C   UNL A   1      45.082  31.372  28.420  1.00  0.00     0.037 A 
ATOM    116  H   UNL A   1      42.893  32.798  29.449  1.00  0.00     0.065 H 
BRANCH  97 117
ATOM    117  C   UNL A   1      48.828  26.949  26.268  1.00  0.00     0.064 A 
ATOM    118  C   UNL A   1      49.810  26.478  27.154  1.00  0.00     0.173 A 
ATOM    119  C   UNL A   1      49.160  27.023  24.907  1.00  0.00     0.173 A 
ATOM    120  F   UNL A   1      49.551  26.396  28.468  1.00  0.00    -0.203 F 
ATOM    121  C   UNL A   1      51.081  26.133  26.702  1.00  0.00     0.198 A 
ATOM    122  C   UNL A   1      50.421  26.644  24.452  1.00  0.00     0.198 A 
ATOM    123  F   UNL A   1      48.259  27.460  24.013  1.00  0.00    -0.203 F 
ATOM    124  F   UNL A   1      52.020  25.745  27.576  1.00  0.00    -0.200 F 
ATOM    125  C   UNL A   1      51.383  26.210  25.351  1.00  0.00     0.200 A 
ATOM    126  F   UNL A   1      50.706  26.704  23.144  1.00  0.00    -0.200 F 
ATOM    127  F   UNL A   1      52.605  25.872  24.915  1.00  0.00    -0.200 F 
ENDBRANCH  97 117
BRANCH 100 128
ATOM    128  C   UNL A   1      39.675  28.973  29.743  1.00  0.00     0.064 A 
ATOM    129  C   UNL A   1      39.371  28.750  31.094  1.00  0.00     0.173 A 
ATOM    130  C   UNL A   1      38.662  29.496  28.925  1.00  0.00     0.173 A 
ATOM    131  F   UNL A   1      40.301  28.236  31.912  1.00  0.00    -0.203 F 
ATOM    132  C   UNL A   1      38.102  29.019  31.600  1.00  0.00     0.198 A 
ATOM    133  C   UNL A   1      37.402  29.795  29.441  1.00  0.00     0.198 A 
ATOM    134  F   UNL A   1      38.903  29.737  27.628  1.00  0.00    -0.203 F 
ATOM    135  F   UNL A   1      37.826  28.755  32.885  1.00  0.00    -0.200 F 
ATOM    136  C   UNL A   1      37.120  29.547  30.775  1.00  0.00     0.200 A 
ATOM    137  F   UNL A   1      36.463  30.322  28.644  1.00  0.00    -0.200 F 
ATOM    138  F   UNL A   1      35.902  29.814  31.265  1.00  0.00    -0.200 F 
ENDBRANCH 100 128
BRANCH 115 139
ATOM    139  C   UNL A   1      45.369  32.836  28.596  1.00  0.00     0.064 A 
ATOM    140  C   UNL A   1      45.117  33.767  27.578  1.00  0.00     0.173 A 
ATOM    141  C   UNL A   1      45.863  33.318  29.818  1.00  0.00     0.173 A 
ATOM    142  F   UNL A   1      44.658  33.357  26.385  1.00  0.00    -0.203 F 
ATOM    143  C   UNL A   1      45.379  35.121  27.766  1.00  0.00     0.198 A 
ATOM    144  C   UNL A   1      46.089  34.677  30.015  1.00  0.00     0.198 A 
ATOM    145  F   UNL A   1      46.112  32.471  30.828  1.00  0.00    -0.203 F 
ATOM    146  F   UNL A   1      45.181  35.987  26.761  1.00  0.00    -0.200 F 
ATOM    147  C   UNL A   1      45.855  35.577  28.987  1.00  0.00     0.200 A 
ATOM    148  F   UNL A   1      46.534  35.115  31.201  1.00  0.00    -0.200 F 
ATOM    149  F   UNL A   1      46.097  36.882  29.169  1.00  0.00    -0.200 F 
ENDBRANCH 115 139
ENDBRANCH  80  83
ENDBRANCH  70  73
ENDBRANCH  66  69
ENDBRANCH  63  66
ENDBRANCH  60  63
ENDBRANCH  57  60
ENDBRANCH  54  57
ENDBRANCH   1  54
TORSDOF 24
ENDMDL
MODEL 5
REMARK VINA RESULT:     -11.4      4.407     10.249
REMARK SMILES [NH3+][C@@H](Cc1c[nH]c2ccccc12)C(=O)N[C@@H](CS)C(=O)N[C@@H](CO)C(=O)NCCCCCCNC(=O)c1ccc(-c2c3nc(c(-c4c(F)c(F)c(F)c(F)c4F)c4ccc([nH]4)c(-c4c(F)c(F)c(F)c(F)c4F)c4nc(c(-c5c(F)c(F)c(F)c(F)c5F)c5ccc2[nH]5)C=C4)C=C3)cc1
REMARK SMILES IDX 28 1 27 4 25 5 26 6 22 8 21 10 19 11 20 12 16 14 15 16 13 17
REMARK SMILES IDX 14 18 2 20 1 22 3 26 4 29 5 30 12 31 6 32 7 34 11 35 8 37
REMARK SMILES IDX 10 38 9 40 17 44 18 47 23 49 24 52 29 54 30 57 31 60 32 63
REMARK SMILES IDX 33 66 34 69 35 70 36 72 37 73 38 74 99 75 39 76 98 78 40 80
REMARK SMILES IDX 41 83 42 84 92 85 43 86 97 87 91 88 93 89 44 90 96 91 90 93
REMARK SMILES IDX 89 95 45 97 77 100 57 101 76 102 58 103 61 104 75 105 94 106
REMARK SMILES IDX 59 107 60 109 74 111 95 112 62 115 46 117 47 118 55 119
REMARK SMILES IDX 48 120 49 121 53 122 56 123 50 124 51 125 54 126 52 127
REMARK SMILES IDX 78 128 79 129 87 130 80 131 81 132 85 133 88 134 82 135
REMARK SMILES IDX 83 136 86 137 84 138 63 139 64 140 72 141 65 142 66 143
REMARK SMILES IDX 70 144 73 145 67 146 68 147 71 148 69 149
REMARK H PARENT 28 2 28 3 27 7 22 9 21 13 16 15 15 19 2 21 1 23 1 24 1 25 3 27
REMARK H PARENT 3 28 5 33 6 36 11 39 8 41 10 42 9 43 17 45 17 46 18 48 23 50
REMARK H PARENT 23 51 24 53 29 55 29 56 30 58 30 59 31 61 31 62 32 64 32 65
REMARK H PARENT 33 67 33 68 34 71 38 77 99 79 39 81 98 82 97 92 91 94 93 96
REMARK H PARENT 96 98 90 99 58 108 61 110 94 113 59 114 95 116
REMARK Flexibility Score: inf
ROOT
ATOM      1  C   UNL A   1      32.777  23.238  22.994  1.00  0.00     0.017 C 
ATOM      2  H   UNL A   1      32.157  23.919  22.448  1.00  0.00     0.049 H 
ATOM      3  H   UNL A   1      33.026  22.384  22.400  1.00  0.00     0.049 H 
ENDROOT
BRANCH   1   4
ATOM      4  N   UNL A   1      32.053  22.779  24.161  1.00  0.00    -0.354 N 
ATOM      5  C   UNL A   1      31.135  23.403  24.947  1.00  0.00     0.244 C 
ATOM      6  O   UNL A   1      30.449  22.692  25.686  1.00  0.00    -0.273 OA
ATOM      7  H   UNL A   1      32.261  21.856  24.433  1.00  0.00     0.163 HD
BRANCH   5   8
ATOM      8  C   UNL A   1      30.892  24.913  24.874  1.00  0.00     0.131 C 
ATOM      9  H   UNL A   1      31.833  25.374  24.657  1.00  0.00     0.066 H 
BRANCH   8  10
ATOM     10  N   UNL A   1      29.998  25.255  23.774  1.00  0.00    -0.340 N 
ATOM     11  C   UNL A   1      29.533  26.490  23.501  1.00  0.00     0.244 C 
ATOM     12  O   UNL A   1      28.302  26.592  23.519  1.00  0.00    -0.273 OA
ATOM     13  H   UNL A   1      29.712  24.524  23.182  1.00  0.00     0.164 HD
BRANCH  11  14
ATOM     14  C   UNL A   1      30.463  27.701  23.316  1.00  0.00     0.117 C 
ATOM     15  H   UNL A   1      31.051  27.780  24.208  1.00  0.00     0.064 H 
BRANCH  14  16
ATOM     16  N   UNL A   1      31.384  27.441  22.229  1.00  0.00    -0.338 N 
ATOM     17  C   UNL A   1      32.722  27.165  22.377  1.00  0.00     0.279 C 
ATOM     18  O   UNL A   1      33.213  26.379  21.560  1.00  0.00    -0.268 OA
ATOM     19  H   UNL A   1      31.023  27.464  21.313  1.00  0.00     0.164 HD
BRANCH  17  20
ATOM     20  C   UNL A   1      33.619  27.886  23.435  1.00  0.00     0.168 C 
ATOM     21  H   UNL A   1      34.587  27.452  23.300  1.00  0.00     0.107 H 
BRANCH  20  22
ATOM     22  N   UNL A   1      33.690  29.331  23.128  1.00  0.00    -0.347 N 
ATOM     23  H   UNL A   1      33.411  29.486  22.160  1.00  0.00     0.345 HD
ATOM     24  H   UNL A   1      34.645  29.661  23.263  1.00  0.00     0.345 HD
ATOM     25  H   UNL A   1      33.063  29.842  23.749  1.00  0.00     0.345 HD
ENDBRANCH  20  22
BRANCH  20  26
ATOM     26  C   UNL A   1      33.522  27.494  24.935  1.00  0.00     0.036 C 
ATOM     27  H   UNL A   1      34.454  27.034  25.191  1.00  0.00     0.038 H 
ATOM     28  H   UNL A   1      32.638  26.891  24.967  1.00  0.00     0.038 H 
BRANCH  26  29
ATOM     29  C   UNL A   1      33.254  28.539  25.992  1.00  0.00    -0.016 A 
ATOM     30  C   UNL A   1      31.987  28.973  26.342  1.00  0.00     0.005 A 
ATOM     31  C   UNL A   1      34.167  29.316  26.794  1.00  0.00     0.003 A 
ATOM     32  N   UNL A   1      32.102  30.081  27.135  1.00  0.00    -0.361 N 
ATOM     33  H   UNL A   1      31.100  28.532  26.052  1.00  0.00     0.082 H 
ATOM     34  C   UNL A   1      33.428  30.366  27.351  1.00  0.00     0.046 A 
ATOM     35  C   UNL A   1      35.562  29.318  27.004  1.00  0.00    -0.053 A 
ATOM     36  H   UNL A   1      31.348  30.598  27.497  1.00  0.00     0.166 HD
ATOM     37  C   UNL A   1      34.020  31.470  27.977  1.00  0.00    -0.038 A 
ATOM     38  C   UNL A   1      36.172  30.415  27.626  1.00  0.00    -0.062 A 
ATOM     39  H   UNL A   1      36.132  28.514  26.698  1.00  0.00     0.063 H 
ATOM     40  C   UNL A   1      35.413  31.488  28.078  1.00  0.00    -0.060 A 
ATOM     41  H   UNL A   1      33.447  32.243  28.352  1.00  0.00     0.064 H 
ATOM     42  H   UNL A   1      37.197  30.425  27.751  1.00  0.00     0.062 H 
ATOM     43  H   UNL A   1      35.883  32.308  28.491  1.00  0.00     0.062 H 
ENDBRANCH  26  29
ENDBRANCH  20  26
ENDBRANCH  17  20
ENDBRANCH  14  16
BRANCH  14  44
ATOM     44  C   UNL A   1      29.889  29.115  23.485  1.00  0.00     0.020 C 
ATOM     45  H   UNL A   1      30.593  29.672  24.068  1.00  0.00     0.040 H 
ATOM     46  H   UNL A   1      28.928  28.952  23.927  1.00  0.00     0.040 H 
BRANCH  44  47
ATOM     47  S   UNL A   1      29.528  30.100  22.001  1.00  0.00    -0.177 SA
ATOM     48  H   UNL A   1      30.567  30.003  21.129  1.00  0.00     0.102 HD
ENDBRANCH  44  47
ENDBRANCH  14  44
ENDBRANCH  11  14
ENDBRANCH   8  10
BRANCH   8  49
ATOM     49  C   UNL A   1      30.461  25.514  26.224  1.00  0.00     0.072 C 
ATOM     50  H   UNL A   1      30.487  26.581  26.142  1.00  0.00     0.059 H 
ATOM     51  H   UNL A   1      31.140  25.142  26.962  1.00  0.00     0.059 H 
BRANCH  49  52
ATOM     52  O   UNL A   1      29.152  25.127  26.633  1.00  0.00    -0.394 OA
ATOM     53  H   UNL A   1      29.086  25.179  27.600  1.00  0.00     0.210 HD
ENDBRANCH  49  52
ENDBRANCH   8  49
ENDBRANCH   5   8
ENDBRANCH   1   4
BRANCH   1  54
ATOM     54  C   UNL A   1      34.072  23.946  23.371  1.00  0.00    -0.036 C 
ATOM     55  H   UNL A   1      34.178  23.910  24.436  1.00  0.00     0.028 H 
ATOM     56  H   UNL A   1      34.001  24.947  22.999  1.00  0.00     0.028 H 
BRANCH  54  57
ATOM     57  C   UNL A   1      35.322  23.326  22.742  1.00  0.00    -0.052 C 
ATOM     58  H   UNL A   1      35.890  24.110  22.284  1.00  0.00     0.027 H 
ATOM     59  H   UNL A   1      34.978  22.594  22.042  1.00  0.00     0.027 H 
BRANCH  57  60
ATOM     60  C   UNL A   1      36.233  22.590  23.730  1.00  0.00    -0.052 C 
ATOM     61  H   UNL A   1      37.144  23.144  23.818  1.00  0.00     0.027 H 
ATOM     62  H   UNL A   1      36.372  21.606  23.333  1.00  0.00     0.027 H 
BRANCH  60  63
ATOM     63  C   UNL A   1      35.648  22.407  25.133  1.00  0.00    -0.036 C 
ATOM     64  H   UNL A   1      35.174  21.449  25.176  1.00  0.00     0.028 H 
ATOM     65  H   UNL A   1      34.965  23.216  25.288  1.00  0.00     0.028 H 
BRANCH  63  66
ATOM     66  C   UNL A   1      36.675  22.483  26.250  1.00  0.00     0.018 C 
ATOM     67  H   UNL A   1      36.174  22.373  27.190  1.00  0.00     0.049 H 
ATOM     68  H   UNL A   1      37.166  23.432  26.188  1.00  0.00     0.049 H 
BRANCH  66  69
ATOM     69  N   UNL A   1      37.681  21.444  26.129  1.00  0.00    -0.352 N 
ATOM     70  C   UNL A   1      39.047  21.560  26.149  1.00  0.00     0.251 C 
ATOM     71  H   UNL A   1      37.335  20.530  26.017  1.00  0.00     0.163 HD
ATOM     72  O   UNL A   1      39.754  20.621  25.812  1.00  0.00    -0.269 OA
BRANCH  70  73
ATOM     73  C   UNL A   1      39.656  22.838  26.568  1.00  0.00     0.039 A 
ATOM     74  C   UNL A   1      40.590  22.828  27.605  1.00  0.00    -0.049 A 
ATOM     75  C   UNL A   1      39.304  24.038  25.942  1.00  0.00    -0.049 A 
ATOM     76  C   UNL A   1      41.200  24.022  27.989  1.00  0.00    -0.053 A 
ATOM     77  H   UNL A   1      40.826  21.945  28.084  1.00  0.00     0.063 H 
ATOM     78  C   UNL A   1      39.978  25.210  26.266  1.00  0.00    -0.053 A 
ATOM     79  H   UNL A   1      38.547  24.053  25.242  1.00  0.00     0.063 H 
ATOM     80  C   UNL A   1      40.919  25.216  27.305  1.00  0.00    -0.014 A 
ATOM     81  H   UNL A   1      41.863  24.027  28.780  1.00  0.00     0.063 H 
ATOM     82  H   UNL A   1      39.785  26.077  25.740  1.00  0.00     0.063 H 
BRANCH  80  83
ATOM     83  C   UNL A   1      41.596  26.481  27.682  1.00  0.00     0.031 A 
ATOM     84  C   UNL A   1      42.999  26.756  27.221  1.00  0.00     0.074 A 
ATOM     85  C   UNL A   1      40.956  27.364  28.471  1.00  0.00     0.049 A 
ATOM     86  N   UNL A   1      43.752  27.804  27.441  1.00  0.00    -0.248 NA
ATOM     87  C   UNL A   1      43.658  25.704  26.430  1.00  0.00    -0.034 C 
ATOM     88  C   UNL A   1      39.617  27.177  29.034  1.00  0.00    -0.036 A 
ATOM     89  N   UNL A   1      41.343  28.594  28.938  1.00  0.00    -0.354 N 
ATOM     90  C   UNL A   1      44.969  27.531  26.830  1.00  0.00     0.074 A 
ATOM     91  C   UNL A   1      44.879  26.195  26.285  1.00  0.00    -0.034 C 
ATOM     92  H   UNL A   1      43.269  24.814  26.081  1.00  0.00     0.065 H 
ATOM     93  C   UNL A   1      39.280  28.267  29.740  1.00  0.00    -0.036 A 
ATOM     94  H   UNL A   1      39.027  26.339  28.908  1.00  0.00     0.065 H 
ATOM     95  C   UNL A   1      40.391  29.215  29.709  1.00  0.00     0.049 A 
ATOM     96  H   UNL A   1      42.220  28.995  28.739  1.00  0.00     0.167 HD
ATOM     97  C   UNL A   1      46.052  28.335  26.709  1.00  0.00     0.037 A 
ATOM     98  H   UNL A   1      45.663  25.691  25.842  1.00  0.00     0.065 H 
ATOM     99  H   UNL A   1      38.383  28.413  30.225  1.00  0.00     0.065 H 
ATOM    100  C   UNL A   1      40.411  30.414  30.320  1.00  0.00     0.037 A 
ATOM    101  C   UNL A   1      46.125  29.672  27.235  1.00  0.00     0.049 A 
ATOM    102  C   UNL A   1      41.623  31.293  30.163  1.00  0.00     0.074 A 
ATOM    103  C   UNL A   1      47.147  30.595  27.110  1.00  0.00    -0.036 A 
ATOM    104  N   UNL A   1      45.133  30.275  27.997  1.00  0.00    -0.354 N 
ATOM    105  N   UNL A   1      42.734  31.061  29.506  1.00  0.00    -0.248 NA
ATOM    106  C   UNL A   1      41.578  32.605  30.822  1.00  0.00    -0.034 C 
ATOM    107  C   UNL A   1      46.802  31.733  27.845  1.00  0.00    -0.036 A 
ATOM    108  H   UNL A   1      48.016  30.466  26.567  1.00  0.00     0.065 H 
ATOM    109  C   UNL A   1      45.533  31.548  28.373  1.00  0.00     0.049 A 
ATOM    110  H   UNL A   1      44.273  29.861  28.235  1.00  0.00     0.167 HD
ATOM    111  C   UNL A   1      43.506  32.207  29.644  1.00  0.00     0.074 A 
ATOM    112  C   UNL A   1      42.729  33.138  30.436  1.00  0.00    -0.034 C 
ATOM    113  H   UNL A   1      40.844  33.006  31.424  1.00  0.00     0.065 H 
ATOM    114  H   UNL A   1      47.391  32.571  27.974  1.00  0.00     0.065 H 
ATOM    115  C   UNL A   1      44.745  32.465  29.157  1.00  0.00     0.037 A 
ATOM    116  H   UNL A   1      43.034  34.095  30.671  1.00  0.00     0.065 H 
BRANCH  97 117
ATOM    117  C   UNL A   1      47.247  27.787  25.980  1.00  0.00     0.064 A 
ATOM    118  C   UNL A   1      48.322  27.194  26.662  1.00  0.00     0.173 A 
ATOM    119  C   UNL A   1      47.307  27.828  24.579  1.00  0.00     0.173 A 
ATOM    120  F   UNL A   1      48.323  27.137  28.002  1.00  0.00    -0.203 F 
ATOM    121  C   UNL A   1      49.425  26.699  25.972  1.00  0.00     0.198 A 
ATOM    122  C   UNL A   1      48.396  27.300  23.890  1.00  0.00     0.198 A 
ATOM    123  F   UNL A   1      46.305  28.378  23.875  1.00  0.00    -0.203 F 
ATOM    124  F   UNL A   1      50.466  26.194  26.649  1.00  0.00    -0.200 F 
ATOM    125  C   UNL A   1      49.458  26.746  24.587  1.00  0.00     0.200 A 
ATOM    126  F   UNL A   1      48.418  27.332  22.551  1.00  0.00    -0.200 F 
ATOM    127  F   UNL A   1      50.518  26.264  23.923  1.00  0.00    -0.200 F 
ENDBRANCH  97 117
BRANCH 100 128
ATOM    128  C   UNL A   1      39.232  30.864  31.105  1.00  0.00     0.064 A 
ATOM    129  C   UNL A   1      39.056  30.466  32.437  1.00  0.00     0.173 A 
ATOM    130  C   UNL A   1      38.264  31.709  30.543  1.00  0.00     0.173 A 
ATOM    131  F   UNL A   1      39.946  29.646  33.014  1.00  0.00    -0.203 F 
ATOM    132  C   UNL A   1      37.945  30.879  33.170  1.00  0.00     0.198 A 
ATOM    133  C   UNL A   1      37.170  32.147  31.287  1.00  0.00     0.198 A 
ATOM    134  F   UNL A   1      38.391  32.127  29.275  1.00  0.00    -0.203 F 
ATOM    135  F   UNL A   1      37.778  30.447  34.428  1.00  0.00    -0.200 F 
ATOM    136  C   UNL A   1      37.007  31.724  32.597  1.00  0.00     0.200 A 
ATOM    137  F   UNL A   1      36.277  32.978  30.735  1.00  0.00    -0.200 F 
ATOM    138  F   UNL A   1      35.944  32.127  33.306  1.00  0.00    -0.200 F 
ENDBRANCH 100 128
BRANCH 115 139
ATOM    139  C   UNL A   1      45.324  33.824  29.430  1.00  0.00     0.064 A 
ATOM    140  C   UNL A   1      46.124  34.076  30.554  1.00  0.00     0.173 A 
ATOM    141  C   UNL A   1      45.108  34.878  28.528  1.00  0.00     0.173 A 
ATOM    142  F   UNL A   1      46.349  33.107  31.454  1.00  0.00    -0.203 F 
ATOM    143  C   UNL A   1      46.660  35.340  30.781  1.00  0.00     0.198 A 
ATOM    144  C   UNL A   1      45.676  36.130  28.740  1.00  0.00     0.198 A 
ATOM    145  F   UNL A   1      44.359  34.688  27.432  1.00  0.00    -0.203 F 
ATOM    146  F   UNL A   1      47.378  35.573  31.889  1.00  0.00    -0.200 F 
ATOM    147  C   UNL A   1      46.444  36.364  29.870  1.00  0.00     0.200 A 
ATOM    148  F   UNL A   1      45.480  37.113  27.849  1.00  0.00    -0.200 F 
ATOM    149  F   UNL A   1      46.970  37.577  30.085  1.00  0.00    -0.200 F 
ENDBRANCH 115 139
ENDBRANCH  80  83
ENDBRANCH  70  73
ENDBRANCH  66  69
ENDBRANCH  63  66
ENDBRANCH  60  63
ENDBRANCH  57  60
ENDBRANCH  54  57
ENDBRANCH   1  54
TORSDOF 24
ENDMDL
MODEL 6
REMARK VINA RESULT:     -11.3      1.677      2.363
REMARK SMILES [NH3+][C@@H](Cc1c[nH]c2ccccc12)C(=O)N[C@@H](CS)C(=O)N[C@@H](CO)C(=O)NCCCCCCNC(=O)c1ccc(-c2c3nc(c(-c4c(F)c(F)c(F)c(F)c4F)c4ccc([nH]4)c(-c4c(F)c(F)c(F)c(F)c4F)c4nc(c(-c5c(F)c(F)c(F)c(F)c5F)c5ccc2[nH]5)C=C4)C=C3)cc1
REMARK SMILES IDX 28 1 27 4 25 5 26 6 22 8 21 10 19 11 20 12 16 14 15 16 13 17
REMARK SMILES IDX 14 18 2 20 1 22 3 26 4 29 5 30 12 31 6 32 7 34 11 35 8 37
REMARK SMILES IDX 10 38 9 40 17 44 18 47 23 49 24 52 29 54 30 57 31 60 32 63
REMARK SMILES IDX 33 66 34 69 35 70 36 72 37 73 38 74 99 75 39 76 98 78 40 80
REMARK SMILES IDX 41 83 42 84 92 85 43 86 97 87 91 88 93 89 44 90 96 91 90 93
REMARK SMILES IDX 89 95 45 97 77 100 57 101 76 102 58 103 61 104 75 105 94 106
REMARK SMILES IDX 59 107 60 109 74 111 95 112 62 115 46 117 47 118 55 119
REMARK SMILES IDX 48 120 49 121 53 122 56 123 50 124 51 125 54 126 52 127
REMARK SMILES IDX 78 128 79 129 87 130 80 131 81 132 85 133 88 134 82 135
REMARK SMILES IDX 83 136 86 137 84 138 63 139 64 140 72 141 65 142 66 143
REMARK SMILES IDX 70 144 73 145 67 146 68 147 71 148 69 149
REMARK H PARENT 28 2 28 3 27 7 22 9 21 13 16 15 15 19 2 21 1 23 1 24 1 25 3 27
REMARK H PARENT 3 28 5 33 6 36 11 39 8 41 10 42 9 43 17 45 17 46 18 48 23 50
REMARK H PARENT 23 51 24 53 29 55 29 56 30 58 30 59 31 61 31 62 32 64 32 65
REMARK H PARENT 33 67 33 68 34 71 38 77 99 79 39 81 98 82 97 92 91 94 93 96
REMARK H PARENT 96 98 90 99 58 108 61 110 94 113 59 114 95 116
REMARK Flexibility Score: inf
ROOT
ATOM      1  C   UNL A   1      32.149  30.115  26.148  1.00  0.00     0.017 C 
ATOM      2  H   UNL A   1      33.069  29.770  25.723  1.00  0.00     0.049 H 
ATOM      3  H   UNL A   1      31.747  29.396  26.830  1.00  0.00     0.049 H 
ENDROOT
BRANCH   1   4
ATOM      4  N   UNL A   1      31.187  30.311  25.082  1.00  0.00    -0.354 N 
ATOM      5  C   UNL A   1      30.738  29.466  24.116  1.00  0.00     0.244 C 
ATOM      6  O   UNL A   1      29.700  29.782  23.528  1.00  0.00    -0.273 OA
ATOM      7  H   UNL A   1      30.790  31.212  25.052  1.00  0.00     0.163 HD
BRANCH   5   8
ATOM      8  C   UNL A   1      31.431  28.135  23.811  1.00  0.00     0.131 C 
ATOM      9  H   UNL A   1      32.023  27.884  24.666  1.00  0.00     0.066 H 
BRANCH   8  10
ATOM     10  N   UNL A   1      30.463  27.058  23.644  1.00  0.00    -0.340 N 
ATOM     11  C   UNL A   1      30.534  25.847  24.230  1.00  0.00     0.244 C 
ATOM     12  O   UNL A   1      30.575  24.895  23.443  1.00  0.00    -0.273 OA
ATOM     13  H   UNL A   1      29.693  27.230  23.056  1.00  0.00     0.164 HD
BRANCH  11  14
ATOM     14  C   UNL A   1      30.687  25.673  25.751  1.00  0.00     0.117 C 
ATOM     15  H   UNL A   1      30.289  26.556  26.206  1.00  0.00     0.064 H 
BRANCH  14  16
ATOM     16  N   UNL A   1      29.867  24.566  26.196  1.00  0.00    -0.338 N 
ATOM     17  C   UNL A   1      30.332  23.458  26.863  1.00  0.00     0.279 C 
ATOM     18  O   UNL A   1      29.572  22.963  27.703  1.00  0.00    -0.268 OA
ATOM     19  H   UNL A   1      28.901  24.610  26.007  1.00  0.00     0.164 HD
BRANCH  17  20
ATOM     20  C   UNL A   1      31.692  22.772  26.510  1.00  0.00     0.168 C 
ATOM     21  H   UNL A   1      32.288  23.561  26.101  1.00  0.00     0.107 H 
BRANCH  20  22
ATOM     22  N   UNL A   1      32.333  22.271  27.744  1.00  0.00    -0.347 N 
ATOM     23  H   UNL A   1      32.713  21.340  27.576  1.00  0.00     0.345 HD
ATOM     24  H   UNL A   1      31.642  22.225  28.493  1.00  0.00     0.345 HD
ATOM     25  H   UNL A   1      33.087  22.902  28.016  1.00  0.00     0.345 HD
ENDBRANCH  20  22
BRANCH  20  26
ATOM     26  C   UNL A   1      31.807  21.873  25.248  1.00  0.00     0.036 C 
ATOM     27  H   UNL A   1      31.731  22.524  24.402  1.00  0.00     0.038 H 
ATOM     28  H   UNL A   1      31.030  21.151  25.398  1.00  0.00     0.038 H 
BRANCH  26  29
ATOM     29  C   UNL A   1      33.026  21.011  25.020  1.00  0.00    -0.016 A 
ATOM     30  C   UNL A   1      33.051  19.642  25.227  1.00  0.00     0.005 A 
ATOM     31  C   UNL A   1      34.364  21.369  24.617  1.00  0.00     0.003 A 
ATOM     32  N   UNL A   1      34.348  19.211  25.172  1.00  0.00    -0.361 N 
ATOM     33  H   UNL A   1      32.227  19.046  25.395  1.00  0.00     0.082 H 
ATOM     34  C   UNL A   1      35.180  20.267  24.891  1.00  0.00     0.046 A 
ATOM     35  C   UNL A   1      34.992  22.550  24.171  1.00  0.00    -0.053 A 
ATOM     36  H   UNL A   1      34.641  18.283  25.313  1.00  0.00     0.166 HD
ATOM     37  C   UNL A   1      36.579  20.328  24.874  1.00  0.00    -0.038 A 
ATOM     38  C   UNL A   1      36.390  22.631  24.150  1.00  0.00    -0.062 A 
ATOM     39  H   UNL A   1      34.423  23.354  23.863  1.00  0.00     0.063 H 
ATOM     40  C   UNL A   1      37.171  21.544  24.526  1.00  0.00    -0.060 A 
ATOM     41  H   UNL A   1      37.153  19.502  25.110  1.00  0.00     0.064 H 
ATOM     42  H   UNL A   1      36.846  23.508  23.851  1.00  0.00     0.062 H 
ATOM     43  H   UNL A   1      38.198  21.636  24.549  1.00  0.00     0.062 H 
ENDBRANCH  26  29
ENDBRANCH  20  26
ENDBRANCH  17  20
ENDBRANCH  14  16
BRANCH  14  44
ATOM     44  C   UNL A   1      32.068  25.882  26.390  1.00  0.00     0.020 C 
ATOM     45  H   UNL A   1      32.169  25.151  27.165  1.00  0.00     0.040 H 
ATOM     46  H   UNL A   1      32.057  26.906  26.699  1.00  0.00     0.040 H 
BRANCH  44  47
ATOM     47  S   UNL A   1      33.548  25.756  25.342  1.00  0.00    -0.177 SA
ATOM     48  H   UNL A   1      34.012  24.478  25.365  1.00  0.00     0.102 HD
ENDBRANCH  44  47
ENDBRANCH  14  44
ENDBRANCH  11  14
ENDBRANCH   8  10
BRANCH   8  49
ATOM     49  C   UNL A   1      32.438  28.239  22.651  1.00  0.00     0.072 C 
ATOM     50  H   UNL A   1      31.890  28.331  21.736  1.00  0.00     0.059 H 
ATOM     51  H   UNL A   1      33.040  27.356  22.681  1.00  0.00     0.059 H 
BRANCH  49  52
ATOM     52  O   UNL A   1      33.324  29.350  22.757  1.00  0.00    -0.394 OA
ATOM     53  H   UNL A   1      34.056  29.124  23.353  1.00  0.00     0.210 HD
ENDBRANCH  49  52
ENDBRANCH   8  49
ENDBRANCH   5   8
ENDBRANCH   1   4
BRANCH   1  54
ATOM     54  C   UNL A   1      32.414  31.402  26.919  1.00  0.00    -0.036 C 
ATOM     55  H   UNL A   1      31.636  31.526  27.644  1.00  0.00     0.028 H 
ATOM     56  H   UNL A   1      32.437  32.195  26.202  1.00  0.00     0.028 H 
BRANCH  54  57
ATOM     57  C   UNL A   1      33.759  31.420  27.648  1.00  0.00    -0.052 C 
ATOM     58  H   UNL A   1      34.508  31.055  26.976  1.00  0.00     0.027 H 
ATOM     59  H   UNL A   1      33.641  30.809  28.517  1.00  0.00     0.027 H 
BRANCH  57  60
ATOM     60  C   UNL A   1      34.195  32.803  28.144  1.00  0.00    -0.052 C 
ATOM     61  H   UNL A   1      35.023  33.124  27.546  1.00  0.00     0.027 H 
ATOM     62  H   UNL A   1      34.439  32.687  29.178  1.00  0.00     0.027 H 
BRANCH  60  63
ATOM     63  C   UNL A   1      33.112  33.883  28.077  1.00  0.00    -0.036 C 
ATOM     64  H   UNL A   1      32.272  33.552  28.653  1.00  0.00     0.028 H 
ATOM     65  H   UNL A   1      32.877  34.018  27.041  1.00  0.00     0.028 H 
BRANCH  63  66
ATOM     66  C   UNL A   1      33.549  35.238  28.606  1.00  0.00     0.018 C 
ATOM     67  H   UNL A   1      33.355  35.981  27.860  1.00  0.00     0.049 H 
ATOM     68  H   UNL A   1      34.594  35.186  28.832  1.00  0.00     0.049 H 
BRANCH  66  69
ATOM     69  N   UNL A   1      32.841  35.596  29.822  1.00  0.00    -0.352 N 
ATOM     70  C   UNL A   1      33.047  35.152  31.102  1.00  0.00     0.251 C 
ATOM     71  H   UNL A   1      32.112  36.249  29.711  1.00  0.00     0.163 HD
ATOM     72  O   UNL A   1      32.223  35.380  31.978  1.00  0.00    -0.269 OA
BRANCH  70  73
ATOM     73  C   UNL A   1      34.268  34.382  31.410  1.00  0.00     0.039 A 
ATOM     74  C   UNL A   1      35.508  34.922  31.064  1.00  0.00    -0.049 A 
ATOM     75  C   UNL A   1      34.188  33.133  32.034  1.00  0.00    -0.049 A 
ATOM     76  C   UNL A   1      36.672  34.223  31.380  1.00  0.00    -0.053 A 
ATOM     77  H   UNL A   1      35.561  35.831  30.578  1.00  0.00     0.063 H 
ATOM     78  C   UNL A   1      35.352  32.481  32.426  1.00  0.00    -0.053 A 
ATOM     79  H   UNL A   1      33.268  32.697  32.203  1.00  0.00     0.063 H 
ATOM     80  C   UNL A   1      36.604  33.011  32.087  1.00  0.00    -0.014 A 
ATOM     81  H   UNL A   1      37.589  34.599  31.094  1.00  0.00     0.063 H 
ATOM     82  H   UNL A   1      35.292  31.605  32.970  1.00  0.00     0.063 H 
BRANCH  80  83
ATOM     83  C   UNL A   1      37.841  32.283  32.463  1.00  0.00     0.031 A 
ATOM     84  C   UNL A   1      38.545  32.599  33.752  1.00  0.00     0.074 A 
ATOM     85  C   UNL A   1      38.348  31.364  31.620  1.00  0.00     0.049 A 
ATOM     86  N   UNL A   1      39.631  32.068  34.254  1.00  0.00    -0.248 NA
ATOM     87  C   UNL A   1      37.971  33.676  34.576  1.00  0.00    -0.034 C 
ATOM     88  C   UNL A   1      37.790  31.018  30.312  1.00  0.00    -0.036 A 
ATOM     89  N   UNL A   1      39.447  30.551  31.738  1.00  0.00    -0.354 N 
ATOM     90  C   UNL A   1      39.873  32.750  35.439  1.00  0.00     0.074 A 
ATOM     91  C   UNL A   1      38.862  33.777  35.551  1.00  0.00    -0.034 C 
ATOM     92  H   UNL A   1      37.102  34.212  34.431  1.00  0.00     0.065 H 
ATOM     93  C   UNL A   1      38.527  30.040  29.763  1.00  0.00    -0.036 A 
ATOM     94  H   UNL A   1      36.961  31.458  29.881  1.00  0.00     0.065 H 
ATOM     95  C   UNL A   1      39.629  29.714  30.663  1.00  0.00     0.049 A 
ATOM     96  H   UNL A   1      40.048  30.565  32.517  1.00  0.00     0.167 HD
ATOM     97  C   UNL A   1      40.835  32.520  36.364  1.00  0.00     0.037 A 
ATOM     98  H   UNL A   1      38.837  34.493  36.293  1.00  0.00     0.065 H 
ATOM     99  H   UNL A   1      38.345  29.591  28.853  1.00  0.00     0.065 H 
ATOM    100  C   UNL A   1      40.577  28.787  30.433  1.00  0.00     0.037 A 
ATOM    101  C   UNL A   1      41.825  31.481  36.255  1.00  0.00     0.049 A 
ATOM    102  C   UNL A   1      41.631  28.544  31.480  1.00  0.00     0.074 A 
ATOM    103  C   UNL A   1      42.801  31.119  37.165  1.00  0.00    -0.036 A 
ATOM    104  N   UNL A   1      41.969  30.640  35.159  1.00  0.00    -0.354 N 
ATOM    105  N   UNL A   1      41.797  29.134  32.639  1.00  0.00    -0.248 NA
ATOM    106  C   UNL A   1      42.620  27.497  31.192  1.00  0.00    -0.034 C 
ATOM    107  C   UNL A   1      43.573  30.101  36.597  1.00  0.00    -0.036 A 
ATOM    108  H   UNL A   1      42.936  31.530  38.103  1.00  0.00     0.065 H 
ATOM    109  C   UNL A   1      43.037  29.780  35.360  1.00  0.00     0.049 A 
ATOM    110  H   UNL A   1      41.397  30.653  34.358  1.00  0.00     0.167 HD
ATOM    111  C   UNL A   1      42.887  28.510  33.233  1.00  0.00     0.074 A 
ATOM    112  C   UNL A   1      43.332  27.487  32.310  1.00  0.00    -0.034 C 
ATOM    113  H   UNL A   1      42.730  26.922  30.344  1.00  0.00     0.065 H 
ATOM    114  H   UNL A   1      44.403  29.662  37.026  1.00  0.00     0.065 H 
ATOM    115  C   UNL A   1      43.464  28.762  34.434  1.00  0.00     0.037 A 
ATOM    116  H   UNL A   1      44.108  26.833  32.499  1.00  0.00     0.065 H 
BRANCH  97 117
ATOM    117  C   UNL A   1      40.864  33.411  37.574  1.00  0.00     0.064 A 
ATOM    118  C   UNL A   1      39.988  33.220  38.655  1.00  0.00     0.173 A 
ATOM    119  C   UNL A   1      41.798  34.453  37.668  1.00  0.00     0.173 A 
ATOM    120  F   UNL A   1      39.067  32.245  38.614  1.00  0.00    -0.203 F 
ATOM    121  C   UNL A   1      40.022  34.060  39.765  1.00  0.00     0.198 A 
ATOM    122  C   UNL A   1      41.853  35.270  38.795  1.00  0.00     0.198 A 
ATOM    123  F   UNL A   1      42.663  34.679  36.668  1.00  0.00    -0.203 F 
ATOM    124  F   UNL A   1      39.134  33.895  40.756  1.00  0.00    -0.200 F 
ATOM    125  C   UNL A   1      40.959  35.080  39.836  1.00  0.00     0.200 A 
ATOM    126  F   UNL A   1      42.769  36.245  38.870  1.00  0.00    -0.200 F 
ATOM    127  F   UNL A   1      40.994  35.885  40.908  1.00  0.00    -0.200 F 
ENDBRANCH  97 117
BRANCH 100 128
ATOM    128  C   UNL A   1      40.550  27.998  29.173  1.00  0.00     0.064 A 
ATOM    129  C   UNL A   1      41.310  28.385  28.061  1.00  0.00     0.173 A 
ATOM    130  C   UNL A   1      39.772  26.837  29.059  1.00  0.00     0.173 A 
ATOM    131  F   UNL A   1      42.057  29.497  28.116  1.00  0.00    -0.203 F 
ATOM    132  C   UNL A   1      41.276  27.653  26.876  1.00  0.00     0.198 A 
ATOM    133  C   UNL A   1      39.764  26.087  27.884  1.00  0.00     0.198 A 
ATOM    134  F   UNL A   1      39.033  26.418  30.097  1.00  0.00    -0.203 F 
ATOM    135  F   UNL A   1      41.978  28.070  25.813  1.00  0.00    -0.200 F 
ATOM    136  C   UNL A   1      40.509  26.501  26.791  1.00  0.00     0.200 A 
ATOM    137  F   UNL A   1      39.034  24.966  27.813  1.00  0.00    -0.200 F 
ATOM    138  F   UNL A   1      40.484  25.793  25.654  1.00  0.00    -0.200 F 
ENDBRANCH 100 128
BRANCH 115 139
ATOM    139  C   UNL A   1      44.616  27.889  34.841  1.00  0.00     0.064 A 
ATOM    140  C   UNL A   1      45.946  28.249  34.581  1.00  0.00     0.173 A 
ATOM    141  C   UNL A   1      44.385  26.694  35.540  1.00  0.00     0.173 A 
ATOM    142  F   UNL A   1      46.222  29.375  33.903  1.00  0.00    -0.203 F 
ATOM    143  C   UNL A   1      47.000  27.432  34.978  1.00  0.00     0.198 A 
ATOM    144  C   UNL A   1      45.443  25.898  35.968  1.00  0.00     0.198 A 
ATOM    145  F   UNL A   1      43.132  26.307  35.824  1.00  0.00    -0.203 F 
ATOM    146  F   UNL A   1      48.261  27.769  34.672  1.00  0.00    -0.200 F 
ATOM    147  C   UNL A   1      46.749  26.261  35.679  1.00  0.00     0.200 A 
ATOM    148  F   UNL A   1      45.197  24.776  36.660  1.00  0.00    -0.200 F 
ATOM    149  F   UNL A   1      47.765  25.480  36.070  1.00  0.00    -0.200 F 
ENDBRANCH 115 139
ENDBRANCH  80  83
ENDBRANCH  70  73
ENDBRANCH  66  69
ENDBRANCH  63  66
ENDBRANCH  60  63
ENDBRANCH  57  60
ENDBRANCH  54  57
ENDBRANCH   1  54
TORSDOF 24
ENDMDL
MODEL 7
REMARK VINA RESULT:     -11.2      1.550      7.347
REMARK SMILES [NH3+][C@@H](Cc1c[nH]c2ccccc12)C(=O)N[C@@H](CS)C(=O)N[C@@H](CO)C(=O)NCCCCCCNC(=O)c1ccc(-c2c3nc(c(-c4c(F)c(F)c(F)c(F)c4F)c4ccc([nH]4)c(-c4c(F)c(F)c(F)c(F)c4F)c4nc(c(-c5c(F)c(F)c(F)c(F)c5F)c5ccc2[nH]5)C=C4)C=C3)cc1
REMARK SMILES IDX 28 1 27 4 25 5 26 6 22 8 21 10 19 11 20 12 16 14 15 16 13 17
REMARK SMILES IDX 14 18 2 20 1 22 3 26 4 29 5 30 12 31 6 32 7 34 11 35 8 37
REMARK SMILES IDX 10 38 9 40 17 44 18 47 23 49 24 52 29 54 30 57 31 60 32 63
REMARK SMILES IDX 33 66 34 69 35 70 36 72 37 73 38 74 99 75 39 76 98 78 40 80
REMARK SMILES IDX 41 83 42 84 92 85 43 86 97 87 91 88 93 89 44 90 96 91 90 93
REMARK SMILES IDX 89 95 45 97 77 100 57 101 76 102 58 103 61 104 75 105 94 106
REMARK SMILES IDX 59 107 60 109 74 111 95 112 62 115 46 117 47 118 55 119
REMARK SMILES IDX 48 120 49 121 53 122 56 123 50 124 51 125 54 126 52 127
REMARK SMILES IDX 78 128 79 129 87 130 80 131 81 132 85 133 88 134 82 135
REMARK SMILES IDX 83 136 86 137 84 138 63 139 64 140 72 141 65 142 66 143
REMARK SMILES IDX 70 144 73 145 67 146 68 147 71 148 69 149
REMARK H PARENT 28 2 28 3 27 7 22 9 21 13 16 15 15 19 2 21 1 23 1 24 1 25 3 27
REMARK H PARENT 3 28 5 33 6 36 11 39 8 41 10 42 9 43 17 45 17 46 18 48 23 50
REMARK H PARENT 23 51 24 53 29 55 29 56 30 58 30 59 31 61 31 62 32 64 32 65
REMARK H PARENT 33 67 33 68 34 71 38 77 99 79 39 81 98 82 97 92 91 94 93 96
REMARK H PARENT 96 98 90 99 58 108 61 110 94 113 59 114 95 116
REMARK Flexibility Score: inf
ROOT
ATOM      1  C   UNL A   1      33.981  27.778  26.373  1.00  0.00     0.017 C 
ATOM      2  H   UNL A   1      34.785  27.999  25.703  1.00  0.00     0.049 H 
ATOM      3  H   UNL A   1      34.082  26.796  26.785  1.00  0.00     0.049 H 
ENDROOT
BRANCH   1   4
ATOM      4  N   UNL A   1      32.733  27.831  25.639  1.00  0.00    -0.354 N 
ATOM      5  C   UNL A   1      32.408  27.386  24.395  1.00  0.00     0.244 C 
ATOM      6  O   UNL A   1      31.207  27.280  24.131  1.00  0.00    -0.273 OA
ATOM      7  H   UNL A   1      31.993  28.264  26.123  1.00  0.00     0.163 HD
BRANCH   5   8
ATOM      8  C   UNL A   1      33.470  26.954  23.381  1.00  0.00     0.131 C 
ATOM      9  H   UNL A   1      34.354  26.712  23.933  1.00  0.00     0.066 H 
BRANCH   8  10
ATOM     10  N   UNL A   1      33.072  25.738  22.681  1.00  0.00    -0.340 N 
ATOM     11  C   UNL A   1      33.496  24.493  22.975  1.00  0.00     0.244 C 
ATOM     12  O   UNL A   1      34.079  23.916  22.052  1.00  0.00    -0.273 OA
ATOM     13  H   UNL A   1      32.441  25.834  21.932  1.00  0.00     0.164 HD
BRANCH  11  14
ATOM     14  C   UNL A   1      33.380  23.894  24.388  1.00  0.00     0.117 C 
ATOM     15  H   UNL A   1      33.479  22.834  24.284  1.00  0.00     0.064 H 
BRANCH  14  16
ATOM     16  N   UNL A   1      34.496  24.343  25.195  1.00  0.00    -0.338 N 
ATOM     17  C   UNL A   1      35.594  23.581  25.516  1.00  0.00     0.279 C 
ATOM     18  O   UNL A   1      36.670  24.182  25.609  1.00  0.00    -0.268 OA
ATOM     19  H   UNL A   1      34.465  25.265  25.541  1.00  0.00     0.164 HD
BRANCH  17  20
ATOM     20  C   UNL A   1      35.491  22.061  25.867  1.00  0.00     0.168 C 
ATOM     21  H   UNL A   1      36.504  21.759  26.033  1.00  0.00     0.107 H 
BRANCH  20  22
ATOM     22  N   UNL A   1      34.724  21.889  27.119  1.00  0.00    -0.347 N 
ATOM     23  H   UNL A   1      35.077  21.077  27.625  1.00  0.00     0.345 HD
ATOM     24  H   UNL A   1      33.738  21.749  26.898  1.00  0.00     0.345 HD
ATOM     25  H   UNL A   1      34.827  22.722  27.699  1.00  0.00     0.345 HD
ENDBRANCH  20  22
BRANCH  20  26
ATOM     26  C   UNL A   1      35.241  21.017  24.744  1.00  0.00     0.036 C 
ATOM     27  H   UNL A   1      36.140  20.444  24.654  1.00  0.00     0.038 H 
ATOM     28  H   UNL A   1      34.948  21.626  23.914  1.00  0.00     0.038 H 
BRANCH  26  29
ATOM     29  C   UNL A   1      34.107  20.025  24.849  1.00  0.00    -0.016 A 
ATOM     30  C   UNL A   1      32.797  20.379  25.128  1.00  0.00     0.005 A 
ATOM     31  C   UNL A   1      34.109  18.587  24.748  1.00  0.00     0.003 A 
ATOM     32  N   UNL A   1      32.081  19.245  25.396  1.00  0.00    -0.361 N 
ATOM     33  H   UNL A   1      32.423  21.340  25.132  1.00  0.00     0.082 H 
ATOM     34  C   UNL A   1      32.886  18.140  25.259  1.00  0.00     0.046 A 
ATOM     35  C   UNL A   1      35.063  17.609  24.398  1.00  0.00    -0.053 A 
ATOM     36  H   UNL A   1      31.131  19.224  25.649  1.00  0.00     0.166 HD
ATOM     37  C   UNL A   1      32.627  16.798  25.563  1.00  0.00    -0.038 A 
ATOM     38  C   UNL A   1      34.824  16.262  24.695  1.00  0.00    -0.062 A 
ATOM     39  H   UNL A   1      35.938  17.887  23.925  1.00  0.00     0.063 H 
ATOM     40  C   UNL A   1      33.635  15.868  25.298  1.00  0.00    -0.060 A 
ATOM     41  H   UNL A   1      31.723  16.506  25.967  1.00  0.00     0.064 H 
ATOM     42  H   UNL A   1      35.539  15.553  24.464  1.00  0.00     0.062 H 
ATOM     43  H   UNL A   1      33.494  14.878  25.552  1.00  0.00     0.062 H 
ENDBRANCH  26  29
ENDBRANCH  20  26
ENDBRANCH  17  20
ENDBRANCH  14  16
BRANCH  14  44
ATOM     44  C   UNL A   1      31.993  23.773  25.035  1.00  0.00     0.020 C 
ATOM     45  H   UNL A   1      31.744  22.732  25.051  1.00  0.00     0.040 H 
ATOM     46  H   UNL A   1      31.372  24.402  24.433  1.00  0.00     0.040 H 
BRANCH  44  47
ATOM     47  S   UNL A   1      31.752  24.405  26.722  1.00  0.00    -0.177 SA
ATOM     48  H   UNL A   1      32.022  23.418  27.619  1.00  0.00     0.102 HD
ENDBRANCH  44  47
ENDBRANCH  14  44
ENDBRANCH  11  14
ENDBRANCH   8  10
BRANCH   8  49
ATOM     49  C   UNL A   1      33.892  28.094  22.437  1.00  0.00     0.072 C 
ATOM     50  H   UNL A   1      33.111  28.247  21.722  1.00  0.00     0.059 H 
ATOM     51  H   UNL A   1      34.812  27.796  21.981  1.00  0.00     0.059 H 
BRANCH  49  52
ATOM     52  O   UNL A   1      34.140  29.329  23.103  1.00  0.00    -0.394 OA
ATOM     53  H   UNL A   1      34.019  30.063  22.480  1.00  0.00     0.210 HD
ENDBRANCH  49  52
ENDBRANCH   8  49
ENDBRANCH   5   8
ENDBRANCH   1   4
BRANCH   1  54
ATOM     54  C   UNL A   1      34.007  28.778  27.522  1.00  0.00    -0.036 C 
ATOM     55  H   UNL A   1      35.020  28.890  27.848  1.00  0.00     0.028 H 
ATOM     56  H   UNL A   1      33.370  28.390  28.288  1.00  0.00     0.028 H 
BRANCH  54  57
ATOM     57  C   UNL A   1      33.465  30.160  27.151  1.00  0.00    -0.052 C 
ATOM     58  H   UNL A   1      32.422  30.186  27.394  1.00  0.00     0.027 H 
ATOM     59  H   UNL A   1      33.655  30.290  26.107  1.00  0.00     0.027 H 
BRANCH  57  60
ATOM     60  C   UNL A   1      34.152  31.326  27.868  1.00  0.00    -0.052 C 
ATOM     61  H   UNL A   1      35.211  31.184  27.795  1.00  0.00     0.027 H 
ATOM     62  H   UNL A   1      33.792  31.314  28.875  1.00  0.00     0.027 H 
BRANCH  60  63
ATOM     63  C   UNL A   1      33.819  32.713  27.310  1.00  0.00    -0.036 C 
ATOM     64  H   UNL A   1      33.891  32.671  26.243  1.00  0.00     0.028 H 
ATOM     65  H   UNL A   1      34.517  33.396  27.748  1.00  0.00     0.028 H 
BRANCH  63  66
ATOM     66  C   UNL A   1      32.432  33.214  27.676  1.00  0.00     0.018 C 
ATOM     67  H   UNL A   1      32.104  32.712  28.562  1.00  0.00     0.049 H 
ATOM     68  H   UNL A   1      31.777  33.010  26.855  1.00  0.00     0.049 H 
BRANCH  66  69
ATOM     69  N   UNL A   1      32.423  34.646  27.916  1.00  0.00    -0.352 N 
ATOM     70  C   UNL A   1      33.142  35.371  28.829  1.00  0.00     0.251 C 
ATOM     71  H   UNL A   1      31.816  35.168  27.343  1.00  0.00     0.163 HD
ATOM     72  O   UNL A   1      32.857  36.539  29.057  1.00  0.00    -0.269 OA
BRANCH  70  73
ATOM     73  C   UNL A   1      34.257  34.723  29.548  1.00  0.00     0.039 A 
ATOM     74  C   UNL A   1      33.980  34.016  30.719  1.00  0.00    -0.049 A 
ATOM     75  C   UNL A   1      35.567  34.816  29.068  1.00  0.00    -0.049 A 
ATOM     76  C   UNL A   1      35.017  33.369  31.390  1.00  0.00    -0.053 A 
ATOM     77  H   UNL A   1      33.016  33.974  31.085  1.00  0.00     0.063 H 
ATOM     78  C   UNL A   1      36.582  34.097  29.690  1.00  0.00    -0.053 A 
ATOM     79  H   UNL A   1      35.779  35.416  28.256  1.00  0.00     0.063 H 
ATOM     80  C   UNL A   1      36.320  33.383  30.866  1.00  0.00    -0.014 A 
ATOM     81  H   UNL A   1      34.825  32.877  32.276  1.00  0.00     0.063 H 
ATOM     82  H   UNL A   1      37.531  34.091  29.283  1.00  0.00     0.063 H 
BRANCH  80  83
ATOM     83  C   UNL A   1      37.419  32.661  31.554  1.00  0.00     0.031 A 
ATOM     84  C   UNL A   1      38.089  31.490  30.891  1.00  0.00     0.074 A 
ATOM     85  C   UNL A   1      37.786  33.041  32.792  1.00  0.00     0.049 A 
ATOM     86  N   UNL A   1      39.068  30.741  31.330  1.00  0.00    -0.248 NA
ATOM     87  C   UNL A   1      37.573  31.087  29.573  1.00  0.00    -0.034 C 
ATOM     88  C   UNL A   1      37.166  34.120  33.562  1.00  0.00    -0.036 A 
ATOM     89  N   UNL A   1      38.768  32.564  33.621  1.00  0.00    -0.354 N 
ATOM     90  C   UNL A   1      39.275  29.777  30.351  1.00  0.00     0.074 A 
ATOM     91  C   UNL A   1      38.278  29.995  29.326  1.00  0.00    -0.034 C 
ATOM     92  H   UNL A   1      36.848  31.539  28.993  1.00  0.00     0.065 H 
ATOM     93  C   UNL A   1      37.804  34.247  34.736  1.00  0.00    -0.036 A 
ATOM     94  H   UNL A   1      36.364  34.692  33.252  1.00  0.00     0.065 H 
ATOM     95  C   UNL A   1      38.855  33.237  34.816  1.00  0.00     0.049 A 
ATOM     96  H   UNL A   1      39.357  31.811  33.384  1.00  0.00     0.167 HD
ATOM     97  C   UNL A   1      40.229  28.818  30.299  1.00  0.00     0.037 A 
ATOM     98  H   UNL A   1      38.136  29.380  28.510  1.00  0.00     0.065 H 
ATOM     99  H   UNL A   1      37.588  34.945  35.463  1.00  0.00     0.065 H 
ATOM    100  C   UNL A   1      39.689  33.059  35.857  1.00  0.00     0.037 A 
ATOM    101  C   UNL A   1      41.230  28.622  31.312  1.00  0.00     0.049 A 
ATOM    102  C   UNL A   1      40.747  31.992  35.771  1.00  0.00     0.074 A 
ATOM    103  C   UNL A   1      42.282  27.725  31.326  1.00  0.00    -0.036 A 
ATOM    104  N   UNL A   1      41.298  29.335  32.502  1.00  0.00    -0.354 N 
ATOM    105  N   UNL A   1      40.991  31.145  34.800  1.00  0.00    -0.248 NA
ATOM    106  C   UNL A   1      41.653  31.864  36.920  1.00  0.00    -0.034 C 
ATOM    107  C   UNL A   1      42.950  27.852  32.547  1.00  0.00    -0.036 A 
ATOM    108  H   UNL A   1      42.531  27.073  30.565  1.00  0.00     0.065 H 
ATOM    109  C   UNL A   1      42.358  28.876  33.269  1.00  0.00     0.049 A 
ATOM    110  H   UNL A   1      40.684  30.059  32.763  1.00  0.00     0.167 HD
ATOM    111  C   UNL A   1      42.096  30.406  35.206  1.00  0.00     0.074 A 
ATOM    112  C   UNL A   1      42.481  30.916  36.505  1.00  0.00    -0.034 C 
ATOM    113  H   UNL A   1      41.646  32.378  37.814  1.00  0.00     0.065 H 
ATOM    114  H   UNL A   1      43.750  27.279  32.861  1.00  0.00     0.065 H 
ATOM    115  C   UNL A   1      42.732  29.399  34.559  1.00  0.00     0.037 A 
ATOM    116  H   UNL A   1      43.298  30.583  37.040  1.00  0.00     0.065 H 
BRANCH  97 117
ATOM    117  C   UNL A   1      40.231  27.904  29.105  1.00  0.00     0.064 A 
ATOM    118  C   UNL A   1      40.960  28.206  27.943  1.00  0.00     0.173 A 
ATOM    119  C   UNL A   1      39.518  26.696  29.132  1.00  0.00     0.173 A 
ATOM    120  F   UNL A   1      41.652  29.352  27.858  1.00  0.00    -0.203 F 
ATOM    121  C   UNL A   1      40.945  27.353  26.843  1.00  0.00     0.198 A 
ATOM    122  C   UNL A   1      39.533  25.828  28.043  1.00  0.00     0.198 A 
ATOM    123  F   UNL A   1      38.808  26.353  30.218  1.00  0.00    -0.203 F 
ATOM    124  F   UNL A   1      41.599  27.693  25.724  1.00  0.00    -0.200 F 
ATOM    125  C   UNL A   1      40.237  26.161  26.897  1.00  0.00     0.200 A 
ATOM    126  F   UNL A   1      38.862  24.670  28.102  1.00  0.00    -0.200 F 
ATOM    127  F   UNL A   1      40.228  25.338  25.839  1.00  0.00    -0.200 F 
ENDBRANCH  97 117
BRANCH 100 128
ATOM    128  C   UNL A   1      39.579  33.937  37.051  1.00  0.00     0.064 A 
ATOM    129  C   UNL A   1      38.836  33.542  38.173  1.00  0.00     0.173 A 
ATOM    130  C   UNL A   1      40.222  35.182  37.101  1.00  0.00     0.173 A 
ATOM    131  F   UNL A   1      38.190  32.367  38.167  1.00  0.00    -0.203 F 
ATOM    132  C   UNL A   1      38.723  34.368  39.288  1.00  0.00     0.198 A 
ATOM    133  C   UNL A   1      40.134  35.994  38.230  1.00  0.00     0.198 A 
ATOM    134  F   UNL A   1      40.953  35.604  36.058  1.00  0.00    -0.203 F 
ATOM    135  F   UNL A   1      37.969  33.985  40.329  1.00  0.00    -0.200 F 
ATOM    136  C   UNL A   1      39.377  35.591  39.319  1.00  0.00     0.200 A 
ATOM    137  F   UNL A   1      40.782  37.166  38.262  1.00  0.00    -0.200 F 
ATOM    138  F   UNL A   1      39.274  36.381  40.396  1.00  0.00    -0.200 F 
ENDBRANCH 100 128
BRANCH 115 139
ATOM    139  C   UNL A   1      43.941  28.808  35.226  1.00  0.00     0.064 A 
ATOM    140  C   UNL A   1      43.840  27.742  36.132  1.00  0.00     0.173 A 
ATOM    141  C   UNL A   1      45.224  29.288  34.918  1.00  0.00     0.173 A 
ATOM    142  F   UNL A   1      42.636  27.255  36.471  1.00  0.00    -0.203 F 
ATOM    143  C   UNL A   1      44.974  27.201  36.730  1.00  0.00     0.198 A 
ATOM    144  C   UNL A   1      46.358  28.719  35.490  1.00  0.00     0.198 A 
ATOM    145  F   UNL A   1      45.378  30.299  34.050  1.00  0.00    -0.203 F 
ATOM    146  F   UNL A   1      44.850  26.218  37.634  1.00  0.00    -0.200 F 
ATOM    147  C   UNL A   1      46.233  27.683  36.402  1.00  0.00     0.200 A 
ATOM    148  F   UNL A   1      47.574  29.176  35.158  1.00  0.00    -0.200 F 
ATOM    149  F   UNL A   1      47.325  27.153  36.970  1.00  0.00    -0.200 F 
ENDBRANCH 115 139
ENDBRANCH  80  83
ENDBRANCH  70  73
ENDBRANCH  66  69
ENDBRANCH  63  66
ENDBRANCH  60  63
ENDBRANCH  57  60
ENDBRANCH  54  57
ENDBRANCH   1  54
TORSDOF 24
ENDMDL
MODEL 8
REMARK VINA RESULT:     -11.1      5.003     10.014
REMARK SMILES [NH3+][C@@H](Cc1c[nH]c2ccccc12)C(=O)N[C@@H](CS)C(=O)N[C@@H](CO)C(=O)NCCCCCCNC(=O)c1ccc(-c2c3nc(c(-c4c(F)c(F)c(F)c(F)c4F)c4ccc([nH]4)c(-c4c(F)c(F)c(F)c(F)c4F)c4nc(c(-c5c(F)c(F)c(F)c(F)c5F)c5ccc2[nH]5)C=C4)C=C3)cc1
REMARK SMILES IDX 28 1 27 4 25 5 26 6 22 8 21 10 19 11 20 12 16 14 15 16 13 17
REMARK SMILES IDX 14 18 2 20 1 22 3 26 4 29 5 30 12 31 6 32 7 34 11 35 8 37
REMARK SMILES IDX 10 38 9 40 17 44 18 47 23 49 24 52 29 54 30 57 31 60 32 63
REMARK SMILES IDX 33 66 34 69 35 70 36 72 37 73 38 74 99 75 39 76 98 78 40 80
REMARK SMILES IDX 41 83 42 84 92 85 43 86 97 87 91 88 93 89 44 90 96 91 90 93
REMARK SMILES IDX 89 95 45 97 77 100 57 101 76 102 58 103 61 104 75 105 94 106
REMARK SMILES IDX 59 107 60 109 74 111 95 112 62 115 46 117 47 118 55 119
REMARK SMILES IDX 48 120 49 121 53 122 56 123 50 124 51 125 54 126 52 127
REMARK SMILES IDX 78 128 79 129 87 130 80 131 81 132 85 133 88 134 82 135
REMARK SMILES IDX 83 136 86 137 84 138 63 139 64 140 72 141 65 142 66 143
REMARK SMILES IDX 70 144 73 145 67 146 68 147 71 148 69 149
REMARK H PARENT 28 2 28 3 27 7 22 9 21 13 16 15 15 19 2 21 1 23 1 24 1 25 3 27
REMARK H PARENT 3 28 5 33 6 36 11 39 8 41 10 42 9 43 17 45 17 46 18 48 23 50
REMARK H PARENT 23 51 24 53 29 55 29 56 30 58 30 59 31 61 31 62 32 64 32 65
REMARK H PARENT 33 67 33 68 34 71 38 77 99 79 39 81 98 82 97 92 91 94 93 96
REMARK H PARENT 96 98 90 99 58 108 61 110 94 113 59 114 95 116
REMARK Flexibility Score: inf
ROOT
ATOM      1  C   UNL A   1      33.298  20.353  25.324  1.00  0.00     0.017 C 
ATOM      2  H   UNL A   1      32.492  20.735  24.733  1.00  0.00     0.049 H 
ATOM      3  H   UNL A   1      33.243  19.288  25.405  1.00  0.00     0.049 H 
ENDROOT
BRANCH   1   4
ATOM      4  N   UNL A   1      33.207  20.911  26.658  1.00  0.00    -0.354 N 
ATOM      5  C   UNL A   1      32.955  22.179  27.080  1.00  0.00     0.244 C 
ATOM      6  O   UNL A   1      32.630  22.325  28.262  1.00  0.00    -0.273 OA
ATOM      7  H   UNL A   1      33.352  20.261  27.383  1.00  0.00     0.163 HD
BRANCH   5   8
ATOM      8  C   UNL A   1      32.990  23.378  26.129  1.00  0.00     0.131 C 
ATOM      9  H   UNL A   1      32.899  22.994  25.134  1.00  0.00     0.066 H 
BRANCH   8  10
ATOM     10  N   UNL A   1      31.846  24.258  26.340  1.00  0.00    -0.340 N 
ATOM     11  C   UNL A   1      31.827  25.584  26.100  1.00  0.00     0.244 C 
ATOM     12  O   UNL A   1      31.570  26.281  27.086  1.00  0.00    -0.273 OA
ATOM     13  H   UNL A   1      31.021  23.849  26.685  1.00  0.00     0.164 HD
BRANCH  11  14
ATOM     14  C   UNL A   1      32.224  26.183  24.740  1.00  0.00     0.117 C 
ATOM     15  H   UNL A   1      31.451  26.870  24.466  1.00  0.00     0.064 H 
BRANCH  14  16
ATOM     16  N   UNL A   1      33.439  26.956  24.889  1.00  0.00    -0.338 N 
ATOM     17  C   UNL A   1      33.490  28.313  25.100  1.00  0.00     0.279 C 
ATOM     18  O   UNL A   1      34.412  28.723  25.813  1.00  0.00    -0.268 OA
ATOM     19  H   UNL A   1      34.296  26.471  24.836  1.00  0.00     0.164 HD
BRANCH  17  20
ATOM     20  C   UNL A   1      32.520  29.312  24.390  1.00  0.00     0.168 C 
ATOM     21  H   UNL A   1      32.773  30.266  24.804  1.00  0.00     0.107 H 
BRANCH  20  22
ATOM     22  N   UNL A   1      32.795  29.328  22.937  1.00  0.00    -0.347 N 
ATOM     23  H   UNL A   1      33.651  29.851  22.759  1.00  0.00     0.345 HD
ATOM     24  H   UNL A   1      32.017  29.773  22.449  1.00  0.00     0.345 HD
ATOM     25  H   UNL A   1      32.904  28.371  22.602  1.00  0.00     0.345 HD
ENDBRANCH  20  22
BRANCH  20  26
ATOM     26  C   UNL A   1      31.030  29.390  24.821  1.00  0.00     0.036 C 
ATOM     27  H   UNL A   1      30.942  30.240  25.465  1.00  0.00     0.038 H 
ATOM     28  H   UNL A   1      30.852  28.421  25.240  1.00  0.00     0.038 H 
BRANCH  26  29
ATOM     29  C   UNL A   1      29.932  29.516  23.791  1.00  0.00    -0.016 A 
ATOM     30  C   UNL A   1      29.422  28.446  23.074  1.00  0.00     0.005 A 
ATOM     31  C   UNL A   1      29.237  30.680  23.300  1.00  0.00     0.003 A 
ATOM     32  N   UNL A   1      28.633  28.926  22.066  1.00  0.00    -0.361 N 
ATOM     33  H   UNL A   1      29.607  27.450  23.270  1.00  0.00     0.082 H 
ATOM     34  C   UNL A   1      28.578  30.297  22.127  1.00  0.00     0.046 A 
ATOM     35  C   UNL A   1      29.201  32.046  23.651  1.00  0.00    -0.053 A 
ATOM     36  H   UNL A   1      28.173  28.372  21.395  1.00  0.00     0.166 HD
ATOM     37  C   UNL A   1      28.013  31.214  21.232  1.00  0.00    -0.038 A 
ATOM     38  C   UNL A   1      28.642  32.978  22.768  1.00  0.00    -0.062 A 
ATOM     39  H   UNL A   1      29.586  32.357  24.556  1.00  0.00     0.063 H 
ATOM     40  C   UNL A   1      28.085  32.569  21.562  1.00  0.00    -0.060 A 
ATOM     41  H   UNL A   1      27.559  30.900  20.359  1.00  0.00     0.064 H 
ATOM     42  H   UNL A   1      28.644  33.981  23.016  1.00  0.00     0.062 H 
ATOM     43  H   UNL A   1      27.720  33.274  20.902  1.00  0.00     0.062 H 
ENDBRANCH  26  29
ENDBRANCH  20  26
ENDBRANCH  17  20
ENDBRANCH  14  16
BRANCH  14  44
ATOM     44  C   UNL A   1      32.026  25.344  23.469  1.00  0.00     0.020 C 
ATOM     45  H   UNL A   1      30.975  25.323  23.267  1.00  0.00     0.040 H 
ATOM     46  H   UNL A   1      32.484  24.406  23.706  1.00  0.00     0.040 H 
BRANCH  44  47
ATOM     47  S   UNL A   1      32.855  25.862  21.936  1.00  0.00    -0.177 SA
ATOM     48  H   UNL A   1      31.928  26.034  20.956  1.00  0.00     0.102 HD
ENDBRANCH  44  47
ENDBRANCH  14  44
ENDBRANCH  11  14
ENDBRANCH   8  10
BRANCH   8  49
ATOM     49  C   UNL A   1      34.342  24.115  26.146  1.00  0.00     0.072 C 
ATOM     50  H   UNL A   1      34.212  25.044  26.660  1.00  0.00     0.059 H 
ATOM     51  H   UNL A   1      34.637  24.247  25.127  1.00  0.00     0.059 H 
BRANCH  49  52
ATOM     52  O   UNL A   1      35.384  23.386  26.790  1.00  0.00    -0.394 OA
ATOM     53  H   UNL A   1      36.238  23.804  26.594  1.00  0.00     0.210 HD
ENDBRANCH  49  52
ENDBRANCH   8  49
ENDBRANCH   5   8
ENDBRANCH   1   4
BRANCH   1  54
ATOM     54  C   UNL A   1      34.617  20.708  24.649  1.00  0.00    -0.036 C 
ATOM     55  H   UNL A   1      34.901  21.692  24.962  1.00  0.00     0.028 H 
ATOM     56  H   UNL A   1      34.454  20.645  23.593  1.00  0.00     0.028 H 
BRANCH  54  57
ATOM     57  C   UNL A   1      35.761  19.748  24.981  1.00  0.00    -0.052 C 
ATOM     58  H   UNL A   1      35.678  18.895  24.339  1.00  0.00     0.027 H 
ATOM     59  H   UNL A   1      35.660  19.504  26.017  1.00  0.00     0.027 H 
BRANCH  57  60
ATOM     60  C   UNL A   1      37.162  20.343  24.808  1.00  0.00    -0.052 C 
ATOM     61  H   UNL A   1      37.277  21.135  25.519  1.00  0.00     0.027 H 
ATOM     62  H   UNL A   1      37.223  20.674  23.793  1.00  0.00     0.027 H 
BRANCH  60  63
ATOM     63  C   UNL A   1      38.312  19.353  25.007  1.00  0.00    -0.036 C 
ATOM     64  H   UNL A   1      38.861  19.287  24.091  1.00  0.00     0.028 H 
ATOM     65  H   UNL A   1      37.869  18.421  25.293  1.00  0.00     0.028 H 
BRANCH  63  66
ATOM     66  C   UNL A   1      39.279  19.735  26.116  1.00  0.00     0.018 C 
ATOM     67  H   UNL A   1      38.779  19.644  27.058  1.00  0.00     0.049 H 
ATOM     68  H   UNL A   1      39.598  20.742  25.947  1.00  0.00     0.049 H 
BRANCH  66  69
ATOM     69  N   UNL A   1      40.454  18.883  26.123  1.00  0.00    -0.352 N 
ATOM     70  C   UNL A   1      41.777  19.239  26.115  1.00  0.00     0.251 C 
ATOM     71  H   UNL A   1      40.275  17.915  26.136  1.00  0.00     0.163 HD
ATOM     72  O   UNL A   1      42.644  18.404  25.898  1.00  0.00    -0.269 OA
BRANCH  70  73
ATOM     73  C   UNL A   1      42.146  20.649  26.357  1.00  0.00     0.039 A 
ATOM     74  C   UNL A   1      42.337  21.076  27.672  1.00  0.00    -0.049 A 
ATOM     75  C   UNL A   1      42.298  21.541  25.291  1.00  0.00    -0.049 A 
ATOM     76  C   UNL A   1      42.720  22.395  27.914  1.00  0.00    -0.053 A 
ATOM     77  H   UNL A   1      42.196  20.422  28.457  1.00  0.00     0.063 H 
ATOM     78  C   UNL A   1      42.764  22.829  25.530  1.00  0.00    -0.053 A 
ATOM     79  H   UNL A   1      42.065  21.245  24.331  1.00  0.00     0.063 H 
ATOM     80  C   UNL A   1      42.962  23.273  26.844  1.00  0.00    -0.014 A 
ATOM     81  H   UNL A   1      42.827  22.727  28.885  1.00  0.00     0.063 H 
ATOM     82  H   UNL A   1      42.966  23.458  24.737  1.00  0.00     0.063 H 
BRANCH  80  83
ATOM     83  C   UNL A   1      43.410  24.666  27.095  1.00  0.00     0.031 A 
ATOM     84  C   UNL A   1      42.446  25.687  27.630  1.00  0.00     0.074 A 
ATOM     85  C   UNL A   1      44.677  25.014  26.805  1.00  0.00     0.049 A 
ATOM     86  N   UNL A   1      42.652  26.947  27.918  1.00  0.00    -0.248 NA
ATOM     87  C   UNL A   1      41.058  25.245  27.842  1.00  0.00    -0.034 C 
ATOM     88  C   UNL A   1      45.685  24.127  26.221  1.00  0.00    -0.036 A 
ATOM     89  N   UNL A   1      45.335  26.207  26.961  1.00  0.00    -0.354 N 
ATOM     90  C   UNL A   1      41.424  27.446  28.332  1.00  0.00     0.074 A 
ATOM     91  C   UNL A   1      40.463  26.374  28.196  1.00  0.00    -0.034 C 
ATOM     92  H   UNL A   1      40.654  24.301  27.739  1.00  0.00     0.065 H 
ATOM     93  C   UNL A   1      46.842  24.794  26.102  1.00  0.00    -0.036 A 
ATOM     94  H   UNL A   1      45.528  23.145  25.946  1.00  0.00     0.065 H 
ATOM     95  C   UNL A   1      46.651  26.165  26.566  1.00  0.00     0.049 A 
ATOM     96  H   UNL A   1      44.907  27.017  27.321  1.00  0.00     0.167 HD
ATOM     97  C   UNL A   1      41.131  28.678  28.811  1.00  0.00     0.037 A 
ATOM     98  H   UNL A   1      39.449  26.475  28.355  1.00  0.00     0.065 H 
ATOM     99  H   UNL A   1      47.725  24.403  25.740  1.00  0.00     0.065 H 
ATOM    100  C   UNL A   1      47.595  27.124  26.580  1.00  0.00     0.037 A 
ATOM    101  C   UNL A   1      42.097  29.733  28.964  1.00  0.00     0.049 A 
ATOM    102  C   UNL A   1      47.248  28.483  27.124  1.00  0.00     0.074 A 
ATOM    103  C   UNL A   1      41.921  30.995  29.500  1.00  0.00    -0.036 A 
ATOM    104  N   UNL A   1      43.426  29.649  28.569  1.00  0.00    -0.354 N 
ATOM    105  N   UNL A   1      46.105  28.918  27.598  1.00  0.00    -0.248 NA
ATOM    106  C   UNL A   1      48.325  29.482  27.148  1.00  0.00    -0.034 C 
ATOM    107  C   UNL A   1      43.125  31.695  29.376  1.00  0.00    -0.036 A 
ATOM    108  H   UNL A   1      41.050  31.358  29.920  1.00  0.00     0.065 H 
ATOM    109  C   UNL A   1      44.073  30.848  28.825  1.00  0.00     0.049 A 
ATOM    110  H   UNL A   1      43.847  28.855  28.167  1.00  0.00     0.167 HD
ATOM    111  C   UNL A   1      46.332  30.226  28.006  1.00  0.00     0.074 A 
ATOM    112  C   UNL A   1      47.726  30.508  27.735  1.00  0.00    -0.034 C 
ATOM    113  H   UNL A   1      49.292  29.403  26.801  1.00  0.00     0.065 H 
ATOM    114  H   UNL A   1      43.282  32.679  29.649  1.00  0.00     0.065 H 
ATOM    115  C   UNL A   1      45.464  31.111  28.555  1.00  0.00     0.037 A 
ATOM    116  H   UNL A   1      48.194  31.398  27.970  1.00  0.00     0.065 H 
BRANCH  97 117
ATOM    117  C   UNL A   1      39.705  28.952  29.201  1.00  0.00     0.064 A 
ATOM    118  C   UNL A   1      39.244  28.746  30.512  1.00  0.00     0.173 A 
ATOM    119  C   UNL A   1      38.794  29.455  28.261  1.00  0.00     0.173 A 
ATOM    120  F   UNL A   1      40.070  28.256  31.449  1.00  0.00    -0.203 F 
ATOM    121  C   UNL A   1      37.918  28.996  30.854  1.00  0.00     0.198 A 
ATOM    122  C   UNL A   1      37.477  29.738  28.615  1.00  0.00     0.198 A 
ATOM    123  F   UNL A   1      39.181  29.678  26.995  1.00  0.00    -0.203 F 
ATOM    124  F   UNL A   1      37.487  28.732  32.096  1.00  0.00    -0.200 F 
ATOM    125  C   UNL A   1      37.038  29.499  29.908  1.00  0.00     0.200 A 
ATOM    126  F   UNL A   1      36.633  30.239  27.704  1.00  0.00    -0.200 F 
ATOM    127  F   UNL A   1      35.763  29.745  30.241  1.00  0.00    -0.200 F 
ENDBRANCH  97 117
BRANCH 100 128
ATOM    128  C   UNL A   1      48.966  26.819  26.094  1.00  0.00     0.064 A 
ATOM    129  C   UNL A   1      49.943  26.310  26.961  1.00  0.00     0.173 A 
ATOM    130  C   UNL A   1      49.325  27.020  24.753  1.00  0.00     0.173 A 
ATOM    131  F   UNL A   1      49.653  26.116  28.255  1.00  0.00    -0.203 F 
ATOM    132  C   UNL A   1      51.232  26.033  26.510  1.00  0.00     0.198 A 
ATOM    133  C   UNL A   1      50.605  26.713  24.296  1.00  0.00     0.198 A 
ATOM    134  F   UNL A   1      48.425  27.496  23.880  1.00  0.00    -0.203 F 
ATOM    135  F   UNL A   1      52.159  25.589  27.370  1.00  0.00    -0.200 F 
ATOM    136  C   UNL A   1      51.560  26.228  25.177  1.00  0.00     0.200 A 
ATOM    137  F   UNL A   1      50.912  26.886  23.003  1.00  0.00    -0.200 F 
ATOM    138  F   UNL A   1      52.797  25.954  24.742  1.00  0.00    -0.200 F 
ENDBRANCH 100 128
BRANCH 115 139
ATOM    139  C   UNL A   1      46.006  32.458  28.942  1.00  0.00     0.064 A 
ATOM    140  C   UNL A   1      45.974  33.549  28.062  1.00  0.00     0.173 A 
ATOM    141  C   UNL A   1      46.525  32.667  30.229  1.00  0.00     0.173 A 
ATOM    142  F   UNL A   1      45.501  33.399  26.815  1.00  0.00    -0.203 F 
ATOM    143  C   UNL A   1      46.470  34.792  28.445  1.00  0.00     0.198 A 
ATOM    144  C   UNL A   1      46.986  33.920  30.621  1.00  0.00     0.198 A 
ATOM    145  F   UNL A   1      46.570  31.659  31.113  1.00  0.00    -0.203 F 
ATOM    146  F   UNL A   1      46.479  35.808  27.570  1.00  0.00    -0.200 F 
ATOM    147  C   UNL A   1      46.967  34.979  29.727  1.00  0.00     0.200 A 
ATOM    148  F   UNL A   1      47.451  34.102  31.865  1.00  0.00    -0.200 F 
ATOM    149  F   UNL A   1      47.435  36.179  30.097  1.00  0.00    -0.200 F 
ENDBRANCH 115 139
ENDBRANCH  80  83
ENDBRANCH  70  73
ENDBRANCH  66  69
ENDBRANCH  63  66
ENDBRANCH  60  63
ENDBRANCH  57  60
ENDBRANCH  54  57
ENDBRANCH   1  54
TORSDOF 24
ENDMDL
MODEL 9
REMARK VINA RESULT:     -11.1      4.880     11.066
REMARK SMILES [NH3+][C@@H](Cc1c[nH]c2ccccc12)C(=O)N[C@@H](CS)C(=O)N[C@@H](CO)C(=O)NCCCCCCNC(=O)c1ccc(-c2c3nc(c(-c4c(F)c(F)c(F)c(F)c4F)c4ccc([nH]4)c(-c4c(F)c(F)c(F)c(F)c4F)c4nc(c(-c5c(F)c(F)c(F)c(F)c5F)c5ccc2[nH]5)C=C4)C=C3)cc1
REMARK SMILES IDX 28 1 27 4 25 5 26 6 22 8 21 10 19 11 20 12 16 14 15 16 13 17
REMARK SMILES IDX 14 18 2 20 1 22 3 26 4 29 5 30 12 31 6 32 7 34 11 35 8 37
REMARK SMILES IDX 10 38 9 40 17 44 18 47 23 49 24 52 29 54 30 57 31 60 32 63
REMARK SMILES IDX 33 66 34 69 35 70 36 72 37 73 38 74 99 75 39 76 98 78 40 80
REMARK SMILES IDX 41 83 42 84 92 85 43 86 97 87 91 88 93 89 44 90 96 91 90 93
REMARK SMILES IDX 89 95 45 97 77 100 57 101 76 102 58 103 61 104 75 105 94 106
REMARK SMILES IDX 59 107 60 109 74 111 95 112 62 115 46 117 47 118 55 119
REMARK SMILES IDX 48 120 49 121 53 122 56 123 50 124 51 125 54 126 52 127
REMARK SMILES IDX 78 128 79 129 87 130 80 131 81 132 85 133 88 134 82 135
REMARK SMILES IDX 83 136 86 137 84 138 63 139 64 140 72 141 65 142 66 143
REMARK SMILES IDX 70 144 73 145 67 146 68 147 71 148 69 149
REMARK H PARENT 28 2 28 3 27 7 22 9 21 13 16 15 15 19 2 21 1 23 1 24 1 25 3 27
REMARK H PARENT 3 28 5 33 6 36 11 39 8 41 10 42 9 43 17 45 17 46 18 48 23 50
REMARK H PARENT 23 51 24 53 29 55 29 56 30 58 30 59 31 61 31 62 32 64 32 65
REMARK H PARENT 33 67 33 68 34 71 38 77 99 79 39 81 98 82 97 92 91 94 93 96
REMARK H PARENT 96 98 90 99 58 108 61 110 94 113 59 114 95 116
REMARK Flexibility Score: inf
ROOT
ATOM      1  C   UNL A   1      33.256  20.338  25.316  1.00  0.00     0.017 C 
ATOM      2  H   UNL A   1      32.427  20.680  24.733  1.00  0.00     0.049 H 
ATOM      3  H   UNL A   1      33.249  19.272  25.406  1.00  0.00     0.049 H 
ENDROOT
BRANCH   1   4
ATOM      4  N   UNL A   1      33.157  20.902  26.647  1.00  0.00    -0.354 N 
ATOM      5  C   UNL A   1      32.916  22.175  27.062  1.00  0.00     0.244 C 
ATOM      6  O   UNL A   1      32.579  22.329  28.239  1.00  0.00    -0.273 OA
ATOM      7  H   UNL A   1      33.285  20.253  27.376  1.00  0.00     0.163 HD
BRANCH   5   8
ATOM      8  C   UNL A   1      32.978  23.369  26.107  1.00  0.00     0.131 C 
ATOM      9  H   UNL A   1      32.910  22.982  25.112  1.00  0.00     0.066 H 
BRANCH   8  10
ATOM     10  N   UNL A   1      31.833  24.254  26.288  1.00  0.00    -0.340 N 
ATOM     11  C   UNL A   1      31.823  25.579  26.038  1.00  0.00     0.244 C 
ATOM     12  O   UNL A   1      31.547  26.284  27.014  1.00  0.00    -0.273 OA
ATOM     13  H   UNL A   1      30.999  23.851  26.618  1.00  0.00     0.164 HD
BRANCH  11  14
ATOM     14  C   UNL A   1      32.251  26.167  24.683  1.00  0.00     0.117 C 
ATOM     15  H   UNL A   1      31.491  26.861  24.392  1.00  0.00     0.064 H 
BRANCH  14  16
ATOM     16  N   UNL A   1      33.472  26.928  24.851  1.00  0.00    -0.338 N 
ATOM     17  C   UNL A   1      33.532  28.279  25.094  1.00  0.00     0.279 C 
ATOM     18  O   UNL A   1      34.456  28.667  25.816  1.00  0.00    -0.268 OA
ATOM     19  H   UNL A   1      34.325  26.439  24.787  1.00  0.00     0.164 HD
BRANCH  17  20
ATOM     20  C   UNL A   1      32.569  29.302  24.407  1.00  0.00     0.168 C 
ATOM     21  H   UNL A   1      32.840  30.246  24.831  1.00  0.00     0.107 H 
BRANCH  20  22
ATOM     22  N   UNL A   1      32.829  29.333  22.952  1.00  0.00    -0.347 N 
ATOM     23  H   UNL A   1      33.691  29.846  22.772  1.00  0.00     0.345 HD
ATOM     24  H   UNL A   1      32.053  29.795  22.477  1.00  0.00     0.345 HD
ATOM     25  H   UNL A   1      32.921  28.380  22.602  1.00  0.00     0.345 HD
ENDBRANCH  20  22
BRANCH  20  26
ATOM     26  C   UNL A   1      31.084  29.395  24.854  1.00  0.00     0.036 C 
ATOM     27  H   UNL A   1      31.010  30.251  25.492  1.00  0.00     0.038 H 
ATOM     28  H   UNL A   1      30.904  28.431  25.284  1.00  0.00     0.038 H 
BRANCH  26  29
ATOM     29  C   UNL A   1      29.976  29.521  23.836  1.00  0.00    -0.016 A 
ATOM     30  C   UNL A   1      29.438  28.447  23.146  1.00  0.00     0.005 A 
ATOM     31  C   UNL A   1      29.296  30.688  23.331  1.00  0.00     0.003 A 
ATOM     32  N   UNL A   1      28.645  28.921  22.139  1.00  0.00    -0.361 N 
ATOM     33  H   UNL A   1      29.607  27.452  23.359  1.00  0.00     0.082 H 
ATOM     34  C   UNL A   1      28.615  30.294  22.174  1.00  0.00     0.046 A 
ATOM     35  C   UNL A   1      29.288  32.060  23.655  1.00  0.00    -0.053 A 
ATOM     36  H   UNL A   1      28.166  28.363  21.485  1.00  0.00     0.166 HD
ATOM     37  C   UNL A   1      28.054  31.204  21.269  1.00  0.00    -0.038 A 
ATOM     38  C   UNL A   1      28.734  32.985  22.762  1.00  0.00    -0.062 A 
ATOM     39  H   UNL A   1      29.690  32.382  24.550  1.00  0.00     0.063 H 
ATOM     40  C   UNL A   1      28.154  32.563  21.571  1.00  0.00    -0.060 A 
ATOM     41  H   UNL A   1      27.584  30.881  20.408  1.00  0.00     0.064 H 
ATOM     42  H   UNL A   1      28.758  33.992  22.990  1.00  0.00     0.062 H 
ATOM     43  H   UNL A   1      27.793  33.262  20.902  1.00  0.00     0.062 H 
ENDBRANCH  26  29
ENDBRANCH  20  26
ENDBRANCH  17  20
ENDBRANCH  14  16
BRANCH  14  44
ATOM     44  C   UNL A   1      32.067  25.324  23.413  1.00  0.00     0.020 C 
ATOM     45  H   UNL A   1      31.026  25.346  23.170  1.00  0.00     0.040 H 
ATOM     46  H   UNL A   1      32.476  24.371  23.675  1.00  0.00     0.040 H 
BRANCH  44  47
ATOM     47  S   UNL A   1      32.976  25.792  21.909  1.00  0.00    -0.177 SA
ATOM     48  H   UNL A   1      32.095  25.993  20.892  1.00  0.00     0.102 HD
ENDBRANCH  44  47
ENDBRANCH  14  44
ENDBRANCH  11  14
ENDBRANCH   8  10
BRANCH   8  49
ATOM     49  C   UNL A   1      34.332  24.101  26.153  1.00  0.00     0.072 C 
ATOM     50  H   UNL A   1      34.198  25.025  26.676  1.00  0.00     0.059 H 
ATOM     51  H   UNL A   1      34.643  24.245  25.140  1.00  0.00     0.059 H 
BRANCH  49  52
ATOM     52  O   UNL A   1      35.362  23.362  26.803  1.00  0.00    -0.394 OA
ATOM     53  H   UNL A   1      35.984  23.022  26.140  1.00  0.00     0.210 HD
ENDBRANCH  49  52
ENDBRANCH   8  49
ENDBRANCH   5   8
ENDBRANCH   1   4
BRANCH   1  54
ATOM     54  C   UNL A   1      34.549  20.745  24.622  1.00  0.00    -0.036 C 
ATOM     55  H   UNL A   1      34.788  21.747  24.914  1.00  0.00     0.028 H 
ATOM     56  H   UNL A   1      34.381  20.654  23.570  1.00  0.00     0.028 H 
BRANCH  54  57
ATOM     57  C   UNL A   1      35.742  19.848  24.960  1.00  0.00    -0.052 C 
ATOM     58  H   UNL A   1      35.702  18.986  24.327  1.00  0.00     0.027 H 
ATOM     59  H   UNL A   1      35.657  19.610  25.999  1.00  0.00     0.027 H 
BRANCH  57  60
ATOM     60  C   UNL A   1      37.110  20.513  24.778  1.00  0.00    -0.052 C 
ATOM     61  H   UNL A   1      37.211  21.277  25.521  1.00  0.00     0.027 H 
ATOM     62  H   UNL A   1      37.128  20.891  23.777  1.00  0.00     0.027 H 
BRANCH  60  63
ATOM     63  C   UNL A   1      38.308  19.568  24.901  1.00  0.00    -0.036 C 
ATOM     64  H   UNL A   1      38.843  19.582  23.974  1.00  0.00     0.028 H 
ATOM     65  H   UNL A   1      37.914  18.602  25.139  1.00  0.00     0.028 H 
BRANCH  63  66
ATOM     66  C   UNL A   1      39.276  19.931  26.016  1.00  0.00     0.018 C 
ATOM     67  H   UNL A   1      38.792  19.780  26.958  1.00  0.00     0.049 H 
ATOM     68  H   UNL A   1      39.560  20.954  25.890  1.00  0.00     0.049 H 
BRANCH  66  69
ATOM     69  N   UNL A   1      40.478  19.119  25.970  1.00  0.00    -0.352 N 
ATOM     70  C   UNL A   1      41.789  19.517  25.999  1.00  0.00     0.251 C 
ATOM     71  H   UNL A   1      40.332  18.147  25.910  1.00  0.00     0.163 HD
ATOM     72  O   UNL A   1      42.684  18.728  25.728  1.00  0.00    -0.269 OA
BRANCH  70  73
ATOM     73  C   UNL A   1      42.110  20.916  26.346  1.00  0.00     0.039 A 
ATOM     74  C   UNL A   1      42.284  21.251  27.690  1.00  0.00    -0.049 A 
ATOM     75  C   UNL A   1      42.236  21.890  25.350  1.00  0.00    -0.049 A 
ATOM     76  C   UNL A   1      42.622  22.560  28.031  1.00  0.00    -0.053 A 
ATOM     77  H   UNL A   1      42.163  20.536  28.423  1.00  0.00     0.063 H 
ATOM     78  C   UNL A   1      42.659  23.171  25.686  1.00  0.00    -0.053 A 
ATOM     79  H   UNL A   1      42.015  21.658  24.369  1.00  0.00     0.063 H 
ATOM     80  C   UNL A   1      42.838  23.523  27.030  1.00  0.00    -0.014 A 
ATOM     81  H   UNL A   1      42.715  22.823  29.024  1.00  0.00     0.063 H 
ATOM     82  H   UNL A   1      42.841  23.864  24.942  1.00  0.00     0.063 H 
BRANCH  80  83
ATOM     83  C   UNL A   1      43.238  24.906  27.386  1.00  0.00     0.031 A 
ATOM     84  C   UNL A   1      44.647  25.372  27.151  1.00  0.00     0.074 A 
ATOM     85  C   UNL A   1      42.337  25.729  27.955  1.00  0.00     0.049 A 
ATOM     86  N   UNL A   1      45.182  26.543  27.390  1.00  0.00    -0.248 NA
ATOM     87  C   UNL A   1      45.591  24.385  26.602  1.00  0.00    -0.034 C 
ATOM     88  C   UNL A   1      40.959  25.369  28.292  1.00  0.00    -0.036 A 
ATOM     89  N   UNL A   1      42.445  27.038  28.351  1.00  0.00    -0.354 N 
ATOM     90  C   UNL A   1      46.519  26.427  27.032  1.00  0.00     0.074 A 
ATOM     91  C   UNL A   1      46.732  25.057  26.622  1.00  0.00    -0.034 C 
ATOM     92  H   UNL A   1      45.410  23.420  26.285  1.00  0.00     0.065 H 
ATOM     93  C   UNL A   1      40.338  26.439  28.810  1.00  0.00    -0.036 A 
ATOM     94  H   UNL A   1      40.533  24.439  28.152  1.00  0.00     0.065 H 
ATOM     95  C   UNL A   1      41.283  27.551  28.875  1.00  0.00     0.049 A 
ATOM     96  H   UNL A   1      43.274  27.561  28.268  1.00  0.00     0.167 HD
ATOM     97  C   UNL A   1      47.475  27.386  27.019  1.00  0.00     0.037 A 
ATOM     98  H   UNL A   1      47.650  24.657  26.378  1.00  0.00     0.065 H 
ATOM     99  H   UNL A   1      39.353  26.472  29.113  1.00  0.00     0.065 H 
ATOM    100  C   UNL A   1      41.011  28.780  29.352  1.00  0.00     0.037 A 
ATOM    101  C   UNL A   1      47.250  28.753  27.407  1.00  0.00     0.049 A 
ATOM    102  C   UNL A   1      42.087  29.831  29.319  1.00  0.00     0.074 A 
ATOM    103  C   UNL A   1      48.130  29.819  27.368  1.00  0.00    -0.036 A 
ATOM    104  N   UNL A   1      46.054  29.241  27.917  1.00  0.00    -0.354 N 
ATOM    105  N   UNL A   1      43.324  29.735  28.893  1.00  0.00    -0.248 NA
ATOM    106  C   UNL A   1      41.726  31.164  29.819  1.00  0.00    -0.034 C 
ATOM    107  C   UNL A   1      47.488  30.937  27.908  1.00  0.00    -0.036 A 
ATOM    108  H   UNL A   1      49.095  29.793  27.002  1.00  0.00     0.065 H 
ATOM    109  C   UNL A   1      46.184  30.587  28.222  1.00  0.00     0.049 A 
ATOM    110  H   UNL A   1      45.235  28.711  28.043  1.00  0.00     0.167 HD
ATOM    111  C   UNL A   1      43.879  31.000  29.044  1.00  0.00     0.074 A 
ATOM    112  C   UNL A   1      42.838  31.847  29.587  1.00  0.00    -0.034 C 
ATOM    113  H   UNL A   1      40.840  31.483  30.239  1.00  0.00     0.065 H 
ATOM    114  H   UNL A   1      47.913  31.867  28.050  1.00  0.00     0.065 H 
ATOM    115  C   UNL A   1      45.136  31.419  28.757  1.00  0.00     0.037 A 
ATOM    116  H   UNL A   1      42.948  32.857  29.771  1.00  0.00     0.065 H 
BRANCH  97 117
ATOM    117  C   UNL A   1      48.854  26.988  26.571  1.00  0.00     0.064 A 
ATOM    118  C   UNL A   1      49.246  27.067  25.225  1.00  0.00     0.173 A 
ATOM    119  C   UNL A   1      49.805  26.548  27.503  1.00  0.00     0.173 A 
ATOM    120  F   UNL A   1      48.374  27.470  24.289  1.00  0.00    -0.203 F 
ATOM    121  C   UNL A   1      50.525  26.685  24.826  1.00  0.00     0.198 A 
ATOM    122  C   UNL A   1      51.094  26.201  27.106  1.00  0.00     0.198 A 
ATOM    123  F   UNL A   1      49.488  26.459  28.804  1.00  0.00    -0.203 F 
ATOM    124  F   UNL A   1      50.855  26.711  23.527  1.00  0.00    -0.200 F 
ATOM    125  C   UNL A   1      51.449  26.260  25.768  1.00  0.00     0.200 A 
ATOM    126  F   UNL A   1      51.991  25.805  28.019  1.00  0.00    -0.200 F 
ATOM    127  F   UNL A   1      52.681  25.898  25.383  1.00  0.00    -0.200 F 
ENDBRANCH  97 117
BRANCH 100 128
ATOM    128  C   UNL A   1      39.651  29.089  29.868  1.00  0.00     0.064 A 
ATOM    129  C   UNL A   1      38.634  29.524  29.007  1.00  0.00     0.173 A 
ATOM    130  C   UNL A   1      39.338  28.945  31.227  1.00  0.00     0.173 A 
ATOM    131  F   UNL A   1      38.889  29.692  27.702  1.00  0.00    -0.203 F 
ATOM    132  C   UNL A   1      37.362  29.824  29.490  1.00  0.00     0.198 A 
ATOM    133  C   UNL A   1      38.057  29.215  31.704  1.00  0.00     0.198 A 
ATOM    134  F   UNL A   1      40.273  28.522  32.091  1.00  0.00    -0.203 F 
ATOM    135  F   UNL A   1      36.421  30.282  28.653  1.00  0.00    -0.200 F 
ATOM    136  C   UNL A   1      37.073  29.664  30.837  1.00  0.00     0.200 A 
ATOM    137  F   UNL A   1      37.778  29.041  33.003  1.00  0.00    -0.200 F 
ATOM    138  F   UNL A   1      35.848  29.944  31.300  1.00  0.00    -0.200 F 
ENDBRANCH 100 128
BRANCH 115 139
ATOM    139  C   UNL A   1      45.446  32.871  28.984  1.00  0.00     0.064 A 
ATOM    140  C   UNL A   1      45.985  33.333  30.193  1.00  0.00     0.173 A 
ATOM    141  C   UNL A   1      45.240  33.807  27.958  1.00  0.00     0.173 A 
ATOM    142  F   UNL A   1      46.189  32.483  31.211  1.00  0.00    -0.203 F 
ATOM    143  C   UNL A   1      46.277  34.682  30.377  1.00  0.00     0.198 A 
ATOM    144  C   UNL A   1      45.567  35.147  28.133  1.00  0.00     0.198 A 
ATOM    145  F   UNL A   1      44.735  33.416  26.777  1.00  0.00    -0.203 F 
ATOM    146  F   UNL A   1      46.742  35.110  31.560  1.00  0.00    -0.200 F 
ATOM    147  C   UNL A   1      46.077  35.586  29.345  1.00  0.00     0.200 A 
ATOM    148  F   UNL A   1      45.387  36.016  27.128  1.00  0.00    -0.200 F 
ATOM    149  F   UNL A   1      46.368  36.882  29.521  1.00  0.00    -0.200 F 
ENDBRANCH 115 139
ENDBRANCH  80  83
ENDBRANCH  70  73
ENDBRANCH  66  69
ENDBRANCH  63  66
ENDBRANCH  60  63
ENDBRANCH  57  60
ENDBRANCH  54  57
ENDBRANCH   1  54
TORSDOF 24
ENDMDL
MODEL 10
REMARK VINA RESULT:     -10.8      4.982     10.921
REMARK SMILES [NH3+][C@@H](Cc1c[nH]c2ccccc12)C(=O)N[C@@H](CS)C(=O)N[C@@H](CO)C(=O)NCCCCCCNC(=O)c1ccc(-c2c3nc(c(-c4c(F)c(F)c(F)c(F)c4F)c4ccc([nH]4)c(-c4c(F)c(F)c(F)c(F)c4F)c4nc(c(-c5c(F)c(F)c(F)c(F)c5F)c5ccc2[nH]5)C=C4)C=C3)cc1
REMARK SMILES IDX 28 1 27 4 25 5 26 6 22 8 21 10 19 11 20 12 16 14 15 16 13 17
REMARK SMILES IDX 14 18 2 20 1 22 3 26 4 29 5 30 12 31 6 32 7 34 11 35 8 37
REMARK SMILES IDX 10 38 9 40 17 44 18 47 23 49 24 52 29 54 30 57 31 60 32 63
REMARK SMILES IDX 33 66 34 69 35 70 36 72 37 73 38 74 99 75 39 76 98 78 40 80
REMARK SMILES IDX 41 83 42 84 92 85 43 86 97 87 91 88 93 89 44 90 96 91 90 93
REMARK SMILES IDX 89 95 45 97 77 100 57 101 76 102 58 103 61 104 75 105 94 106
REMARK SMILES IDX 59 107 60 109 74 111 95 112 62 115 46 117 47 118 55 119
REMARK SMILES IDX 48 120 49 121 53 122 56 123 50 124 51 125 54 126 52 127
REMARK SMILES IDX 78 128 79 129 87 130 80 131 81 132 85 133 88 134 82 135
REMARK SMILES IDX 83 136 86 137 84 138 63 139 64 140 72 141 65 142 66 143
REMARK SMILES IDX 70 144 73 145 67 146 68 147 71 148 69 149
REMARK H PARENT 28 2 28 3 27 7 22 9 21 13 16 15 15 19 2 21 1 23 1 24 1 25 3 27
REMARK H PARENT 3 28 5 33 6 36 11 39 8 41 10 42 9 43 17 45 17 46 18 48 23 50
REMARK H PARENT 23 51 24 53 29 55 29 56 30 58 30 59 31 61 31 62 32 64 32 65
REMARK H PARENT 33 67 33 68 34 71 38 77 99 79 39 81 98 82 97 92 91 94 93 96
REMARK H PARENT 96 98 90 99 58 108 61 110 94 113 59 114 95 116
REMARK Flexibility Score: inf
ROOT
ATOM      1  C   UNL A   1      35.843  23.381  23.980  1.00  0.00     0.017 C 
ATOM      2  H   UNL A   1      35.350  24.255  24.353  1.00  0.00     0.049 H 
ATOM      3  H   UNL A   1      36.107  23.498  22.950  1.00  0.00     0.049 H 
ENDROOT
BRANCH   1   4
ATOM      4  N   UNL A   1      34.941  22.253  24.088  1.00  0.00    -0.354 N 
ATOM      5  C   UNL A   1      33.846  22.057  24.870  1.00  0.00     0.244 C 
ATOM      6  O   UNL A   1      33.082  21.141  24.550  1.00  0.00    -0.273 OA
ATOM      7  H   UNL A   1      35.158  21.499  23.494  1.00  0.00     0.163 HD
BRANCH   5   8
ATOM      8  C   UNL A   1      33.515  22.969  26.054  1.00  0.00     0.131 C 
ATOM      9  H   UNL A   1      34.301  23.691  26.125  1.00  0.00     0.066 H 
BRANCH   8  10
ATOM     10  N   UNL A   1      32.284  23.716  25.821  1.00  0.00    -0.340 N 
ATOM     11  C   UNL A   1      32.122  25.038  26.027  1.00  0.00     0.244 C 
ATOM     12  O   UNL A   1      31.237  25.328  26.839  1.00  0.00    -0.273 OA
ATOM     13  H   UNL A   1      31.508  23.213  25.484  1.00  0.00     0.164 HD
BRANCH  11  14
ATOM     14  C   UNL A   1      33.054  26.091  25.403  1.00  0.00     0.117 C 
ATOM     15  H   UNL A   1      33.884  26.204  26.070  1.00  0.00     0.064 H 
BRANCH  14  16
ATOM     16  N   UNL A   1      33.585  25.587  24.154  1.00  0.00    -0.338 N 
ATOM     17  C   UNL A   1      32.988  25.736  22.926  1.00  0.00     0.279 C 
ATOM     18  O   UNL A   1      33.746  25.867  21.959  1.00  0.00    -0.268 OA
ATOM     19  H   UNL A   1      34.441  25.100  24.187  1.00  0.00     0.164 HD
BRANCH  17  20
ATOM     20  C   UNL A   1      31.441  25.626  22.723  1.00  0.00     0.168 C 
ATOM     21  H   UNL A   1      31.283  25.955  21.717  1.00  0.00     0.107 H 
BRANCH  20  22
ATOM     22  N   UNL A   1      31.021  24.214  22.841  1.00  0.00    -0.347 N 
ATOM     23  H   UNL A   1      31.173  23.739  21.952  1.00  0.00     0.345 HD
ATOM     24  H   UNL A   1      30.031  24.172  23.083  1.00  0.00     0.345 HD
ATOM     25  H   UNL A   1      31.568  23.756  23.570  1.00  0.00     0.345 HD
ENDBRANCH  20  22
BRANCH  20  26
ATOM     26  C   UNL A   1      30.497  26.691  23.344  1.00  0.00     0.036 C 
ATOM     27  H   UNL A   1      30.844  26.863  24.342  1.00  0.00     0.038 H 
ATOM     28  H   UNL A   1      29.528  26.253  23.218  1.00  0.00     0.038 H 
BRANCH  26  29
ATOM     29  C   UNL A   1      30.336  28.050  22.705  1.00  0.00    -0.016 A 
ATOM     30  C   UNL A   1      31.341  28.696  22.004  1.00  0.00     0.005 A 
ATOM     31  C   UNL A   1      29.218  28.961  22.708  1.00  0.00     0.003 A 
ATOM     32  N   UNL A   1      30.961  29.989  21.776  1.00  0.00    -0.361 N 
ATOM     33  H   UNL A   1      32.231  28.270  21.703  1.00  0.00     0.082 H 
ATOM     34  C   UNL A   1      29.701  30.202  22.279  1.00  0.00     0.046 A 
ATOM     35  C   UNL A   1      27.880  28.900  23.150  1.00  0.00    -0.053 A 
ATOM     36  H   UNL A   1      31.508  30.667  21.319  1.00  0.00     0.166 HD
ATOM     37  C   UNL A   1      28.969  31.390  22.398  1.00  0.00    -0.038 A 
ATOM     38  C   UNL A   1      27.133  30.078  23.277  1.00  0.00    -0.062 A 
ATOM     39  H   UNL A   1      27.452  27.990  23.380  1.00  0.00     0.063 H 
ATOM     40  C   UNL A   1      27.683  31.308  22.935  1.00  0.00    -0.060 A 
ATOM     41  H   UNL A   1      29.367  32.295  22.098  1.00  0.00     0.064 H 
ATOM     42  H   UNL A   1      26.164  30.033  23.630  1.00  0.00     0.062 H 
ATOM     43  H   UNL A   1      27.136  32.171  23.079  1.00  0.00     0.062 H 
ENDBRANCH  26  29
ENDBRANCH  20  26
ENDBRANCH  17  20
ENDBRANCH  14  16
BRANCH  14  44
ATOM     44  C   UNL A   1      32.677  27.576  25.508  1.00  0.00     0.020 C 
ATOM     45  H   UNL A   1      31.619  27.621  25.662  1.00  0.00     0.040 H 
ATOM     46  H   UNL A   1      33.044  28.000  24.596  1.00  0.00     0.040 H 
BRANCH  44  47
ATOM     47  S   UNL A   1      33.449  28.589  26.804  1.00  0.00    -0.177 SA
ATOM     48  H   UNL A   1      34.364  27.842  27.479  1.00  0.00     0.102 HD
ENDBRANCH  44  47
ENDBRANCH  14  44
ENDBRANCH  11  14
ENDBRANCH   8  10
BRANCH   8  49
ATOM     49  C   UNL A   1      33.535  22.228  27.403  1.00  0.00     0.072 C 
ATOM     50  H   UNL A   1      32.687  21.577  27.444  1.00  0.00     0.059 H 
ATOM     51  H   UNL A   1      33.516  22.974  28.169  1.00  0.00     0.059 H 
BRANCH  49  52
ATOM     52  O   UNL A   1      34.710  21.449  27.612  1.00  0.00    -0.394 OA
ATOM     53  H   UNL A   1      35.079  21.648  28.488  1.00  0.00     0.210 HD
ENDBRANCH  49  52
ENDBRANCH   8  49
ENDBRANCH   5   8
ENDBRANCH   1   4
BRANCH   1  54
ATOM     54  C   UNL A   1      37.125  23.162  24.775  1.00  0.00    -0.036 C 
ATOM     55  H   UNL A   1      37.018  23.643  25.725  1.00  0.00     0.028 H 
ATOM     56  H   UNL A   1      37.925  23.571  24.195  1.00  0.00     0.028 H 
BRANCH  54  57
ATOM     57  C   UNL A   1      37.458  21.688  25.017  1.00  0.00    -0.052 C 
ATOM     58  H   UNL A   1      37.485  21.192  24.068  1.00  0.00     0.027 H 
ATOM     59  H   UNL A   1      36.698  21.308  25.666  1.00  0.00     0.027 H 
BRANCH  57  60
ATOM     60  C   UNL A   1      38.796  21.445  25.723  1.00  0.00    -0.052 C 
ATOM     61  H   UNL A   1      38.643  21.566  26.775  1.00  0.00     0.027 H 
ATOM     62  H   UNL A   1      39.484  22.153  25.311  1.00  0.00     0.027 H 
BRANCH  60  63
ATOM     63  C   UNL A   1      39.408  20.063  25.486  1.00  0.00    -0.036 C 
ATOM     64  H   UNL A   1      39.978  20.099  24.581  1.00  0.00     0.028 H 
ATOM     65  H   UNL A   1      38.593  19.370  25.437  1.00  0.00     0.028 H 
BRANCH  63  66
ATOM     66  C   UNL A   1      40.319  19.584  26.605  1.00  0.00     0.018 C 
ATOM     67  H   UNL A   1      39.800  18.848  27.183  1.00  0.00     0.049 H 
ATOM     68  H   UNL A   1      40.580  20.430  27.207  1.00  0.00     0.049 H 
BRANCH  66  69
ATOM     69  N   UNL A   1      41.544  19.001  26.090  1.00  0.00    -0.352 N 
ATOM     70  C   UNL A   1      42.713  19.622  25.738  1.00  0.00     0.251 C 
ATOM     71  H   UNL A   1      41.533  18.023  25.979  1.00  0.00     0.163 HD
ATOM     72  O   UNL A   1      43.574  19.018  25.112  1.00  0.00    -0.269 OA
BRANCH  70  73
ATOM     73  C   UNL A   1      42.918  21.037  26.109  1.00  0.00     0.039 A 
ATOM     74  C   UNL A   1      43.119  21.356  27.453  1.00  0.00    -0.049 A 
ATOM     75  C   UNL A   1      42.909  22.041  25.135  1.00  0.00    -0.049 A 
ATOM     76  C   UNL A   1      43.349  22.683  27.815  1.00  0.00    -0.053 A 
ATOM     77  H   UNL A   1      43.098  20.616  28.172  1.00  0.00     0.063 H 
ATOM     78  C   UNL A   1      43.225  23.348  25.488  1.00  0.00    -0.053 A 
ATOM     79  H   UNL A   1      42.667  21.811  24.159  1.00  0.00     0.063 H 
ATOM     80  C   UNL A   1      43.430  23.684  26.833  1.00  0.00    -0.014 A 
ATOM     81  H   UNL A   1      43.461  22.930  28.810  1.00  0.00     0.063 H 
ATOM     82  H   UNL A   1      43.310  24.071  24.756  1.00  0.00     0.063 H 
BRANCH  80  83
ATOM     83  C   UNL A   1      43.716  25.091  27.208  1.00  0.00     0.031 A 
ATOM     84  C   UNL A   1      45.087  25.667  27.000  1.00  0.00     0.074 A 
ATOM     85  C   UNL A   1      42.745  25.834  27.771  1.00  0.00     0.049 A 
ATOM     86  N   UNL A   1      45.526  26.873  27.259  1.00  0.00    -0.248 NA
ATOM     87  C   UNL A   1      46.114  24.763  26.457  1.00  0.00    -0.034 C 
ATOM     88  C   UNL A   1      41.394  25.364  28.082  1.00  0.00    -0.036 A 
ATOM     89  N   UNL A   1      42.743  27.143  28.182  1.00  0.00    -0.354 N 
ATOM     90  C   UNL A   1      46.873  26.867  26.922  1.00  0.00     0.074 A 
ATOM     91  C   UNL A   1      47.198  25.522  26.502  1.00  0.00    -0.034 C 
ATOM     92  H   UNL A   1      46.014  23.790  26.127  1.00  0.00     0.065 H 
ATOM     93  C   UNL A   1      40.683  26.377  28.601  1.00  0.00    -0.036 A 
ATOM     94  H   UNL A   1      41.044  24.405  27.927  1.00  0.00     0.065 H 
ATOM     95  C   UNL A   1      41.537  27.558  28.692  1.00  0.00     0.049 A 
ATOM     96  H   UNL A   1      43.531  27.730  28.117  1.00  0.00     0.167 HD
ATOM     97  C   UNL A   1      47.751  27.898  26.933  1.00  0.00     0.037 A 
ATOM     98  H   UNL A   1      48.148  25.197  26.268  1.00  0.00     0.065 H 
ATOM     99  H   UNL A   1      39.694  26.329  28.889  1.00  0.00     0.065 H 
ATOM    100  C   UNL A   1      41.162  28.756  29.177  1.00  0.00     0.037 A 
ATOM    101  C   UNL A   1      47.414  29.238  27.332  1.00  0.00     0.049 A 
ATOM    102  C   UNL A   1      42.154  29.888  29.171  1.00  0.00     0.074 A 
ATOM    103  C   UNL A   1      48.208  30.370  27.317  1.00  0.00    -0.036 A 
ATOM    104  N   UNL A   1      46.176  29.626  27.827  1.00  0.00    -0.354 N 
ATOM    105  N   UNL A   1      43.401  29.894  28.764  1.00  0.00    -0.248 NA
ATOM    106  C   UNL A   1      41.683  31.183  29.678  1.00  0.00    -0.034 C 
ATOM    107  C   UNL A   1      47.473  31.428  27.858  1.00  0.00    -0.036 A 
ATOM    108  H   UNL A   1      49.178  30.423  26.966  1.00  0.00     0.065 H 
ATOM    109  C   UNL A   1      46.196  30.975  28.148  1.00  0.00     0.049 A 
ATOM    110  H   UNL A   1      45.399  29.032  27.935  1.00  0.00     0.167 HD
ATOM    111  C   UNL A   1      43.853  31.197  28.937  1.00  0.00     0.074 A 
ATOM    112  C   UNL A   1      42.741  31.954  29.471  1.00  0.00    -0.034 C 
ATOM    113  H   UNL A   1      40.768  31.428  30.087  1.00  0.00     0.065 H 
ATOM    114  H   UNL A   1      47.821  32.387  28.016  1.00  0.00     0.065 H 
ATOM    115  C   UNL A   1      45.077  31.716  28.674  1.00  0.00     0.037 A 
ATOM    116  H   UNL A   1      42.769  32.967  29.667  1.00  0.00     0.065 H 
BRANCH  97 117
ATOM    117  C   UNL A   1      49.163  27.613  26.504  1.00  0.00     0.064 A 
ATOM    118  C   UNL A   1      49.536  27.595  25.150  1.00  0.00     0.173 A 
ATOM    119  C   UNL A   1      50.164  27.382  27.458  1.00  0.00     0.173 A 
ATOM    120  F   UNL A   1      48.617  27.799  24.194  1.00  0.00    -0.203 F 
ATOM    121  C   UNL A   1      50.847  27.321  24.769  1.00  0.00     0.198 A 
ATOM    122  C   UNL A   1      51.482  27.143  27.076  1.00  0.00     0.198 A 
ATOM    123  F   UNL A   1      49.867  27.393  28.767  1.00  0.00    -0.203 F 
ATOM    124  F   UNL A   1      51.164  27.249  23.468  1.00  0.00    -0.200 F 
ATOM    125  C   UNL A   1      51.819  27.103  25.732  1.00  0.00     0.200 A 
ATOM    126  F   UNL A   1      52.424  26.948  28.008  1.00  0.00    -0.200 F 
ATOM    127  F   UNL A   1      53.082  26.844  25.364  1.00  0.00    -0.200 F 
ENDBRANCH  97 117
BRANCH 100 128
ATOM    128  C   UNL A   1      39.776  28.952  29.673  1.00  0.00     0.064 A 
ATOM    129  C   UNL A   1      38.759  29.401  28.819  1.00  0.00     0.173 A 
ATOM    130  C   UNL A   1      39.436  28.686  31.008  1.00  0.00     0.173 A 
ATOM    131  F   UNL A   1      39.038  29.685  27.539  1.00  0.00    -0.203 F 
ATOM    132  C   UNL A   1      37.461  29.596  29.286  1.00  0.00     0.198 A 
ATOM    133  C   UNL A   1      38.130  28.851  31.466  1.00  0.00     0.198 A 
ATOM    134  F   UNL A   1      40.369  28.245  31.864  1.00  0.00    -0.203 F 
ATOM    135  F   UNL A   1      36.518  30.068  28.459  1.00  0.00    -0.200 F 
ATOM    136  C   UNL A   1      37.145  29.314  30.607  1.00  0.00     0.200 A 
ATOM    137  F   UNL A   1      37.827  28.560  32.738  1.00  0.00    -0.200 F 
ATOM    138  F   UNL A   1      35.895  29.494  31.053  1.00  0.00    -0.200 F 
ENDBRANCH 100 128
BRANCH 115 139
ATOM    139  C   UNL A   1      45.270  33.185  28.920  1.00  0.00     0.064 A 
ATOM    140  C   UNL A   1      44.922  34.148  27.961  1.00  0.00     0.173 A 
ATOM    141  C   UNL A   1      45.769  33.636  30.151  1.00  0.00     0.173 A 
ATOM    142  F   UNL A   1      44.453  33.769  26.762  1.00  0.00    -0.203 F 
ATOM    143  C   UNL A   1      45.096  35.506  28.214  1.00  0.00     0.198 A 
ATOM    144  C   UNL A   1      45.908  34.996  30.414  1.00  0.00     0.198 A 
ATOM    145  F   UNL A   1      46.108  32.758  31.107  1.00  0.00    -0.203 F 
ATOM    146  F   UNL A   1      44.808  36.406  27.264  1.00  0.00    -0.200 F 
ATOM    147  C   UNL A   1      45.580  35.929  29.444  1.00  0.00     0.200 A 
ATOM    148  F   UNL A   1      46.360  35.402  31.610  1.00  0.00    -0.200 F 
ATOM    149  F   UNL A   1      45.738  37.237  29.689  1.00  0.00    -0.200 F 
ENDBRANCH 115 139
ENDBRANCH  80  83
ENDBRANCH  70  73
ENDBRANCH  66  69
ENDBRANCH  63  66
ENDBRANCH  60  63
ENDBRANCH  57  60
ENDBRANCH  54  57
ENDBRANCH   1  54
TORSDOF 24
ENDMDL
