MODEL 1
REMARK VINA RESULT:     -12.6      0.000      0.000
REMARK SMILES O=C(Cn1cnc(-c2ccccc2)c1-c1ccccc1)NCCCCCCNC(=O)c1ccc(-c2c3nc(c(-c4c(F)c(F)c(F)c(F)c4F)c4ccc([nH]4)c(-c4c(F)c(F)c(F)c(F)c4F)c4nc(c(-c5c(F)c(F)c(F)c(F)c5F)c5ccc2[nH]5)C=C4)C=C3)cc1
REMARK SMILES IDX 24 1 23 4 22 7 21 10 1 11 2 12 3 14 4 17 5 18 14 19 6 20
REMARK SMILES IDX 7 22 15 23 16 24 20 25 17 26 19 28 18 30 8 34 9 35 13 36
REMARK SMILES IDX 10 37 12 39 11 41 25 45 26 48 27 51 28 54 29 55 30 57 31 58
REMARK SMILES IDX 32 59 93 60 33 61 92 63 34 65 35 68 36 69 86 70 37 71 91 72
REMARK SMILES IDX 85 73 87 74 38 75 90 76 84 78 83 80 39 82 71 85 51 86 70 87
REMARK SMILES IDX 52 88 55 89 69 90 88 91 53 92 54 94 68 96 89 97 56 100
REMARK SMILES IDX 40 102 41 103 49 104 42 105 43 106 47 107 50 108 44 109
REMARK SMILES IDX 45 110 48 111 46 112 72 113 73 114 81 115 74 116 75 117
REMARK SMILES IDX 79 118 82 119 76 120 77 121 80 122 78 123 57 124 58 125
REMARK SMILES IDX 66 126 59 127 60 128 64 129 67 130 61 131 62 132 65 133
REMARK SMILES IDX 63 134
REMARK H PARENT 24 2 24 3 23 5 23 6 22 8 22 9 21 13 3 15 3 16 5 21 16 27 20 29
REMARK H PARENT 17 31 19 32 18 33 9 38 13 40 10 42 12 43 11 44 25 46 25 47
REMARK H PARENT 26 49 26 50 27 52 27 53 28 56 32 62 93 64 33 66 92 67 91 77
REMARK H PARENT 85 79 87 81 90 83 84 84 52 93 55 95 88 98 53 99 89 101
REMARK Flexibility Score: inf
ROOT
ATOM      1  C   UNL A   1      38.191  22.121  25.751  1.00  0.00    -0.052 C 
ATOM      2  H   UNL A   1      38.250  21.850  26.785  1.00  0.00     0.027 H 
ATOM      3  H   UNL A   1      39.130  22.361  25.299  1.00  0.00     0.027 H 
ENDROOT
BRANCH   1   4
ATOM      4  C   UNL A   1      37.356  23.402  25.653  1.00  0.00    -0.036 C 
ATOM      5  H   UNL A   1      36.855  23.545  26.588  1.00  0.00     0.028 H 
ATOM      6  H   UNL A   1      38.041  24.190  25.417  1.00  0.00     0.028 H 
BRANCH   4   7
ATOM      7  C   UNL A   1      36.306  23.401  24.549  1.00  0.00     0.017 C 
ATOM      8  H   UNL A   1      36.649  24.024  23.750  1.00  0.00     0.049 H 
ATOM      9  H   UNL A   1      36.174  22.387  24.235  1.00  0.00     0.049 H 
BRANCH   7  10
ATOM     10  N   UNL A   1      35.014  23.890  24.995  1.00  0.00    -0.355 N 
ATOM     11  O   UNL A   1      34.080  21.816  25.254  1.00  0.00    -0.273 OA
ATOM     12  C   UNL A   1      34.014  23.035  25.413  1.00  0.00     0.239 C 
ATOM     13  H   UNL A   1      34.845  24.860  24.997  1.00  0.00     0.163 HD
BRANCH  12  14
ATOM     14  C   UNL A   1      32.778  23.678  26.007  1.00  0.00     0.103 C 
ATOM     15  H   UNL A   1      33.094  24.384  26.745  1.00  0.00     0.060 H 
ATOM     16  H   UNL A   1      32.190  22.878  26.407  1.00  0.00     0.060 H 
BRANCH  14  17
ATOM     17  N   UNL A   1      31.923  24.370  25.055  1.00  0.00    -0.321 N 
ATOM     18  C   UNL A   1      31.128  23.725  24.143  1.00  0.00     0.096 A 
ATOM     19  C   UNL A   1      31.656  25.722  24.965  1.00  0.00     0.076 A 
ATOM     20  N   UNL A   1      30.379  24.562  23.468  1.00  0.00    -0.236 NA
ATOM     21  H   UNL A   1      31.119  22.702  24.006  1.00  0.00     0.104 H 
ATOM     22  C   UNL A   1      30.696  25.803  23.961  1.00  0.00     0.096 A 
BRANCH  19  23
ATOM     23  C   UNL A   1      32.225  26.781  25.796  1.00  0.00     0.000 A 
ATOM     24  C   UNL A   1      31.447  27.392  26.786  1.00  0.00    -0.053 A 
ATOM     25  C   UNL A   1      33.507  27.278  25.545  1.00  0.00    -0.053 A 
ATOM     26  C   UNL A   1      31.956  28.462  27.525  1.00  0.00    -0.062 A 
ATOM     27  H   UNL A   1      30.491  27.049  26.971  1.00  0.00     0.063 H 
ATOM     28  C   UNL A   1      34.028  28.329  26.300  1.00  0.00    -0.062 A 
ATOM     29  H   UNL A   1      34.075  26.864  24.790  1.00  0.00     0.063 H 
ATOM     30  C   UNL A   1      33.250  28.923  27.291  1.00  0.00    -0.062 A 
ATOM     31  H   UNL A   1      31.372  28.914  28.247  1.00  0.00     0.062 H 
ATOM     32  H   UNL A   1      34.988  28.666  26.126  1.00  0.00     0.062 H 
ATOM     33  H   UNL A   1      33.632  29.702  27.849  1.00  0.00     0.062 H 
ENDBRANCH  19  23
BRANCH  22  34
ATOM     34  C   UNL A   1      30.067  27.027  23.506  1.00  0.00     0.002 A 
ATOM     35  C   UNL A   1      30.835  28.020  22.890  1.00  0.00    -0.053 A 
ATOM     36  C   UNL A   1      28.683  27.206  23.634  1.00  0.00    -0.053 A 
ATOM     37  C   UNL A   1      30.220  29.163  22.375  1.00  0.00    -0.062 A 
ATOM     38  H   UNL A   1      31.858  27.907  22.813  1.00  0.00     0.063 H 
ATOM     39  C   UNL A   1      28.071  28.352  23.126  1.00  0.00    -0.062 A 
ATOM     40  H   UNL A   1      28.114  26.487  24.107  1.00  0.00     0.063 H 
ATOM     41  C   UNL A   1      28.839  29.326  22.491  1.00  0.00    -0.062 A 
ATOM     42  H   UNL A   1      30.787  29.889  21.911  1.00  0.00     0.062 H 
ATOM     43  H   UNL A   1      27.052  28.478  23.221  1.00  0.00     0.062 H 
ATOM     44  H   UNL A   1      28.385  30.169  22.105  1.00  0.00     0.062 H 
ENDBRANCH  22  34
ENDBRANCH  14  17
ENDBRANCH  12  14
ENDBRANCH   7  10
ENDBRANCH   4   7
ENDBRANCH   1   4
BRANCH   1  45
ATOM     45  C   UNL A   1      37.670  20.900  24.980  1.00  0.00    -0.052 C 
ATOM     46  H   UNL A   1      37.545  21.193  23.958  1.00  0.00     0.027 H 
ATOM     47  H   UNL A   1      36.769  20.617  25.483  1.00  0.00     0.027 H 
BRANCH  45  48
ATOM     48  C   UNL A   1      38.545  19.639  24.994  1.00  0.00    -0.036 C 
ATOM     49  H   UNL A   1      39.091  19.601  24.074  1.00  0.00     0.028 H 
ATOM     50  H   UNL A   1      37.880  18.812  25.125  1.00  0.00     0.028 H 
BRANCH  48  51
ATOM     51  C   UNL A   1      39.546  19.570  26.140  1.00  0.00     0.018 C 
ATOM     52  H   UNL A   1      39.099  19.034  26.951  1.00  0.00     0.049 H 
ATOM     53  H   UNL A   1      39.790  20.576  26.409  1.00  0.00     0.049 H 
BRANCH  51  54
ATOM     54  N   UNL A   1      40.795  18.903  25.774  1.00  0.00    -0.352 N 
ATOM     55  C   UNL A   1      42.059  19.458  25.655  1.00  0.00     0.251 C 
ATOM     56  H   UNL A   1      40.731  17.939  25.589  1.00  0.00     0.163 HD
ATOM     57  O   UNL A   1      42.932  18.915  25.001  1.00  0.00    -0.269 OA
BRANCH  55  58
ATOM     58  C   UNL A   1      42.330  20.734  26.342  1.00  0.00     0.039 A 
ATOM     59  C   UNL A   1      42.670  21.889  25.633  1.00  0.00    -0.049 A 
ATOM     60  C   UNL A   1      42.195  20.762  27.726  1.00  0.00    -0.049 A 
ATOM     61  C   UNL A   1      42.782  23.093  26.325  1.00  0.00    -0.053 A 
ATOM     62  H   UNL A   1      42.835  21.851  24.614  1.00  0.00     0.063 H 
ATOM     63  C   UNL A   1      42.139  21.966  28.376  1.00  0.00    -0.053 A 
ATOM     64  H   UNL A   1      42.137  19.880  28.259  1.00  0.00     0.063 H 
ATOM     65  C   UNL A   1      42.491  23.130  27.698  1.00  0.00    -0.014 A 
ATOM     66  H   UNL A   1      43.076  23.951  25.833  1.00  0.00     0.063 H 
ATOM     67  H   UNL A   1      41.838  22.011  29.362  1.00  0.00     0.063 H 
BRANCH  65  68
ATOM     68  C   UNL A   1      42.457  24.394  28.428  1.00  0.00     0.031 A 
ATOM     69  C   UNL A   1      41.251  25.235  28.186  1.00  0.00     0.074 A 
ATOM     70  C   UNL A   1      43.322  24.676  29.428  1.00  0.00     0.049 A 
ATOM     71  N   UNL A   1      41.199  26.426  27.686  1.00  0.00    -0.248 NA
ATOM     72  C   UNL A   1      39.929  24.642  28.442  1.00  0.00    -0.034 C 
ATOM     73  C   UNL A   1      44.356  23.806  30.006  1.00  0.00    -0.036 A 
ATOM     74  N   UNL A   1      43.379  25.774  30.231  1.00  0.00    -0.354 N 
ATOM     75  C   UNL A   1      39.858  26.808  27.730  1.00  0.00     0.074 A 
ATOM     76  C   UNL A   1      39.111  25.620  28.050  1.00  0.00    -0.034 C 
ATOM     77  H   UNL A   1      39.695  23.713  28.825  1.00  0.00     0.065 H 
ATOM     78  C   UNL A   1      44.756  24.302  31.196  1.00  0.00    -0.036 A 
ATOM     79  H   UNL A   1      44.721  22.946  29.567  1.00  0.00     0.065 H 
ATOM     80  C   UNL A   1      44.153  25.609  31.372  1.00  0.00     0.049 A 
ATOM     81  H   UNL A   1      42.910  26.614  30.022  1.00  0.00     0.167 HD
ATOM     82  C   UNL A   1      39.502  28.123  27.732  1.00  0.00     0.037 A 
ATOM     83  H   UNL A   1      38.084  25.538  27.985  1.00  0.00     0.065 H 
ATOM     84  H   UNL A   1      45.383  23.831  31.866  1.00  0.00     0.065 H 
ATOM     85  C   UNL A   1      44.278  26.475  32.405  1.00  0.00     0.037 A 
ATOM     86  C   UNL A   1      40.594  28.953  27.291  1.00  0.00     0.049 A 
ATOM     87  C   UNL A   1      43.846  27.803  31.915  1.00  0.00     0.074 A 
ATOM     88  C   UNL A   1      41.324  29.077  26.126  1.00  0.00    -0.036 A 
ATOM     89  N   UNL A   1      41.322  29.595  28.259  1.00  0.00    -0.354 N 
ATOM     90  N   UNL A   1      44.488  28.495  31.015  1.00  0.00    -0.248 NA
ATOM     91  C   UNL A   1      42.461  28.191  32.130  1.00  0.00    -0.034 C 
ATOM     92  C   UNL A   1      42.653  29.375  26.551  1.00  0.00    -0.036 A 
ATOM     93  H   UNL A   1      40.982  28.976  25.158  1.00  0.00     0.065 H 
ATOM     94  C   UNL A   1      42.648  29.474  27.944  1.00  0.00     0.049 A 
ATOM     95  H   UNL A   1      40.955  30.062  29.044  1.00  0.00     0.167 HD
ATOM     96  C   UNL A   1      43.493  29.089  30.256  1.00  0.00     0.074 A 
ATOM     97  C   UNL A   1      42.282  28.972  31.062  1.00  0.00    -0.034 C 
ATOM     98  H   UNL A   1      41.808  27.935  32.887  1.00  0.00     0.065 H 
ATOM     99  H   UNL A   1      43.474  29.496  25.937  1.00  0.00     0.065 H 
ATOM    100  C   UNL A   1      43.696  29.357  28.933  1.00  0.00     0.037 A 
ATOM    101  H   UNL A   1      41.390  29.439  30.834  1.00  0.00     0.065 H 
BRANCH  82 102
ATOM    102  C   UNL A   1      38.333  28.701  28.502  1.00  0.00     0.064 A 
ATOM    103  C   UNL A   1      37.526  29.683  27.884  1.00  0.00     0.173 A 
ATOM    104  C   UNL A   1      38.169  28.580  29.898  1.00  0.00     0.173 A 
ATOM    105  F   UNL A   1      37.601  29.897  26.563  1.00  0.00    -0.203 F 
ATOM    106  C   UNL A   1      36.703  30.538  28.622  1.00  0.00     0.198 A 
ATOM    107  C   UNL A   1      37.304  29.399  30.625  1.00  0.00     0.198 A 
ATOM    108  F   UNL A   1      38.914  27.751  30.637  1.00  0.00    -0.203 F 
ATOM    109  F   UNL A   1      36.068  31.545  28.008  1.00  0.00    -0.200 F 
ATOM    110  C   UNL A   1      36.601  30.402  29.994  1.00  0.00     0.200 A 
ATOM    111  F   UNL A   1      37.233  29.263  31.956  1.00  0.00    -0.200 F 
ATOM    112  F   UNL A   1      35.869  31.264  30.713  1.00  0.00    -0.200 F 
ENDBRANCH  82 102
BRANCH  85 113
ATOM    113  C   UNL A   1      44.477  26.183  33.841  1.00  0.00     0.064 A 
ATOM    114  C   UNL A   1      43.398  25.811  34.659  1.00  0.00     0.173 A 
ATOM    115  C   UNL A   1      45.766  25.981  34.372  1.00  0.00     0.173 A 
ATOM    116  F   UNL A   1      42.140  25.936  34.211  1.00  0.00    -0.203 F 
ATOM    117  C   UNL A   1      43.597  25.236  35.917  1.00  0.00     0.198 A 
ATOM    118  C   UNL A   1      45.963  25.413  35.631  1.00  0.00     0.198 A 
ATOM    119  F   UNL A   1      46.858  26.240  33.638  1.00  0.00    -0.203 F 
ATOM    120  F   UNL A   1      42.544  24.829  36.640  1.00  0.00    -0.200 F 
ATOM    121  C   UNL A   1      44.880  25.025  36.397  1.00  0.00     0.200 A 
ATOM    122  F   UNL A   1      47.210  25.182  36.067  1.00  0.00    -0.200 F 
ATOM    123  F   UNL A   1      45.072  24.411  37.573  1.00  0.00    -0.200 F 
ENDBRANCH  85 113
BRANCH 100 124
ATOM    124  C   UNL A   1      45.109  29.306  28.420  1.00  0.00     0.064 A 
ATOM    125  C   UNL A   1      45.721  28.159  27.887  1.00  0.00     0.173 A 
ATOM    126  C   UNL A   1      45.825  30.508  28.351  1.00  0.00     0.173 A 
ATOM    127  F   UNL A   1      45.069  26.991  27.827  1.00  0.00    -0.203 F 
ATOM    128  C   UNL A   1      47.008  28.207  27.353  1.00  0.00     0.198 A 
ATOM    129  C   UNL A   1      47.095  30.561  27.783  1.00  0.00     0.198 A 
ATOM    130  F   UNL A   1      45.271  31.646  28.797  1.00  0.00    -0.203 F 
ATOM    131  F   UNL A   1      47.575  27.094  26.864  1.00  0.00    -0.200 F 
ATOM    132  C   UNL A   1      47.689  29.410  27.293  1.00  0.00     0.200 A 
ATOM    133  F   UNL A   1      47.729  31.737  27.685  1.00  0.00    -0.200 F 
ATOM    134  F   UNL A   1      48.911  29.466  26.743  1.00  0.00    -0.200 F 
ENDBRANCH 100 124
ENDBRANCH  65  68
ENDBRANCH  55  58
ENDBRANCH  51  54
ENDBRANCH  48  51
ENDBRANCH  45  48
ENDBRANCH   1  45
TORSDOF 16
ENDMDL
MODEL 2
REMARK VINA RESULT:     -12.4      2.351      6.986
REMARK SMILES O=C(Cn1cnc(-c2ccccc2)c1-c1ccccc1)NCCCCCCNC(=O)c1ccc(-c2c3nc(c(-c4c(F)c(F)c(F)c(F)c4F)c4ccc([nH]4)c(-c4c(F)c(F)c(F)c(F)c4F)c4nc(c(-c5c(F)c(F)c(F)c(F)c5F)c5ccc2[nH]5)C=C4)C=C3)cc1
REMARK SMILES IDX 24 1 23 4 22 7 21 10 1 11 2 12 3 14 4 17 5 18 14 19 6 20
REMARK SMILES IDX 7 22 15 23 16 24 20 25 17 26 19 28 18 30 8 34 9 35 13 36
REMARK SMILES IDX 10 37 12 39 11 41 25 45 26 48 27 51 28 54 29 55 30 57 31 58
REMARK SMILES IDX 32 59 93 60 33 61 92 63 34 65 35 68 36 69 86 70 37 71 91 72
REMARK SMILES IDX 85 73 87 74 38 75 90 76 84 78 83 80 39 82 71 85 51 86 70 87
REMARK SMILES IDX 52 88 55 89 69 90 88 91 53 92 54 94 68 96 89 97 56 100
REMARK SMILES IDX 40 102 41 103 49 104 42 105 43 106 47 107 50 108 44 109
REMARK SMILES IDX 45 110 48 111 46 112 72 113 73 114 81 115 74 116 75 117
REMARK SMILES IDX 79 118 82 119 76 120 77 121 80 122 78 123 57 124 58 125
REMARK SMILES IDX 66 126 59 127 60 128 64 129 67 130 61 131 62 132 65 133
REMARK SMILES IDX 63 134
REMARK H PARENT 24 2 24 3 23 5 23 6 22 8 22 9 21 13 3 15 3 16 5 21 16 27 20 29
REMARK H PARENT 17 31 19 32 18 33 9 38 13 40 10 42 12 43 11 44 25 46 25 47
REMARK H PARENT 26 49 26 50 27 52 27 53 28 56 32 62 93 64 33 66 92 67 91 77
REMARK H PARENT 85 79 87 81 90 83 84 84 52 93 55 95 88 98 53 99 89 101
REMARK Flexibility Score: inf
ROOT
ATOM      1  C   UNL A   1      37.085  23.655  25.122  1.00  0.00    -0.052 C 
ATOM      2  H   UNL A   1      36.167  23.868  25.631  1.00  0.00     0.027 H 
ATOM      3  H   UNL A   1      37.576  24.511  24.711  1.00  0.00     0.027 H 
ENDROOT
BRANCH   1   4
ATOM      4  C   UNL A   1      36.753  22.764  23.921  1.00  0.00    -0.036 C 
ATOM      5  H   UNL A   1      36.842  23.355  23.033  1.00  0.00     0.028 H 
ATOM      6  H   UNL A   1      37.442  21.946  23.954  1.00  0.00     0.028 H 
BRANCH   4   7
ATOM      7  C   UNL A   1      35.358  22.151  23.942  1.00  0.00     0.017 C 
ATOM      8  H   UNL A   1      35.094  21.867  22.945  1.00  0.00     0.049 H 
ATOM      9  H   UNL A   1      35.389  21.309  24.602  1.00  0.00     0.049 H 
BRANCH   7  10
ATOM     10  N   UNL A   1      34.346  23.061  24.447  1.00  0.00    -0.355 N 
ATOM     11  O   UNL A   1      33.410  21.556  25.896  1.00  0.00    -0.273 OA
ATOM     12  C   UNL A   1      33.497  22.710  25.478  1.00  0.00     0.239 C 
ATOM     13  H   UNL A   1      34.262  23.954  24.043  1.00  0.00     0.163 HD
BRANCH  12  14
ATOM     14  C   UNL A   1      32.601  23.805  26.020  1.00  0.00     0.103 C 
ATOM     15  H   UNL A   1      33.221  24.533  26.498  1.00  0.00     0.060 H 
ATOM     16  H   UNL A   1      31.916  23.325  26.687  1.00  0.00     0.060 H 
BRANCH  14  17
ATOM     17  N   UNL A   1      31.788  24.487  25.025  1.00  0.00    -0.321 N 
ATOM     18  C   UNL A   1      31.001  23.831  24.113  1.00  0.00     0.096 A 
ATOM     19  C   UNL A   1      31.554  25.841  24.887  1.00  0.00     0.076 A 
ATOM     20  N   UNL A   1      30.290  24.664  23.393  1.00  0.00    -0.236 NA
ATOM     21  H   UNL A   1      30.973  22.805  24.006  1.00  0.00     0.104 H 
ATOM     22  C   UNL A   1      30.623  25.912  23.856  1.00  0.00     0.096 A 
BRANCH  19  23
ATOM     23  C   UNL A   1      32.126  26.912  25.701  1.00  0.00     0.000 A 
ATOM     24  C   UNL A   1      33.444  27.330  25.487  1.00  0.00    -0.053 A 
ATOM     25  C   UNL A   1      31.414  27.453  26.775  1.00  0.00    -0.053 A 
ATOM     26  C   UNL A   1      34.025  28.291  26.318  1.00  0.00    -0.062 A 
ATOM     27  H   UNL A   1      33.991  26.926  24.710  1.00  0.00     0.063 H 
ATOM     28  C   UNL A   1      31.982  28.433  27.589  1.00  0.00    -0.062 A 
ATOM     29  H   UNL A   1      30.456  27.123  26.969  1.00  0.00     0.063 H 
ATOM     30  C   UNL A   1      33.291  28.850  27.361  1.00  0.00    -0.062 A 
ATOM     31  H   UNL A   1      35.002  28.587  26.158  1.00  0.00     0.062 H 
ATOM     32  H   UNL A   1      31.435  28.848  28.360  1.00  0.00     0.062 H 
ATOM     33  H   UNL A   1      33.715  29.573  27.964  1.00  0.00     0.062 H 
ENDBRANCH  19  23
BRANCH  22  34
ATOM     34  C   UNL A   1      30.033  27.135  23.348  1.00  0.00     0.002 A 
ATOM     35  C   UNL A   1      28.662  27.366  23.503  1.00  0.00    -0.053 A 
ATOM     36  C   UNL A   1      30.833  28.113  22.743  1.00  0.00    -0.053 A 
ATOM     37  C   UNL A   1      28.105  28.578  23.090  1.00  0.00    -0.062 A 
ATOM     38  H   UNL A   1      28.062  26.640  23.925  1.00  0.00     0.063 H 
ATOM     39  C   UNL A   1      30.273  29.321  22.325  1.00  0.00    -0.062 A 
ATOM     40  H   UNL A   1      31.840  27.940  22.606  1.00  0.00     0.063 H 
ATOM     41  C   UNL A   1      28.911  29.555  22.505  1.00  0.00    -0.062 A 
ATOM     42  H   UNL A   1      27.095  28.751  23.216  1.00  0.00     0.062 H 
ATOM     43  H   UNL A   1      30.867  30.039  21.882  1.00  0.00     0.062 H 
ATOM     44  H   UNL A   1      28.499  30.453  22.206  1.00  0.00     0.062 H 
ENDBRANCH  22  34
ENDBRANCH  14  17
ENDBRANCH  12  14
ENDBRANCH   7  10
ENDBRANCH   4   7
ENDBRANCH   1   4
BRANCH   1  45
ATOM     45  C   UNL A   1      38.066  23.082  26.154  1.00  0.00    -0.052 C 
ATOM     46  H   UNL A   1      37.505  22.842  27.035  1.00  0.00     0.027 H 
ATOM     47  H   UNL A   1      38.808  23.842  26.284  1.00  0.00     0.027 H 
BRANCH  45  48
ATOM     48  C   UNL A   1      38.850  21.825  25.751  1.00  0.00    -0.036 C 
ATOM     49  H   UNL A   1      39.240  21.979  24.765  1.00  0.00     0.028 H 
ATOM     50  H   UNL A   1      38.163  21.009  25.810  1.00  0.00     0.028 H 
BRANCH  48  51
ATOM     51  C   UNL A   1      40.013  21.477  26.670  1.00  0.00     0.018 C 
ATOM     52  H   UNL A   1      39.873  20.481  27.034  1.00  0.00     0.049 H 
ATOM     53  H   UNL A   1      40.018  22.197  27.462  1.00  0.00     0.049 H 
BRANCH  51  54
ATOM     54  N   UNL A   1      41.314  21.551  26.007  1.00  0.00    -0.352 N 
ATOM     55  C   UNL A   1      42.104  22.669  25.794  1.00  0.00     0.251 C 
ATOM     56  H   UNL A   1      41.675  20.700  25.670  1.00  0.00     0.163 HD
ATOM     57  O   UNL A   1      42.962  22.685  24.929  1.00  0.00    -0.269 OA
BRANCH  55  58
ATOM     58  C   UNL A   1      41.882  23.854  26.642  1.00  0.00     0.039 A 
ATOM     59  C   UNL A   1      42.472  23.972  27.904  1.00  0.00    -0.049 A 
ATOM     60  C   UNL A   1      41.094  24.877  26.128  1.00  0.00    -0.049 A 
ATOM     61  C   UNL A   1      42.335  25.170  28.601  1.00  0.00    -0.053 A 
ATOM     62  H   UNL A   1      43.001  23.184  28.312  1.00  0.00     0.063 H 
ATOM     63  C   UNL A   1      41.100  26.106  26.733  1.00  0.00    -0.053 A 
ATOM     64  H   UNL A   1      40.508  24.712  25.295  1.00  0.00     0.063 H 
ATOM     65  C   UNL A   1      41.664  26.246  27.998  1.00  0.00    -0.014 A 
ATOM     66  H   UNL A   1      42.722  25.267  29.553  1.00  0.00     0.063 H 
ATOM     67  H   UNL A   1      40.689  26.923  26.256  1.00  0.00     0.063 H 
BRANCH  65  68
ATOM     68  C   UNL A   1      41.624  27.560  28.633  1.00  0.00     0.031 A 
ATOM     69  C   UNL A   1      42.736  28.480  28.263  1.00  0.00     0.074 A 
ATOM     70  C   UNL A   1      40.541  28.003  29.310  1.00  0.00     0.049 A 
ATOM     71  N   UNL A   1      43.629  29.002  29.039  1.00  0.00    -0.248 NA
ATOM     72  C   UNL A   1      42.942  28.782  26.837  1.00  0.00    -0.034 C 
ATOM     73  C   UNL A   1      39.240  27.339  29.476  1.00  0.00    -0.036 A 
ATOM     74  N   UNL A   1      40.332  29.212  29.901  1.00  0.00    -0.354 N 
ATOM     75  C   UNL A   1      44.400  29.841  28.236  1.00  0.00     0.074 A 
ATOM     76  C   UNL A   1      44.037  29.543  26.875  1.00  0.00    -0.034 C 
ATOM     77  H   UNL A   1      42.385  28.484  26.021  1.00  0.00     0.065 H 
ATOM     78  C   UNL A   1      38.322  28.236  29.896  1.00  0.00    -0.036 A 
ATOM     79  H   UNL A   1      39.057  26.340  29.297  1.00  0.00     0.065 H 
ATOM     80  C   UNL A   1      39.004  29.475  30.210  1.00  0.00     0.049 A 
ATOM     81  H   UNL A   1      41.060  29.846  30.093  1.00  0.00     0.167 HD
ATOM     82  C   UNL A   1      45.101  30.879  28.773  1.00  0.00     0.037 A 
ATOM     83  H   UNL A   1      44.554  29.872  26.045  1.00  0.00     0.065 H 
ATOM     84  H   UNL A   1      37.308  28.066  29.979  1.00  0.00     0.065 H 
ATOM     85  C   UNL A   1      38.490  30.639  30.673  1.00  0.00     0.037 A 
ATOM     86  C   UNL A   1      45.246  30.720  30.197  1.00  0.00     0.049 A 
ATOM     87  C   UNL A   1      39.615  31.417  31.240  1.00  0.00     0.074 A 
ATOM     88  C   UNL A   1      45.844  29.791  31.025  1.00  0.00    -0.036 A 
ATOM     89  N   UNL A   1      44.399  31.443  30.997  1.00  0.00    -0.354 N 
ATOM     90  N   UNL A   1      40.278  31.071  32.308  1.00  0.00    -0.248 NA
ATOM     91  C   UNL A   1      40.277  32.383  30.378  1.00  0.00    -0.034 C 
ATOM     92  C   UNL A   1      44.988  29.703  32.164  1.00  0.00    -0.036 A 
ATOM     93  H   UNL A   1      46.721  29.274  30.857  1.00  0.00     0.065 H 
ATOM     94  C   UNL A   1      43.950  30.620  31.995  1.00  0.00     0.049 A 
ATOM     95  H   UNL A   1      44.156  32.389  30.875  1.00  0.00     0.167 HD
ATOM     96  C   UNL A   1      41.591  31.421  32.032  1.00  0.00     0.074 A 
ATOM     97  C   UNL A   1      41.507  32.334  30.896  1.00  0.00    -0.034 C 
ATOM     98  H   UNL A   1      39.905  32.942  29.595  1.00  0.00     0.065 H 
ATOM     99  H   UNL A   1      45.114  29.071  32.970  1.00  0.00     0.065 H 
ATOM    100  C   UNL A   1      42.626  30.712  32.568  1.00  0.00     0.037 A 
ATOM    101  H   UNL A   1      42.306  32.879  30.535  1.00  0.00     0.065 H 
BRANCH  82 102
ATOM    102  C   UNL A   1      45.304  32.223  28.105  1.00  0.00     0.064 A 
ATOM    103  C   UNL A   1      44.176  33.026  27.829  1.00  0.00     0.173 A 
ATOM    104  C   UNL A   1      46.490  32.604  27.442  1.00  0.00     0.173 A 
ATOM    105  F   UNL A   1      42.989  32.756  28.392  1.00  0.00    -0.203 F 
ATOM    106  C   UNL A   1      44.213  34.060  26.889  1.00  0.00     0.198 A 
ATOM    107  C   UNL A   1      46.537  33.673  26.546  1.00  0.00     0.198 A 
ATOM    108  F   UNL A   1      47.622  31.900  27.539  1.00  0.00    -0.203 F 
ATOM    109  F   UNL A   1      43.083  34.700  26.557  1.00  0.00    -0.200 F 
ATOM    110  C   UNL A   1      45.392  34.376  26.241  1.00  0.00     0.200 A 
ATOM    111  F   UNL A   1      47.686  33.951  25.914  1.00  0.00    -0.200 F 
ATOM    112  F   UNL A   1      45.416  35.318  25.289  1.00  0.00    -0.200 F 
ENDBRANCH  82 102
BRANCH  85 113
ATOM    113  C   UNL A   1      37.162  31.236  30.412  1.00  0.00     0.064 A 
ATOM    114  C   UNL A   1      36.286  31.539  31.467  1.00  0.00     0.173 A 
ATOM    115  C   UNL A   1      36.845  31.786  29.155  1.00  0.00     0.173 A 
ATOM    116  F   UNL A   1      36.539  31.084  32.703  1.00  0.00    -0.203 F 
ATOM    117  C   UNL A   1      35.179  32.372  31.284  1.00  0.00     0.198 A 
ATOM    118  C   UNL A   1      35.737  32.614  28.971  1.00  0.00     0.198 A 
ATOM    119  F   UNL A   1      37.660  31.611  28.104  1.00  0.00    -0.203 F 
ATOM    120  F   UNL A   1      34.406  32.696  32.329  1.00  0.00    -0.200 F 
ATOM    121  C   UNL A   1      34.914  32.920  30.039  1.00  0.00     0.200 A 
ATOM    122  F   UNL A   1      35.512  33.166  27.771  1.00  0.00    -0.200 F 
ATOM    123  F   UNL A   1      33.893  33.775  29.878  1.00  0.00    -0.200 F 
ENDBRANCH  85 113
BRANCH 100 124
ATOM    124  C   UNL A   1      42.316  29.781  33.708  1.00  0.00     0.064 A 
ATOM    125  C   UNL A   1      41.940  28.435  33.556  1.00  0.00     0.173 A 
ATOM    126  C   UNL A   1      42.536  30.243  35.011  1.00  0.00     0.173 A 
ATOM    127  F   UNL A   1      41.803  27.887  32.342  1.00  0.00    -0.203 F 
ATOM    128  C   UNL A   1      41.750  27.607  34.662  1.00  0.00     0.198 A 
ATOM    129  C   UNL A   1      42.383  29.405  36.112  1.00  0.00     0.198 A 
ATOM    130  F   UNL A   1      42.946  31.505  35.215  1.00  0.00    -0.203 F 
ATOM    131  F   UNL A   1      41.376  26.331  34.490  1.00  0.00    -0.200 F 
ATOM    132  C   UNL A   1      41.980  28.091  35.938  1.00  0.00     0.200 A 
ATOM    133  F   UNL A   1      42.653  29.866  37.340  1.00  0.00    -0.200 F 
ATOM    134  F   UNL A   1      41.837  27.285  37.000  1.00  0.00    -0.200 F 
ENDBRANCH 100 124
ENDBRANCH  65  68
ENDBRANCH  55  58
ENDBRANCH  51  54
ENDBRANCH  48  51
ENDBRANCH  45  48
ENDBRANCH   1  45
TORSDOF 16
ENDMDL
MODEL 3
REMARK VINA RESULT:     -12.4      2.693      7.214
REMARK SMILES O=C(Cn1cnc(-c2ccccc2)c1-c1ccccc1)NCCCCCCNC(=O)c1ccc(-c2c3nc(c(-c4c(F)c(F)c(F)c(F)c4F)c4ccc([nH]4)c(-c4c(F)c(F)c(F)c(F)c4F)c4nc(c(-c5c(F)c(F)c(F)c(F)c5F)c5ccc2[nH]5)C=C4)C=C3)cc1
REMARK SMILES IDX 24 1 23 4 22 7 21 10 1 11 2 12 3 14 4 17 5 18 14 19 6 20
REMARK SMILES IDX 7 22 15 23 16 24 20 25 17 26 19 28 18 30 8 34 9 35 13 36
REMARK SMILES IDX 10 37 12 39 11 41 25 45 26 48 27 51 28 54 29 55 30 57 31 58
REMARK SMILES IDX 32 59 93 60 33 61 92 63 34 65 35 68 36 69 86 70 37 71 91 72
REMARK SMILES IDX 85 73 87 74 38 75 90 76 84 78 83 80 39 82 71 85 51 86 70 87
REMARK SMILES IDX 52 88 55 89 69 90 88 91 53 92 54 94 68 96 89 97 56 100
REMARK SMILES IDX 40 102 41 103 49 104 42 105 43 106 47 107 50 108 44 109
REMARK SMILES IDX 45 110 48 111 46 112 72 113 73 114 81 115 74 116 75 117
REMARK SMILES IDX 79 118 82 119 76 120 77 121 80 122 78 123 57 124 58 125
REMARK SMILES IDX 66 126 59 127 60 128 64 129 67 130 61 131 62 132 65 133
REMARK SMILES IDX 63 134
REMARK H PARENT 24 2 24 3 23 5 23 6 22 8 22 9 21 13 3 15 3 16 5 21 16 27 20 29
REMARK H PARENT 17 31 19 32 18 33 9 38 13 40 10 42 12 43 11 44 25 46 25 47
REMARK H PARENT 26 49 26 50 27 52 27 53 28 56 32 62 93 64 33 66 92 67 91 77
REMARK H PARENT 85 79 87 81 90 83 84 84 52 93 55 95 88 98 53 99 89 101
REMARK Flexibility Score: inf
ROOT
ATOM      1  C   UNL A   1      35.687  20.680  24.951  1.00  0.00    -0.052 C 
ATOM      2  H   UNL A   1      35.791  20.523  23.897  1.00  0.00     0.027 H 
ATOM      3  H   UNL A   1      35.902  19.822  25.553  1.00  0.00     0.027 H 
ENDROOT
BRANCH   1   4
ATOM      4  C   UNL A   1      34.216  21.009  25.228  1.00  0.00    -0.036 C 
ATOM      5  H   UNL A   1      33.684  20.087  25.339  1.00  0.00     0.028 H 
ATOM      6  H   UNL A   1      34.204  21.612  26.111  1.00  0.00     0.028 H 
BRANCH   4   7
ATOM      7  C   UNL A   1      33.526  21.825  24.142  1.00  0.00     0.017 C 
ATOM      8  H   UNL A   1      34.048  21.678  23.220  1.00  0.00     0.049 H 
ATOM      9  H   UNL A   1      32.512  21.487  24.084  1.00  0.00     0.049 H 
BRANCH   7  10
ATOM     10  N   UNL A   1      33.494  23.247  24.434  1.00  0.00    -0.355 N 
ATOM     11  O   UNL A   1      35.074  23.819  22.880  1.00  0.00    -0.273 OA
ATOM     12  C   UNL A   1      34.217  24.161  23.695  1.00  0.00     0.239 C 
ATOM     13  H   UNL A   1      32.941  23.568  25.183  1.00  0.00     0.163 HD
BRANCH  12  14
ATOM     14  C   UNL A   1      33.969  25.625  23.997  1.00  0.00     0.103 C 
ATOM     15  H   UNL A   1      34.861  26.166  23.767  1.00  0.00     0.060 H 
ATOM     16  H   UNL A   1      33.696  25.672  25.031  1.00  0.00     0.060 H 
BRANCH  14  17
ATOM     17  N   UNL A   1      32.870  26.230  23.260  1.00  0.00    -0.321 N 
ATOM     18  C   UNL A   1      32.405  25.746  22.064  1.00  0.00     0.096 A 
ATOM     19  C   UNL A   1      32.042  27.266  23.647  1.00  0.00     0.076 A 
ATOM     20  N   UNL A   1      31.347  26.401  21.650  1.00  0.00    -0.236 NA
ATOM     21  H   UNL A   1      32.835  24.960  21.552  1.00  0.00     0.104 H 
ATOM     22  C   UNL A   1      31.112  27.347  22.615  1.00  0.00     0.096 A 
BRANCH  19  23
ATOM     23  C   UNL A   1      32.124  28.028  24.891  1.00  0.00     0.000 A 
ATOM     24  C   UNL A   1      31.586  27.505  26.072  1.00  0.00    -0.053 A 
ATOM     25  C   UNL A   1      32.630  29.330  24.901  1.00  0.00    -0.053 A 
ATOM     26  C   UNL A   1      31.583  28.263  27.245  1.00  0.00    -0.062 A 
ATOM     27  H   UNL A   1      31.190  26.551  26.077  1.00  0.00     0.063 H 
ATOM     28  C   UNL A   1      32.653  30.081  26.077  1.00  0.00    -0.062 A 
ATOM     29  H   UNL A   1      32.991  29.743  24.027  1.00  0.00     0.063 H 
ATOM     30  C   UNL A   1      32.126  29.546  27.250  1.00  0.00    -0.062 A 
ATOM     31  H   UNL A   1      31.176  27.873  28.110  1.00  0.00     0.062 H 
ATOM     32  H   UNL A   1      33.059  31.029  26.079  1.00  0.00     0.062 H 
ATOM     33  H   UNL A   1      32.139  30.100  28.121  1.00  0.00     0.062 H 
ENDBRANCH  19  23
BRANCH  22  34
ATOM     34  C   UNL A   1      30.002  28.278  22.566  1.00  0.00     0.002 A 
ATOM     35  C   UNL A   1      28.769  27.923  23.123  1.00  0.00    -0.053 A 
ATOM     36  C   UNL A   1      30.165  29.552  22.007  1.00  0.00    -0.053 A 
ATOM     37  C   UNL A   1      27.722  28.847  23.153  1.00  0.00    -0.062 A 
ATOM     38  H   UNL A   1      28.633  26.978  23.515  1.00  0.00     0.063 H 
ATOM     39  C   UNL A   1      29.115  30.472  22.031  1.00  0.00    -0.062 A 
ATOM     40  H   UNL A   1      31.064  29.811  21.575  1.00  0.00     0.063 H 
ATOM     41  C   UNL A   1      27.897  30.120  22.611  1.00  0.00    -0.062 A 
ATOM     42  H   UNL A   1      26.817  28.587  23.575  1.00  0.00     0.062 H 
ATOM     43  H   UNL A   1      29.241  31.409  21.620  1.00  0.00     0.062 H 
ATOM     44  H   UNL A   1      27.125  30.804  22.639  1.00  0.00     0.062 H 
ENDBRANCH  22  34
ENDBRANCH  14  17
ENDBRANCH  12  14
ENDBRANCH   7  10
ENDBRANCH   4   7
ENDBRANCH   1   4
BRANCH   1  45
ATOM     45  C   UNL A   1      36.719  21.737  25.368  1.00  0.00    -0.052 C 
ATOM     46  H   UNL A   1      36.471  22.056  26.360  1.00  0.00     0.027 H 
ATOM     47  H   UNL A   1      36.655  22.498  24.619  1.00  0.00     0.027 H 
BRANCH  45  48
ATOM     48  C   UNL A   1      38.193  21.309  25.375  1.00  0.00    -0.036 C 
ATOM     49  H   UNL A   1      38.554  21.340  24.368  1.00  0.00     0.028 H 
ATOM     50  H   UNL A   1      38.221  20.330  25.804  1.00  0.00     0.028 H 
BRANCH  48  51
ATOM     51  C   UNL A   1      39.105  22.178  26.230  1.00  0.00     0.018 C 
ATOM     52  H   UNL A   1      38.950  21.927  27.259  1.00  0.00     0.049 H 
ATOM     53  H   UNL A   1      38.857  23.198  26.024  1.00  0.00     0.049 H 
BRANCH  51  54
ATOM     54  N   UNL A   1      40.524  22.006  25.919  1.00  0.00    -0.352 N 
ATOM     55  C   UNL A   1      41.528  22.960  25.942  1.00  0.00     0.251 C 
ATOM     56  H   UNL A   1      40.800  21.097  25.660  1.00  0.00     0.163 HD
ATOM     57  O   UNL A   1      42.565  22.805  25.322  1.00  0.00    -0.269 OA
BRANCH  55  58
ATOM     58  C   UNL A   1      41.313  24.181  26.740  1.00  0.00     0.039 A 
ATOM     59  C   UNL A   1      41.845  24.318  28.025  1.00  0.00    -0.049 A 
ATOM     60  C   UNL A   1      40.595  25.216  26.153  1.00  0.00    -0.049 A 
ATOM     61  C   UNL A   1      41.723  25.544  28.675  1.00  0.00    -0.053 A 
ATOM     62  H   UNL A   1      42.320  23.524  28.485  1.00  0.00     0.063 H 
ATOM     63  C   UNL A   1      40.622  26.464  26.718  1.00  0.00    -0.053 A 
ATOM     64  H   UNL A   1      40.044  25.046  25.297  1.00  0.00     0.063 H 
ATOM     65  C   UNL A   1      41.128  26.625  28.004  1.00  0.00    -0.014 A 
ATOM     66  H   UNL A   1      42.066  25.658  29.642  1.00  0.00     0.063 H 
ATOM     67  H   UNL A   1      40.269  27.279  26.194  1.00  0.00     0.063 H 
BRANCH  65  68
ATOM     68  C   UNL A   1      41.111  27.960  28.594  1.00  0.00     0.031 A 
ATOM     69  C   UNL A   1      42.185  28.879  28.120  1.00  0.00     0.074 A 
ATOM     70  C   UNL A   1      40.068  28.415  29.324  1.00  0.00     0.049 A 
ATOM     71  N   UNL A   1      43.118  29.438  28.818  1.00  0.00    -0.248 NA
ATOM     72  C   UNL A   1      42.294  29.131  26.675  1.00  0.00    -0.034 C 
ATOM     73  C   UNL A   1      38.789  27.743  29.596  1.00  0.00    -0.036 A 
ATOM     74  N   UNL A   1      39.881  29.642  29.884  1.00  0.00    -0.354 N 
ATOM     75  C   UNL A   1      43.824  30.257  27.937  1.00  0.00     0.074 A 
ATOM     76  C   UNL A   1      43.379  29.905  26.615  1.00  0.00    -0.034 C 
ATOM     77  H   UNL A   1      41.690  28.797  25.907  1.00  0.00     0.065 H 
ATOM     78  C   UNL A   1      37.888  28.644  30.043  1.00  0.00    -0.036 A 
ATOM     79  H   UNL A   1      38.609  26.736  29.466  1.00  0.00     0.065 H 
ATOM     80  C   UNL A   1      38.572  29.902  30.269  1.00  0.00     0.049 A 
ATOM     81  H   UNL A   1      40.611  30.291  30.005  1.00  0.00     0.167 HD
ATOM     82  C   UNL A   1      44.544  31.321  28.391  1.00  0.00     0.037 A 
ATOM     83  H   UNL A   1      43.837  30.209  25.741  1.00  0.00     0.065 H 
ATOM     84  H   UNL A   1      36.884  28.466  30.197  1.00  0.00     0.065 H 
ATOM     85  C   UNL A   1      38.073  31.076  30.722  1.00  0.00     0.037 A 
ATOM     86  C   UNL A   1      44.783  31.215  29.808  1.00  0.00     0.049 A 
ATOM     87  C   UNL A   1      39.221  31.886  31.187  1.00  0.00     0.074 A 
ATOM     88  C   UNL A   1      45.445  30.324  30.627  1.00  0.00    -0.036 A 
ATOM     89  N   UNL A   1      43.979  31.957  30.635  1.00  0.00    -0.354 N 
ATOM     90  N   UNL A   1      39.957  31.587  32.221  1.00  0.00    -0.248 NA
ATOM     91  C   UNL A   1      39.814  32.828  30.251  1.00  0.00    -0.034 C 
ATOM     92  C   UNL A   1      44.665  30.267  31.821  1.00  0.00    -0.036 A 
ATOM     93  H   UNL A   1      46.317  29.811  30.422  1.00  0.00     0.065 H 
ATOM     94  C   UNL A   1      43.606  31.166  31.687  1.00  0.00     0.049 A 
ATOM     95  H   UNL A   1      43.716  32.896  30.495  1.00  0.00     0.167 HD
ATOM     96  C   UNL A   1      41.244  31.941  31.849  1.00  0.00     0.074 A 
ATOM     97  C   UNL A   1      41.075  32.811  30.689  1.00  0.00    -0.034 C 
ATOM     98  H   UNL A   1      39.385  33.354  29.474  1.00  0.00     0.065 H 
ATOM     99  H   UNL A   1      44.851  29.666  32.640  1.00  0.00     0.065 H 
ATOM    100  C   UNL A   1      42.321  31.263  32.342  1.00  0.00     0.037 A 
ATOM    101  H   UNL A   1      41.841  33.352  30.258  1.00  0.00     0.065 H 
BRANCH  82 102
ATOM    102  C   UNL A   1      44.686  32.642  27.664  1.00  0.00     0.064 A 
ATOM    103  C   UNL A   1      45.857  32.886  26.912  1.00  0.00     0.173 A 
ATOM    104  C   UNL A   1      43.895  33.780  27.930  1.00  0.00     0.173 A 
ATOM    105  F   UNL A   1      46.694  31.884  26.605  1.00  0.00    -0.203 F 
ATOM    106  C   UNL A   1      46.251  34.177  26.551  1.00  0.00     0.198 A 
ATOM    107  C   UNL A   1      44.264  35.061  27.519  1.00  0.00     0.198 A 
ATOM    108  F   UNL A   1      42.799  33.725  28.693  1.00  0.00    -0.203 F 
ATOM    109  F   UNL A   1      47.440  34.371  25.964  1.00  0.00    -0.200 F 
ATOM    110  C   UNL A   1      45.458  35.265  26.863  1.00  0.00     0.200 A 
ATOM    111  F   UNL A   1      43.490  36.105  27.848  1.00  0.00    -0.200 F 
ATOM    112  F   UNL A   1      45.865  36.510  26.581  1.00  0.00    -0.200 F 
ENDBRANCH  82 102
BRANCH  85 113
ATOM    113  C   UNL A   1      36.723  31.648  30.527  1.00  0.00     0.064 A 
ATOM    114  C   UNL A   1      35.905  31.960  31.624  1.00  0.00     0.173 A 
ATOM    115  C   UNL A   1      36.326  32.166  29.279  1.00  0.00     0.173 A 
ATOM    116  F   UNL A   1      36.236  31.536  32.853  1.00  0.00    -0.203 F 
ATOM    117  C   UNL A   1      34.777  32.774  31.489  1.00  0.00     0.198 A 
ATOM    118  C   UNL A   1      35.196  32.974  29.144  1.00  0.00     0.198 A 
ATOM    119  F   UNL A   1      37.081  31.980  28.187  1.00  0.00    -0.203 F 
ATOM    120  F   UNL A   1      34.060  33.108  32.571  1.00  0.00    -0.200 F 
ATOM    121  C   UNL A   1      34.431  33.291  30.250  1.00  0.00     0.200 A 
ATOM    122  F   UNL A   1      34.893  33.497  27.947  1.00  0.00    -0.200 F 
ATOM    123  F   UNL A   1      33.390  34.128  30.132  1.00  0.00    -0.200 F 
ENDBRANCH  85 113
BRANCH 100 124
ATOM    124  C   UNL A   1      42.098  30.371  33.531  1.00  0.00     0.064 A 
ATOM    125  C   UNL A   1      41.733  29.016  33.452  1.00  0.00     0.173 A 
ATOM    126  C   UNL A   1      42.393  30.883  34.801  1.00  0.00     0.173 A 
ATOM    127  F   UNL A   1      41.526  28.422  32.269  1.00  0.00    -0.203 F 
ATOM    128  C   UNL A   1      41.625  28.227  34.596  1.00  0.00     0.198 A 
ATOM    129  C   UNL A   1      42.322  30.084  35.938  1.00  0.00     0.198 A 
ATOM    130  F   UNL A   1      42.797  32.156  34.933  1.00  0.00    -0.203 F 
ATOM    131  F   UNL A   1      41.260  26.940  34.494  1.00  0.00    -0.200 F 
ATOM    132  C   UNL A   1      41.929  28.759  35.837  1.00  0.00     0.200 A 
ATOM    133  F   UNL A   1      42.663  30.592  37.130  1.00  0.00    -0.200 F 
ATOM    134  F   UNL A   1      41.865  27.991  36.935  1.00  0.00    -0.200 F 
ENDBRANCH 100 124
ENDBRANCH  65  68
ENDBRANCH  55  58
ENDBRANCH  51  54
ENDBRANCH  48  51
ENDBRANCH  45  48
ENDBRANCH   1  45
TORSDOF 16
ENDMDL
MODEL 4
REMARK VINA RESULT:     -12.2      3.113      8.004
REMARK SMILES O=C(Cn1cnc(-c2ccccc2)c1-c1ccccc1)NCCCCCCNC(=O)c1ccc(-c2c3nc(c(-c4c(F)c(F)c(F)c(F)c4F)c4ccc([nH]4)c(-c4c(F)c(F)c(F)c(F)c4F)c4nc(c(-c5c(F)c(F)c(F)c(F)c5F)c5ccc2[nH]5)C=C4)C=C3)cc1
REMARK SMILES IDX 24 1 23 4 22 7 21 10 1 11 2 12 3 14 4 17 5 18 14 19 6 20
REMARK SMILES IDX 7 22 15 23 16 24 20 25 17 26 19 28 18 30 8 34 9 35 13 36
REMARK SMILES IDX 10 37 12 39 11 41 25 45 26 48 27 51 28 54 29 55 30 57 31 58
REMARK SMILES IDX 32 59 93 60 33 61 92 63 34 65 35 68 36 69 86 70 37 71 91 72
REMARK SMILES IDX 85 73 87 74 38 75 90 76 84 78 83 80 39 82 71 85 51 86 70 87
REMARK SMILES IDX 52 88 55 89 69 90 88 91 53 92 54 94 68 96 89 97 56 100
REMARK SMILES IDX 40 102 41 103 49 104 42 105 43 106 47 107 50 108 44 109
REMARK SMILES IDX 45 110 48 111 46 112 72 113 73 114 81 115 74 116 75 117
REMARK SMILES IDX 79 118 82 119 76 120 77 121 80 122 78 123 57 124 58 125
REMARK SMILES IDX 66 126 59 127 60 128 64 129 67 130 61 131 62 132 65 133
REMARK SMILES IDX 63 134
REMARK H PARENT 24 2 24 3 23 5 23 6 22 8 22 9 21 13 3 15 3 16 5 21 16 27 20 29
REMARK H PARENT 17 31 19 32 18 33 9 38 13 40 10 42 12 43 11 44 25 46 25 47
REMARK H PARENT 26 49 26 50 27 52 27 53 28 56 32 62 93 64 33 66 92 67 91 77
REMARK H PARENT 85 79 87 81 90 83 84 84 52 93 55 95 88 98 53 99 89 101
REMARK Flexibility Score: inf
ROOT
ATOM      1  C   UNL A   1      33.764  27.910  26.663  1.00  0.00    -0.052 C 
ATOM      2  H   UNL A   1      34.331  27.341  25.955  1.00  0.00     0.027 H 
ATOM      3  H   UNL A   1      33.510  27.383  27.559  1.00  0.00     0.027 H 
ENDROOT
BRANCH   1   4
ATOM      4  C   UNL A   1      32.424  28.262  26.008  1.00  0.00    -0.036 C 
ATOM      5  H   UNL A   1      32.360  29.328  25.932  1.00  0.00     0.028 H 
ATOM      6  H   UNL A   1      32.415  27.770  25.058  1.00  0.00     0.028 H 
BRANCH   4   7
ATOM      7  C   UNL A   1      31.194  27.767  26.759  1.00  0.00     0.017 C 
ATOM      8  H   UNL A   1      31.201  28.188  27.743  1.00  0.00     0.049 H 
ATOM      9  H   UNL A   1      30.334  28.073  26.201  1.00  0.00     0.049 H 
BRANCH   7  10
ATOM     10  N   UNL A   1      31.144  26.321  26.875  1.00  0.00    -0.355 N 
ATOM     11  O   UNL A   1      29.793  26.008  25.054  1.00  0.00    -0.273 OA
ATOM     12  C   UNL A   1      30.512  25.534  25.934  1.00  0.00     0.239 C 
ATOM     13  H   UNL A   1      31.572  25.889  27.649  1.00  0.00     0.163 HD
BRANCH  12  14
ATOM     14  C   UNL A   1      30.674  24.035  26.084  1.00  0.00     0.103 C 
ATOM     15  H   UNL A   1      30.388  23.577  25.162  1.00  0.00     0.060 H 
ATOM     16  H   UNL A   1      30.056  23.751  26.911  1.00  0.00     0.060 H 
BRANCH  14  17
ATOM     17  N   UNL A   1      32.019  23.589  26.412  1.00  0.00    -0.321 N 
ATOM     18  C   UNL A   1      32.340  22.953  27.584  1.00  0.00     0.096 A 
ATOM     19  C   UNL A   1      33.146  23.596  25.614  1.00  0.00     0.076 A 
ATOM     20  N   UNL A   1      33.591  22.562  27.601  1.00  0.00    -0.236 NA
ATOM     21  H   UNL A   1      31.676  22.800  28.359  1.00  0.00     0.104 H 
ATOM     22  C   UNL A   1      34.105  22.955  26.391  1.00  0.00     0.096 A 
BRANCH  19  23
ATOM     23  C   UNL A   1      33.244  24.110  24.249  1.00  0.00     0.000 A 
ATOM     24  C   UNL A   1      33.607  25.443  24.024  1.00  0.00    -0.053 A 
ATOM     25  C   UNL A   1      32.867  23.322  23.158  1.00  0.00    -0.053 A 
ATOM     26  C   UNL A   1      33.618  25.964  22.729  1.00  0.00    -0.062 A 
ATOM     27  H   UNL A   1      33.869  26.044  24.822  1.00  0.00     0.063 H 
ATOM     28  C   UNL A   1      32.904  23.832  21.860  1.00  0.00    -0.062 A 
ATOM     29  H   UNL A   1      32.557  22.350  23.315  1.00  0.00     0.063 H 
ATOM     30  C   UNL A   1      33.278  25.155  21.646  1.00  0.00    -0.062 A 
ATOM     31  H   UNL A   1      33.879  26.951  22.573  1.00  0.00     0.062 H 
ATOM     32  H   UNL A   1      32.654  23.230  21.060  1.00  0.00     0.062 H 
ATOM     33  H   UNL A   1      33.303  25.537  20.687  1.00  0.00     0.062 H 
ENDBRANCH  19  23
BRANCH  22  34
ATOM     34  C   UNL A   1      35.469  22.688  25.980  1.00  0.00     0.002 A 
ATOM     35  C   UNL A   1      36.448  23.677  26.124  1.00  0.00    -0.053 A 
ATOM     36  C   UNL A   1      35.829  21.430  25.480  1.00  0.00    -0.053 A 
ATOM     37  C   UNL A   1      37.779  23.397  25.807  1.00  0.00    -0.062 A 
ATOM     38  H   UNL A   1      36.187  24.614  26.468  1.00  0.00     0.063 H 
ATOM     39  C   UNL A   1      37.158  21.153  25.157  1.00  0.00    -0.062 A 
ATOM     40  H   UNL A   1      35.108  20.704  25.351  1.00  0.00     0.063 H 
ATOM     41  C   UNL A   1      38.133  22.135  25.328  1.00  0.00    -0.062 A 
ATOM     42  H   UNL A   1      38.501  24.124  25.926  1.00  0.00     0.062 H 
ATOM     43  H   UNL A   1      37.418  20.225  24.792  1.00  0.00     0.062 H 
ATOM     44  H   UNL A   1      39.118  21.928  25.100  1.00  0.00     0.062 H 
ENDBRANCH  22  34
ENDBRANCH  14  17
ENDBRANCH  12  14
ENDBRANCH   7  10
ENDBRANCH   4   7
ENDBRANCH   1   4
BRANCH   1  45
ATOM     45  C   UNL A   1      34.637  29.087  27.120  1.00  0.00    -0.052 C 
ATOM     46  H   UNL A   1      35.335  29.295  26.335  1.00  0.00     0.027 H 
ATOM     47  H   UNL A   1      35.076  28.766  28.041  1.00  0.00     0.027 H 
BRANCH  45  48
ATOM     48  C   UNL A   1      33.919  30.401  27.459  1.00  0.00    -0.036 C 
ATOM     49  H   UNL A   1      33.385  30.261  28.377  1.00  0.00     0.028 H 
ATOM     50  H   UNL A   1      33.281  30.618  26.629  1.00  0.00     0.028 H 
BRANCH  48  51
ATOM     51  C   UNL A   1      34.836  31.605  27.624  1.00  0.00     0.018 C 
ATOM     52  H   UNL A   1      34.551  32.350  26.911  1.00  0.00     0.049 H 
ATOM     53  H   UNL A   1      35.838  31.264  27.471  1.00  0.00     0.049 H 
BRANCH  51  54
ATOM     54  N   UNL A   1      34.777  32.195  28.961  1.00  0.00    -0.352 N 
ATOM     55  C   UNL A   1      35.471  31.812  30.097  1.00  0.00     0.251 C 
ATOM     56  H   UNL A   1      34.168  32.961  29.068  1.00  0.00     0.163 HD
ATOM     57  O   UNL A   1      35.082  32.116  31.211  1.00  0.00    -0.269 OA
BRANCH  55  58
ATOM     58  C   UNL A   1      36.702  31.019  29.930  1.00  0.00     0.039 A 
ATOM     59  C   UNL A   1      37.937  31.627  29.689  1.00  0.00    -0.049 A 
ATOM     60  C   UNL A   1      36.603  29.638  30.061  1.00  0.00    -0.049 A 
ATOM     61  C   UNL A   1      39.084  30.836  29.674  1.00  0.00    -0.053 A 
ATOM     62  H   UNL A   1      37.999  32.645  29.525  1.00  0.00     0.063 H 
ATOM     63  C   UNL A   1      37.740  28.890  30.214  1.00  0.00    -0.053 A 
ATOM     64  H   UNL A   1      35.678  29.181  30.044  1.00  0.00     0.063 H 
ATOM     65  C   UNL A   1      38.981  29.466  29.961  1.00  0.00    -0.014 A 
ATOM     66  H   UNL A   1      40.002  31.254  29.453  1.00  0.00     0.063 H 
ATOM     67  H   UNL A   1      37.677  27.905  30.513  1.00  0.00     0.063 H 
BRANCH  65  68
ATOM     68  C   UNL A   1      40.173  28.633  30.097  1.00  0.00     0.031 A 
ATOM     69  C   UNL A   1      40.637  28.410  31.496  1.00  0.00     0.074 A 
ATOM     70  C   UNL A   1      40.677  27.918  29.066  1.00  0.00     0.049 A 
ATOM     71  N   UNL A   1      41.769  28.744  32.021  1.00  0.00    -0.248 NA
ATOM     72  C   UNL A   1      39.686  27.829  32.457  1.00  0.00    -0.034 C 
ATOM     73  C   UNL A   1      40.132  27.774  27.709  1.00  0.00    -0.036 A 
ATOM     74  N   UNL A   1      41.734  27.060  29.051  1.00  0.00    -0.354 N 
ATOM     75  C   UNL A   1      41.751  28.257  33.327  1.00  0.00     0.074 A 
ATOM     76  C   UNL A   1      40.395  27.851  33.587  1.00  0.00    -0.034 C 
ATOM     77  H   UNL A   1      38.724  27.491  32.299  1.00  0.00     0.065 H 
ATOM     78  C   UNL A   1      40.705  26.715  27.098  1.00  0.00    -0.036 A 
ATOM     79  H   UNL A   1      39.419  28.390  27.288  1.00  0.00     0.065 H 
ATOM     80  C   UNL A   1      41.782  26.231  27.938  1.00  0.00     0.049 A 
ATOM     81  H   UNL A   1      42.407  27.029  29.769  1.00  0.00     0.167 HD
ATOM     82  C   UNL A   1      42.908  28.010  34.002  1.00  0.00     0.037 A 
ATOM     83  H   UNL A   1      40.022  27.610  34.519  1.00  0.00     0.065 H 
ATOM     84  H   UNL A   1      40.424  26.320  26.188  1.00  0.00     0.065 H 
ATOM     85  C   UNL A   1      42.634  25.200  27.726  1.00  0.00     0.037 A 
ATOM     86  C   UNL A   1      44.022  28.673  33.372  1.00  0.00     0.049 A 
ATOM     87  C   UNL A   1      43.789  25.396  28.630  1.00  0.00     0.074 A 
ATOM     88  C   UNL A   1      44.366  29.984  33.114  1.00  0.00    -0.036 A 
ATOM     89  N   UNL A   1      44.833  27.909  32.572  1.00  0.00    -0.354 N 
ATOM     90  N   UNL A   1      44.648  26.370  28.519  1.00  0.00    -0.248 NA
ATOM     91  C   UNL A   1      43.761  24.732  29.924  1.00  0.00    -0.034 C 
ATOM     92  C   UNL A   1      45.027  29.952  31.849  1.00  0.00    -0.036 A 
ATOM     93  H   UNL A   1      44.185  30.809  33.707  1.00  0.00     0.065 H 
ATOM     94  C   UNL A   1      45.101  28.622  31.435  1.00  0.00     0.049 A 
ATOM     95  H   UNL A   1      45.164  27.005  32.779  1.00  0.00     0.167 HD
ATOM     96  C   UNL A   1      44.942  26.727  29.825  1.00  0.00     0.074 A 
ATOM     97  C   UNL A   1      44.472  25.608  30.637  1.00  0.00    -0.034 C 
ATOM     98  H   UNL A   1      43.319  23.844  30.208  1.00  0.00     0.065 H 
ATOM     99  H   UNL A   1      45.386  30.770  31.332  1.00  0.00     0.065 H 
ATOM    100  C   UNL A   1      45.275  28.014  30.135  1.00  0.00     0.037 A 
ATOM    101  H   UNL A   1      44.667  25.507  31.645  1.00  0.00     0.065 H 
BRANCH  82 102
ATOM    102  C   UNL A   1      43.117  26.867  34.973  1.00  0.00     0.064 A 
ATOM    103  C   UNL A   1      43.351  27.161  36.335  1.00  0.00     0.173 A 
ATOM    104  C   UNL A   1      43.417  25.544  34.584  1.00  0.00     0.173 A 
ATOM    105  F   UNL A   1      43.112  28.388  36.821  1.00  0.00    -0.203 F 
ATOM    106  C   UNL A   1      43.934  26.235  37.204  1.00  0.00     0.198 A 
ATOM    107  C   UNL A   1      43.948  24.605  35.469  1.00  0.00     0.198 A 
ATOM    108  F   UNL A   1      43.323  25.134  33.315  1.00  0.00    -0.203 F 
ATOM    109  F   UNL A   1      44.267  26.606  38.448  1.00  0.00    -0.200 F 
ATOM    110  C   UNL A   1      44.241  24.960  36.767  1.00  0.00     0.200 A 
ATOM    111  F   UNL A   1      44.255  23.380  35.020  1.00  0.00    -0.200 F 
ATOM    112  F   UNL A   1      44.864  24.093  37.576  1.00  0.00    -0.200 F 
ENDBRANCH  82 102
BRANCH  85 113
ATOM    113  C   UNL A   1      42.391  23.929  27.008  1.00  0.00     0.064 A 
ATOM    114  C   UNL A   1      43.317  23.438  26.075  1.00  0.00     0.173 A 
ATOM    115  C   UNL A   1      41.393  23.032  27.434  1.00  0.00     0.173 A 
ATOM    116  F   UNL A   1      44.321  24.219  25.648  1.00  0.00    -0.203 F 
ATOM    117  C   UNL A   1      43.272  22.117  25.622  1.00  0.00     0.198 A 
ATOM    118  C   UNL A   1      41.344  21.714  26.977  1.00  0.00     0.198 A 
ATOM    119  F   UNL A   1      40.507  23.387  28.376  1.00  0.00    -0.203 F 
ATOM    120  F   UNL A   1      44.215  21.663  24.785  1.00  0.00    -0.200 F 
ATOM    121  C   UNL A   1      42.293  21.252  26.085  1.00  0.00     0.200 A 
ATOM    122  F   UNL A   1      40.414  20.878  27.460  1.00  0.00    -0.200 F 
ATOM    123  F   UNL A   1      42.290  19.966  25.705  1.00  0.00    -0.200 F 
ENDBRANCH  85 113
BRANCH 100 124
ATOM    124  C   UNL A   1      45.638  28.932  29.001  1.00  0.00     0.064 A 
ATOM    125  C   UNL A   1      44.718  29.726  28.294  1.00  0.00     0.173 A 
ATOM    126  C   UNL A   1      46.997  29.107  28.707  1.00  0.00     0.173 A 
ATOM    127  F   UNL A   1      43.411  29.690  28.580  1.00  0.00    -0.203 F 
ATOM    128  C   UNL A   1      45.139  30.618  27.309  1.00  0.00     0.198 A 
ATOM    129  C   UNL A   1      47.417  30.026  27.750  1.00  0.00     0.198 A 
ATOM    130  F   UNL A   1      47.924  28.414  29.386  1.00  0.00    -0.203 F 
ATOM    131  F   UNL A   1      44.239  31.353  26.638  1.00  0.00    -0.200 F 
ATOM    132  C   UNL A   1      46.489  30.773  27.045  1.00  0.00     0.200 A 
ATOM    133  F   UNL A   1      48.727  30.205  27.532  1.00  0.00    -0.200 F 
ATOM    134  F   UNL A   1      46.898  31.660  26.126  1.00  0.00    -0.200 F 
ENDBRANCH 100 124
ENDBRANCH  65  68
ENDBRANCH  55  58
ENDBRANCH  51  54
ENDBRANCH  48  51
ENDBRANCH  45  48
ENDBRANCH   1  45
TORSDOF 16
ENDMDL
MODEL 5
REMARK VINA RESULT:     -12.1      3.306      7.344
REMARK SMILES O=C(Cn1cnc(-c2ccccc2)c1-c1ccccc1)NCCCCCCNC(=O)c1ccc(-c2c3nc(c(-c4c(F)c(F)c(F)c(F)c4F)c4ccc([nH]4)c(-c4c(F)c(F)c(F)c(F)c4F)c4nc(c(-c5c(F)c(F)c(F)c(F)c5F)c5ccc2[nH]5)C=C4)C=C3)cc1
REMARK SMILES IDX 24 1 23 4 22 7 21 10 1 11 2 12 3 14 4 17 5 18 14 19 6 20
REMARK SMILES IDX 7 22 15 23 16 24 20 25 17 26 19 28 18 30 8 34 9 35 13 36
REMARK SMILES IDX 10 37 12 39 11 41 25 45 26 48 27 51 28 54 29 55 30 57 31 58
REMARK SMILES IDX 32 59 93 60 33 61 92 63 34 65 35 68 36 69 86 70 37 71 91 72
REMARK SMILES IDX 85 73 87 74 38 75 90 76 84 78 83 80 39 82 71 85 51 86 70 87
REMARK SMILES IDX 52 88 55 89 69 90 88 91 53 92 54 94 68 96 89 97 56 100
REMARK SMILES IDX 40 102 41 103 49 104 42 105 43 106 47 107 50 108 44 109
REMARK SMILES IDX 45 110 48 111 46 112 72 113 73 114 81 115 74 116 75 117
REMARK SMILES IDX 79 118 82 119 76 120 77 121 80 122 78 123 57 124 58 125
REMARK SMILES IDX 66 126 59 127 60 128 64 129 67 130 61 131 62 132 65 133
REMARK SMILES IDX 63 134
REMARK H PARENT 24 2 24 3 23 5 23 6 22 8 22 9 21 13 3 15 3 16 5 21 16 27 20 29
REMARK H PARENT 17 31 19 32 18 33 9 38 13 40 10 42 12 43 11 44 25 46 25 47
REMARK H PARENT 26 49 26 50 27 52 27 53 28 56 32 62 93 64 33 66 92 67 91 77
REMARK H PARENT 85 79 87 81 90 83 84 84 52 93 55 95 88 98 53 99 89 101
REMARK Flexibility Score: inf
ROOT
ATOM      1  C   UNL A   1      33.777  27.621  26.054  1.00  0.00    -0.052 C 
ATOM      2  H   UNL A   1      33.897  28.088  25.098  1.00  0.00     0.027 H 
ATOM      3  H   UNL A   1      34.519  27.889  26.777  1.00  0.00     0.027 H 
ENDROOT
BRANCH   1   4
ATOM      4  C   UNL A   1      33.933  26.110  25.857  1.00  0.00    -0.036 C 
ATOM      5  H   UNL A   1      34.138  25.929  24.822  1.00  0.00     0.028 H 
ATOM      6  H   UNL A   1      34.727  25.802  26.505  1.00  0.00     0.028 H 
BRANCH   4   7
ATOM      7  C   UNL A   1      32.714  25.283  26.250  1.00  0.00     0.017 C 
ATOM      8  H   UNL A   1      33.045  24.320  26.577  1.00  0.00     0.049 H 
ATOM      9  H   UNL A   1      32.204  25.815  27.026  1.00  0.00     0.049 H 
BRANCH   7  10
ATOM     10  N   UNL A   1      31.775  25.103  25.157  1.00  0.00    -0.355 N 
ATOM     11  O   UNL A   1      29.910  25.570  26.400  1.00  0.00    -0.273 OA
ATOM     12  C   UNL A   1      30.427  25.362  25.302  1.00  0.00     0.239 C 
ATOM     13  H   UNL A   1      32.109  24.785  24.287  1.00  0.00     0.163 HD
BRANCH  12  14
ATOM     14  C   UNL A   1      29.585  25.293  24.045  1.00  0.00     0.103 C 
ATOM     15  H   UNL A   1      28.836  24.542  24.189  1.00  0.00     0.060 H 
ATOM     16  H   UNL A   1      30.261  25.072  23.246  1.00  0.00     0.060 H 
BRANCH  14  17
ATOM     17  N   UNL A   1      28.917  26.532  23.680  1.00  0.00    -0.321 N 
ATOM     18  C   UNL A   1      27.588  26.774  23.918  1.00  0.00     0.096 A 
ATOM     19  C   UNL A   1      29.471  27.690  23.170  1.00  0.00     0.076 A 
ATOM     20  N   UNL A   1      27.247  27.996  23.590  1.00  0.00    -0.236 NA
ATOM     21  H   UNL A   1      26.935  26.077  24.310  1.00  0.00     0.104 H 
ATOM     22  C   UNL A   1      28.399  28.576  23.122  1.00  0.00     0.096 A 
BRANCH  19  23
ATOM     23  C   UNL A   1      30.877  27.909  22.836  1.00  0.00     0.000 A 
ATOM     24  C   UNL A   1      31.585  26.946  22.108  1.00  0.00    -0.053 A 
ATOM     25  C   UNL A   1      31.566  29.020  23.331  1.00  0.00    -0.053 A 
ATOM     26  C   UNL A   1      32.950  27.109  21.860  1.00  0.00    -0.062 A 
ATOM     27  H   UNL A   1      31.095  26.110  21.752  1.00  0.00     0.063 H 
ATOM     28  C   UNL A   1      32.923  29.199  23.061  1.00  0.00    -0.062 A 
ATOM     29  H   UNL A   1      31.065  29.717  23.903  1.00  0.00     0.063 H 
ATOM     30  C   UNL A   1      33.616  28.240  22.326  1.00  0.00    -0.062 A 
ATOM     31  H   UNL A   1      33.466  26.388  21.331  1.00  0.00     0.062 H 
ATOM     32  H   UNL A   1      33.413  30.039  23.405  1.00  0.00     0.062 H 
ATOM     33  H   UNL A   1      34.621  28.368  22.128  1.00  0.00     0.062 H 
ENDBRANCH  19  23
BRANCH  22  34
ATOM     34  C   UNL A   1      28.476  29.953  22.676  1.00  0.00     0.002 A 
ATOM     35  C   UNL A   1      28.425  30.248  21.310  1.00  0.00    -0.053 A 
ATOM     36  C   UNL A   1      28.553  30.998  23.605  1.00  0.00    -0.053 A 
ATOM     37  C   UNL A   1      28.415  31.578  20.881  1.00  0.00    -0.062 A 
ATOM     38  H   UNL A   1      28.394  29.484  20.618  1.00  0.00     0.063 H 
ATOM     39  C   UNL A   1      28.549  32.326  23.174  1.00  0.00    -0.062 A 
ATOM     40  H   UNL A   1      28.612  30.786  24.613  1.00  0.00     0.063 H 
ATOM     41  C   UNL A   1      28.472  32.614  21.813  1.00  0.00    -0.062 A 
ATOM     42  H   UNL A   1      28.365  31.794  19.873  1.00  0.00     0.062 H 
ATOM     43  H   UNL A   1      28.603  33.092  23.863  1.00  0.00     0.062 H 
ATOM     44  H   UNL A   1      28.458  33.596  21.495  1.00  0.00     0.062 H 
ENDBRANCH  22  34
ENDBRANCH  14  17
ENDBRANCH  12  14
ENDBRANCH   7  10
ENDBRANCH   4   7
ENDBRANCH   1   4
BRANCH   1  45
ATOM     45  C   UNL A   1      32.445  28.105  26.643  1.00  0.00    -0.052 C 
ATOM     46  H   UNL A   1      32.237  27.508  27.507  1.00  0.00     0.027 H 
ATOM     47  H   UNL A   1      31.737  28.009  25.846  1.00  0.00     0.027 H 
BRANCH  45  48
ATOM     48  C   UNL A   1      32.363  29.578  27.070  1.00  0.00    -0.036 C 
ATOM     49  H   UNL A   1      31.494  29.698  27.684  1.00  0.00     0.028 H 
ATOM     50  H   UNL A   1      32.326  30.151  26.169  1.00  0.00     0.028 H 
BRANCH  48  51
ATOM     51  C   UNL A   1      33.568  30.083  27.852  1.00  0.00     0.018 C 
ATOM     52  H   UNL A   1      34.375  29.394  27.718  1.00  0.00     0.049 H 
ATOM     53  H   UNL A   1      33.271  30.160  28.878  1.00  0.00     0.049 H 
BRANCH  51  54
ATOM     54  N   UNL A   1      34.014  31.410  27.429  1.00  0.00    -0.352 N 
ATOM     55  C   UNL A   1      35.201  32.053  27.739  1.00  0.00     0.251 C 
ATOM     56  H   UNL A   1      33.393  31.909  26.851  1.00  0.00     0.163 HD
ATOM     57  O   UNL A   1      35.309  33.263  27.650  1.00  0.00    -0.269 OA
BRANCH  55  58
ATOM     58  C   UNL A   1      36.344  31.235  28.184  1.00  0.00     0.039 A 
ATOM     59  C   UNL A   1      36.520  29.922  27.740  1.00  0.00    -0.049 A 
ATOM     60  C   UNL A   1      37.271  31.830  29.032  1.00  0.00    -0.049 A 
ATOM     61  C   UNL A   1      37.688  29.246  28.088  1.00  0.00    -0.053 A 
ATOM     62  H   UNL A   1      35.797  29.460  27.165  1.00  0.00     0.063 H 
ATOM     63  C   UNL A   1      38.486  31.231  29.232  1.00  0.00    -0.053 A 
ATOM     64  H   UNL A   1      37.044  32.717  29.508  1.00  0.00     0.063 H 
ATOM     65  C   UNL A   1      38.682  29.917  28.818  1.00  0.00    -0.014 A 
ATOM     66  H   UNL A   1      37.822  28.261  27.812  1.00  0.00     0.063 H 
ATOM     67  H   UNL A   1      39.252  31.751  29.688  1.00  0.00     0.063 H 
BRANCH  65  68
ATOM     68  C   UNL A   1      39.976  29.294  29.078  1.00  0.00     0.031 A 
ATOM     69  C   UNL A   1      40.300  29.075  30.517  1.00  0.00     0.074 A 
ATOM     70  C   UNL A   1      40.720  28.734  28.098  1.00  0.00     0.049 A 
ATOM     71  N   UNL A   1      41.283  29.568  31.195  1.00  0.00    -0.248 NA
ATOM     72  C   UNL A   1      39.357  28.288  31.327  1.00  0.00    -0.034 C 
ATOM     73  C   UNL A   1      40.377  28.576  26.677  1.00  0.00    -0.036 A 
ATOM     74  N   UNL A   1      41.906  28.072  28.190  1.00  0.00    -0.354 N 
ATOM     75  C   UNL A   1      41.193  29.013  32.471  1.00  0.00     0.074 A 
ATOM     76  C   UNL A   1      39.909  28.367  32.540  1.00  0.00    -0.034 C 
ATOM     77  H   UNL A   1      38.496  27.800  31.035  1.00  0.00     0.065 H 
ATOM     78  C   UNL A   1      41.198  27.666  26.109  1.00  0.00    -0.036 A 
ATOM     79  H   UNL A   1      39.623  29.083  26.189  1.00  0.00     0.065 H 
ATOM     80  C   UNL A   1      42.234  27.327  27.065  1.00  0.00     0.049 A 
ATOM     81  H   UNL A   1      42.482  28.117  28.987  1.00  0.00     0.167 HD
ATOM     82  C   UNL A   1      42.286  28.931  33.280  1.00  0.00     0.037 A 
ATOM     83  H   UNL A   1      39.475  28.015  33.407  1.00  0.00     0.065 H 
ATOM     84  H   UNL A   1      41.103  27.280  25.158  1.00  0.00     0.065 H 
ATOM     85  C   UNL A   1      43.273  26.470  26.929  1.00  0.00     0.037 A 
ATOM     86  C   UNL A   1      43.333  29.808  32.822  1.00  0.00     0.049 A 
ATOM     87  C   UNL A   1      44.258  26.809  27.981  1.00  0.00     0.074 A 
ATOM     88  C   UNL A   1      43.468  31.171  32.655  1.00  0.00    -0.036 A 
ATOM     89  N   UNL A   1      44.357  29.240  32.107  1.00  0.00    -0.354 N 
ATOM     90  N   UNL A   1      44.938  27.921  28.014  1.00  0.00    -0.248 NA
ATOM     91  C   UNL A   1      44.191  26.080  29.237  1.00  0.00    -0.034 C 
ATOM     92  C   UNL A   1      44.273  31.323  31.486  1.00  0.00    -0.036 A 
ATOM     93  H   UNL A   1      43.074  31.918  33.248  1.00  0.00     0.065 H 
ATOM     94  C   UNL A   1      44.630  30.050  31.039  1.00  0.00     0.049 A 
ATOM     95  H   UNL A   1      44.815  28.396  32.325  1.00  0.00     0.167 HD
ATOM     96  C   UNL A   1      45.005  28.249  29.359  1.00  0.00     0.074 A 
ATOM     97  C   UNL A   1      44.645  27.023  30.065  1.00  0.00    -0.034 C 
ATOM     98  H   UNL A   1      43.882  25.114  29.431  1.00  0.00     0.065 H 
ATOM     99  H   UNL A   1      44.542  32.218  31.047  1.00  0.00     0.065 H 
ATOM    100  C   UNL A   1      45.065  29.554  29.753  1.00  0.00     0.037 A 
ATOM    101  H   UNL A   1      44.731  26.900  31.086  1.00  0.00     0.065 H 
BRANCH  82 102
ATOM    102  C   UNL A   1      42.574  27.787  34.231  1.00  0.00     0.064 A 
ATOM    103  C   UNL A   1      43.139  26.599  33.718  1.00  0.00     0.173 A 
ATOM    104  C   UNL A   1      42.032  27.683  35.530  1.00  0.00     0.173 A 
ATOM    105  F   UNL A   1      43.676  26.571  32.489  1.00  0.00    -0.203 F 
ATOM    106  C   UNL A   1      43.072  25.386  34.410  1.00  0.00     0.198 A 
ATOM    107  C   UNL A   1      42.016  26.483  36.240  1.00  0.00     0.198 A 
ATOM    108  F   UNL A   1      41.394  28.698  36.122  1.00  0.00    -0.203 F 
ATOM    109  F   UNL A   1      43.494  24.259  33.821  1.00  0.00    -0.200 F 
ATOM    110  C   UNL A   1      42.501  25.328  35.667  1.00  0.00     0.200 A 
ATOM    111  F   UNL A   1      41.442  26.443  37.451  1.00  0.00    -0.200 F 
ATOM    112  F   UNL A   1      42.371  24.156  36.304  1.00  0.00    -0.200 F 
ENDBRANCH  82 102
BRANCH  85 113
ATOM    113  C   UNL A   1      43.348  25.219  26.143  1.00  0.00     0.064 A 
ATOM    114  C   UNL A   1      44.426  24.971  25.280  1.00  0.00     0.173 A 
ATOM    115  C   UNL A   1      42.517  24.122  26.442  1.00  0.00     0.173 A 
ATOM    116  F   UNL A   1      45.286  25.955  24.977  1.00  0.00    -0.203 F 
ATOM    117  C   UNL A   1      44.681  23.693  24.774  1.00  0.00     0.198 A 
ATOM    118  C   UNL A   1      42.768  22.847  25.931  1.00  0.00     0.198 A 
ATOM    119  F   UNL A   1      41.503  24.245  27.312  1.00  0.00    -0.203 F 
ATOM    120  F   UNL A   1      45.761  23.480  24.009  1.00  0.00    -0.200 F 
ATOM    121  C   UNL A   1      43.859  22.629  25.112  1.00  0.00     0.200 A 
ATOM    122  F   UNL A   1      41.986  21.820  26.295  1.00  0.00    -0.200 F 
ATOM    123  F   UNL A   1      44.143  21.391  24.683  1.00  0.00    -0.200 F 
ENDBRANCH  85 113
BRANCH 100 124
ATOM    124  C   UNL A   1      45.395  30.583  28.707  1.00  0.00     0.064 A 
ATOM    125  C   UNL A   1      44.443  31.233  27.902  1.00  0.00     0.173 A 
ATOM    126  C   UNL A   1      46.723  31.018  28.610  1.00  0.00     0.173 A 
ATOM    127  F   UNL A   1      43.139  30.945  28.002  1.00  0.00    -0.203 F 
ATOM    128  C   UNL A   1      44.814  32.239  27.011  1.00  0.00     0.198 A 
ATOM    129  C   UNL A   1      47.085  32.049  27.747  1.00  0.00     0.198 A 
ATOM    130  F   UNL A   1      47.667  30.471  29.391  1.00  0.00    -0.203 F 
ATOM    131  F   UNL A   1      43.888  32.832  26.243  1.00  0.00    -0.200 F 
ATOM    132  C   UNL A   1      46.134  32.652  26.941  1.00  0.00     0.200 A 
ATOM    133  F   UNL A   1      48.355  32.475  27.719  1.00  0.00    -0.200 F 
ATOM    134  F   UNL A   1      46.486  33.646  26.113  1.00  0.00    -0.200 F 
ENDBRANCH 100 124
ENDBRANCH  65  68
ENDBRANCH  55  58
ENDBRANCH  51  54
ENDBRANCH  48  51
ENDBRANCH  45  48
ENDBRANCH   1  45
TORSDOF 16
ENDMDL
MODEL 6
REMARK VINA RESULT:     -12.0      2.951      8.232
REMARK SMILES O=C(Cn1cnc(-c2ccccc2)c1-c1ccccc1)NCCCCCCNC(=O)c1ccc(-c2c3nc(c(-c4c(F)c(F)c(F)c(F)c4F)c4ccc([nH]4)c(-c4c(F)c(F)c(F)c(F)c4F)c4nc(c(-c5c(F)c(F)c(F)c(F)c5F)c5ccc2[nH]5)C=C4)C=C3)cc1
REMARK SMILES IDX 24 1 23 4 22 7 21 10 1 11 2 12 3 14 4 17 5 18 14 19 6 20
REMARK SMILES IDX 7 22 15 23 16 24 20 25 17 26 19 28 18 30 8 34 9 35 13 36
REMARK SMILES IDX 10 37 12 39 11 41 25 45 26 48 27 51 28 54 29 55 30 57 31 58
REMARK SMILES IDX 32 59 93 60 33 61 92 63 34 65 35 68 36 69 86 70 37 71 91 72
REMARK SMILES IDX 85 73 87 74 38 75 90 76 84 78 83 80 39 82 71 85 51 86 70 87
REMARK SMILES IDX 52 88 55 89 69 90 88 91 53 92 54 94 68 96 89 97 56 100
REMARK SMILES IDX 40 102 41 103 49 104 42 105 43 106 47 107 50 108 44 109
REMARK SMILES IDX 45 110 48 111 46 112 72 113 73 114 81 115 74 116 75 117
REMARK SMILES IDX 79 118 82 119 76 120 77 121 80 122 78 123 57 124 58 125
REMARK SMILES IDX 66 126 59 127 60 128 64 129 67 130 61 131 62 132 65 133
REMARK SMILES IDX 63 134
REMARK H PARENT 24 2 24 3 23 5 23 6 22 8 22 9 21 13 3 15 3 16 5 21 16 27 20 29
REMARK H PARENT 17 31 19 32 18 33 9 38 13 40 10 42 12 43 11 44 25 46 25 47
REMARK H PARENT 26 49 26 50 27 52 27 53 28 56 32 62 93 64 33 66 92 67 91 77
REMARK H PARENT 85 79 87 81 90 83 84 84 52 93 55 95 88 98 53 99 89 101
REMARK Flexibility Score: inf
ROOT
ATOM      1  C   UNL A   1      32.998  29.313  25.425  1.00  0.00    -0.052 C 
ATOM      2  H   UNL A   1      32.884  30.368  25.279  1.00  0.00     0.027 H 
ATOM      3  H   UNL A   1      33.156  28.754  24.526  1.00  0.00     0.027 H 
ENDROOT
BRANCH   1   4
ATOM      4  C   UNL A   1      31.686  28.780  26.007  1.00  0.00    -0.036 C 
ATOM      5  H   UNL A   1      31.844  28.567  27.045  1.00  0.00     0.028 H 
ATOM      6  H   UNL A   1      30.951  29.540  25.840  1.00  0.00     0.028 H 
BRANCH   4   7
ATOM      7  C   UNL A   1      31.155  27.517  25.341  1.00  0.00     0.017 C 
ATOM      8  H   UNL A   1      30.086  27.546  25.355  1.00  0.00     0.049 H 
ATOM      9  H   UNL A   1      31.540  27.496  24.342  1.00  0.00     0.049 H 
BRANCH   7  10
ATOM     10  N   UNL A   1      31.594  26.300  26.000  1.00  0.00    -0.355 N 
ATOM     11  O   UNL A   1      33.032  25.663  24.337  1.00  0.00    -0.273 OA
ATOM     12  C   UNL A   1      32.592  25.504  25.475  1.00  0.00     0.239 C 
ATOM     13  H   UNL A   1      31.166  26.034  26.846  1.00  0.00     0.163 HD
BRANCH  12  14
ATOM     14  C   UNL A   1      33.068  24.356  26.342  1.00  0.00     0.103 C 
ATOM     15  H   UNL A   1      32.750  24.545  27.345  1.00  0.00     0.060 H 
ATOM     16  H   UNL A   1      34.132  24.322  26.231  1.00  0.00     0.060 H 
BRANCH  14  17
ATOM     17  N   UNL A   1      32.579  23.043  25.952  1.00  0.00    -0.321 N 
ATOM     18  C   UNL A   1      31.262  22.670  26.042  1.00  0.00     0.096 A 
ATOM     19  C   UNL A   1      33.266  22.017  25.335  1.00  0.00     0.076 A 
ATOM     20  N   UNL A   1      31.056  21.478  25.537  1.00  0.00    -0.236 NA
ATOM     21  H   UNL A   1      30.521  23.258  26.455  1.00  0.00     0.104 H 
ATOM     22  C   UNL A   1      32.287  21.057  25.099  1.00  0.00     0.096 A 
BRANCH  19  23
ATOM     23  C   UNL A   1      34.682  22.011  24.973  1.00  0.00     0.000 A 
ATOM     24  C   UNL A   1      35.120  22.696  23.834  1.00  0.00    -0.053 A 
ATOM     25  C   UNL A   1      35.600  21.232  25.684  1.00  0.00    -0.053 A 
ATOM     26  C   UNL A   1      36.456  22.623  23.434  1.00  0.00    -0.062 A 
ATOM     27  H   UNL A   1      34.450  23.260  23.287  1.00  0.00     0.063 H 
ATOM     28  C   UNL A   1      36.941  21.179  25.303  1.00  0.00    -0.062 A 
ATOM     29  H   UNL A   1      35.281  20.688  26.501  1.00  0.00     0.063 H 
ATOM     30  C   UNL A   1      37.368  21.875  24.175  1.00  0.00    -0.062 A 
ATOM     31  H   UNL A   1      36.768  23.125  22.587  1.00  0.00     0.062 H 
ATOM     32  H   UNL A   1      37.615  20.626  25.854  1.00  0.00     0.062 H 
ATOM     33  H   UNL A   1      38.359  21.835  23.888  1.00  0.00     0.062 H 
ENDBRANCH  19  23
BRANCH  22  34
ATOM     34  C   UNL A   1      32.507  19.786  24.439  1.00  0.00     0.002 A 
ATOM     35  C   UNL A   1      32.198  19.642  23.082  1.00  0.00    -0.053 A 
ATOM     36  C   UNL A   1      33.071  18.710  25.135  1.00  0.00    -0.053 A 
ATOM     37  C   UNL A   1      32.487  18.445  22.421  1.00  0.00    -0.062 A 
ATOM     38  H   UNL A   1      31.760  20.421  22.567  1.00  0.00     0.063 H 
ATOM     39  C   UNL A   1      33.352  17.512  24.475  1.00  0.00    -0.062 A 
ATOM     40  H   UNL A   1      33.280  18.802  26.141  1.00  0.00     0.063 H 
ATOM     41  C   UNL A   1      33.066  17.384  23.117  1.00  0.00    -0.062 A 
ATOM     42  H   UNL A   1      32.269  18.346  21.417  1.00  0.00     0.062 H 
ATOM     43  H   UNL A   1      33.770  16.724  24.992  1.00  0.00     0.062 H 
ATOM     44  H   UNL A   1      33.284  16.503  22.627  1.00  0.00     0.062 H 
ENDBRANCH  22  34
ENDBRANCH  14  17
ENDBRANCH  12  14
ENDBRANCH   7  10
ENDBRANCH   4   7
ENDBRANCH   1   4
BRANCH   1  45
ATOM     45  C   UNL A   1      34.264  29.094  26.265  1.00  0.00    -0.052 C 
ATOM     46  H   UNL A   1      35.100  29.420  25.681  1.00  0.00     0.027 H 
ATOM     47  H   UNL A   1      34.260  28.052  26.507  1.00  0.00     0.027 H 
BRANCH  45  48
ATOM     48  C   UNL A   1      34.338  29.815  27.619  1.00  0.00    -0.036 C 
ATOM     49  H   UNL A   1      34.798  29.153  28.324  1.00  0.00     0.028 H 
ATOM     50  H   UNL A   1      33.333  30.074  27.877  1.00  0.00     0.028 H 
BRANCH  48  51
ATOM     51  C   UNL A   1      35.128  31.116  27.607  1.00  0.00     0.018 C 
ATOM     52  H   UNL A   1      34.904  31.643  26.703  1.00  0.00     0.049 H 
ATOM     53  H   UNL A   1      36.164  30.859  27.676  1.00  0.00     0.049 H 
BRANCH  51  54
ATOM     54  N   UNL A   1      34.820  31.988  28.740  1.00  0.00    -0.352 N 
ATOM     55  C   UNL A   1      35.288  31.898  30.041  1.00  0.00     0.251 C 
ATOM     56  H   UNL A   1      34.204  32.732  28.556  1.00  0.00     0.163 HD
ATOM     57  O   UNL A   1      34.698  32.427  30.966  1.00  0.00    -0.269 OA
BRANCH  55  58
ATOM     58  C   UNL A   1      36.528  31.139  30.287  1.00  0.00     0.039 A 
ATOM     59  C   UNL A   1      36.501  29.780  30.613  1.00  0.00    -0.049 A 
ATOM     60  C   UNL A   1      37.735  31.813  30.144  1.00  0.00    -0.049 A 
ATOM     61  C   UNL A   1      37.707  29.087  30.701  1.00  0.00    -0.053 A 
ATOM     62  H   UNL A   1      35.604  29.298  30.784  1.00  0.00     0.063 H 
ATOM     63  C   UNL A   1      38.903  31.100  30.065  1.00  0.00    -0.053 A 
ATOM     64  H   UNL A   1      37.752  32.843  30.098  1.00  0.00     0.063 H 
ATOM     65  C   UNL A   1      38.908  29.750  30.402  1.00  0.00    -0.014 A 
ATOM     66  H   UNL A   1      37.718  28.094  30.984  1.00  0.00     0.063 H 
ATOM     67  H   UNL A   1      39.773  31.561  29.758  1.00  0.00     0.063 H 
BRANCH  65  68
ATOM     68  C   UNL A   1      40.174  29.026  30.343  1.00  0.00     0.031 A 
ATOM     69  C   UNL A   1      40.847  28.813  31.656  1.00  0.00     0.074 A 
ATOM     70  C   UNL A   1      40.589  28.384  29.229  1.00  0.00     0.049 A 
ATOM     71  N   UNL A   1      42.009  29.236  32.033  1.00  0.00    -0.248 NA
ATOM     72  C   UNL A   1      40.094  28.126  32.718  1.00  0.00    -0.034 C 
ATOM     73  C   UNL A   1      39.874  28.223  27.955  1.00  0.00    -0.036 A 
ATOM     74  N   UNL A   1      41.704  27.626  29.038  1.00  0.00    -0.354 N 
ATOM     75  C   UNL A   1      42.215  28.719  33.311  1.00  0.00     0.074 A 
ATOM     76  C   UNL A   1      40.949  28.186  33.740  1.00  0.00    -0.034 C 
ATOM     77  H   UNL A   1      39.152  27.706  32.682  1.00  0.00     0.065 H 
ATOM     78  C   UNL A   1      40.446  27.235  27.233  1.00  0.00    -0.036 A 
ATOM     79  H   UNL A   1      39.058  28.781  27.657  1.00  0.00     0.065 H 
ATOM     80  C   UNL A   1      41.667  26.831  27.900  1.00  0.00     0.049 A 
ATOM     81  H   UNL A   1      42.471  27.640  29.655  1.00  0.00     0.167 HD
ATOM     82  C   UNL A   1      43.473  28.564  33.812  1.00  0.00     0.037 A 
ATOM     83  H   UNL A   1      40.733  27.891  34.705  1.00  0.00     0.065 H 
ATOM     84  H   UNL A   1      40.075  26.837  26.357  1.00  0.00     0.065 H 
ATOM     85  C   UNL A   1      42.567  25.887  27.536  1.00  0.00     0.037 A 
ATOM     86  C   UNL A   1      44.426  29.339  33.059  1.00  0.00     0.049 A 
ATOM     87  C   UNL A   1      43.816  26.165  28.280  1.00  0.00     0.074 A 
ATOM     88  C   UNL A   1      44.615  30.682  32.802  1.00  0.00    -0.036 A 
ATOM     89  N   UNL A   1      45.180  28.670  32.128  1.00  0.00    -0.354 N 
ATOM     90  N   UNL A   1      44.564  27.216  28.086  1.00  0.00    -0.248 NA
ATOM     91  C   UNL A   1      44.027  25.472  29.540  1.00  0.00    -0.034 C 
ATOM     92  C   UNL A   1      45.093  30.739  31.459  1.00  0.00    -0.036 A 
ATOM     93  H   UNL A   1      44.448  31.472  33.444  1.00  0.00     0.065 H 
ATOM     94  C   UNL A   1      45.223  29.431  30.991  1.00  0.00     0.049 A 
ATOM     95  H   UNL A   1      45.614  27.796  32.255  1.00  0.00     0.167 HD
ATOM     96  C   UNL A   1      45.006  27.568  29.351  1.00  0.00     0.074 A 
ATOM     97  C   UNL A   1      44.753  26.392  30.180  1.00  0.00    -0.034 C 
ATOM     98  H   UNL A   1      43.708  24.541  29.850  1.00  0.00     0.065 H 
ATOM     99  H   UNL A   1      45.304  31.598  30.926  1.00  0.00     0.065 H 
ATOM    100  C   UNL A   1      45.266  28.872  29.659  1.00  0.00     0.037 A 
ATOM    101  H   UNL A   1      45.095  26.285  31.147  1.00  0.00     0.065 H 
BRANCH  82 102
ATOM    102  C   UNL A   1      43.914  27.421  34.703  1.00  0.00     0.064 A 
ATOM    103  C   UNL A   1      44.545  27.718  35.932  1.00  0.00     0.173 A 
ATOM    104  C   UNL A   1      44.039  26.084  34.270  1.00  0.00     0.173 A 
ATOM    105  F   UNL A   1      44.503  28.958  36.440  1.00  0.00    -0.203 F 
ATOM    106  C   UNL A   1      45.322  26.777  36.613  1.00  0.00     0.198 A 
ATOM    107  C   UNL A   1      44.770  25.132  34.982  1.00  0.00     0.198 A 
ATOM    108  F   UNL A   1      43.564  25.666  33.093  1.00  0.00    -0.203 F 
ATOM    109  F   UNL A   1      46.017  27.146  37.697  1.00  0.00    -0.200 F 
ATOM    110  C   UNL A   1      45.442  25.487  36.132  1.00  0.00     0.200 A 
ATOM    111  F   UNL A   1      44.888  23.892  34.489  1.00  0.00    -0.200 F 
ATOM    112  F   UNL A   1      46.241  24.602  36.742  1.00  0.00    -0.200 F 
ENDBRANCH  82 102
BRANCH  85 113
ATOM    113  C   UNL A   1      42.338  24.616  26.813  1.00  0.00     0.064 A 
ATOM    114  C   UNL A   1      43.161  24.235  25.742  1.00  0.00     0.173 A 
ATOM    115  C   UNL A   1      41.494  23.620  27.342  1.00  0.00     0.173 A 
ATOM    116  F   UNL A   1      44.020  25.115  25.208  1.00  0.00    -0.203 F 
ATOM    117  C   UNL A   1      43.168  22.926  25.253  1.00  0.00     0.198 A 
ATOM    118  C   UNL A   1      41.496  22.315  26.849  1.00  0.00     0.198 A 
ATOM    119  F   UNL A   1      40.723  23.870  28.411  1.00  0.00    -0.203 F 
ATOM    120  F   UNL A   1      44.018  22.582  24.276  1.00  0.00    -0.200 F 
ATOM    121  C   UNL A   1      42.345  21.964  25.816  1.00  0.00     0.200 A 
ATOM    122  F   UNL A   1      40.722  21.385  27.427  1.00  0.00    -0.200 F 
ATOM    123  F   UNL A   1      42.401  20.692  25.394  1.00  0.00    -0.200 F 
ENDBRANCH  85 113
BRANCH 100 124
ATOM    124  C   UNL A   1      45.386  29.845  28.519  1.00  0.00     0.064 A 
ATOM    125  C   UNL A   1      44.306  30.544  27.952  1.00  0.00     0.173 A 
ATOM    126  C   UNL A   1      46.671  30.177  28.071  1.00  0.00     0.173 A 
ATOM    127  F   UNL A   1      43.054  30.357  28.390  1.00  0.00    -0.203 F 
ATOM    128  C   UNL A   1      44.503  31.495  26.953  1.00  0.00     0.198 A 
ATOM    129  C   UNL A   1      46.869  31.154  27.100  1.00  0.00     0.198 A 
ATOM    130  F   UNL A   1      47.744  29.580  28.612  1.00  0.00    -0.203 F 
ATOM    131  F   UNL A   1      43.454  32.137  26.418  1.00  0.00    -0.200 F 
ATOM    132  C   UNL A   1      45.785  31.806  26.534  1.00  0.00     0.200 A 
ATOM    133  F   UNL A   1      48.115  31.483  26.733  1.00  0.00    -0.200 F 
ATOM    134  F   UNL A   1      45.980  32.749  25.601  1.00  0.00    -0.200 F 
ENDBRANCH 100 124
ENDBRANCH  65  68
ENDBRANCH  55  58
ENDBRANCH  51  54
ENDBRANCH  48  51
ENDBRANCH  45  48
ENDBRANCH   1  45
TORSDOF 16
ENDMDL
MODEL 7
REMARK VINA RESULT:     -11.9      3.191      7.915
REMARK SMILES O=C(Cn1cnc(-c2ccccc2)c1-c1ccccc1)NCCCCCCNC(=O)c1ccc(-c2c3nc(c(-c4c(F)c(F)c(F)c(F)c4F)c4ccc([nH]4)c(-c4c(F)c(F)c(F)c(F)c4F)c4nc(c(-c5c(F)c(F)c(F)c(F)c5F)c5ccc2[nH]5)C=C4)C=C3)cc1
REMARK SMILES IDX 24 1 23 4 22 7 21 10 1 11 2 12 3 14 4 17 5 18 14 19 6 20
REMARK SMILES IDX 7 22 15 23 16 24 20 25 17 26 19 28 18 30 8 34 9 35 13 36
REMARK SMILES IDX 10 37 12 39 11 41 25 45 26 48 27 51 28 54 29 55 30 57 31 58
REMARK SMILES IDX 32 59 93 60 33 61 92 63 34 65 35 68 36 69 86 70 37 71 91 72
REMARK SMILES IDX 85 73 87 74 38 75 90 76 84 78 83 80 39 82 71 85 51 86 70 87
REMARK SMILES IDX 52 88 55 89 69 90 88 91 53 92 54 94 68 96 89 97 56 100
REMARK SMILES IDX 40 102 41 103 49 104 42 105 43 106 47 107 50 108 44 109
REMARK SMILES IDX 45 110 48 111 46 112 72 113 73 114 81 115 74 116 75 117
REMARK SMILES IDX 79 118 82 119 76 120 77 121 80 122 78 123 57 124 58 125
REMARK SMILES IDX 66 126 59 127 60 128 64 129 67 130 61 131 62 132 65 133
REMARK SMILES IDX 63 134
REMARK H PARENT 24 2 24 3 23 5 23 6 22 8 22 9 21 13 3 15 3 16 5 21 16 27 20 29
REMARK H PARENT 17 31 19 32 18 33 9 38 13 40 10 42 12 43 11 44 25 46 25 47
REMARK H PARENT 26 49 26 50 27 52 27 53 28 56 32 62 93 64 33 66 92 67 91 77
REMARK H PARENT 85 79 87 81 90 83 84 84 52 93 55 95 88 98 53 99 89 101
REMARK Flexibility Score: inf
ROOT
ATOM      1  C   UNL A   1      33.927  27.399  26.165  1.00  0.00    -0.052 C 
ATOM      2  H   UNL A   1      34.527  27.971  25.487  1.00  0.00     0.027 H 
ATOM      3  H   UNL A   1      34.250  27.432  27.185  1.00  0.00     0.027 H 
ENDROOT
BRANCH   1   4
ATOM      4  C   UNL A   1      34.038  25.927  25.754  1.00  0.00    -0.036 C 
ATOM      5  H   UNL A   1      34.954  25.539  26.150  1.00  0.00     0.028 H 
ATOM      6  H   UNL A   1      33.169  25.439  26.146  1.00  0.00     0.028 H 
BRANCH   4   7
ATOM      7  C   UNL A   1      34.029  25.678  24.251  1.00  0.00     0.017 C 
ATOM      8  H   UNL A   1      33.996  26.621  23.748  1.00  0.00     0.049 H 
ATOM      9  H   UNL A   1      34.916  25.129  24.013  1.00  0.00     0.049 H 
BRANCH   7  10
ATOM     10  N   UNL A   1      32.895  24.882  23.815  1.00  0.00    -0.355 N 
ATOM     11  O   UNL A   1      34.112  23.520  22.434  1.00  0.00    -0.273 OA
ATOM     12  C   UNL A   1      33.048  23.780  22.997  1.00  0.00     0.239 C 
ATOM     13  H   UNL A   1      31.991  25.137  24.109  1.00  0.00     0.163 HD
BRANCH  12  14
ATOM     14  C   UNL A   1      31.810  22.943  22.751  1.00  0.00     0.103 C 
ATOM     15  H   UNL A   1      31.461  23.152  21.762  1.00  0.00     0.060 H 
ATOM     16  H   UNL A   1      31.112  23.213  23.515  1.00  0.00     0.060 H 
BRANCH  14  17
ATOM     17  N   UNL A   1      32.002  21.506  22.867  1.00  0.00    -0.321 N 
ATOM     18  C   UNL A   1      31.782  20.627  21.838  1.00  0.00     0.096 A 
ATOM     19  C   UNL A   1      32.533  20.792  23.924  1.00  0.00     0.076 A 
ATOM     20  N   UNL A   1      32.121  19.403  22.159  1.00  0.00    -0.236 NA
ATOM     21  H   UNL A   1      31.396  20.898  20.920  1.00  0.00     0.104 H 
ATOM     22  C   UNL A   1      32.584  19.486  23.448  1.00  0.00     0.096 A 
BRANCH  19  23
ATOM     23  C   UNL A   1      32.984  21.336  25.204  1.00  0.00     0.000 A 
ATOM     24  C   UNL A   1      32.076  21.977  26.054  1.00  0.00    -0.053 A 
ATOM     25  C   UNL A   1      34.339  21.329  25.547  1.00  0.00    -0.053 A 
ATOM     26  C   UNL A   1      32.516  22.575  27.237  1.00  0.00    -0.062 A 
ATOM     27  H   UNL A   1      31.075  22.008  25.805  1.00  0.00     0.063 H 
ATOM     28  C   UNL A   1      34.777  21.901  26.742  1.00  0.00    -0.062 A 
ATOM     29  H   UNL A   1      35.024  20.896  24.909  1.00  0.00     0.063 H 
ATOM     30  C   UNL A   1      33.864  22.527  27.587  1.00  0.00    -0.062 A 
ATOM     31  H   UNL A   1      31.841  23.054  27.854  1.00  0.00     0.062 H 
ATOM     32  H   UNL A   1      35.775  21.861  27.000  1.00  0.00     0.062 H 
ATOM     33  H   UNL A   1      34.186  22.953  28.470  1.00  0.00     0.062 H 
ENDBRANCH  19  23
BRANCH  22  34
ATOM     34  C   UNL A   1      33.097  18.349  24.186  1.00  0.00     0.002 A 
ATOM     35  C   UNL A   1      32.274  17.682  25.099  1.00  0.00    -0.053 A 
ATOM     36  C   UNL A   1      34.397  17.881  23.960  1.00  0.00    -0.053 A 
ATOM     37  C   UNL A   1      32.736  16.536  25.751  1.00  0.00    -0.062 A 
ATOM     38  H   UNL A   1      31.323  18.034  25.291  1.00  0.00     0.063 H 
ATOM     39  C   UNL A   1      34.860  16.740  24.617  1.00  0.00    -0.062 A 
ATOM     40  H   UNL A   1      35.017  18.382  23.304  1.00  0.00     0.063 H 
ATOM     41  C   UNL A   1      34.026  16.064  25.507  1.00  0.00    -0.062 A 
ATOM     42  H   UNL A   1      32.123  16.038  26.416  1.00  0.00     0.062 H 
ATOM     43  H   UNL A   1      35.818  16.398  24.445  1.00  0.00     0.062 H 
ATOM     44  H   UNL A   1      34.364  15.214  25.984  1.00  0.00     0.062 H 
ENDBRANCH  22  34
ENDBRANCH  14  17
ENDBRANCH  12  14
ENDBRANCH   7  10
ENDBRANCH   4   7
ENDBRANCH   1   4
BRANCH   1  45
ATOM     45  C   UNL A   1      32.518  28.009  26.168  1.00  0.00    -0.052 C 
ATOM     46  H   UNL A   1      31.875  27.336  26.698  1.00  0.00     0.027 H 
ATOM     47  H   UNL A   1      32.273  28.147  25.135  1.00  0.00     0.027 H 
BRANCH  45  48
ATOM     48  C   UNL A   1      32.358  29.397  26.803  1.00  0.00    -0.036 C 
ATOM     49  H   UNL A   1      31.503  29.372  27.447  1.00  0.00     0.028 H 
ATOM     50  H   UNL A   1      32.257  30.089  25.994  1.00  0.00     0.028 H 
BRANCH  48  51
ATOM     51  C   UNL A   1      33.553  29.865  27.622  1.00  0.00     0.018 C 
ATOM     52  H   UNL A   1      34.365  29.187  27.459  1.00  0.00     0.049 H 
ATOM     53  H   UNL A   1      33.247  29.887  28.647  1.00  0.00     0.049 H 
BRANCH  51  54
ATOM     54  N   UNL A   1      33.998  31.214  27.272  1.00  0.00    -0.352 N 
ATOM     55  C   UNL A   1      35.159  31.861  27.661  1.00  0.00     0.251 C 
ATOM     56  H   UNL A   1      33.396  31.728  26.688  1.00  0.00     0.163 HD
ATOM     57  O   UNL A   1      35.253  33.075  27.626  1.00  0.00    -0.269 OA
BRANCH  55  58
ATOM     58  C   UNL A   1      36.294  31.041  28.124  1.00  0.00     0.039 A 
ATOM     59  C   UNL A   1      36.479  29.729  27.678  1.00  0.00    -0.049 A 
ATOM     60  C   UNL A   1      37.204  31.631  28.994  1.00  0.00    -0.049 A 
ATOM     61  C   UNL A   1      37.640  29.052  28.046  1.00  0.00    -0.053 A 
ATOM     62  H   UNL A   1      35.768  29.270  27.086  1.00  0.00     0.063 H 
ATOM     63  C   UNL A   1      38.416  31.032  29.215  1.00  0.00    -0.053 A 
ATOM     64  H   UNL A   1      36.967  32.516  29.470  1.00  0.00     0.063 H 
ATOM     65  C   UNL A   1      38.619  29.720  28.798  1.00  0.00    -0.014 A 
ATOM     66  H   UNL A   1      37.779  28.068  27.767  1.00  0.00     0.063 H 
ATOM     67  H   UNL A   1      39.172  31.549  29.688  1.00  0.00     0.063 H 
BRANCH  65  68
ATOM     68  C   UNL A   1      39.909  29.095  29.080  1.00  0.00     0.031 A 
ATOM     69  C   UNL A   1      40.218  28.900  30.525  1.00  0.00     0.074 A 
ATOM     70  C   UNL A   1      40.658  28.516  28.116  1.00  0.00     0.049 A 
ATOM     71  N   UNL A   1      41.199  29.401  31.203  1.00  0.00    -0.248 NA
ATOM     72  C   UNL A   1      39.266  28.131  31.340  1.00  0.00    -0.034 C 
ATOM     73  C   UNL A   1      40.327  28.334  26.695  1.00  0.00    -0.036 A 
ATOM     74  N   UNL A   1      41.840  27.850  28.230  1.00  0.00    -0.354 N 
ATOM     75  C   UNL A   1      41.095  28.868  32.487  1.00  0.00     0.074 A 
ATOM     76  C   UNL A   1      39.807  28.229  32.556  1.00  0.00    -0.034 C 
ATOM     77  H   UNL A   1      38.405  27.642  31.049  1.00  0.00     0.065 H 
ATOM     78  C   UNL A   1      41.148  27.411  26.150  1.00  0.00    -0.036 A 
ATOM     79  H   UNL A   1      39.579  28.836  26.191  1.00  0.00     0.065 H 
ATOM     80  C   UNL A   1      42.174  27.084  27.120  1.00  0.00     0.049 A 
ATOM     81  H   UNL A   1      42.410  27.906  29.031  1.00  0.00     0.167 HD
ATOM     82  C   UNL A   1      42.180  28.795  33.308  1.00  0.00     0.037 A 
ATOM     83  H   UNL A   1      39.364  27.894  33.426  1.00  0.00     0.065 H 
ATOM     84  H   UNL A   1      41.060  27.009  25.205  1.00  0.00     0.065 H 
ATOM     85  C   UNL A   1      43.211  26.220  27.009  1.00  0.00     0.037 A 
ATOM     86  C   UNL A   1      43.235  29.660  32.844  1.00  0.00     0.049 A 
ATOM     87  C   UNL A   1      44.188  26.574  28.063  1.00  0.00     0.074 A 
ATOM     88  C   UNL A   1      43.378  31.019  32.654  1.00  0.00    -0.036 A 
ATOM     89  N   UNL A   1      44.262  29.075  32.148  1.00  0.00    -0.354 N 
ATOM     90  N   UNL A   1      44.874  27.683  28.083  1.00  0.00    -0.248 NA
ATOM     91  C   UNL A   1      44.107  25.866  29.331  1.00  0.00    -0.034 C 
ATOM     92  C   UNL A   1      44.193  31.148  31.489  1.00  0.00    -0.036 A 
ATOM     93  H   UNL A   1      42.982  31.778  33.230  1.00  0.00     0.065 H 
ATOM     94  C   UNL A   1      44.549  29.865  31.068  1.00  0.00     0.049 A 
ATOM     95  H   UNL A   1      44.715  28.233  32.384  1.00  0.00     0.167 HD
ATOM     96  C   UNL A   1      44.930  28.034  29.423  1.00  0.00     0.074 A 
ATOM     97  C   UNL A   1      44.558  26.822  30.147  1.00  0.00    -0.034 C 
ATOM     98  H   UNL A   1      43.792  24.906  29.539  1.00  0.00     0.065 H 
ATOM     99  H   UNL A   1      44.470  32.033  31.037  1.00  0.00     0.065 H 
ATOM    100  C   UNL A   1      44.993  29.346  29.795  1.00  0.00     0.037 A 
ATOM    101  H   UNL A   1      44.635  26.716  31.171  1.00  0.00     0.065 H 
BRANCH  82 102
ATOM    102  C   UNL A   1      42.455  27.667  34.280  1.00  0.00     0.064 A 
ATOM    103  C   UNL A   1      43.018  26.467  33.792  1.00  0.00     0.173 A 
ATOM    104  C   UNL A   1      41.902  27.589  35.576  1.00  0.00     0.173 A 
ATOM    105  F   UNL A   1      43.564  26.415  32.569  1.00  0.00    -0.203 F 
ATOM    106  C   UNL A   1      42.939  25.267  34.505  1.00  0.00     0.198 A 
ATOM    107  C   UNL A   1      41.875  26.401  36.308  1.00  0.00     0.198 A 
ATOM    108  F   UNL A   1      41.265  28.617  36.146  1.00  0.00    -0.203 F 
ATOM    109  F   UNL A   1      43.359  24.127  33.940  1.00  0.00    -0.200 F 
ATOM    110  C   UNL A   1      42.358  25.233  35.759  1.00  0.00     0.200 A 
ATOM    111  F   UNL A   1      41.292  26.386  37.514  1.00  0.00    -0.200 F 
ATOM    112  F   UNL A   1      42.217  24.074  36.415  1.00  0.00    -0.200 F 
ENDBRANCH  82 102
BRANCH  85 113
ATOM    113  C   UNL A   1      43.287  24.955  26.246  1.00  0.00     0.064 A 
ATOM    114  C   UNL A   1      44.273  24.760  25.266  1.00  0.00     0.173 A 
ATOM    115  C   UNL A   1      42.580  23.811  26.662  1.00  0.00     0.173 A 
ATOM    116  F   UNL A   1      45.016  25.794  24.844  1.00  0.00    -0.203 F 
ATOM    117  C   UNL A   1      44.562  23.490  24.760  1.00  0.00     0.198 A 
ATOM    118  C   UNL A   1      42.865  22.543  26.152  1.00  0.00     0.198 A 
ATOM    119  F   UNL A   1      41.669  23.886  27.643  1.00  0.00    -0.203 F 
ATOM    120  F   UNL A   1      45.559  23.332  23.877  1.00  0.00    -0.200 F 
ATOM    121  C   UNL A   1      43.866  22.380  25.214  1.00  0.00     0.200 A 
ATOM    122  F   UNL A   1      42.209  21.474  26.626  1.00  0.00    -0.200 F 
ATOM    123  F   UNL A   1      44.190  21.154  24.780  1.00  0.00    -0.200 F 
ENDBRANCH  85 113
BRANCH 100 124
ATOM    124  C   UNL A   1      45.336  30.355  28.734  1.00  0.00     0.064 A 
ATOM    125  C   UNL A   1      44.394  30.993  27.908  1.00  0.00     0.173 A 
ATOM    126  C   UNL A   1      46.666  30.785  28.643  1.00  0.00     0.173 A 
ATOM    127  F   UNL A   1      43.089  30.709  27.999  1.00  0.00    -0.203 F 
ATOM    128  C   UNL A   1      44.778  31.981  27.003  1.00  0.00     0.198 A 
ATOM    129  C   UNL A   1      47.040  31.798  27.766  1.00  0.00     0.198 A 
ATOM    130  F   UNL A   1      47.601  30.248  29.443  1.00  0.00    -0.203 F 
ATOM    131  F   UNL A   1      43.861  32.563  26.214  1.00  0.00    -0.200 F 
ATOM    132  C   UNL A   1      46.099  32.389  26.939  1.00  0.00     0.200 A 
ATOM    133  F   UNL A   1      48.311  32.221  27.743  1.00  0.00    -0.200 F 
ATOM    134  F   UNL A   1      46.462  33.368  26.097  1.00  0.00    -0.200 F 
ENDBRANCH 100 124
ENDBRANCH  65  68
ENDBRANCH  55  58
ENDBRANCH  51  54
ENDBRANCH  48  51
ENDBRANCH  45  48
ENDBRANCH   1  45
TORSDOF 16
ENDMDL
MODEL 8
REMARK VINA RESULT:     -11.8      1.822      6.549
REMARK SMILES O=C(Cn1cnc(-c2ccccc2)c1-c1ccccc1)NCCCCCCNC(=O)c1ccc(-c2c3nc(c(-c4c(F)c(F)c(F)c(F)c4F)c4ccc([nH]4)c(-c4c(F)c(F)c(F)c(F)c4F)c4nc(c(-c5c(F)c(F)c(F)c(F)c5F)c5ccc2[nH]5)C=C4)C=C3)cc1
REMARK SMILES IDX 24 1 23 4 22 7 21 10 1 11 2 12 3 14 4 17 5 18 14 19 6 20
REMARK SMILES IDX 7 22 15 23 16 24 20 25 17 26 19 28 18 30 8 34 9 35 13 36
REMARK SMILES IDX 10 37 12 39 11 41 25 45 26 48 27 51 28 54 29 55 30 57 31 58
REMARK SMILES IDX 32 59 93 60 33 61 92 63 34 65 35 68 36 69 86 70 37 71 91 72
REMARK SMILES IDX 85 73 87 74 38 75 90 76 84 78 83 80 39 82 71 85 51 86 70 87
REMARK SMILES IDX 52 88 55 89 69 90 88 91 53 92 54 94 68 96 89 97 56 100
REMARK SMILES IDX 40 102 41 103 49 104 42 105 43 106 47 107 50 108 44 109
REMARK SMILES IDX 45 110 48 111 46 112 72 113 73 114 81 115 74 116 75 117
REMARK SMILES IDX 79 118 82 119 76 120 77 121 80 122 78 123 57 124 58 125
REMARK SMILES IDX 66 126 59 127 60 128 64 129 67 130 61 131 62 132 65 133
REMARK SMILES IDX 63 134
REMARK H PARENT 24 2 24 3 23 5 23 6 22 8 22 9 21 13 3 15 3 16 5 21 16 27 20 29
REMARK H PARENT 17 31 19 32 18 33 9 38 13 40 10 42 12 43 11 44 25 46 25 47
REMARK H PARENT 26 49 26 50 27 52 27 53 28 56 32 62 93 64 33 66 92 67 91 77
REMARK H PARENT 85 79 87 81 90 83 84 84 52 93 55 95 88 98 53 99 89 101
REMARK Flexibility Score: inf
ROOT
ATOM      1  C   UNL A   1      38.585  20.996  25.280  1.00  0.00    -0.052 C 
ATOM      2  H   UNL A   1      38.861  21.415  24.334  1.00  0.00     0.027 H 
ATOM      3  H   UNL A   1      38.320  19.960  25.248  1.00  0.00     0.027 H 
ENDROOT
BRANCH   1   4
ATOM      4  C   UNL A   1      37.323  21.721  25.759  1.00  0.00    -0.036 C 
ATOM      5  H   UNL A   1      37.198  21.517  26.803  1.00  0.00     0.028 H 
ATOM      6  H   UNL A   1      37.474  22.759  25.547  1.00  0.00     0.028 H 
BRANCH   4   7
ATOM      7  C   UNL A   1      36.041  21.318  25.041  1.00  0.00     0.017 C 
ATOM      8  H   UNL A   1      36.102  21.643  24.024  1.00  0.00     0.049 H 
ATOM      9  H   UNL A   1      35.954  20.254  25.116  1.00  0.00     0.049 H 
BRANCH   7  10
ATOM     10  N   UNL A   1      34.850  21.895  25.640  1.00  0.00    -0.355 N 
ATOM     11  O   UNL A   1      34.821  23.756  24.307  1.00  0.00    -0.273 OA
ATOM     12  C   UNL A   1      34.269  23.046  25.147  1.00  0.00     0.239 C 
ATOM     13  H   UNL A   1      34.447  21.452  26.421  1.00  0.00     0.163 HD
BRANCH  12  14
ATOM     14  C   UNL A   1      32.942  23.449  25.757  1.00  0.00     0.103 C 
ATOM     15  H   UNL A   1      33.139  24.120  26.565  1.00  0.00     0.060 H 
ATOM     16  H   UNL A   1      32.468  22.539  26.064  1.00  0.00     0.060 H 
BRANCH  14  17
ATOM     17  N   UNL A   1      32.015  24.100  24.845  1.00  0.00    -0.321 N 
ATOM     18  C   UNL A   1      31.270  23.424  23.913  1.00  0.00     0.096 A 
ATOM     19  C   UNL A   1      31.624  25.425  24.817  1.00  0.00     0.076 A 
ATOM     20  N   UNL A   1      30.438  24.218  23.283  1.00  0.00    -0.236 NA
ATOM     21  H   UNL A   1      31.353  22.412  23.731  1.00  0.00     0.104 H 
ATOM     22  C   UNL A   1      30.648  25.460  23.827  1.00  0.00     0.096 A 
BRANCH  19  23
ATOM     23  C   UNL A   1      32.105  26.494  25.689  1.00  0.00     0.000 A 
ATOM     24  C   UNL A   1      31.272  27.019  26.683  1.00  0.00    -0.053 A 
ATOM     25  C   UNL A   1      33.353  27.087  25.474  1.00  0.00    -0.053 A 
ATOM     26  C   UNL A   1      31.694  28.099  27.462  1.00  0.00    -0.062 A 
ATOM     27  H   UNL A   1      30.340  26.605  26.842  1.00  0.00     0.063 H 
ATOM     28  C   UNL A   1      33.788  28.148  26.269  1.00  0.00    -0.062 A 
ATOM     29  H   UNL A   1      33.960  26.736  24.717  1.00  0.00     0.063 H 
ATOM     30  C   UNL A   1      32.956  28.655  27.263  1.00  0.00    -0.062 A 
ATOM     31  H   UNL A   1      31.069  28.486  28.187  1.00  0.00     0.062 H 
ATOM     32  H   UNL A   1      34.724  28.556  26.121  1.00  0.00     0.062 H 
ATOM     33  H   UNL A   1      33.274  29.442  27.850  1.00  0.00     0.062 H 
ENDBRANCH  19  23
BRANCH  22  34
ATOM     34  C   UNL A   1      29.902  26.639  23.432  1.00  0.00     0.002 A 
ATOM     35  C   UNL A   1      28.551  26.757  23.773  1.00  0.00    -0.053 A 
ATOM     36  C   UNL A   1      30.536  27.687  22.752  1.00  0.00    -0.053 A 
ATOM     37  C   UNL A   1      27.851  27.927  23.468  1.00  0.00    -0.062 A 
ATOM     38  H   UNL A   1      28.070  25.979  24.252  1.00  0.00     0.063 H 
ATOM     39  C   UNL A   1      29.833  28.853  22.442  1.00  0.00    -0.062 A 
ATOM     40  H   UNL A   1      31.526  27.597  22.479  1.00  0.00     0.063 H 
ATOM     41  C   UNL A   1      28.493  28.974  22.807  1.00  0.00    -0.062 A 
ATOM     42  H   UNL A   1      26.857  28.016  23.731  1.00  0.00     0.062 H 
ATOM     43  H   UNL A   1      30.305  29.622  21.944  1.00  0.00     0.062 H 
ATOM     44  H   UNL A   1      27.977  29.840  22.589  1.00  0.00     0.062 H 
ENDBRANCH  22  34
ENDBRANCH  14  17
ENDBRANCH  12  14
ENDBRANCH   7  10
ENDBRANCH   4   7
ENDBRANCH   1   4
BRANCH   1  45
ATOM     45  C   UNL A   1      39.813  21.072  26.198  1.00  0.00    -0.052 C 
ATOM     46  H   UNL A   1      39.463  21.262  27.191  1.00  0.00     0.027 H 
ATOM     47  H   UNL A   1      40.425  21.844  25.779  1.00  0.00     0.027 H 
BRANCH  45  48
ATOM     48  C   UNL A   1      40.720  19.835  26.256  1.00  0.00    -0.036 C 
ATOM     49  H   UNL A   1      40.863  19.479  25.257  1.00  0.00     0.028 H 
ATOM     50  H   UNL A   1      40.225  19.128  26.888  1.00  0.00     0.028 H 
BRANCH  48  51
ATOM     51  C   UNL A   1      42.090  20.077  26.874  1.00  0.00     0.018 C 
ATOM     52  H   UNL A   1      42.192  19.452  27.736  1.00  0.00     0.049 H 
ATOM     53  H   UNL A   1      42.148  21.116  27.122  1.00  0.00     0.049 H 
BRANCH  51  54
ATOM     54  N   UNL A   1      43.194  19.788  25.958  1.00  0.00    -0.352 N 
ATOM     55  C   UNL A   1      43.944  20.682  25.212  1.00  0.00     0.251 C 
ATOM     56  H   UNL A   1      43.434  18.839  25.858  1.00  0.00     0.163 HD
ATOM     57  O   UNL A   1      44.567  20.323  24.229  1.00  0.00    -0.269 OA
BRANCH  55  58
ATOM     58  C   UNL A   1      43.974  22.094  25.637  1.00  0.00     0.039 A 
ATOM     59  C   UNL A   1      43.057  23.026  25.143  1.00  0.00    -0.049 A 
ATOM     60  C   UNL A   1      44.923  22.463  26.582  1.00  0.00    -0.049 A 
ATOM     61  C   UNL A   1      43.049  24.311  25.681  1.00  0.00    -0.053 A 
ATOM     62  H   UNL A   1      42.396  22.767  24.392  1.00  0.00     0.063 H 
ATOM     63  C   UNL A   1      44.805  23.667  27.226  1.00  0.00    -0.053 A 
ATOM     64  H   UNL A   1      45.712  21.834  26.798  1.00  0.00     0.063 H 
ATOM     65  C   UNL A   1      43.914  24.620  26.743  1.00  0.00    -0.014 A 
ATOM     66  H   UNL A   1      42.413  25.031  25.302  1.00  0.00     0.063 H 
ATOM     67  H   UNL A   1      45.374  23.866  28.063  1.00  0.00     0.063 H 
BRANCH  65  68
ATOM     68  C   UNL A   1      43.837  25.907  27.428  1.00  0.00     0.031 A 
ATOM     69  C   UNL A   1      44.900  26.885  27.065  1.00  0.00     0.074 A 
ATOM     70  C   UNL A   1      42.755  26.278  28.149  1.00  0.00     0.049 A 
ATOM     71  N   UNL A   1      45.791  27.415  27.838  1.00  0.00    -0.248 NA
ATOM     72  C   UNL A   1      45.055  27.247  25.647  1.00  0.00    -0.034 C 
ATOM     73  C   UNL A   1      41.487  25.555  28.322  1.00  0.00    -0.036 A 
ATOM     74  N   UNL A   1      42.513  27.455  28.790  1.00  0.00    -0.354 N 
ATOM     75  C   UNL A   1      46.505  28.315  27.047  1.00  0.00     0.074 A 
ATOM     76  C   UNL A   1      46.119  28.051  25.686  1.00  0.00    -0.034 C 
ATOM     77  H   UNL A   1      44.489  26.956  24.835  1.00  0.00     0.065 H 
ATOM     78  C   UNL A   1      40.545  26.396  28.799  1.00  0.00    -0.036 A 
ATOM     79  H   UNL A   1      41.341  24.556  28.111  1.00  0.00     0.065 H 
ATOM     80  C   UNL A   1      41.184  27.651  29.142  1.00  0.00     0.049 A 
ATOM     81  H   UNL A   1      43.219  28.112  28.987  1.00  0.00     0.167 HD
ATOM     82  C   UNL A   1      47.177  29.361  27.605  1.00  0.00     0.037 A 
ATOM     83  H   UNL A   1      46.599  28.432  24.856  1.00  0.00     0.065 H 
ATOM     84  H   UNL A   1      39.541  26.182  28.901  1.00  0.00     0.065 H 
ATOM     85  C   UNL A   1      40.635  28.775  29.661  1.00  0.00     0.037 A 
ATOM     86  C   UNL A   1      47.367  29.156  29.019  1.00  0.00     0.049 A 
ATOM     87  C   UNL A   1      41.742  29.578  30.228  1.00  0.00     0.074 A 
ATOM     88  C   UNL A   1      48.024  28.223  29.795  1.00  0.00    -0.036 A 
ATOM     89  N   UNL A   1      46.512  29.813  29.866  1.00  0.00    -0.354 N 
ATOM     90  N   UNL A   1      42.448  29.221  31.265  1.00  0.00    -0.248 NA
ATOM     91  C   UNL A   1      42.341  30.602  29.388  1.00  0.00    -0.034 C 
ATOM     92  C   UNL A   1      47.203  28.058  30.951  1.00  0.00    -0.036 A 
ATOM     93  H   UNL A   1      48.917  27.750  29.586  1.00  0.00     0.065 H 
ATOM     94  C   UNL A   1      46.125  28.937  30.843  1.00  0.00     0.049 A 
ATOM     95  H   UNL A   1      46.228  30.752  29.786  1.00  0.00     0.167 HD
ATOM     96  C   UNL A   1      43.736  29.635  30.970  1.00  0.00     0.074 A 
ATOM     97  C   UNL A   1      43.585  30.585  29.871  1.00  0.00    -0.034 C 
ATOM     98  H   UNL A   1      41.926  31.173  28.635  1.00  0.00     0.065 H 
ATOM     99  H   UNL A   1      47.376  27.403  31.730  1.00  0.00     0.065 H 
ATOM    100  C   UNL A   1      44.814  28.951  31.453  1.00  0.00     0.037 A 
ATOM    101  H   UNL A   1      44.351  31.176  29.511  1.00  0.00     0.065 H 
BRANCH  82 102
ATOM    102  C   UNL A   1      47.308  30.736  26.983  1.00  0.00     0.064 A 
ATOM    103  C   UNL A   1      48.569  31.373  26.993  1.00  0.00     0.173 A 
ATOM    104  C   UNL A   1      46.213  31.573  26.680  1.00  0.00     0.173 A 
ATOM    105  F   UNL A   1      49.682  30.682  27.277  1.00  0.00    -0.203 F 
ATOM    106  C   UNL A   1      48.703  32.753  26.815  1.00  0.00     0.198 A 
ATOM    107  C   UNL A   1      46.359  32.941  26.449  1.00  0.00     0.198 A 
ATOM    108  F   UNL A   1      44.950  31.136  26.708  1.00  0.00    -0.203 F 
ATOM    109  F   UNL A   1      49.902  33.331  26.975  1.00  0.00    -0.200 F 
ATOM    110  C   UNL A   1      47.596  33.537  26.553  1.00  0.00     0.200 A 
ATOM    111  F   UNL A   1      45.270  33.687  26.214  1.00  0.00    -0.200 F 
ATOM    112  F   UNL A   1      47.711  34.868  26.453  1.00  0.00    -0.200 F 
ENDBRANCH  82 102
BRANCH  85 113
ATOM    113  C   UNL A   1      39.277  29.325  29.457  1.00  0.00     0.064 A 
ATOM    114  C   UNL A   1      38.765  29.524  28.165  1.00  0.00     0.173 A 
ATOM    115  C   UNL A   1      38.352  29.391  30.516  1.00  0.00     0.173 A 
ATOM    116  F   UNL A   1      39.576  29.439  27.100  1.00  0.00    -0.203 F 
ATOM    117  C   UNL A   1      37.403  29.740  27.942  1.00  0.00     0.198 A 
ATOM    118  C   UNL A   1      36.992  29.613  30.294  1.00  0.00     0.198 A 
ATOM    119  F   UNL A   1      38.734  29.144  31.778  1.00  0.00    -0.203 F 
ATOM    120  F   UNL A   1      36.940  29.856  26.689  1.00  0.00    -0.200 F 
ATOM    121  C   UNL A   1      36.515  29.771  29.006  1.00  0.00     0.200 A 
ATOM    122  F   UNL A   1      36.140  29.604  31.328  1.00  0.00    -0.200 F 
ATOM    123  F   UNL A   1      35.200  29.908  28.787  1.00  0.00    -0.200 F 
ENDBRANCH  85 113
BRANCH 100 124
ATOM    124  C   UNL A   1      44.573  27.967  32.564  1.00  0.00     0.064 A 
ATOM    125  C   UNL A   1      44.295  26.603  32.372  1.00  0.00     0.173 A 
ATOM    126  C   UNL A   1      44.761  28.405  33.881  1.00  0.00     0.173 A 
ATOM    127  F   UNL A   1      44.195  26.083  31.142  1.00  0.00    -0.203 F 
ATOM    128  C   UNL A   1      44.166  25.731  33.452  1.00  0.00     0.198 A 
ATOM    129  C   UNL A   1      44.669  27.526  34.956  1.00  0.00     0.198 A 
ATOM    130  F   UNL A   1      45.080  29.686  34.123  1.00  0.00    -0.203 F 
ATOM    131  F   UNL A   1      43.884  24.437  33.242  1.00  0.00    -0.200 F 
ATOM    132  C   UNL A   1      44.362  26.192  34.743  1.00  0.00     0.200 A 
ATOM    133  F   UNL A   1      44.907  27.968  36.198  1.00  0.00    -0.200 F 
ATOM    134  F   UNL A   1      44.278  25.347  35.781  1.00  0.00    -0.200 F 
ENDBRANCH 100 124
ENDBRANCH  65  68
ENDBRANCH  55  58
ENDBRANCH  51  54
ENDBRANCH  48  51
ENDBRANCH  45  48
ENDBRANCH   1  45
TORSDOF 16
ENDMDL
MODEL 9
REMARK VINA RESULT:     -11.8     10.167     15.510
REMARK SMILES O=C(Cn1cnc(-c2ccccc2)c1-c1ccccc1)NCCCCCCNC(=O)c1ccc(-c2c3nc(c(-c4c(F)c(F)c(F)c(F)c4F)c4ccc([nH]4)c(-c4c(F)c(F)c(F)c(F)c4F)c4nc(c(-c5c(F)c(F)c(F)c(F)c5F)c5ccc2[nH]5)C=C4)C=C3)cc1
REMARK SMILES IDX 24 1 23 4 22 7 21 10 1 11 2 12 3 14 4 17 5 18 14 19 6 20
REMARK SMILES IDX 7 22 15 23 16 24 20 25 17 26 19 28 18 30 8 34 9 35 13 36
REMARK SMILES IDX 10 37 12 39 11 41 25 45 26 48 27 51 28 54 29 55 30 57 31 58
REMARK SMILES IDX 32 59 93 60 33 61 92 63 34 65 35 68 36 69 86 70 37 71 91 72
REMARK SMILES IDX 85 73 87 74 38 75 90 76 84 78 83 80 39 82 71 85 51 86 70 87
REMARK SMILES IDX 52 88 55 89 69 90 88 91 53 92 54 94 68 96 89 97 56 100
REMARK SMILES IDX 40 102 41 103 49 104 42 105 43 106 47 107 50 108 44 109
REMARK SMILES IDX 45 110 48 111 46 112 72 113 73 114 81 115 74 116 75 117
REMARK SMILES IDX 79 118 82 119 76 120 77 121 80 122 78 123 57 124 58 125
REMARK SMILES IDX 66 126 59 127 60 128 64 129 67 130 61 131 62 132 65 133
REMARK SMILES IDX 63 134
REMARK H PARENT 24 2 24 3 23 5 23 6 22 8 22 9 21 13 3 15 3 16 5 21 16 27 20 29
REMARK H PARENT 17 31 19 32 18 33 9 38 13 40 10 42 12 43 11 44 25 46 25 47
REMARK H PARENT 26 49 26 50 27 52 27 53 28 56 32 62 93 64 33 66 92 67 91 77
REMARK H PARENT 85 79 87 81 90 83 84 84 52 93 55 95 88 98 53 99 89 101
REMARK Flexibility Score: inf
ROOT
ATOM      1  C   UNL A   1      41.529  41.322  25.377  1.00  0.00    -0.052 C 
ATOM      2  H   UNL A   1      40.983  41.327  24.456  1.00  0.00     0.027 H 
ATOM      3  H   UNL A   1      41.185  42.028  26.104  1.00  0.00     0.027 H 
ENDROOT
BRANCH   1   4
ATOM      4  C   UNL A   1      42.971  41.735  25.063  1.00  0.00    -0.036 C 
ATOM      5  H   UNL A   1      43.447  42.005  25.983  1.00  0.00     0.028 H 
ATOM      6  H   UNL A   1      43.427  40.894  24.583  1.00  0.00     0.028 H 
BRANCH   4   7
ATOM      7  C   UNL A   1      43.107  42.906  24.098  1.00  0.00     0.017 C 
ATOM      8  H   UNL A   1      42.240  43.526  24.188  1.00  0.00     0.049 H 
ATOM      9  H   UNL A   1      44.003  43.432  24.358  1.00  0.00     0.049 H 
BRANCH   7  10
ATOM     10  N   UNL A   1      43.236  42.488  22.714  1.00  0.00    -0.355 N 
ATOM     11  O   UNL A   1      41.154  43.200  22.082  1.00  0.00    -0.273 OA
ATOM     12  C   UNL A   1      42.263  42.764  21.774  1.00  0.00     0.239 C 
ATOM     13  H   UNL A   1      44.040  41.992  22.437  1.00  0.00     0.163 HD
BRANCH  12  14
ATOM     14  C   UNL A   1      42.593  42.419  20.336  1.00  0.00     0.103 C 
ATOM     15  H   UNL A   1      41.879  41.699  19.996  1.00  0.00     0.060 H 
ATOM     16  H   UNL A   1      43.599  42.053  20.342  1.00  0.00     0.060 H 
BRANCH  14  17
ATOM     17  N   UNL A   1      42.577  43.542  19.412  1.00  0.00    -0.321 N 
ATOM     18  C   UNL A   1      41.499  43.858  18.624  1.00  0.00     0.096 A 
ATOM     19  C   UNL A   1      43.527  44.531  19.242  1.00  0.00     0.076 A 
ATOM     20  N   UNL A   1      41.692  44.968  17.955  1.00  0.00    -0.236 NA
ATOM     21  H   UNL A   1      40.639  43.290  18.567  1.00  0.00     0.104 H 
ATOM     22  C   UNL A   1      42.943  45.395  18.322  1.00  0.00     0.096 A 
BRANCH  19  23
ATOM     23  C   UNL A   1      44.807  44.637  19.938  1.00  0.00     0.000 A 
ATOM     24  C   UNL A   1      44.923  45.439  21.080  1.00  0.00    -0.053 A 
ATOM     25  C   UNL A   1      45.958  44.040  19.417  1.00  0.00    -0.053 A 
ATOM     26  C   UNL A   1      46.162  45.614  21.699  1.00  0.00    -0.062 A 
ATOM     27  H   UNL A   1      44.085  45.903  21.467  1.00  0.00     0.063 H 
ATOM     28  C   UNL A   1      47.192  44.190  20.049  1.00  0.00    -0.062 A 
ATOM     29  H   UNL A   1      45.894  43.480  18.552  1.00  0.00     0.063 H 
ATOM     30  C   UNL A   1      47.294  44.981  21.191  1.00  0.00    -0.062 A 
ATOM     31  H   UNL A   1      46.240  46.215  22.535  1.00  0.00     0.062 H 
ATOM     32  H   UNL A   1      48.029  43.718  19.672  1.00  0.00     0.062 H 
ATOM     33  H   UNL A   1      48.207  45.097  21.659  1.00  0.00     0.062 H 
ENDBRANCH  19  23
BRANCH  22  34
ATOM     34  C   UNL A   1      43.544  46.620  17.832  1.00  0.00     0.002 A 
ATOM     35  C   UNL A   1      44.775  46.577  17.169  1.00  0.00    -0.053 A 
ATOM     36  C   UNL A   1      42.880  47.845  17.973  1.00  0.00    -0.053 A 
ATOM     37  C   UNL A   1      45.317  47.742  16.622  1.00  0.00    -0.062 A 
ATOM     38  H   UNL A   1      45.282  45.683  17.082  1.00  0.00     0.063 H 
ATOM     39  C   UNL A   1      43.426  49.010  17.432  1.00  0.00    -0.062 A 
ATOM     40  H   UNL A   1      41.982  47.887  18.480  1.00  0.00     0.063 H 
ATOM     41  C   UNL A   1      44.641  48.955  16.751  1.00  0.00    -0.062 A 
ATOM     42  H   UNL A   1      46.220  47.705  16.123  1.00  0.00     0.062 H 
ATOM     43  H   UNL A   1      42.932  49.909  17.537  1.00  0.00     0.062 H 
ATOM     44  H   UNL A   1      45.040  49.814  16.341  1.00  0.00     0.062 H 
ENDBRANCH  22  34
ENDBRANCH  14  17
ENDBRANCH  12  14
ENDBRANCH   7  10
ENDBRANCH   4   7
ENDBRANCH   1   4
BRANCH   1  45
ATOM     45  C   UNL A   1      41.333  39.945  26.026  1.00  0.00    -0.052 C 
ATOM     46  H   UNL A   1      41.197  39.232  25.238  1.00  0.00     0.027 H 
ATOM     47  H   UNL A   1      40.493  40.062  26.678  1.00  0.00     0.027 H 
BRANCH  45  48
ATOM     48  C   UNL A   1      42.465  39.428  26.925  1.00  0.00    -0.036 C 
ATOM     49  H   UNL A   1      42.157  39.540  27.945  1.00  0.00     0.028 H 
ATOM     50  H   UNL A   1      43.331  40.004  26.680  1.00  0.00     0.028 H 
BRANCH  48  51
ATOM     51  C   UNL A   1      42.841  37.969  26.703  1.00  0.00     0.018 C 
ATOM     52  H   UNL A   1      42.537  37.685  25.717  1.00  0.00     0.049 H 
ATOM     53  H   UNL A   1      42.345  37.395  27.457  1.00  0.00     0.049 H 
BRANCH  51  54
ATOM     54  N   UNL A   1      44.275  37.717  26.839  1.00  0.00    -0.352 N 
ATOM     55  C   UNL A   1      44.950  37.175  27.920  1.00  0.00     0.251 C 
ATOM     56  H   UNL A   1      44.831  37.963  26.065  1.00  0.00     0.163 HD
ATOM     57  O   UNL A   1      46.146  37.351  28.074  1.00  0.00    -0.269 OA
BRANCH  55  58
ATOM     58  C   UNL A   1      44.185  36.373  28.892  1.00  0.00     0.039 A 
ATOM     59  C   UNL A   1      43.746  36.916  30.103  1.00  0.00    -0.049 A 
ATOM     60  C   UNL A   1      43.875  35.063  28.546  1.00  0.00    -0.049 A 
ATOM     61  C   UNL A   1      42.914  36.152  30.919  1.00  0.00    -0.053 A 
ATOM     62  H   UNL A   1      44.033  37.866  30.389  1.00  0.00     0.063 H 
ATOM     63  C   UNL A   1      42.928  34.380  29.261  1.00  0.00    -0.053 A 
ATOM     64  H   UNL A   1      44.357  34.609  27.754  1.00  0.00     0.063 H 
ATOM     65  C   UNL A   1      42.488  34.888  30.479  1.00  0.00    -0.014 A 
ATOM     66  H   UNL A   1      42.613  36.511  31.839  1.00  0.00     0.063 H 
ATOM     67  H   UNL A   1      42.543  33.494  28.899  1.00  0.00     0.063 H 
BRANCH  65  68
ATOM     68  C   UNL A   1      41.504  34.119  31.236  1.00  0.00     0.031 A 
ATOM     69  C   UNL A   1      41.920  33.738  32.616  1.00  0.00     0.074 A 
ATOM     70  C   UNL A   1      40.226  33.971  30.821  1.00  0.00     0.049 A 
ATOM     71  N   UNL A   1      42.062  32.549  33.104  1.00  0.00    -0.248 NA
ATOM     72  C   UNL A   1      42.320  34.810  33.541  1.00  0.00    -0.034 C 
ATOM     73  C   UNL A   1      39.579  34.571  29.645  1.00  0.00    -0.036 A 
ATOM     74  N   UNL A   1      39.189  33.340  31.438  1.00  0.00    -0.354 N 
ATOM     75  C   UNL A   1      42.394  32.718  34.447  1.00  0.00     0.074 A 
ATOM     76  C   UNL A   1      42.695  34.115  34.616  1.00  0.00    -0.034 C 
ATOM     77  H   UNL A   1      42.312  35.832  33.397  1.00  0.00     0.065 H 
ATOM     78  C   UNL A   1      38.237  34.483  29.769  1.00  0.00    -0.036 A 
ATOM     79  H   UNL A   1      40.075  34.996  28.847  1.00  0.00     0.065 H 
ATOM     80  C   UNL A   1      37.939  33.659  30.924  1.00  0.00     0.049 A 
ATOM     81  H   UNL A   1      39.315  32.712  32.185  1.00  0.00     0.167 HD
ATOM     82  C   UNL A   1      42.162  31.731  35.358  1.00  0.00     0.037 A 
ATOM     83  H   UNL A   1      43.139  34.523  35.454  1.00  0.00     0.065 H 
ATOM     84  H   UNL A   1      37.544  34.926  29.148  1.00  0.00     0.065 H 
ATOM     85  C   UNL A   1      36.735  33.291  31.423  1.00  0.00     0.037 A 
ATOM     86  C   UNL A   1      41.945  30.467  34.702  1.00  0.00     0.049 A 
ATOM     87  C   UNL A   1      36.966  32.125  32.305  1.00  0.00     0.074 A 
ATOM     88  C   UNL A   1      42.695  29.641  33.889  1.00  0.00    -0.036 A 
ATOM     89  N   UNL A   1      40.646  30.050  34.563  1.00  0.00    -0.354 N 
ATOM     90  N   UNL A   1      37.356  30.955  31.882  1.00  0.00    -0.248 NA
ATOM     91  C   UNL A   1      37.159  32.372  33.725  1.00  0.00    -0.034 C 
ATOM     92  C   UNL A   1      41.762  29.087  32.962  1.00  0.00    -0.036 A 
ATOM     93  H   UNL A   1      43.709  29.463  33.941  1.00  0.00     0.065 H 
ATOM     94  C   UNL A   1      40.491  29.557  33.295  1.00  0.00     0.049 A 
ATOM     95  H   UNL A   1      39.946  30.096  35.254  1.00  0.00     0.167 HD
ATOM     96  C   UNL A   1      38.227  30.502  32.860  1.00  0.00     0.074 A 
ATOM     97  C   UNL A   1      37.966  31.351  34.019  1.00  0.00    -0.034 C 
ATOM     98  H   UNL A   1      36.783  33.120  34.328  1.00  0.00     0.065 H 
ATOM     99  H   UNL A   1      41.987  28.450  32.182  1.00  0.00     0.065 H 
ATOM    100  C   UNL A   1      39.266  29.679  32.537  1.00  0.00     0.037 A 
ATOM    101  H   UNL A   1      38.360  31.180  34.958  1.00  0.00     0.065 H 
BRANCH  82 102
ATOM    102  C   UNL A   1      41.730  31.961  36.791  1.00  0.00     0.064 A 
ATOM    103  C   UNL A   1      40.549  32.696  37.039  1.00  0.00     0.173 A 
ATOM    104  C   UNL A   1      42.573  31.782  37.909  1.00  0.00     0.173 A 
ATOM    105  F   UNL A   1      39.675  32.939  36.052  1.00  0.00    -0.203 F 
ATOM    106  C   UNL A   1      40.290  33.287  38.279  1.00  0.00     0.198 A 
ATOM    107  C   UNL A   1      42.283  32.328  39.160  1.00  0.00     0.198 A 
ATOM    108  F   UNL A   1      43.762  31.177  37.819  1.00  0.00    -0.203 F 
ATOM    109  F   UNL A   1      39.229  34.092  38.424  1.00  0.00    -0.200 F 
ATOM    110  C   UNL A   1      41.163  33.110  39.336  1.00  0.00     0.200 A 
ATOM    111  F   UNL A   1      43.151  32.160  40.167  1.00  0.00    -0.200 F 
ATOM    112  F   UNL A   1      40.955  33.732  40.504  1.00  0.00    -0.200 F 
ENDBRANCH  82 102
BRANCH  85 113
ATOM    113  C   UNL A   1      35.458  34.039  31.411  1.00  0.00     0.064 A 
ATOM    114  C   UNL A   1      35.185  35.017  32.379  1.00  0.00     0.173 A 
ATOM    115  C   UNL A   1      34.611  34.013  30.286  1.00  0.00     0.173 A 
ATOM    116  F   UNL A   1      35.969  35.132  33.461  1.00  0.00    -0.203 F 
ATOM    117  C   UNL A   1      34.148  35.940  32.215  1.00  0.00     0.198 A 
ATOM    118  C   UNL A   1      33.572  34.931  30.126  1.00  0.00     0.198 A 
ATOM    119  F   UNL A   1      34.836  33.160  29.276  1.00  0.00    -0.203 F 
ATOM    120  F   UNL A   1      33.961  36.905  33.127  1.00  0.00    -0.200 F 
ATOM    121  C   UNL A   1      33.351  35.905  31.082  1.00  0.00     0.200 A 
ATOM    122  F   UNL A   1      32.832  34.908  29.009  1.00  0.00    -0.200 F 
ATOM    123  F   UNL A   1      32.402  36.833  30.891  1.00  0.00    -0.200 F 
ENDBRANCH  85 113
BRANCH 100 124
ATOM    124  C   UNL A   1      39.238  29.018  31.186  1.00  0.00     0.064 A 
ATOM    125  C   UNL A   1      39.714  29.607  30.003  1.00  0.00     0.173 A 
ATOM    126  C   UNL A   1      38.826  27.681  31.118  1.00  0.00     0.173 A 
ATOM    127  F   UNL A   1      40.215  30.848  30.000  1.00  0.00    -0.203 F 
ATOM    128  C   UNL A   1      39.734  28.902  28.800  1.00  0.00     0.198 A 
ATOM    129  C   UNL A   1      38.882  26.967  29.925  1.00  0.00     0.198 A 
ATOM    130  F   UNL A   1      38.410  27.050  32.227  1.00  0.00    -0.203 F 
ATOM    131  F   UNL A   1      40.179  29.492  27.681  1.00  0.00    -0.200 F 
ATOM    132  C   UNL A   1      39.326  27.579  28.765  1.00  0.00     0.200 A 
ATOM    133  F   UNL A   1      38.530  25.674  29.908  1.00  0.00    -0.200 F 
ATOM    134  F   UNL A   1      39.381  26.887  27.618  1.00  0.00    -0.200 F 
ENDBRANCH 100 124
ENDBRANCH  65  68
ENDBRANCH  55  58
ENDBRANCH  51  54
ENDBRANCH  48  51
ENDBRANCH  45  48
ENDBRANCH   1  45
TORSDOF 16
ENDMDL
MODEL 10
REMARK VINA RESULT:     -11.7      3.336      8.169
REMARK SMILES O=C(Cn1cnc(-c2ccccc2)c1-c1ccccc1)NCCCCCCNC(=O)c1ccc(-c2c3nc(c(-c4c(F)c(F)c(F)c(F)c4F)c4ccc([nH]4)c(-c4c(F)c(F)c(F)c(F)c4F)c4nc(c(-c5c(F)c(F)c(F)c(F)c5F)c5ccc2[nH]5)C=C4)C=C3)cc1
REMARK SMILES IDX 24 1 23 4 22 7 21 10 1 11 2 12 3 14 4 17 5 18 14 19 6 20
REMARK SMILES IDX 7 22 15 23 16 24 20 25 17 26 19 28 18 30 8 34 9 35 13 36
REMARK SMILES IDX 10 37 12 39 11 41 25 45 26 48 27 51 28 54 29 55 30 57 31 58
REMARK SMILES IDX 32 59 93 60 33 61 92 63 34 65 35 68 36 69 86 70 37 71 91 72
REMARK SMILES IDX 85 73 87 74 38 75 90 76 84 78 83 80 39 82 71 85 51 86 70 87
REMARK SMILES IDX 52 88 55 89 69 90 88 91 53 92 54 94 68 96 89 97 56 100
REMARK SMILES IDX 40 102 41 103 49 104 42 105 43 106 47 107 50 108 44 109
REMARK SMILES IDX 45 110 48 111 46 112 72 113 73 114 81 115 74 116 75 117
REMARK SMILES IDX 79 118 82 119 76 120 77 121 80 122 78 123 57 124 58 125
REMARK SMILES IDX 66 126 59 127 60 128 64 129 67 130 61 131 62 132 65 133
REMARK SMILES IDX 63 134
REMARK H PARENT 24 2 24 3 23 5 23 6 22 8 22 9 21 13 3 15 3 16 5 21 16 27 20 29
REMARK H PARENT 17 31 19 32 18 33 9 38 13 40 10 42 12 43 11 44 25 46 25 47
REMARK H PARENT 26 49 26 50 27 52 27 53 28 56 32 62 93 64 33 66 92 67 91 77
REMARK H PARENT 85 79 87 81 90 83 84 84 52 93 55 95 88 98 53 99 89 101
REMARK Flexibility Score: inf
ROOT
ATOM      1  C   UNL A   1      36.538  23.493  24.479  1.00  0.00    -0.052 C 
ATOM      2  H   UNL A   1      37.129  24.177  23.905  1.00  0.00     0.027 H 
ATOM      3  H   UNL A   1      35.917  22.844  23.897  1.00  0.00     0.027 H 
ENDROOT
BRANCH   1   4
ATOM      4  C   UNL A   1      35.571  24.319  25.333  1.00  0.00    -0.036 C 
ATOM      5  H   UNL A   1      35.001  23.644  25.938  1.00  0.00     0.028 H 
ATOM      6  H   UNL A   1      36.174  24.992  25.905  1.00  0.00     0.028 H 
BRANCH   4   7
ATOM      7  C   UNL A   1      34.596  25.184  24.543  1.00  0.00     0.017 C 
ATOM      8  H   UNL A   1      34.383  26.065  25.110  1.00  0.00     0.049 H 
ATOM      9  H   UNL A   1      35.060  25.414  23.606  1.00  0.00     0.049 H 
BRANCH   7  10
ATOM     10  N   UNL A   1      33.344  24.507  24.253  1.00  0.00    -0.355 N 
ATOM     11  O   UNL A   1      33.895  23.952  22.101  1.00  0.00    -0.273 OA
ATOM     12  C   UNL A   1      33.130  23.847  23.059  1.00  0.00     0.239 C 
ATOM     13  H   UNL A   1      32.627  24.521  24.926  1.00  0.00     0.163 HD
BRANCH  12  14
ATOM     14  C   UNL A   1      31.849  23.046  22.949  1.00  0.00     0.103 C 
ATOM     15  H   UNL A   1      31.375  23.305  22.026  1.00  0.00     0.060 H 
ATOM     16  H   UNL A   1      31.267  23.296  23.812  1.00  0.00     0.060 H 
BRANCH  14  17
ATOM     17  N   UNL A   1      32.019  21.602  22.980  1.00  0.00    -0.321 N 
ATOM     18  C   UNL A   1      31.863  20.798  21.880  1.00  0.00     0.096 A 
ATOM     19  C   UNL A   1      32.467  20.810  24.020  1.00  0.00     0.076 A 
ATOM     20  N   UNL A   1      32.167  19.550  22.139  1.00  0.00    -0.236 NA
ATOM     21  H   UNL A   1      31.546  21.136  20.958  1.00  0.00     0.104 H 
ATOM     22  C   UNL A   1      32.539  19.539  23.460  1.00  0.00     0.096 A 
BRANCH  19  23
ATOM     23  C   UNL A   1      32.831  21.259  25.362  1.00  0.00     0.000 A 
ATOM     24  C   UNL A   1      31.927  22.010  26.122  1.00  0.00    -0.053 A 
ATOM     25  C   UNL A   1      34.119  21.050  25.863  1.00  0.00    -0.053 A 
ATOM     26  C   UNL A   1      32.300  22.516  27.369  1.00  0.00    -0.062 A 
ATOM     27  H   UNL A   1      30.978  22.191  25.758  1.00  0.00     0.063 H 
ATOM     28  C   UNL A   1      34.486  21.530  27.120  1.00  0.00    -0.062 A 
ATOM     29  H   UNL A   1      34.809  20.534  25.295  1.00  0.00     0.063 H 
ATOM     30  C   UNL A   1      33.575  22.266  27.873  1.00  0.00    -0.062 A 
ATOM     31  H   UNL A   1      31.629  23.077  27.919  1.00  0.00     0.062 H 
ATOM     32  H   UNL A   1      35.429  21.342  27.492  1.00  0.00     0.062 H 
ATOM     33  H   UNL A   1      33.844  22.626  28.803  1.00  0.00     0.062 H 
ENDBRANCH  19  23
BRANCH  22  34
ATOM     34  C   UNL A   1      32.988  18.347  24.153  1.00  0.00     0.002 A 
ATOM     35  C   UNL A   1      32.260  17.858  25.242  1.00  0.00    -0.053 A 
ATOM     36  C   UNL A   1      34.120  17.651  23.712  1.00  0.00    -0.053 A 
ATOM     37  C   UNL A   1      32.641  16.665  25.860  1.00  0.00    -0.062 A 
ATOM     38  H   UNL A   1      31.439  18.378  25.589  1.00  0.00     0.063 H 
ATOM     39  C   UNL A   1      34.503  16.462  24.335  1.00  0.00    -0.062 A 
ATOM     40  H   UNL A   1      34.674  18.019  22.923  1.00  0.00     0.063 H 
ATOM     41  C   UNL A   1      33.759  15.967  25.404  1.00  0.00    -0.062 A 
ATOM     42  H   UNL A   1      32.095  16.299  26.656  1.00  0.00     0.062 H 
ATOM     43  H   UNL A   1      35.337  15.953  24.004  1.00  0.00     0.062 H 
ATOM     44  H   UNL A   1      34.036  15.082  25.857  1.00  0.00     0.062 H 
ENDBRANCH  22  34
ENDBRANCH  14  17
ENDBRANCH  12  14
ENDBRANCH   7  10
ENDBRANCH   4   7
ENDBRANCH   1   4
BRANCH   1  45
ATOM     45  C   UNL A   1      37.500  22.564  25.232  1.00  0.00    -0.052 C 
ATOM     46  H   UNL A   1      37.986  21.945  24.506  1.00  0.00     0.027 H 
ATOM     47  H   UNL A   1      36.887  22.039  25.935  1.00  0.00     0.027 H 
BRANCH  45  48
ATOM     48  C   UNL A   1      38.594  23.229  26.079  1.00  0.00    -0.036 C 
ATOM     49  H   UNL A   1      38.118  23.790  26.857  1.00  0.00     0.028 H 
ATOM     50  H   UNL A   1      39.166  23.836  25.410  1.00  0.00     0.028 H 
BRANCH  48  51
ATOM     51  C   UNL A   1      39.576  22.262  26.726  1.00  0.00     0.018 C 
ATOM     52  H   UNL A   1      39.180  21.271  26.647  1.00  0.00     0.049 H 
ATOM     53  H   UNL A   1      39.697  22.566  27.745  1.00  0.00     0.049 H 
BRANCH  51  54
ATOM     54  N   UNL A   1      40.900  22.284  26.106  1.00  0.00    -0.352 N 
ATOM     55  C   UNL A   1      41.730  23.374  25.898  1.00  0.00     0.251 C 
ATOM     56  H   UNL A   1      41.247  21.416  25.798  1.00  0.00     0.163 HD
ATOM     57  O   UNL A   1      42.616  23.347  25.063  1.00  0.00    -0.269 OA
BRANCH  55  58
ATOM     58  C   UNL A   1      41.515  24.582  26.715  1.00  0.00     0.039 A 
ATOM     59  C   UNL A   1      42.014  24.683  28.017  1.00  0.00    -0.049 A 
ATOM     60  C   UNL A   1      40.831  25.642  26.131  1.00  0.00    -0.049 A 
ATOM     61  C   UNL A   1      41.895  25.898  28.689  1.00  0.00    -0.053 A 
ATOM     62  H   UNL A   1      42.463  23.872  28.472  1.00  0.00     0.063 H 
ATOM     63  C   UNL A   1      40.864  26.877  26.723  1.00  0.00    -0.053 A 
ATOM     64  H   UNL A   1      40.301  25.499  25.258  1.00  0.00     0.063 H 
ATOM     65  C   UNL A   1      41.338  27.003  28.025  1.00  0.00    -0.014 A 
ATOM     66  H   UNL A   1      42.214  25.985  29.667  1.00  0.00     0.063 H 
ATOM     67  H   UNL A   1      40.540  27.710  26.207  1.00  0.00     0.063 H 
BRANCH  65  68
ATOM     68  C   UNL A   1      41.328  28.326  28.642  1.00  0.00     0.031 A 
ATOM     69  C   UNL A   1      42.399  29.252  28.179  1.00  0.00     0.074 A 
ATOM     70  C   UNL A   1      40.292  28.767  29.390  1.00  0.00     0.049 A 
ATOM     71  N   UNL A   1      43.339  29.796  28.879  1.00  0.00    -0.248 NA
ATOM     72  C   UNL A   1      42.496  29.534  26.737  1.00  0.00    -0.034 C 
ATOM     73  C   UNL A   1      39.014  28.092  29.660  1.00  0.00    -0.036 A 
ATOM     74  N   UNL A   1      40.111  29.983  29.977  1.00  0.00    -0.354 N 
ATOM     75  C   UNL A   1      44.039  30.631  28.010  1.00  0.00     0.074 A 
ATOM     76  C   UNL A   1      43.582  30.307  26.684  1.00  0.00    -0.034 C 
ATOM     77  H   UNL A   1      41.885  29.217  25.969  1.00  0.00     0.065 H 
ATOM     78  C   UNL A   1      38.118  28.984  30.133  1.00  0.00    -0.036 A 
ATOM     79  H   UNL A   1      38.831  27.087  29.511  1.00  0.00     0.065 H 
ATOM     80  C   UNL A   1      38.806  30.236  30.378  1.00  0.00     0.049 A 
ATOM     81  H   UNL A   1      40.844  30.628  30.105  1.00  0.00     0.167 HD
ATOM     82  C   UNL A   1      44.765  31.685  28.478  1.00  0.00     0.037 A 
ATOM     83  H   UNL A   1      44.032  30.629  25.813  1.00  0.00     0.065 H 
ATOM     84  H   UNL A   1      37.115  28.804  30.292  1.00  0.00     0.065 H 
ATOM     85  C   UNL A   1      38.314  31.401  30.860  1.00  0.00     0.037 A 
ATOM     86  C   UNL A   1      45.015  31.550  29.891  1.00  0.00     0.049 A 
ATOM     87  C   UNL A   1      39.467  32.200  31.332  1.00  0.00     0.074 A 
ATOM     88  C   UNL A   1      45.683  30.641  30.686  1.00  0.00    -0.036 A 
ATOM     89  N   UNL A   1      44.219  32.276  30.740  1.00  0.00    -0.354 N 
ATOM     90  N   UNL A   1      40.211  31.879  32.353  1.00  0.00    -0.248 NA
ATOM     91  C   UNL A   1      40.053  33.160  30.410  1.00  0.00    -0.034 C 
ATOM     92  C   UNL A   1      44.914  30.561  31.886  1.00  0.00    -0.036 A 
ATOM     93  H   UNL A   1      46.552  30.131  30.463  1.00  0.00     0.065 H 
ATOM     94  C   UNL A   1      43.855  31.464  31.779  1.00  0.00     0.049 A 
ATOM     95  H   UNL A   1      43.957  33.218  30.622  1.00  0.00     0.167 HD
ATOM     96  C   UNL A   1      41.495  32.239  31.977  1.00  0.00     0.074 A 
ATOM     97  C   UNL A   1      41.317  33.133  30.837  1.00  0.00    -0.034 C 
ATOM     98  H   UNL A   1      39.618  33.703  29.647  1.00  0.00     0.065 H 
ATOM     99  H   UNL A   1      45.106  29.944  32.690  1.00  0.00     0.065 H 
ATOM    100  C   UNL A   1      42.575  31.550  32.446  1.00  0.00     0.037 A 
ATOM    101  H   UNL A   1      42.081  33.681  30.410  1.00  0.00     0.065 H 
BRANCH  82 102
ATOM    102  C   UNL A   1      44.902  33.021  27.777  1.00  0.00     0.064 A 
ATOM    103  C   UNL A   1      46.168  33.404  27.280  1.00  0.00     0.173 A 
ATOM    104  C   UNL A   1      43.949  34.058  27.859  1.00  0.00     0.173 A 
ATOM    105  F   UNL A   1      47.158  32.507  27.167  1.00  0.00    -0.203 F 
ATOM    106  C   UNL A   1      46.478  34.735  26.989  1.00  0.00     0.198 A 
ATOM    107  C   UNL A   1      44.246  35.377  27.514  1.00  0.00     0.198 A 
ATOM    108  F   UNL A   1      42.732  33.871  28.380  1.00  0.00    -0.203 F 
ATOM    109  F   UNL A   1      47.733  35.070  26.658  1.00  0.00    -0.200 F 
ATOM    110  C   UNL A   1      45.519  35.722  27.116  1.00  0.00     0.200 A 
ATOM    111  F   UNL A   1      43.308  36.322  27.661  1.00  0.00    -0.200 F 
ATOM    112  F   UNL A   1      45.831  37.008  26.906  1.00  0.00    -0.200 F 
ENDBRANCH  82 102
BRANCH  85 113
ATOM    113  C   UNL A   1      36.962  31.979  30.688  1.00  0.00     0.064 A 
ATOM    114  C   UNL A   1      36.042  31.993  31.748  1.00  0.00     0.173 A 
ATOM    115  C   UNL A   1      36.652  32.785  29.576  1.00  0.00     0.173 A 
ATOM    116  F   UNL A   1      36.285  31.281  32.859  1.00  0.00    -0.203 F 
ATOM    117  C   UNL A   1      34.897  32.793  31.715  1.00  0.00     0.198 A 
ATOM    118  C   UNL A   1      35.505  33.580  29.541  1.00  0.00     0.198 A 
ATOM    119  F   UNL A   1      37.504  32.892  28.546  1.00  0.00    -0.203 F 
ATOM    120  F   UNL A   1      34.078  32.834  32.775  1.00  0.00    -0.200 F 
ATOM    121  C   UNL A   1      34.637  33.597  30.616  1.00  0.00     0.200 A 
ATOM    122  F   UNL A   1      35.284  34.380  28.487  1.00  0.00    -0.200 F 
ATOM    123  F   UNL A   1      33.577  34.417  30.612  1.00  0.00    -0.200 F 
ENDBRANCH  85 113
BRANCH 100 124
ATOM    124  C   UNL A   1      42.361  30.633  33.620  1.00  0.00     0.064 A 
ATOM    125  C   UNL A   1      42.387  31.043  34.964  1.00  0.00     0.173 A 
ATOM    126  C   UNL A   1      41.985  29.309  33.359  1.00  0.00     0.173 A 
ATOM    127  F   UNL A   1      42.642  32.315  35.295  1.00  0.00    -0.203 F 
ATOM    128  C   UNL A   1      42.095  30.154  35.997  1.00  0.00     0.198 A 
ATOM    129  C   UNL A   1      41.658  28.434  34.389  1.00  0.00     0.198 A 
ATOM    130  F   UNL A   1      41.892  28.876  32.092  1.00  0.00    -0.203 F 
ATOM    131  F   UNL A   1      42.143  30.566  37.273  1.00  0.00    -0.200 F 
ATOM    132  C   UNL A   1      41.722  28.852  35.708  1.00  0.00     0.200 A 
ATOM    133  F   UNL A   1      41.252  27.190  34.100  1.00  0.00    -0.200 F 
ATOM    134  F   UNL A   1      41.403  28.007  36.699  1.00  0.00    -0.200 F 
ENDBRANCH 100 124
ENDBRANCH  65  68
ENDBRANCH  55  58
ENDBRANCH  51  54
ENDBRANCH  48  51
ENDBRANCH  45  48
ENDBRANCH   1  45
TORSDOF 16
ENDMDL
