MODEL 1
REMARK VINA RESULT:     -12.7      0.000      0.000
REMARK SMILES CC(=O)NS(=O)(=O)c1ccc(-c2ccn(C(F)F)c(=O)c2)cc1C(=O)NCCCCCCNC(=O)c1ccc(-c2c3nc(c(-c4c(F)c(F)c(F)c(F)c4F)c4ccc([nH]4)c(-c4c(F)c(F)c(F)c(F)c4F)c4nc(c(-c5c(F)c(F)c(F)c(F)c5F)c5ccc2[nH]5)C=C4)C=C3)cc1
REMARK SMILES IDX 29 1 28 4 27 7 26 10 24 11 25 12 23 14 8 15 9 16 10 17 22 19
REMARK SMILES IDX 11 20 5 23 6 24 7 25 4 26 2 27 3 28 1 30 12 34 13 35 21 36
REMARK SMILES IDX 14 37 19 39 15 41 20 43 16 44 17 45 18 46 30 48 31 51 32 54
REMARK SMILES IDX 33 57 34 58 35 60 36 61 37 62 98 63 38 64 97 66 39 68 40 71
REMARK SMILES IDX 41 72 91 73 42 74 96 75 90 76 92 77 43 78 95 79 89 81 88 83
REMARK SMILES IDX 44 85 76 88 56 89 75 90 57 91 60 92 74 93 93 94 58 95 59 97
REMARK SMILES IDX 73 99 94 100 61 103 45 105 46 106 54 107 47 108 48 109
REMARK SMILES IDX 52 110 55 111 49 112 50 113 53 114 51 115 77 116 78 117
REMARK SMILES IDX 86 118 79 119 80 120 84 121 87 122 81 123 82 124 85 125
REMARK SMILES IDX 83 126 62 127 63 128 71 129 64 130 65 131 69 132 72 133
REMARK SMILES IDX 66 134 67 135 70 136 68 137
REMARK H PARENT 29 2 29 3 28 5 28 6 27 8 27 9 26 13 9 18 10 21 22 22 4 29 1 31
REMARK H PARENT 1 32 1 33 13 38 21 40 14 42 16 47 30 49 30 50 31 52 31 53
REMARK H PARENT 32 55 32 56 33 59 37 65 98 67 38 69 97 70 96 80 90 82 92 84
REMARK H PARENT 95 86 89 87 57 96 60 98 93 101 58 102 94 104
REMARK Flexibility Score: inf
ROOT
ATOM      1  C   UNL A   1      31.946  29.193  27.037  1.00  0.00    -0.052 C 
ATOM      2  H   UNL A   1      31.621  29.569  27.985  1.00  0.00     0.027 H 
ATOM      3  H   UNL A   1      31.420  28.312  26.732  1.00  0.00     0.027 H 
ENDROOT
BRANCH   1   4
ATOM      4  C   UNL A   1      33.418  28.795  27.160  1.00  0.00    -0.036 C 
ATOM      5  H   UNL A   1      34.015  29.670  27.008  1.00  0.00     0.028 H 
ATOM      6  H   UNL A   1      33.538  28.371  28.135  1.00  0.00     0.028 H 
BRANCH   4   7
ATOM      7  C   UNL A   1      33.875  27.724  26.160  1.00  0.00     0.018 C 
ATOM      8  H   UNL A   1      33.494  27.959  25.188  1.00  0.00     0.049 H 
ATOM      9  H   UNL A   1      34.945  27.699  26.128  1.00  0.00     0.049 H 
BRANCH   7  10
ATOM     10  N   UNL A   1      33.372  26.423  26.578  1.00  0.00    -0.352 N 
ATOM     11  C   UNL A   1      32.571  25.504  25.963  1.00  0.00     0.252 C 
ATOM     12  O   UNL A   1      32.238  24.483  26.561  1.00  0.00    -0.269 OA
ATOM     13  H   UNL A   1      33.666  26.154  27.478  1.00  0.00     0.163 HD
BRANCH  11  14
ATOM     14  C   UNL A   1      32.172  25.621  24.547  1.00  0.00     0.060 A 
ATOM     15  C   UNL A   1      32.758  24.956  23.472  1.00  0.00     0.100 A 
ATOM     16  C   UNL A   1      32.318  25.218  22.163  1.00  0.00    -0.040 A 
ATOM     17  C   UNL A   1      31.384  26.228  21.920  1.00  0.00    -0.053 A 
ATOM     18  H   UNL A   1      32.687  24.661  21.376  1.00  0.00     0.064 H 
ATOM     19  C   UNL A   1      31.229  26.637  24.287  1.00  0.00    -0.040 A 
ATOM     20  C   UNL A   1      30.860  26.978  22.978  1.00  0.00    -0.017 A 
ATOM     21  H   UNL A   1      31.079  26.422  20.953  1.00  0.00     0.063 H 
ATOM     22  H   UNL A   1      30.802  27.142  25.079  1.00  0.00     0.064 H 
BRANCH  15  23
ATOM     23  S   UNL A   1      34.170  23.909  23.658  1.00  0.00     0.264 S 
ATOM     24  O   UNL A   1      35.082  24.608  24.538  1.00  0.00    -0.201 OA
ATOM     25  O   UNL A   1      34.590  23.398  22.377  1.00  0.00    -0.201 OA
BRANCH  23  26
ATOM     26  N   UNL A   1      33.593  22.622  24.526  1.00  0.00    -0.249 N 
ATOM     27  C   UNL A   1      34.304  21.586  25.146  1.00  0.00     0.230 C 
ATOM     28  O   UNL A   1      33.689  20.821  25.878  1.00  0.00    -0.274 OA
ATOM     29  H   UNL A   1      32.614  22.580  24.620  1.00  0.00     0.183 HD
BRANCH  27  30
ATOM     30  C   UNL A   1      35.766  21.411  24.857  1.00  0.00     0.016 C 
ATOM     31  H   UNL A   1      36.205  20.784  25.604  1.00  0.00     0.033 H 
ATOM     32  H   UNL A   1      36.249  22.366  24.863  1.00  0.00     0.033 H 
ATOM     33  H   UNL A   1      35.888  20.957  23.895  1.00  0.00     0.033 H 
ENDBRANCH  27  30
ENDBRANCH  23  26
ENDBRANCH  15  23
BRANCH  20  34
ATOM     34  C   UNL A   1      30.048  28.191  22.721  1.00  0.00    -0.011 A 
ATOM     35  C   UNL A   1      30.585  29.333  21.997  1.00  0.00    -0.038 A 
ATOM     36  C   UNL A   1      28.759  28.226  23.105  1.00  0.00     0.012 A 
ATOM     37  C   UNL A   1      29.814  30.384  21.697  1.00  0.00     0.013 A 
ATOM     38  H   UNL A   1      31.577  29.333  21.712  1.00  0.00     0.064 H 
ATOM     39  C   UNL A   1      27.885  29.390  22.775  1.00  0.00     0.255 A 
ATOM     40  H   UNL A   1      28.367  27.434  23.636  1.00  0.00     0.069 H 
ATOM     41  N   UNL A   1      28.485  30.420  22.071  1.00  0.00    -0.258 N 
ATOM     42  H   UNL A   1      30.217  31.180  21.178  1.00  0.00     0.082 H 
ATOM     43  O   UNL A   1      26.709  29.353  23.127  1.00  0.00    -0.269 OA
BRANCH  41  44
ATOM     44  C   UNL A   1      27.654  31.538  21.701  1.00  0.00     0.321 C 
ATOM     45  F   UNL A   1      28.081  32.677  22.300  1.00  0.00    -0.185 F 
ATOM     46  F   UNL A   1      27.665  31.737  20.361  1.00  0.00    -0.185 F 
ATOM     47  H   UNL A   1      26.661  31.304  22.022  1.00  0.00     0.131 H 
ENDBRANCH  41  44
ENDBRANCH  20  34
ENDBRANCH  11  14
ENDBRANCH   7  10
ENDBRANCH   4   7
ENDBRANCH   1   4
BRANCH   1  48
ATOM     48  C   UNL A   1      31.657  30.259  25.977  1.00  0.00    -0.052 C 
ATOM     49  H   UNL A   1      30.778  29.959  25.446  1.00  0.00     0.027 H 
ATOM     50  H   UNL A   1      32.542  30.311  25.378  1.00  0.00     0.027 H 
BRANCH  48  51
ATOM     51  C   UNL A   1      31.427  31.689  26.492  1.00  0.00    -0.036 C 
ATOM     52  H   UNL A   1      30.750  31.631  27.319  1.00  0.00     0.028 H 
ATOM     53  H   UNL A   1      31.057  32.234  25.648  1.00  0.00     0.028 H 
BRANCH  51  54
ATOM     54  C   UNL A   1      32.663  32.462  26.958  1.00  0.00     0.018 C 
ATOM     55  H   UNL A   1      33.340  32.548  26.135  1.00  0.00     0.049 H 
ATOM     56  H   UNL A   1      33.089  31.917  27.775  1.00  0.00     0.049 H 
BRANCH  54  57
ATOM     57  N   UNL A   1      32.356  33.794  27.445  1.00  0.00    -0.352 N 
ATOM     58  C   UNL A   1      32.981  34.531  28.420  1.00  0.00     0.251 C 
ATOM     59  H   UNL A   1      31.588  34.233  27.013  1.00  0.00     0.163 HD
ATOM     60  O   UNL A   1      32.526  35.623  28.749  1.00  0.00    -0.269 OA
BRANCH  58  61
ATOM     61  C   UNL A   1      34.181  34.010  29.114  1.00  0.00     0.039 A 
ATOM     62  C   UNL A   1      33.992  33.121  30.179  1.00  0.00    -0.049 A 
ATOM     63  C   UNL A   1      35.474  34.420  28.770  1.00  0.00    -0.049 A 
ATOM     64  C   UNL A   1      35.093  32.595  30.859  1.00  0.00    -0.053 A 
ATOM     65  H   UNL A   1      33.036  32.854  30.463  1.00  0.00     0.063 H 
ATOM     66  C   UNL A   1      36.577  33.884  29.444  1.00  0.00    -0.053 A 
ATOM     67  H   UNL A   1      35.614  35.116  28.021  1.00  0.00     0.063 H 
ATOM     68  C   UNL A   1      36.394  32.960  30.483  1.00  0.00    -0.014 A 
ATOM     69  H   UNL A   1      34.949  31.937  31.640  1.00  0.00     0.063 H 
ATOM     70  H   UNL A   1      37.531  34.169  29.173  1.00  0.00     0.063 H 
BRANCH  68  71
ATOM     71  C   UNL A   1      37.567  32.345  31.147  1.00  0.00     0.031 A 
ATOM     72  C   UNL A   1      38.369  31.280  30.461  1.00  0.00     0.074 A 
ATOM     73  C   UNL A   1      37.902  32.739  32.389  1.00  0.00     0.049 A 
ATOM     74  N   UNL A   1      39.367  30.572  30.928  1.00  0.00    -0.248 NA
ATOM     75  C   UNL A   1      38.000  30.966  29.074  1.00  0.00    -0.034 C 
ATOM     76  C   UNL A   1      37.206  33.766  33.164  1.00  0.00    -0.036 A 
ATOM     77  N   UNL A   1      38.911  32.318  33.217  1.00  0.00    -0.354 N 
ATOM     78  C   UNL A   1      39.729  29.710  29.904  1.00  0.00     0.074 A 
ATOM     79  C   UNL A   1      38.857  29.996  28.782  1.00  0.00    -0.034 C 
ATOM     80  H   UNL A   1      37.268  31.388  28.483  1.00  0.00     0.065 H 
ATOM     81  C   UNL A   1      37.812  33.899  34.356  1.00  0.00    -0.036 A 
ATOM     82  H   UNL A   1      36.382  34.302  32.847  1.00  0.00     0.065 H 
ATOM     83  C   UNL A   1      38.926  32.957  34.430  1.00  0.00     0.049 A 
ATOM     84  H   UNL A   1      39.561  31.624  32.964  1.00  0.00     0.167 HD
ATOM     85  C   UNL A   1      40.693  28.760  29.905  1.00  0.00     0.037 A 
ATOM     86  H   UNL A   1      38.898  29.507  27.874  1.00  0.00     0.065 H 
ATOM     87  H   UNL A   1      37.535  34.560  35.099  1.00  0.00     0.065 H 
ATOM     88  C   UNL A   1      39.742  32.796  35.487  1.00  0.00     0.037 A 
ATOM     89  C   UNL A   1      41.575  28.476  31.005  1.00  0.00     0.049 A 
ATOM     90  C   UNL A   1      40.840  31.777  35.440  1.00  0.00     0.074 A 
ATOM     91  C   UNL A   1      42.552  27.500  31.105  1.00  0.00    -0.036 A 
ATOM     92  N   UNL A   1      41.594  29.184  32.197  1.00  0.00    -0.354 N 
ATOM     93  N   UNL A   1      41.140  30.935  34.483  1.00  0.00    -0.248 NA
ATOM     94  C   UNL A   1      41.710  31.683  36.622  1.00  0.00    -0.034 C 
ATOM     95  C   UNL A   1      43.169  27.623  32.356  1.00  0.00    -0.036 A 
ATOM     96  H   UNL A   1      42.784  26.802  30.382  1.00  0.00     0.065 H 
ATOM     97  C   UNL A   1      42.578  28.676  33.032  1.00  0.00     0.049 A 
ATOM     98  H   UNL A   1      40.999  29.937  32.417  1.00  0.00     0.167 HD
ATOM     99  C   UNL A   1      42.223  30.203  34.949  1.00  0.00     0.074 A 
ATOM    100  C   UNL A   1      42.540  30.710  36.268  1.00  0.00    -0.034 C 
ATOM    101  H   UNL A   1      41.682  32.230  37.497  1.00  0.00     0.065 H 
ATOM    102  H   UNL A   1      43.935  27.029  32.713  1.00  0.00     0.065 H 
ATOM    103  C   UNL A   1      42.884  29.194  34.337  1.00  0.00     0.037 A 
ATOM    104  H   UNL A   1      43.312  30.360  36.856  1.00  0.00     0.065 H 
BRANCH  85 105
ATOM    105  C   UNL A   1      40.833  27.932  28.669  1.00  0.00     0.064 A 
ATOM    106  C   UNL A   1      41.698  28.315  27.636  1.00  0.00     0.173 A 
ATOM    107  C   UNL A   1      40.126  26.729  28.534  1.00  0.00     0.173 A 
ATOM    108  F   UNL A   1      42.387  29.462  27.723  1.00  0.00    -0.203 F 
ATOM    109  C   UNL A   1      41.849  27.519  26.505  1.00  0.00     0.198 A 
ATOM    110  C   UNL A   1      40.282  25.934  27.404  1.00  0.00     0.198 A 
ATOM    111  F   UNL A   1      39.283  26.330  29.500  1.00  0.00    -0.203 F 
ATOM    112  F   UNL A   1      42.675  27.903  25.522  1.00  0.00    -0.200 F 
ATOM    113  C   UNL A   1      41.144  26.328  26.391  1.00  0.00     0.200 A 
ATOM    114  F   UNL A   1      39.598  24.787  27.293  1.00  0.00    -0.200 F 
ATOM    115  F   UNL A   1      41.290  25.564  25.301  1.00  0.00    -0.200 F 
ENDBRANCH  85 105
BRANCH  88 116
ATOM    116  C   UNL A   1      39.537  33.626  36.694  1.00  0.00     0.064 A 
ATOM    117  C   UNL A   1      40.114  34.898  36.795  1.00  0.00     0.173 A 
ATOM    118  C   UNL A   1      38.744  33.170  37.755  1.00  0.00     0.173 A 
ATOM    119  F   UNL A   1      40.890  35.361  35.806  1.00  0.00    -0.203 F 
ATOM    120  C   UNL A   1      39.904  35.688  37.922  1.00  0.00     0.198 A 
ATOM    121  C   UNL A   1      38.531  33.964  38.878  1.00  0.00     0.198 A 
ATOM    122  F   UNL A   1      38.179  31.955  37.695  1.00  0.00    -0.203 F 
ATOM    123  F   UNL A   1      40.473  36.899  38.005  1.00  0.00    -0.200 F 
ATOM    124  C   UNL A   1      39.111  35.221  38.961  1.00  0.00     0.200 A 
ATOM    125  F   UNL A   1      37.766  33.511  39.881  1.00  0.00    -0.200 F 
ATOM    126  F   UNL A   1      38.909  35.983  40.045  1.00  0.00    -0.200 F 
ENDBRANCH  88 116
BRANCH 103 127
ATOM    127  C   UNL A   1      44.011  28.567  35.093  1.00  0.00     0.064 A 
ATOM    128  C   UNL A   1      43.782  27.483  35.951  1.00  0.00     0.173 A 
ATOM    129  C   UNL A   1      45.323  29.033  34.942  1.00  0.00     0.173 A 
ATOM    130  F   UNL A   1      42.539  27.016  36.132  1.00  0.00    -0.203 F 
ATOM    131  C   UNL A   1      44.836  26.886  36.638  1.00  0.00     0.198 A 
ATOM    132  C   UNL A   1      46.374  28.432  35.629  1.00  0.00     0.198 A 
ATOM    133  F   UNL A   1      45.581  30.075  34.139  1.00  0.00    -0.203 F 
ATOM    134  F   UNL A   1      44.598  25.858  37.464  1.00  0.00    -0.200 F 
ATOM    135  C   UNL A   1      46.130  27.360  36.475  1.00  0.00     0.200 A 
ATOM    136  F   UNL A   1      47.623  28.895  35.480  1.00  0.00    -0.200 F 
ATOM    137  F   UNL A   1      47.141  26.788  37.142  1.00  0.00    -0.200 F 
ENDBRANCH 103 127
ENDBRANCH  68  71
ENDBRANCH  58  61
ENDBRANCH  54  57
ENDBRANCH  51  54
ENDBRANCH  48  51
ENDBRANCH   1  48
TORSDOF 18
ENDMDL
MODEL 2
REMARK VINA RESULT:     -12.7      5.351     11.257
REMARK SMILES CC(=O)NS(=O)(=O)c1ccc(-c2ccn(C(F)F)c(=O)c2)cc1C(=O)NCCCCCCNC(=O)c1ccc(-c2c3nc(c(-c4c(F)c(F)c(F)c(F)c4F)c4ccc([nH]4)c(-c4c(F)c(F)c(F)c(F)c4F)c4nc(c(-c5c(F)c(F)c(F)c(F)c5F)c5ccc2[nH]5)C=C4)C=C3)cc1
REMARK SMILES IDX 29 1 28 4 27 7 26 10 24 11 25 12 23 14 8 15 9 16 10 17 22 19
REMARK SMILES IDX 11 20 5 23 6 24 7 25 4 26 2 27 3 28 1 30 12 34 13 35 21 36
REMARK SMILES IDX 14 37 19 39 15 41 20 43 16 44 17 45 18 46 30 48 31 51 32 54
REMARK SMILES IDX 33 57 34 58 35 60 36 61 37 62 98 63 38 64 97 66 39 68 40 71
REMARK SMILES IDX 41 72 91 73 42 74 96 75 90 76 92 77 43 78 95 79 89 81 88 83
REMARK SMILES IDX 44 85 76 88 56 89 75 90 57 91 60 92 74 93 93 94 58 95 59 97
REMARK SMILES IDX 73 99 94 100 61 103 45 105 46 106 54 107 47 108 48 109
REMARK SMILES IDX 52 110 55 111 49 112 50 113 53 114 51 115 77 116 78 117
REMARK SMILES IDX 86 118 79 119 80 120 84 121 87 122 81 123 82 124 85 125
REMARK SMILES IDX 83 126 62 127 63 128 71 129 64 130 65 131 69 132 72 133
REMARK SMILES IDX 66 134 67 135 70 136 68 137
REMARK H PARENT 29 2 29 3 28 5 28 6 27 8 27 9 26 13 9 18 10 21 22 22 4 29 1 31
REMARK H PARENT 1 32 1 33 13 38 21 40 14 42 16 47 30 49 30 50 31 52 31 53
REMARK H PARENT 32 55 32 56 33 59 37 65 98 67 38 69 97 70 96 80 90 82 92 84
REMARK H PARENT 95 86 89 87 57 96 60 98 93 101 58 102 94 104
REMARK Flexibility Score: inf
ROOT
ATOM      1  C   UNL A   1      36.475  21.887  25.716  1.00  0.00    -0.052 C 
ATOM      2  H   UNL A   1      35.607  21.977  26.334  1.00  0.00     0.027 H 
ATOM      3  H   UNL A   1      37.390  21.916  26.270  1.00  0.00     0.027 H 
ENDROOT
BRANCH   1   4
ATOM      4  C   UNL A   1      36.509  23.085  24.764  1.00  0.00    -0.036 C 
ATOM      5  H   UNL A   1      37.525  23.403  24.663  1.00  0.00     0.028 H 
ATOM      6  H   UNL A   1      36.081  22.753  23.842  1.00  0.00     0.028 H 
BRANCH   4   7
ATOM      7  C   UNL A   1      35.674  24.288  25.225  1.00  0.00     0.018 C 
ATOM      8  H   UNL A   1      34.964  23.969  25.960  1.00  0.00     0.049 H 
ATOM      9  H   UNL A   1      36.319  25.029  25.650  1.00  0.00     0.049 H 
BRANCH   7  10
ATOM     10  N   UNL A   1      34.970  24.856  24.083  1.00  0.00    -0.352 N 
ATOM     11  C   UNL A   1      33.735  24.617  23.551  1.00  0.00     0.252 C 
ATOM     12  O   UNL A   1      33.385  25.203  22.528  1.00  0.00    -0.269 OA
ATOM     13  H   UNL A   1      35.483  25.545  23.604  1.00  0.00     0.163 HD
BRANCH  11  14
ATOM     14  C   UNL A   1      32.735  23.763  24.219  1.00  0.00     0.060 A 
ATOM     15  C   UNL A   1      31.764  24.191  25.124  1.00  0.00     0.100 A 
ATOM     16  C   UNL A   1      30.918  23.251  25.738  1.00  0.00    -0.040 A 
ATOM     17  C   UNL A   1      31.122  21.883  25.544  1.00  0.00    -0.053 A 
ATOM     18  H   UNL A   1      30.141  23.574  26.336  1.00  0.00     0.064 H 
ATOM     19  C   UNL A   1      32.928  22.379  24.032  1.00  0.00    -0.040 A 
ATOM     20  C   UNL A   1      32.158  21.430  24.720  1.00  0.00    -0.017 A 
ATOM     21  H   UNL A   1      30.503  21.201  26.012  1.00  0.00     0.063 H 
ATOM     22  H   UNL A   1      33.654  22.057  23.374  1.00  0.00     0.064 H 
BRANCH  15  23
ATOM     23  S   UNL A   1      31.654  25.865  25.679  1.00  0.00     0.264 S 
ATOM     24  O   UNL A   1      32.977  26.228  26.140  1.00  0.00    -0.201 OA
ATOM     25  O   UNL A   1      30.485  26.047  26.502  1.00  0.00    -0.201 OA
BRANCH  23  26
ATOM     26  N   UNL A   1      31.403  26.726  24.286  1.00  0.00    -0.249 N 
ATOM     27  C   UNL A   1      31.454  28.110  24.083  1.00  0.00     0.230 C 
ATOM     28  O   UNL A   1      31.396  28.528  22.934  1.00  0.00    -0.274 OA
ATOM     29  H   UNL A   1      31.189  26.188  23.490  1.00  0.00     0.183 HD
BRANCH  27  30
ATOM     30  C   UNL A   1      31.520  29.033  25.265  1.00  0.00     0.016 C 
ATOM     31  H   UNL A   1      31.734  28.467  26.147  1.00  0.00     0.033 H 
ATOM     32  H   UNL A   1      30.581  29.533  25.381  1.00  0.00     0.033 H 
ATOM     33  H   UNL A   1      32.293  29.757  25.109  1.00  0.00     0.033 H 
ENDBRANCH  27  30
ENDBRANCH  23  26
ENDBRANCH  15  23
BRANCH  20  34
ATOM     34  C   UNL A   1      32.528  19.996  24.681  1.00  0.00    -0.011 A 
ATOM     35  C   UNL A   1      32.807  19.244  25.895  1.00  0.00    -0.038 A 
ATOM     36  C   UNL A   1      32.546  19.341  23.506  1.00  0.00     0.012 A 
ATOM     37  C   UNL A   1      33.054  17.931  25.851  1.00  0.00     0.013 A 
ATOM     38  H   UNL A   1      32.817  19.733  26.804  1.00  0.00     0.064 H 
ATOM     39  C   UNL A   1      32.816  17.875  23.441  1.00  0.00     0.255 A 
ATOM     40  H   UNL A   1      32.370  19.862  22.634  1.00  0.00     0.069 H 
ATOM     41  N   UNL A   1      33.056  17.248  24.652  1.00  0.00    -0.258 N 
ATOM     42  H   UNL A   1      33.244  17.419  26.727  1.00  0.00     0.082 H 
ATOM     43  O   UNL A   1      32.793  17.327  22.342  1.00  0.00    -0.269 OA
BRANCH  41  44
ATOM     44  C   UNL A   1      33.278  15.824  24.623  1.00  0.00     0.321 C 
ATOM     45  F   UNL A   1      34.355  15.487  25.375  1.00  0.00    -0.185 F 
ATOM     46  F   UNL A   1      32.204  15.150  25.100  1.00  0.00    -0.185 F 
ATOM     47  H   UNL A   1      33.445  15.557  23.601  1.00  0.00     0.131 H 
ENDBRANCH  41  44
ENDBRANCH  20  34
ENDBRANCH  11  14
ENDBRANCH   7  10
ENDBRANCH   4   7
ENDBRANCH   1   4
BRANCH   1  48
ATOM     48  C   UNL A   1      36.429  20.522  25.026  1.00  0.00    -0.052 C 
ATOM     49  H   UNL A   1      35.961  20.654  24.073  1.00  0.00     0.027 H 
ATOM     50  H   UNL A   1      35.896  19.882  25.697  1.00  0.00     0.027 H 
BRANCH  48  51
ATOM     51  C   UNL A   1      37.781  19.829  24.790  1.00  0.00    -0.036 C 
ATOM     52  H   UNL A   1      38.095  20.061  23.794  1.00  0.00     0.028 H 
ATOM     53  H   UNL A   1      37.599  18.791  24.972  1.00  0.00     0.028 H 
BRANCH  51  54
ATOM     54  C   UNL A   1      38.925  20.208  25.735  1.00  0.00     0.018 C 
ATOM     55  H   UNL A   1      38.525  20.333  26.719  1.00  0.00     0.049 H 
ATOM     56  H   UNL A   1      39.361  21.110  25.359  1.00  0.00     0.049 H 
BRANCH  54  57
ATOM     57  N   UNL A   1      39.978  19.211  25.788  1.00  0.00    -0.352 N 
ATOM     58  C   UNL A   1      41.313  19.369  26.065  1.00  0.00     0.251 C 
ATOM     59  H   UNL A   1      39.693  18.288  25.600  1.00  0.00     0.163 HD
ATOM     60  O   UNL A   1      42.072  18.407  25.990  1.00  0.00    -0.269 OA
BRANCH  58  61
ATOM     61  C   UNL A   1      41.865  20.698  26.418  1.00  0.00     0.039 A 
ATOM     62  C   UNL A   1      42.144  21.592  25.377  1.00  0.00    -0.049 A 
ATOM     63  C   UNL A   1      42.157  21.053  27.739  1.00  0.00    -0.049 A 
ATOM     64  C   UNL A   1      42.657  22.860  25.660  1.00  0.00    -0.053 A 
ATOM     65  H   UNL A   1      41.971  21.312  24.399  1.00  0.00     0.063 H 
ATOM     66  C   UNL A   1      42.659  22.328  28.023  1.00  0.00    -0.053 A 
ATOM     67  H   UNL A   1      42.002  20.377  28.503  1.00  0.00     0.063 H 
ATOM     68  C   UNL A   1      42.900  23.242  26.987  1.00  0.00    -0.014 A 
ATOM     69  H   UNL A   1      42.857  23.517  24.890  1.00  0.00     0.063 H 
ATOM     70  H   UNL A   1      42.851  22.597  29.000  1.00  0.00     0.063 H 
BRANCH  68  71
ATOM     71  C   UNL A   1      43.368  24.613  27.299  1.00  0.00     0.031 A 
ATOM     72  C   UNL A   1      42.439  25.625  27.901  1.00  0.00     0.074 A 
ATOM     73  C   UNL A   1      44.639  24.954  27.020  1.00  0.00     0.049 A 
ATOM     74  N   UNL A   1      42.654  26.891  28.153  1.00  0.00    -0.248 NA
ATOM     75  C   UNL A   1      41.094  25.155  28.260  1.00  0.00    -0.034 C 
ATOM     76  C   UNL A   1      45.643  24.064  26.438  1.00  0.00    -0.036 A 
ATOM     77  N   UNL A   1      45.301  26.144  27.188  1.00  0.00    -0.354 N 
ATOM     78  C   UNL A   1      41.465  27.378  28.676  1.00  0.00     0.074 A 
ATOM     79  C   UNL A   1      40.537  26.267  28.724  1.00  0.00    -0.034 C 
ATOM     80  H   UNL A   1      40.690  24.210  28.175  1.00  0.00     0.065 H 
ATOM     81  C   UNL A   1      46.797  24.738  26.300  1.00  0.00    -0.036 A 
ATOM     82  H   UNL A   1      45.490  23.077  26.175  1.00  0.00     0.065 H 
ATOM     83  C   UNL A   1      46.606  26.108  26.770  1.00  0.00     0.049 A 
ATOM     84  H   UNL A   1      44.878  26.946  27.572  1.00  0.00     0.167 HD
ATOM     85  C   UNL A   1      41.173  28.641  29.069  1.00  0.00     0.037 A 
ATOM     86  H   UNL A   1      39.568  26.332  29.072  1.00  0.00     0.065 H 
ATOM     87  H   UNL A   1      47.676  24.351  25.922  1.00  0.00     0.065 H 
ATOM     88  C   UNL A   1      47.542  27.074  26.759  1.00  0.00     0.037 A 
ATOM     89  C   UNL A   1      42.089  29.749  29.041  1.00  0.00     0.049 A 
ATOM     90  C   UNL A   1      47.209  28.448  27.255  1.00  0.00     0.074 A 
ATOM     91  C   UNL A   1      41.860  31.072  29.380  1.00  0.00    -0.036 A 
ATOM     92  N   UNL A   1      43.419  29.658  28.662  1.00  0.00    -0.354 N 
ATOM     93  N   UNL A   1      46.067  28.907  27.702  1.00  0.00    -0.248 NA
ATOM     94  C   UNL A   1      48.295  29.440  27.242  1.00  0.00    -0.034 C 
ATOM     95  C   UNL A   1      43.057  31.781  29.215  1.00  0.00    -0.036 A 
ATOM     96  H   UNL A   1      40.962  31.467  29.700  1.00  0.00     0.065 H 
ATOM     97  C   UNL A   1      44.028  30.898  28.775  1.00  0.00     0.049 A 
ATOM     98  H   UNL A   1      43.865  28.835  28.359  1.00  0.00     0.167 HD
ATOM     99  C   UNL A   1      46.290  30.240  28.011  1.00  0.00     0.074 A 
ATOM    100  C   UNL A   1      47.681  30.515  27.718  1.00  0.00    -0.034 C 
ATOM    101  H   UNL A   1      49.276  29.328  26.941  1.00  0.00     0.065 H 
ATOM    102  H   UNL A   1      43.191  32.789  29.391  1.00  0.00     0.065 H 
ATOM    103  C   UNL A   1      45.412  31.155  28.485  1.00  0.00     0.037 A 
ATOM    104  H   UNL A   1      48.137  31.430  27.860  1.00  0.00     0.065 H 
BRANCH  85 105
ATOM    105  C   UNL A   1      39.782  28.898  29.550  1.00  0.00     0.064 A 
ATOM    106  C   UNL A   1      38.771  29.290  28.665  1.00  0.00     0.173 A 
ATOM    107  C   UNL A   1      39.452  28.713  30.900  1.00  0.00     0.173 A 
ATOM    108  F   UNL A   1      39.047  29.484  27.367  1.00  0.00    -0.203 F 
ATOM    109  C   UNL A   1      37.470  29.490  29.117  1.00  0.00     0.198 A 
ATOM    110  C   UNL A   1      38.150  28.911  31.348  1.00  0.00     0.198 A 
ATOM    111  F   UNL A   1      40.394  28.343  31.781  1.00  0.00    -0.203 F 
ATOM    112  F   UNL A   1      36.515  29.873  28.258  1.00  0.00    -0.200 F 
ATOM    113  C   UNL A   1      37.160  29.298  30.456  1.00  0.00     0.200 A 
ATOM    114  F   UNL A   1      37.852  28.730  32.641  1.00  0.00    -0.200 F 
ATOM    115  F   UNL A   1      35.907  29.493  30.889  1.00  0.00    -0.200 F 
ENDBRANCH  85 105
BRANCH  88 116
ATOM    116  C   UNL A   1      48.894  26.766  26.245  1.00  0.00     0.064 A 
ATOM    117  C   UNL A   1      49.868  26.206  27.081  1.00  0.00     0.173 A 
ATOM    118  C   UNL A   1      49.227  27.007  24.906  1.00  0.00     0.173 A 
ATOM    119  F   UNL A   1      49.590  25.975  28.371  1.00  0.00    -0.203 F 
ATOM    120  C   UNL A   1      51.135  25.897  26.592  1.00  0.00     0.198 A 
ATOM    121  C   UNL A   1      50.493  26.693  24.418  1.00  0.00     0.198 A 
ATOM    122  F   UNL A   1      48.322  27.547  24.077  1.00  0.00    -0.203 F 
ATOM    123  F   UNL A   1      52.057  25.371  27.410  1.00  0.00    -0.200 F 
ATOM    124  C   UNL A   1      51.444  26.138  25.261  1.00  0.00     0.200 A 
ATOM    125  F   UNL A   1      50.790  26.928  23.133  1.00  0.00    -0.200 F 
ATOM    126  F   UNL A   1      52.664  25.840  24.791  1.00  0.00    -0.200 F 
ENDBRANCH  88 116
BRANCH 103 127
ATOM    127  C   UNL A   1      45.931  32.538  28.708  1.00  0.00     0.064 A 
ATOM    128  C   UNL A   1      46.485  32.905  29.942  1.00  0.00     0.173 A 
ATOM    129  C   UNL A   1      45.899  33.491  27.682  1.00  0.00     0.173 A 
ATOM    130  F   UNL A   1      46.522  32.026  30.953  1.00  0.00    -0.203 F 
ATOM    131  C   UNL A   1      46.988  34.188  30.142  1.00  0.00     0.198 A 
ATOM    132  C   UNL A   1      46.405  34.772  27.885  1.00  0.00     0.198 A 
ATOM    133  F   UNL A   1      45.367  33.182  26.490  1.00  0.00    -0.203 F 
ATOM    134  F   UNL A   1      47.502  34.526  31.332  1.00  0.00    -0.200 F 
ATOM    135  C   UNL A   1      46.948  35.119  29.114  1.00  0.00     0.200 A 
ATOM    136  F   UNL A   1      46.358  35.675  26.896  1.00  0.00    -0.200 F 
ATOM    137  F   UNL A   1      47.427  36.355  29.310  1.00  0.00    -0.200 F 
ENDBRANCH 103 127
ENDBRANCH  68  71
ENDBRANCH  58  61
ENDBRANCH  54  57
ENDBRANCH  51  54
ENDBRANCH  48  51
ENDBRANCH   1  48
TORSDOF 18
ENDMDL
MODEL 3
REMARK VINA RESULT:     -12.6      0.208      1.870
REMARK SMILES CC(=O)NS(=O)(=O)c1ccc(-c2ccn(C(F)F)c(=O)c2)cc1C(=O)NCCCCCCNC(=O)c1ccc(-c2c3nc(c(-c4c(F)c(F)c(F)c(F)c4F)c4ccc([nH]4)c(-c4c(F)c(F)c(F)c(F)c4F)c4nc(c(-c5c(F)c(F)c(F)c(F)c5F)c5ccc2[nH]5)C=C4)C=C3)cc1
REMARK SMILES IDX 29 1 28 4 27 7 26 10 24 11 25 12 23 14 8 15 9 16 10 17 22 19
REMARK SMILES IDX 11 20 5 23 6 24 7 25 4 26 2 27 3 28 1 30 12 34 13 35 21 36
REMARK SMILES IDX 14 37 19 39 15 41 20 43 16 44 17 45 18 46 30 48 31 51 32 54
REMARK SMILES IDX 33 57 34 58 35 60 36 61 37 62 98 63 38 64 97 66 39 68 40 71
REMARK SMILES IDX 41 72 91 73 42 74 96 75 90 76 92 77 43 78 95 79 89 81 88 83
REMARK SMILES IDX 44 85 76 88 56 89 75 90 57 91 60 92 74 93 93 94 58 95 59 97
REMARK SMILES IDX 73 99 94 100 61 103 45 105 46 106 54 107 47 108 48 109
REMARK SMILES IDX 52 110 55 111 49 112 50 113 53 114 51 115 77 116 78 117
REMARK SMILES IDX 86 118 79 119 80 120 84 121 87 122 81 123 82 124 85 125
REMARK SMILES IDX 83 126 62 127 63 128 71 129 64 130 65 131 69 132 72 133
REMARK SMILES IDX 66 134 67 135 70 136 68 137
REMARK H PARENT 29 2 29 3 28 5 28 6 27 8 27 9 26 13 9 18 10 21 22 22 4 29 1 31
REMARK H PARENT 1 32 1 33 13 38 21 40 14 42 16 47 30 49 30 50 31 52 31 53
REMARK H PARENT 32 55 32 56 33 59 37 65 98 67 38 69 97 70 96 80 90 82 92 84
REMARK H PARENT 95 86 89 87 57 96 60 98 93 101 58 102 94 104
REMARK Flexibility Score: inf
ROOT
ATOM      1  C   UNL A   1      31.964  28.964  26.930  1.00  0.00    -0.052 C 
ATOM      2  H   UNL A   1      31.585  29.286  27.878  1.00  0.00     0.027 H 
ATOM      3  H   UNL A   1      31.494  28.072  26.572  1.00  0.00     0.027 H 
ENDROOT
BRANCH   1   4
ATOM      4  C   UNL A   1      33.448  28.632  27.097  1.00  0.00    -0.036 C 
ATOM      5  H   UNL A   1      34.012  29.520  26.906  1.00  0.00     0.028 H 
ATOM      6  H   UNL A   1      33.568  28.266  28.095  1.00  0.00     0.028 H 
BRANCH   4   7
ATOM      7  C   UNL A   1      33.962  27.528  26.163  1.00  0.00     0.018 C 
ATOM      8  H   UNL A   1      33.677  27.751  25.156  1.00  0.00     0.049 H 
ATOM      9  H   UNL A   1      35.030  27.475  26.228  1.00  0.00     0.049 H 
BRANCH   7  10
ATOM     10  N   UNL A   1      33.388  26.250  26.558  1.00  0.00    -0.352 N 
ATOM     11  C   UNL A   1      32.547  25.381  25.923  1.00  0.00     0.252 C 
ATOM     12  O   UNL A   1      32.155  24.371  26.504  1.00  0.00    -0.269 OA
ATOM     13  H   UNL A   1      33.658  25.955  27.458  1.00  0.00     0.163 HD
BRANCH  11  14
ATOM     14  C   UNL A   1      32.171  25.537  24.505  1.00  0.00     0.060 A 
ATOM     15  C   UNL A   1      32.767  24.893  23.422  1.00  0.00     0.100 A 
ATOM     16  C   UNL A   1      32.349  25.191  22.114  1.00  0.00    -0.040 A 
ATOM     17  C   UNL A   1      31.427  26.215  21.882  1.00  0.00    -0.053 A 
ATOM     18  H   UNL A   1      32.724  24.650  21.319  1.00  0.00     0.064 H 
ATOM     19  C   UNL A   1      31.240  26.567  24.256  1.00  0.00    -0.040 A 
ATOM     20  C   UNL A   1      30.894  26.944  22.950  1.00  0.00    -0.017 A 
ATOM     21  H   UNL A   1      31.139  26.435  20.915  1.00  0.00     0.063 H 
ATOM     22  H   UNL A   1      30.806  27.056  25.053  1.00  0.00     0.064 H 
BRANCH  15  23
ATOM     23  S   UNL A   1      34.167  23.829  23.603  1.00  0.00     0.264 S 
ATOM     24  O   UNL A   1      35.083  24.510  24.493  1.00  0.00    -0.201 OA
ATOM     25  O   UNL A   1      34.586  23.326  22.319  1.00  0.00    -0.201 OA
BRANCH  23  26
ATOM     26  N   UNL A   1      33.573  22.540  24.458  1.00  0.00    -0.249 N 
ATOM     27  C   UNL A   1      34.270  21.490  25.068  1.00  0.00     0.230 C 
ATOM     28  O   UNL A   1      33.645  20.725  25.791  1.00  0.00    -0.274 OA
ATOM     29  H   UNL A   1      32.593  22.509  24.549  1.00  0.00     0.183 HD
BRANCH  27  30
ATOM     30  C   UNL A   1      35.731  21.300  24.780  1.00  0.00     0.016 C 
ATOM     31  H   UNL A   1      36.217  22.253  24.763  1.00  0.00     0.033 H 
ATOM     32  H   UNL A   1      35.849  20.822  23.830  1.00  0.00     0.033 H 
ATOM     33  H   UNL A   1      36.168  20.691  25.543  1.00  0.00     0.033 H 
ENDBRANCH  27  30
ENDBRANCH  23  26
ENDBRANCH  15  23
BRANCH  20  34
ATOM     34  C   UNL A   1      30.096  28.170  22.712  1.00  0.00    -0.011 A 
ATOM     35  C   UNL A   1      30.645  29.314  22.000  1.00  0.00    -0.038 A 
ATOM     36  C   UNL A   1      28.809  28.216  23.100  1.00  0.00     0.012 A 
ATOM     37  C   UNL A   1      29.886  30.378  21.715  1.00  0.00     0.013 A 
ATOM     38  H   UNL A   1      31.636  29.305  21.711  1.00  0.00     0.064 H 
ATOM     39  C   UNL A   1      27.948  29.395  22.788  1.00  0.00     0.255 A 
ATOM     40  H   UNL A   1      28.410  27.423  23.623  1.00  0.00     0.069 H 
ATOM     41  N   UNL A   1      28.560  30.426  22.094  1.00  0.00    -0.258 N 
ATOM     42  H   UNL A   1      30.298  31.175  21.205  1.00  0.00     0.082 H 
ATOM     43  O   UNL A   1      26.774  29.369  23.144  1.00  0.00    -0.269 OA
BRANCH  41  44
ATOM     44  C   UNL A   1      27.741  31.558  21.742  1.00  0.00     0.321 C 
ATOM     45  F   UNL A   1      27.636  32.421  22.782  1.00  0.00    -0.185 F 
ATOM     46  F   UNL A   1      28.261  32.231  20.687  1.00  0.00    -0.185 F 
ATOM     47  H   UNL A   1      26.776  31.175  21.483  1.00  0.00     0.131 H 
ENDBRANCH  41  44
ENDBRANCH  20  34
ENDBRANCH  11  14
ENDBRANCH   7  10
ENDBRANCH   4   7
ENDBRANCH   1   4
BRANCH   1  48
ATOM     48  C   UNL A   1      31.662  30.056  25.901  1.00  0.00    -0.052 C 
ATOM     49  H   UNL A   1      30.783  29.765  25.365  1.00  0.00     0.027 H 
ATOM     50  H   UNL A   1      32.544  30.131  25.301  1.00  0.00     0.027 H 
BRANCH  48  51
ATOM     51  C   UNL A   1      31.424  31.470  26.456  1.00  0.00    -0.036 C 
ATOM     52  H   UNL A   1      30.782  31.381  27.307  1.00  0.00     0.028 H 
ATOM     53  H   UNL A   1      31.010  32.024  25.639  1.00  0.00     0.028 H 
BRANCH  51  54
ATOM     54  C   UNL A   1      32.662  32.259  26.890  1.00  0.00     0.018 C 
ATOM     55  H   UNL A   1      33.327  32.333  26.056  1.00  0.00     0.049 H 
ATOM     56  H   UNL A   1      33.102  31.732  27.711  1.00  0.00     0.049 H 
BRANCH  54  57
ATOM     57  N   UNL A   1      32.354  33.598  27.355  1.00  0.00    -0.352 N 
ATOM     58  C   UNL A   1      32.984  34.355  28.311  1.00  0.00     0.251 C 
ATOM     59  H   UNL A   1      31.581  34.027  26.921  1.00  0.00     0.163 HD
ATOM     60  O   UNL A   1      32.528  35.451  28.625  1.00  0.00    -0.269 OA
BRANCH  58  61
ATOM     61  C   UNL A   1      34.192  33.851  29.005  1.00  0.00     0.039 A 
ATOM     62  C   UNL A   1      34.022  32.884  30.004  1.00  0.00    -0.049 A 
ATOM     63  C   UNL A   1      35.470  34.348  28.727  1.00  0.00    -0.049 A 
ATOM     64  C   UNL A   1      35.131  32.371  30.681  1.00  0.00    -0.053 A 
ATOM     65  H   UNL A   1      33.074  32.550  30.241  1.00  0.00     0.063 H 
ATOM     66  C   UNL A   1      36.581  33.825  29.397  1.00  0.00    -0.053 A 
ATOM     67  H   UNL A   1      35.592  35.099  28.030  1.00  0.00     0.063 H 
ATOM     68  C   UNL A   1      36.420  32.826  30.368  1.00  0.00    -0.014 A 
ATOM     69  H   UNL A   1      35.002  31.656  31.413  1.00  0.00     0.063 H 
ATOM     70  H   UNL A   1      37.525  34.177  29.173  1.00  0.00     0.063 H 
BRANCH  68  71
ATOM     71  C   UNL A   1      37.607  32.229  31.024  1.00  0.00     0.031 A 
ATOM     72  C   UNL A   1      38.417  31.172  30.336  1.00  0.00     0.074 A 
ATOM     73  C   UNL A   1      37.946  32.632  32.262  1.00  0.00     0.049 A 
ATOM     74  N   UNL A   1      39.428  30.479  30.798  1.00  0.00    -0.248 NA
ATOM     75  C   UNL A   1      38.041  30.848  28.953  1.00  0.00    -0.034 C 
ATOM     76  C   UNL A   1      37.243  33.653  33.039  1.00  0.00    -0.036 A 
ATOM     77  N   UNL A   1      38.968  32.228  33.084  1.00  0.00    -0.354 N 
ATOM     78  C   UNL A   1      39.793  29.618  29.774  1.00  0.00     0.074 A 
ATOM     79  C   UNL A   1      38.908  29.887  28.658  1.00  0.00    -0.034 C 
ATOM     80  H   UNL A   1      37.299  31.258  28.366  1.00  0.00     0.065 H 
ATOM     81  C   UNL A   1      37.858  33.799  34.226  1.00  0.00    -0.036 A 
ATOM     82  H   UNL A   1      36.411  34.177  32.727  1.00  0.00     0.065 H 
ATOM     83  C   UNL A   1      38.984  32.871  34.294  1.00  0.00     0.049 A 
ATOM     84  H   UNL A   1      39.625  31.541  32.828  1.00  0.00     0.167 HD
ATOM     85  C   UNL A   1      40.769  28.680  29.771  1.00  0.00     0.037 A 
ATOM     86  H   UNL A   1      38.948  29.396  27.752  1.00  0.00     0.065 H 
ATOM     87  H   UNL A   1      37.578  34.458  34.968  1.00  0.00     0.065 H 
ATOM     88  C   UNL A   1      39.811  32.725  35.345  1.00  0.00     0.037 A 
ATOM     89  C   UNL A   1      41.663  28.412  30.865  1.00  0.00     0.049 A 
ATOM     90  C   UNL A   1      40.921  31.720  35.293  1.00  0.00     0.074 A 
ATOM     91  C   UNL A   1      42.653  27.449  30.960  1.00  0.00    -0.036 A 
ATOM     92  N   UNL A   1      41.683  29.125  32.054  1.00  0.00    -0.354 N 
ATOM     93  N   UNL A   1      41.225  30.878  34.337  1.00  0.00    -0.248 NA
ATOM     94  C   UNL A   1      41.802  31.642  36.468  1.00  0.00    -0.034 C 
ATOM     95  C   UNL A   1      43.279  27.584  32.206  1.00  0.00    -0.036 A 
ATOM     96  H   UNL A   1      42.889  26.751  30.238  1.00  0.00     0.065 H 
ATOM     97  C   UNL A   1      42.679  28.633  32.882  1.00  0.00     0.049 A 
ATOM     98  H   UNL A   1      41.080  29.870  32.276  1.00  0.00     0.167 HD
ATOM     99  C   UNL A   1      42.320  30.163  34.796  1.00  0.00     0.074 A 
ATOM    100  C   UNL A   1      42.641  30.679  36.111  1.00  0.00    -0.034 C 
ATOM    101  H   UNL A   1      41.774  32.192  37.341  1.00  0.00     0.065 H 
ATOM    102  H   UNL A   1      44.055  27.002  32.559  1.00  0.00     0.065 H 
ATOM    103  C   UNL A   1      42.990  29.159  34.183  1.00  0.00     0.037 A 
ATOM    104  H   UNL A   1      43.422  30.341  36.694  1.00  0.00     0.065 H 
BRANCH  85 105
ATOM    105  C   UNL A   1      40.910  27.850  28.537  1.00  0.00     0.064 A 
ATOM    106  C   UNL A   1      40.185  26.662  28.377  1.00  0.00     0.173 A 
ATOM    107  C   UNL A   1      41.747  28.265  27.492  1.00  0.00     0.173 A 
ATOM    108  F   UNL A   1      39.380  26.226  29.356  1.00  0.00    -0.203 F 
ATOM    109  C   UNL A   1      40.295  25.915  27.208  1.00  0.00     0.198 A 
ATOM    110  C   UNL A   1      41.852  27.518  26.323  1.00  0.00     0.198 A 
ATOM    111  F   UNL A   1      42.462  29.395  27.609  1.00  0.00    -0.203 F 
ATOM    112  F   UNL A   1      39.601  24.777  27.074  1.00  0.00    -0.200 F 
ATOM    113  C   UNL A   1      41.125  26.345  26.181  1.00  0.00     0.200 A 
ATOM    114  F   UNL A   1      42.656  27.931  25.334  1.00  0.00    -0.200 F 
ATOM    115  F   UNL A   1      41.230  25.623  25.057  1.00  0.00    -0.200 F 
ENDBRANCH  85 105
BRANCH  88 116
ATOM    116  C   UNL A   1      39.604  33.557  36.550  1.00  0.00     0.064 A 
ATOM    117  C   UNL A   1      38.770  33.122  37.587  1.00  0.00     0.173 A 
ATOM    118  C   UNL A   1      40.255  34.789  36.694  1.00  0.00     0.173 A 
ATOM    119  F   UNL A   1      38.120  31.955  37.478  1.00  0.00    -0.203 F 
ATOM    120  C   UNL A   1      38.592  33.895  38.731  1.00  0.00     0.198 A 
ATOM    121  C   UNL A   1      40.079  35.559  37.841  1.00  0.00     0.198 A 
ATOM    122  F   UNL A   1      41.058  35.240  35.720  1.00  0.00    -0.203 F 
ATOM    123  F   UNL A   1      37.780  33.467  39.708  1.00  0.00    -0.200 F 
ATOM    124  C   UNL A   1      39.249  35.111  38.857  1.00  0.00     0.200 A 
ATOM    125  F   UNL A   1      40.714  36.733  37.960  1.00  0.00    -0.200 F 
ATOM    126  F   UNL A   1      39.077  35.855  39.959  1.00  0.00    -0.200 F 
ENDBRANCH  88 116
BRANCH 103 127
ATOM    127  C   UNL A   1      44.130  28.551  34.932  1.00  0.00     0.064 A 
ATOM    128  C   UNL A   1      45.427  29.066  34.805  1.00  0.00     0.173 A 
ATOM    129  C   UNL A   1      43.926  27.468  35.798  1.00  0.00     0.173 A 
ATOM    130  F   UNL A   1      45.667  30.093  33.977  1.00  0.00    -0.203 F 
ATOM    131  C   UNL A   1      46.486  28.513  35.520  1.00  0.00     0.198 A 
ATOM    132  C   UNL A   1      44.986  26.919  36.513  1.00  0.00     0.198 A 
ATOM    133  F   UNL A   1      42.702  26.939  35.939  1.00  0.00    -0.203 F 
ATOM    134  F   UNL A   1      47.723  29.010  35.376  1.00  0.00    -0.200 F 
ATOM    135  C   UNL A   1      46.265  27.441  36.373  1.00  0.00     0.200 A 
ATOM    136  F   UNL A   1      44.775  25.878  37.330  1.00  0.00    -0.200 F 
ATOM    137  F   UNL A   1      47.286  26.906  37.056  1.00  0.00    -0.200 F 
ENDBRANCH 103 127
ENDBRANCH  68  71
ENDBRANCH  58  61
ENDBRANCH  54  57
ENDBRANCH  51  54
ENDBRANCH  48  51
ENDBRANCH   1  48
TORSDOF 18
ENDMDL
MODEL 4
REMARK VINA RESULT:     -12.5      2.544      4.579
REMARK SMILES CC(=O)NS(=O)(=O)c1ccc(-c2ccn(C(F)F)c(=O)c2)cc1C(=O)NCCCCCCNC(=O)c1ccc(-c2c3nc(c(-c4c(F)c(F)c(F)c(F)c4F)c4ccc([nH]4)c(-c4c(F)c(F)c(F)c(F)c4F)c4nc(c(-c5c(F)c(F)c(F)c(F)c5F)c5ccc2[nH]5)C=C4)C=C3)cc1
REMARK SMILES IDX 29 1 28 4 27 7 26 10 24 11 25 12 23 14 8 15 9 16 10 17 22 19
REMARK SMILES IDX 11 20 5 23 6 24 7 25 4 26 2 27 3 28 1 30 12 34 13 35 21 36
REMARK SMILES IDX 14 37 19 39 15 41 20 43 16 44 17 45 18 46 30 48 31 51 32 54
REMARK SMILES IDX 33 57 34 58 35 60 36 61 37 62 98 63 38 64 97 66 39 68 40 71
REMARK SMILES IDX 41 72 91 73 42 74 96 75 90 76 92 77 43 78 95 79 89 81 88 83
REMARK SMILES IDX 44 85 76 88 56 89 75 90 57 91 60 92 74 93 93 94 58 95 59 97
REMARK SMILES IDX 73 99 94 100 61 103 45 105 46 106 54 107 47 108 48 109
REMARK SMILES IDX 52 110 55 111 49 112 50 113 53 114 51 115 77 116 78 117
REMARK SMILES IDX 86 118 79 119 80 120 84 121 87 122 81 123 82 124 85 125
REMARK SMILES IDX 83 126 62 127 63 128 71 129 64 130 65 131 69 132 72 133
REMARK SMILES IDX 66 134 67 135 70 136 68 137
REMARK H PARENT 29 2 29 3 28 5 28 6 27 8 27 9 26 13 9 18 10 21 22 22 4 29 1 31
REMARK H PARENT 1 32 1 33 13 38 21 40 14 42 16 47 30 49 30 50 31 52 31 53
REMARK H PARENT 32 55 32 56 33 59 37 65 98 67 38 69 97 70 96 80 90 82 92 84
REMARK H PARENT 95 86 89 87 57 96 60 98 93 101 58 102 94 104
REMARK Flexibility Score: inf
ROOT
ATOM      1  C   UNL A   1      32.870  30.049  27.411  1.00  0.00    -0.052 C 
ATOM      2  H   UNL A   1      33.257  30.787  28.083  1.00  0.00     0.027 H 
ATOM      3  H   UNL A   1      32.472  29.192  27.913  1.00  0.00     0.027 H 
ENDROOT
BRANCH   1   4
ATOM      4  C   UNL A   1      34.023  29.544  26.542  1.00  0.00    -0.036 C 
ATOM      5  H   UNL A   1      34.379  30.361  25.951  1.00  0.00     0.028 H 
ATOM      6  H   UNL A   1      34.762  29.158  27.211  1.00  0.00     0.028 H 
BRANCH   4   7
ATOM      7  C   UNL A   1      33.650  28.395  25.595  1.00  0.00     0.018 C 
ATOM      8  H   UNL A   1      34.254  27.540  25.816  1.00  0.00     0.049 H 
ATOM      9  H   UNL A   1      32.617  28.145  25.725  1.00  0.00     0.049 H 
BRANCH   7  10
ATOM     10  N   UNL A   1      33.879  28.807  24.217  1.00  0.00    -0.352 N 
ATOM     11  C   UNL A   1      33.493  28.275  23.019  1.00  0.00     0.252 C 
ATOM     12  O   UNL A   1      33.868  28.793  21.969  1.00  0.00    -0.269 OA
ATOM     13  H   UNL A   1      34.415  29.628  24.133  1.00  0.00     0.163 HD
BRANCH  11  14
ATOM     14  C   UNL A   1      32.534  27.159  22.921  1.00  0.00     0.060 A 
ATOM     15  C   UNL A   1      31.146  27.272  22.849  1.00  0.00     0.100 A 
ATOM     16  C   UNL A   1      30.350  26.114  22.828  1.00  0.00    -0.040 A 
ATOM     17  C   UNL A   1      30.929  24.854  23.001  1.00  0.00    -0.053 A 
ATOM     18  H   UNL A   1      29.331  26.195  22.684  1.00  0.00     0.064 H 
ATOM     19  C   UNL A   1      33.104  25.880  23.092  1.00  0.00    -0.040 A 
ATOM     20  C   UNL A   1      32.310  24.727  23.177  1.00  0.00    -0.017 A 
ATOM     21  H   UNL A   1      30.332  24.012  22.999  1.00  0.00     0.063 H 
ATOM     22  H   UNL A   1      34.130  25.792  23.159  1.00  0.00     0.064 H 
BRANCH  15  23
ATOM     23  S   UNL A   1      30.314  28.827  22.963  1.00  0.00     0.264 S 
ATOM     24  O   UNL A   1      30.407  29.435  21.653  1.00  0.00    -0.201 OA
ATOM     25  O   UNL A   1      30.716  29.527  24.157  1.00  0.00    -0.201 OA
BRANCH  23  26
ATOM     26  N   UNL A   1      28.724  28.408  23.160  1.00  0.00    -0.249 N 
ATOM     27  C   UNL A   1      27.591  29.231  23.190  1.00  0.00     0.230 C 
ATOM     28  O   UNL A   1      26.489  28.698  23.184  1.00  0.00    -0.274 OA
ATOM     29  H   UNL A   1      28.551  27.445  23.272  1.00  0.00     0.183 HD
BRANCH  27  30
ATOM     30  C   UNL A   1      27.756  30.720  23.282  1.00  0.00     0.016 C 
ATOM     31  H   UNL A   1      27.230  31.085  24.139  1.00  0.00     0.033 H 
ATOM     32  H   UNL A   1      27.361  31.179  22.400  1.00  0.00     0.033 H 
ATOM     33  H   UNL A   1      28.795  30.958  23.373  1.00  0.00     0.033 H 
ENDBRANCH  27  30
ENDBRANCH  23  26
ENDBRANCH  15  23
BRANCH  20  34
ATOM     34  C   UNL A   1      32.910  23.434  23.583  1.00  0.00    -0.011 A 
ATOM     35  C   UNL A   1      34.347  23.210  23.540  1.00  0.00    -0.038 A 
ATOM     36  C   UNL A   1      32.125  22.456  24.069  1.00  0.00     0.012 A 
ATOM     37  C   UNL A   1      34.880  22.070  23.992  1.00  0.00     0.013 A 
ATOM     38  H   UNL A   1      34.964  23.941  23.153  1.00  0.00     0.064 H 
ATOM     39  C   UNL A   1      32.705  21.179  24.580  1.00  0.00     0.255 A 
ATOM     40  H   UNL A   1      31.103  22.591  24.088  1.00  0.00     0.069 H 
ATOM     41  N   UNL A   1      34.083  21.068  24.509  1.00  0.00    -0.258 N 
ATOM     42  H   UNL A   1      35.903  21.936  23.955  1.00  0.00     0.082 H 
ATOM     43  O   UNL A   1      31.940  20.334  25.036  1.00  0.00    -0.269 OA
BRANCH  41  44
ATOM     44  C   UNL A   1      34.674  19.863  25.035  1.00  0.00     0.321 C 
ATOM     45  F   UNL A   1      34.410  18.805  24.230  1.00  0.00    -0.185 F 
ATOM     46  F   UNL A   1      36.019  19.983  25.145  1.00  0.00    -0.185 F 
ATOM     47  H   UNL A   1      34.246  19.706  26.002  1.00  0.00     0.131 H 
ENDBRANCH  41  44
ENDBRANCH  20  34
ENDBRANCH  11  14
ENDBRANCH   7  10
ENDBRANCH   4   7
ENDBRANCH   1   4
BRANCH   1  48
ATOM     48  C   UNL A   1      31.709  30.676  26.635  1.00  0.00    -0.052 C 
ATOM     49  H   UNL A   1      30.812  30.170  26.927  1.00  0.00     0.027 H 
ATOM     50  H   UNL A   1      31.965  30.565  25.602  1.00  0.00     0.027 H 
BRANCH  48  51
ATOM     51  C   UNL A   1      31.484  32.183  26.840  1.00  0.00    -0.036 C 
ATOM     52  H   UNL A   1      30.810  32.301  27.662  1.00  0.00     0.028 H 
ATOM     53  H   UNL A   1      31.113  32.540  25.902  1.00  0.00     0.028 H 
BRANCH  51  54
ATOM     54  C   UNL A   1      32.724  33.032  27.131  1.00  0.00     0.018 C 
ATOM     55  H   UNL A   1      33.263  33.170  26.219  1.00  0.00     0.049 H 
ATOM     56  H   UNL A   1      33.301  32.509  27.866  1.00  0.00     0.049 H 
BRANCH  54  57
ATOM     57  N   UNL A   1      32.407  34.337  27.683  1.00  0.00    -0.352 N 
ATOM     58  C   UNL A   1      33.014  35.019  28.708  1.00  0.00     0.251 C 
ATOM     59  H   UNL A   1      31.649  34.800  27.259  1.00  0.00     0.163 HD
ATOM     60  O   UNL A   1      32.553  36.093  29.086  1.00  0.00    -0.269 OA
BRANCH  58  61
ATOM     61  C   UNL A   1      34.199  34.459  29.397  1.00  0.00     0.039 A 
ATOM     62  C   UNL A   1      33.998  33.772  30.600  1.00  0.00    -0.049 A 
ATOM     63  C   UNL A   1      35.497  34.645  28.909  1.00  0.00    -0.049 A 
ATOM     64  C   UNL A   1      35.084  33.219  31.283  1.00  0.00    -0.053 A 
ATOM     65  H   UNL A   1      33.045  33.675  30.984  1.00  0.00     0.063 H 
ATOM     66  C   UNL A   1      36.583  34.080  29.587  1.00  0.00    -0.053 A 
ATOM     67  H   UNL A   1      35.654  35.197  28.052  1.00  0.00     0.063 H 
ATOM     68  C   UNL A   1      36.382  33.354  30.770  1.00  0.00    -0.014 A 
ATOM     69  H   UNL A   1      34.931  32.709  32.166  1.00  0.00     0.063 H 
ATOM     70  H   UNL A   1      37.537  34.198  29.212  1.00  0.00     0.063 H 
BRANCH  68  71
ATOM     71  C   UNL A   1      37.528  32.701  31.445  1.00  0.00     0.031 A 
ATOM     72  C   UNL A   1      38.284  31.591  30.779  1.00  0.00     0.074 A 
ATOM     73  C   UNL A   1      37.879  33.102  32.681  1.00  0.00     0.049 A 
ATOM     74  N   UNL A   1      39.250  30.849  31.260  1.00  0.00    -0.248 NA
ATOM     75  C   UNL A   1      37.902  31.268  29.397  1.00  0.00    -0.034 C 
ATOM     76  C   UNL A   1      37.227  34.172  33.437  1.00  0.00    -0.036 A 
ATOM     77  N   UNL A   1      38.869  32.653  33.517  1.00  0.00    -0.354 N 
ATOM     78  C   UNL A   1      39.576  29.955  30.251  1.00  0.00     0.074 A 
ATOM     79  C   UNL A   1      38.717  30.257  29.124  1.00  0.00    -0.034 C 
ATOM     80  H   UNL A   1      37.189  31.711  28.798  1.00  0.00     0.065 H 
ATOM     81  C   UNL A   1      37.838  34.299  34.627  1.00  0.00    -0.036 A 
ATOM     82  H   UNL A   1      36.427  34.737  33.110  1.00  0.00     0.065 H 
ATOM     83  C   UNL A   1      38.911  33.312  34.718  1.00  0.00     0.049 A 
ATOM     84  H   UNL A   1      39.489  31.927  33.277  1.00  0.00     0.167 HD
ATOM     85  C   UNL A   1      40.498  28.964  30.271  1.00  0.00     0.037 A 
ATOM     86  H   UNL A   1      38.737  29.752  28.224  1.00  0.00     0.065 H 
ATOM     87  H   UNL A   1      37.589  34.984  35.358  1.00  0.00     0.065 H 
ATOM     88  C   UNL A   1      39.719  33.135  35.780  1.00  0.00     0.037 A 
ATOM     89  C   UNL A   1      41.366  28.663  31.376  1.00  0.00     0.049 A 
ATOM     90  C   UNL A   1      40.772  32.069  35.751  1.00  0.00     0.074 A 
ATOM     91  C   UNL A   1      42.300  27.647  31.494  1.00  0.00    -0.036 A 
ATOM     92  N   UNL A   1      41.416  29.390  32.555  1.00  0.00    -0.354 N 
ATOM     93  N   UNL A   1      41.036  31.198  34.810  1.00  0.00    -0.248 NA
ATOM     94  C   UNL A   1      41.636  31.959  36.936  1.00  0.00    -0.034 C 
ATOM     95  C   UNL A   1      42.922  27.765  32.744  1.00  0.00    -0.036 A 
ATOM     96  H   UNL A   1      42.503  26.927  30.784  1.00  0.00     0.065 H 
ATOM     97  C   UNL A   1      42.376  28.855  33.400  1.00  0.00     0.049 A 
ATOM     98  H   UNL A   1      40.853  30.171  32.762  1.00  0.00     0.167 HD
ATOM     99  C   UNL A   1      42.086  30.430  35.289  1.00  0.00     0.074 A 
ATOM    100  C   UNL A   1      42.424  30.946  36.599  1.00  0.00    -0.034 C 
ATOM    101  H   UNL A   1      41.632  32.521  37.801  1.00  0.00     0.065 H 
ATOM    102  H   UNL A   1      43.662  27.146  33.112  1.00  0.00     0.065 H 
ATOM    103  C   UNL A   1      42.704  29.382  34.696  1.00  0.00     0.037 A 
ATOM    104  H   UNL A   1      43.180  30.573  37.195  1.00  0.00     0.065 H 
BRANCH  85 105
ATOM    105  C   UNL A   1      40.603  28.110  29.049  1.00  0.00     0.064 A 
ATOM    106  C   UNL A   1      41.492  28.430  28.016  1.00  0.00     0.173 A 
ATOM    107  C   UNL A   1      39.836  26.942  28.930  1.00  0.00     0.173 A 
ATOM    108  F   UNL A   1      42.238  29.542  28.088  1.00  0.00    -0.203 F 
ATOM    109  C   UNL A   1      41.609  27.608  26.899  1.00  0.00     0.198 A 
ATOM    110  C   UNL A   1      39.958  26.121  27.814  1.00  0.00     0.198 A 
ATOM    111  F   UNL A   1      38.968  26.603  29.896  1.00  0.00    -0.203 F 
ATOM    112  F   UNL A   1      42.459  27.933  25.916  1.00  0.00    -0.200 F 
ATOM    113  C   UNL A   1      40.845  26.454  26.800  1.00  0.00     0.200 A 
ATOM    114  F   UNL A   1      39.217  25.009  27.717  1.00  0.00    -0.200 F 
ATOM    115  F   UNL A   1      40.959  25.664  25.724  1.00  0.00    -0.200 F 
ENDBRANCH  85 105
BRANCH  88 116
ATOM    116  C   UNL A   1      39.549  33.994  36.971  1.00  0.00     0.064 A 
ATOM    117  C   UNL A   1      38.774  33.568  38.057  1.00  0.00     0.173 A 
ATOM    118  C   UNL A   1      40.176  35.244  37.052  1.00  0.00     0.173 A 
ATOM    119  F   UNL A   1      38.147  32.384  38.009  1.00  0.00    -0.203 F 
ATOM    120  C   UNL A   1      38.631  34.368  39.188  1.00  0.00     0.198 A 
ATOM    121  C   UNL A   1      40.035  36.040  38.186  1.00  0.00     0.198 A 
ATOM    122  F   UNL A   1      40.922  35.687  36.030  1.00  0.00    -0.203 F 
ATOM    123  F   UNL A   1      37.875  33.948  40.212  1.00  0.00    -0.200 F 
ATOM    124  C   UNL A   1      39.264  35.601  39.252  1.00  0.00     0.200 A 
ATOM    125  F   UNL A   1      40.647  37.231  38.246  1.00  0.00    -0.200 F 
ATOM    126  F   UNL A   1      39.126  36.370  40.341  1.00  0.00    -0.200 F 
ENDBRANCH  88 116
BRANCH 103 127
ATOM    127  C   UNL A   1      43.802  28.721  35.464  1.00  0.00     0.064 A 
ATOM    128  C   UNL A   1      43.519  27.716  36.398  1.00  0.00     0.173 A 
ATOM    129  C   UNL A   1      45.141  29.073  35.250  1.00  0.00     0.173 A 
ATOM    130  F   UNL A   1      42.250  27.359  36.642  1.00  0.00    -0.203 F 
ATOM    131  C   UNL A   1      44.545  27.085  37.098  1.00  0.00     0.198 A 
ATOM    132  C   UNL A   1      46.164  28.439  35.949  1.00  0.00     0.198 A 
ATOM    133  F   UNL A   1      45.453  30.038  34.372  1.00  0.00    -0.203 F 
ATOM    134  F   UNL A   1      44.255  26.135  37.997  1.00  0.00    -0.200 F 
ATOM    135  C   UNL A   1      45.865  27.447  36.872  1.00  0.00     0.200 A 
ATOM    136  F   UNL A   1      47.439  28.794  35.738  1.00  0.00    -0.200 F 
ATOM    137  F   UNL A   1      46.851  26.843  37.550  1.00  0.00    -0.200 F 
ENDBRANCH 103 127
ENDBRANCH  68  71
ENDBRANCH  58  61
ENDBRANCH  54  57
ENDBRANCH  51  54
ENDBRANCH  48  51
ENDBRANCH   1  48
TORSDOF 18
ENDMDL
MODEL 5
REMARK VINA RESULT:     -12.4      5.279     10.092
REMARK SMILES CC(=O)NS(=O)(=O)c1ccc(-c2ccn(C(F)F)c(=O)c2)cc1C(=O)NCCCCCCNC(=O)c1ccc(-c2c3nc(c(-c4c(F)c(F)c(F)c(F)c4F)c4ccc([nH]4)c(-c4c(F)c(F)c(F)c(F)c4F)c4nc(c(-c5c(F)c(F)c(F)c(F)c5F)c5ccc2[nH]5)C=C4)C=C3)cc1
REMARK SMILES IDX 29 1 28 4 27 7 26 10 24 11 25 12 23 14 8 15 9 16 10 17 22 19
REMARK SMILES IDX 11 20 5 23 6 24 7 25 4 26 2 27 3 28 1 30 12 34 13 35 21 36
REMARK SMILES IDX 14 37 19 39 15 41 20 43 16 44 17 45 18 46 30 48 31 51 32 54
REMARK SMILES IDX 33 57 34 58 35 60 36 61 37 62 98 63 38 64 97 66 39 68 40 71
REMARK SMILES IDX 41 72 91 73 42 74 96 75 90 76 92 77 43 78 95 79 89 81 88 83
REMARK SMILES IDX 44 85 76 88 56 89 75 90 57 91 60 92 74 93 93 94 58 95 59 97
REMARK SMILES IDX 73 99 94 100 61 103 45 105 46 106 54 107 47 108 48 109
REMARK SMILES IDX 52 110 55 111 49 112 50 113 53 114 51 115 77 116 78 117
REMARK SMILES IDX 86 118 79 119 80 120 84 121 87 122 81 123 82 124 85 125
REMARK SMILES IDX 83 126 62 127 63 128 71 129 64 130 65 131 69 132 72 133
REMARK SMILES IDX 66 134 67 135 70 136 68 137
REMARK H PARENT 29 2 29 3 28 5 28 6 27 8 27 9 26 13 9 18 10 21 22 22 4 29 1 31
REMARK H PARENT 1 32 1 33 13 38 21 40 14 42 16 47 30 49 30 50 31 52 31 53
REMARK H PARENT 32 55 32 56 33 59 37 65 98 67 38 69 97 70 96 80 90 82 92 84
REMARK H PARENT 95 86 89 87 57 96 60 98 93 101 58 102 94 104
REMARK Flexibility Score: inf
ROOT
ATOM      1  C   UNL A   1      37.194  21.983  25.140  1.00  0.00    -0.052 C 
ATOM      2  H   UNL A   1      36.789  22.207  26.106  1.00  0.00     0.027 H 
ATOM      3  H   UNL A   1      38.259  22.079  25.100  1.00  0.00     0.027 H 
ENDROOT
BRANCH   1   4
ATOM      4  C   UNL A   1      36.631  22.995  24.141  1.00  0.00    -0.036 C 
ATOM      5  H   UNL A   1      37.452  23.460  23.637  1.00  0.00     0.028 H 
ATOM      6  H   UNL A   1      35.991  22.447  23.481  1.00  0.00     0.028 H 
BRANCH   4   7
ATOM      7  C   UNL A   1      35.768  24.098  24.769  1.00  0.00     0.018 C 
ATOM      8  H   UNL A   1      35.131  23.671  25.516  1.00  0.00     0.049 H 
ATOM      9  H   UNL A   1      36.402  24.835  25.219  1.00  0.00     0.049 H 
BRANCH   7  10
ATOM     10  N   UNL A   1      34.954  24.725  23.737  1.00  0.00    -0.352 N 
ATOM     11  C   UNL A   1      33.652  24.553  23.359  1.00  0.00     0.252 C 
ATOM     12  O   UNL A   1      33.205  25.179  22.400  1.00  0.00    -0.269 OA
ATOM     13  H   UNL A   1      35.435  25.403  23.210  1.00  0.00     0.163 HD
BRANCH  11  14
ATOM     14  C   UNL A   1      32.705  23.727  24.131  1.00  0.00     0.060 A 
ATOM     15  C   UNL A   1      31.825  24.185  25.111  1.00  0.00     0.100 A 
ATOM     16  C   UNL A   1      31.026  23.270  25.817  1.00  0.00    -0.040 A 
ATOM     17  C   UNL A   1      31.193  21.895  25.632  1.00  0.00    -0.053 A 
ATOM     18  H   UNL A   1      30.310  23.615  26.476  1.00  0.00     0.064 H 
ATOM     19  C   UNL A   1      32.862  22.337  23.954  1.00  0.00    -0.040 A 
ATOM     20  C   UNL A   1      32.145  21.412  24.727  1.00  0.00    -0.017 A 
ATOM     21  H   UNL A   1      30.611  21.232  26.167  1.00  0.00     0.063 H 
ATOM     22  H   UNL A   1      33.522  21.992  23.240  1.00  0.00     0.064 H 
BRANCH  15  23
ATOM     23  S   UNL A   1      31.789  25.871  25.641  1.00  0.00     0.264 S 
ATOM     24  O   UNL A   1      33.164  26.252  25.881  1.00  0.00    -0.201 OA
ATOM     25  O   UNL A   1      30.761  26.064  26.633  1.00  0.00    -0.201 OA
BRANCH  23  26
ATOM     26  N   UNL A   1      31.315  26.698  24.286  1.00  0.00    -0.249 N 
ATOM     27  C   UNL A   1      31.279  28.081  24.064  1.00  0.00     0.230 C 
ATOM     28  O   UNL A   1      31.048  28.478  22.929  1.00  0.00    -0.274 OA
ATOM     29  H   UNL A   1      31.016  26.140  23.532  1.00  0.00     0.183 HD
BRANCH  27  30
ATOM     30  C   UNL A   1      31.468  29.024  25.216  1.00  0.00     0.016 C 
ATOM     31  H   UNL A   1      31.224  28.524  26.130  1.00  0.00     0.033 H 
ATOM     32  H   UNL A   1      30.827  29.872  25.092  1.00  0.00     0.033 H 
ATOM     33  H   UNL A   1      32.487  29.349  25.248  1.00  0.00     0.033 H 
ENDBRANCH  27  30
ENDBRANCH  23  26
ENDBRANCH  15  23
BRANCH  20  34
ATOM     34  C   UNL A   1      32.491  19.972  24.684  1.00  0.00    -0.011 A 
ATOM     35  C   UNL A   1      32.671  19.191  25.898  1.00  0.00    -0.038 A 
ATOM     36  C   UNL A   1      32.580  19.341  23.499  1.00  0.00     0.012 A 
ATOM     37  C   UNL A   1      32.896  17.874  25.843  1.00  0.00     0.013 A 
ATOM     38  H   UNL A   1      32.625  19.661  26.816  1.00  0.00     0.064 H 
ATOM     39  C   UNL A   1      32.828  17.871  23.421  1.00  0.00     0.255 A 
ATOM     40  H   UNL A   1      32.475  19.883  22.628  1.00  0.00     0.069 H 
ATOM     41  N   UNL A   1      32.971  17.215  24.632  1.00  0.00    -0.258 N 
ATOM     42  H   UNL A   1      33.015  17.341  26.719  1.00  0.00     0.082 H 
ATOM     43  O   UNL A   1      32.871  17.347  22.312  1.00  0.00    -0.269 OA
BRANCH  41  44
ATOM     44  C   UNL A   1      33.168  15.788  24.588  1.00  0.00     0.321 C 
ATOM     45  F   UNL A   1      34.351  15.447  25.156  1.00  0.00    -0.185 F 
ATOM     46  F   UNL A   1      32.181  15.135  25.247  1.00  0.00    -0.185 F 
ATOM     47  H   UNL A   1      33.160  15.506  23.557  1.00  0.00     0.131 H 
ENDBRANCH  41  44
ENDBRANCH  20  34
ENDBRANCH  11  14
ENDBRANCH   7  10
ENDBRANCH   4   7
ENDBRANCH   1   4
BRANCH   1  48
ATOM     48  C   UNL A   1      36.878  20.520  24.819  1.00  0.00    -0.052 C 
ATOM     49  H   UNL A   1      36.530  20.477  23.808  1.00  0.00     0.027 H 
ATOM     50  H   UNL A   1      36.157  20.218  25.550  1.00  0.00     0.027 H 
BRANCH  48  51
ATOM     51  C   UNL A   1      38.041  19.524  24.957  1.00  0.00    -0.036 C 
ATOM     52  H   UNL A   1      38.498  19.425  23.995  1.00  0.00     0.028 H 
ATOM     53  H   UNL A   1      37.597  18.627  25.336  1.00  0.00     0.028 H 
BRANCH  51  54
ATOM     54  C   UNL A   1      39.142  19.882  25.959  1.00  0.00     0.018 C 
ATOM     55  H   UNL A   1      38.728  19.846  26.944  1.00  0.00     0.049 H 
ATOM     56  H   UNL A   1      39.496  20.859  25.704  1.00  0.00     0.049 H 
BRANCH  54  57
ATOM     57  N   UNL A   1      40.280  18.984  25.903  1.00  0.00    -0.352 N 
ATOM     58  C   UNL A   1      41.615  19.259  26.070  1.00  0.00     0.251 C 
ATOM     59  H   UNL A   1      40.064  18.041  25.721  1.00  0.00     0.163 HD
ATOM     60  O   UNL A   1      42.448  18.370  25.912  1.00  0.00    -0.269 OA
BRANCH  58  61
ATOM     61  C   UNL A   1      42.073  20.628  26.400  1.00  0.00     0.039 A 
ATOM     62  C   UNL A   1      42.295  21.521  25.345  1.00  0.00    -0.049 A 
ATOM     63  C   UNL A   1      42.336  21.025  27.716  1.00  0.00    -0.049 A 
ATOM     64  C   UNL A   1      42.720  22.825  25.606  1.00  0.00    -0.053 A 
ATOM     65  H   UNL A   1      42.145  21.213  24.371  1.00  0.00     0.063 H 
ATOM     66  C   UNL A   1      42.749  22.336  27.978  1.00  0.00    -0.053 A 
ATOM     67  H   UNL A   1      42.225  20.353  28.491  1.00  0.00     0.063 H 
ATOM     68  C   UNL A   1      42.932  23.246  26.927  1.00  0.00    -0.014 A 
ATOM     69  H   UNL A   1      42.878  23.481  24.826  1.00  0.00     0.063 H 
ATOM     70  H   UNL A   1      42.920  22.633  28.951  1.00  0.00     0.063 H 
BRANCH  68  71
ATOM     71  C   UNL A   1      43.304  24.651  27.217  1.00  0.00     0.031 A 
ATOM     72  C   UNL A   1      44.693  25.150  26.953  1.00  0.00     0.074 A 
ATOM     73  C   UNL A   1      42.383  25.480  27.741  1.00  0.00     0.049 A 
ATOM     74  N   UNL A   1      45.214  26.318  27.231  1.00  0.00    -0.248 NA
ATOM     75  C   UNL A   1      45.617  24.214  26.298  1.00  0.00    -0.034 C 
ATOM     76  C   UNL A   1      40.997  25.120  28.042  1.00  0.00    -0.036 A 
ATOM     77  N   UNL A   1      42.478  26.797  28.115  1.00  0.00    -0.354 N 
ATOM     78  C   UNL A   1      46.534  26.252  26.810  1.00  0.00     0.074 A 
ATOM     79  C   UNL A   1      46.730  24.935  26.240  1.00  0.00    -0.034 C 
ATOM     80  H   UNL A   1      45.446  23.251  25.970  1.00  0.00     0.065 H 
ATOM     81  C   UNL A   1      40.369  26.193  28.552  1.00  0.00    -0.036 A 
ATOM     82  H   UNL A   1      40.571  24.193  27.888  1.00  0.00     0.065 H 
ATOM     83  C   UNL A   1      41.312  27.306  28.625  1.00  0.00     0.049 A 
ATOM     84  H   UNL A   1      43.304  27.324  28.025  1.00  0.00     0.167 HD
ATOM     85  C   UNL A   1      47.495  27.201  26.903  1.00  0.00     0.037 A 
ATOM     86  H   UNL A   1      47.621  24.600  25.840  1.00  0.00     0.065 H 
ATOM     87  H   UNL A   1      39.380  26.225  28.844  1.00  0.00     0.065 H 
ATOM     88  C   UNL A   1      41.036  28.531  29.107  1.00  0.00     0.037 A 
ATOM     89  C   UNL A   1      47.310  28.517  27.453  1.00  0.00     0.049 A 
ATOM     90  C   UNL A   1      42.104  29.582  29.143  1.00  0.00     0.074 A 
ATOM     91  C   UNL A   1      48.244  29.524  27.624  1.00  0.00    -0.036 A 
ATOM     92  N   UNL A   1      46.099  29.012  27.908  1.00  0.00    -0.354 N 
ATOM     93  N   UNL A   1      43.361  29.491  28.787  1.00  0.00    -0.248 NA
ATOM     94  C   UNL A   1      41.716  30.905  29.653  1.00  0.00    -0.034 C 
ATOM     95  C   UNL A   1      47.594  30.636  28.177  1.00  0.00    -0.036 A 
ATOM     96  H   UNL A   1      49.246  29.466  27.386  1.00  0.00     0.065 H 
ATOM     97  C   UNL A   1      46.258  30.318  28.346  1.00  0.00     0.049 A 
ATOM     98  H   UNL A   1      45.251  28.512  27.919  1.00  0.00     0.167 HD
ATOM     99  C   UNL A   1      43.917  30.735  29.039  1.00  0.00     0.074 A 
ATOM    100  C   UNL A   1      42.859  31.573  29.563  1.00  0.00    -0.034 C 
ATOM    101  H   UNL A   1      40.797  31.230  29.992  1.00  0.00     0.065 H 
ATOM    102  H   UNL A   1      48.037  31.537  28.416  1.00  0.00     0.065 H 
ATOM    103  C   UNL A   1      45.196  31.139  28.860  1.00  0.00     0.037 A 
ATOM    104  H   UNL A   1      42.978  32.562  29.832  1.00  0.00     0.065 H 
BRANCH  85 105
ATOM    105  C   UNL A   1      48.858  26.837  26.410  1.00  0.00     0.064 A 
ATOM    106  C   UNL A   1      49.223  27.043  25.074  1.00  0.00     0.173 A 
ATOM    107  C   UNL A   1      49.817  26.314  27.290  1.00  0.00     0.173 A 
ATOM    108  F   UNL A   1      48.333  27.533  24.199  1.00  0.00    -0.203 F 
ATOM    109  C   UNL A   1      50.507  26.735  24.632  1.00  0.00     0.198 A 
ATOM    110  C   UNL A   1      51.100  26.011  26.846  1.00  0.00     0.198 A 
ATOM    111  F   UNL A   1      49.505  26.098  28.577  1.00  0.00    -0.203 F 
ATOM    112  F   UNL A   1      50.837  26.930  23.349  1.00  0.00    -0.200 F 
ATOM    113  C   UNL A   1      51.444  26.223  25.519  1.00  0.00     0.200 A 
ATOM    114  F   UNL A   1      52.003  25.513  27.701  1.00  0.00    -0.200 F 
ATOM    115  F   UNL A   1      52.679  25.926  25.092  1.00  0.00    -0.200 F 
ENDBRANCH  85 105
BRANCH  88 116
ATOM    116  C   UNL A   1      39.675  28.824  29.606  1.00  0.00     0.064 A 
ATOM    117  C   UNL A   1      39.325  28.552  30.934  1.00  0.00     0.173 A 
ATOM    118  C   UNL A   1      38.710  29.399  28.770  1.00  0.00     0.173 A 
ATOM    119  F   UNL A   1      40.218  27.988  31.760  1.00  0.00    -0.203 F 
ATOM    120  C   UNL A   1      38.050  28.846  31.411  1.00  0.00     0.198 A 
ATOM    121  C   UNL A   1      37.437  29.697  29.249  1.00  0.00     0.198 A 
ATOM    122  F   UNL A   1      39.007  29.669  27.491  1.00  0.00    -0.203 F 
ATOM    123  F   UNL A   1      37.731  28.569  32.682  1.00  0.00    -0.200 F 
ATOM    124  C   UNL A   1      37.109  29.421  30.568  1.00  0.00     0.200 A 
ATOM    125  F   UNL A   1      36.529  30.251  28.434  1.00  0.00    -0.200 F 
ATOM    126  F   UNL A   1      35.882  29.705  31.028  1.00  0.00    -0.200 F 
ENDBRANCH  88 116
BRANCH 103 127
ATOM    127  C   UNL A   1      45.521  32.547  29.242  1.00  0.00     0.064 A 
ATOM    128  C   UNL A   1      45.973  32.852  30.533  1.00  0.00     0.173 A 
ATOM    129  C   UNL A   1      45.405  33.589  28.313  1.00  0.00     0.173 A 
ATOM    130  F   UNL A   1      46.086  31.886  31.456  1.00  0.00    -0.203 F 
ATOM    131  C   UNL A   1      46.296  34.160  30.883  1.00  0.00     0.198 A 
ATOM    132  C   UNL A   1      45.731  34.895  28.665  1.00  0.00     0.198 A 
ATOM    133  F   UNL A   1      44.965  33.339  27.071  1.00  0.00    -0.203 F 
ATOM    134  F   UNL A   1      46.715  34.437  32.125  1.00  0.00    -0.200 F 
ATOM    135  C   UNL A   1      46.176  35.180  29.949  1.00  0.00     0.200 A 
ATOM    136  F   UNL A   1      45.606  35.882  27.767  1.00  0.00    -0.200 F 
ATOM    137  F   UNL A   1      46.482  36.439  30.288  1.00  0.00    -0.200 F 
ENDBRANCH 103 127
ENDBRANCH  68  71
ENDBRANCH  58  61
ENDBRANCH  54  57
ENDBRANCH  51  54
ENDBRANCH  48  51
ENDBRANCH   1  48
TORSDOF 18
ENDMDL
MODEL 6
REMARK VINA RESULT:     -12.2      2.482      4.597
REMARK SMILES CC(=O)NS(=O)(=O)c1ccc(-c2ccn(C(F)F)c(=O)c2)cc1C(=O)NCCCCCCNC(=O)c1ccc(-c2c3nc(c(-c4c(F)c(F)c(F)c(F)c4F)c4ccc([nH]4)c(-c4c(F)c(F)c(F)c(F)c4F)c4nc(c(-c5c(F)c(F)c(F)c(F)c5F)c5ccc2[nH]5)C=C4)C=C3)cc1
REMARK SMILES IDX 29 1 28 4 27 7 26 10 24 11 25 12 23 14 8 15 9 16 10 17 22 19
REMARK SMILES IDX 11 20 5 23 6 24 7 25 4 26 2 27 3 28 1 30 12 34 13 35 21 36
REMARK SMILES IDX 14 37 19 39 15 41 20 43 16 44 17 45 18 46 30 48 31 51 32 54
REMARK SMILES IDX 33 57 34 58 35 60 36 61 37 62 98 63 38 64 97 66 39 68 40 71
REMARK SMILES IDX 41 72 91 73 42 74 96 75 90 76 92 77 43 78 95 79 89 81 88 83
REMARK SMILES IDX 44 85 76 88 56 89 75 90 57 91 60 92 74 93 93 94 58 95 59 97
REMARK SMILES IDX 73 99 94 100 61 103 45 105 46 106 54 107 47 108 48 109
REMARK SMILES IDX 52 110 55 111 49 112 50 113 53 114 51 115 77 116 78 117
REMARK SMILES IDX 86 118 79 119 80 120 84 121 87 122 81 123 82 124 85 125
REMARK SMILES IDX 83 126 62 127 63 128 71 129 64 130 65 131 69 132 72 133
REMARK SMILES IDX 66 134 67 135 70 136 68 137
REMARK H PARENT 29 2 29 3 28 5 28 6 27 8 27 9 26 13 9 18 10 21 22 22 4 29 1 31
REMARK H PARENT 1 32 1 33 13 38 21 40 14 42 16 47 30 49 30 50 31 52 31 53
REMARK H PARENT 32 55 32 56 33 59 37 65 98 67 38 69 97 70 96 80 90 82 92 84
REMARK H PARENT 95 86 89 87 57 96 60 98 93 101 58 102 94 104
REMARK Flexibility Score: inf
ROOT
ATOM      1  C   UNL A   1      32.695  29.927  27.058  1.00  0.00    -0.052 C 
ATOM      2  H   UNL A   1      33.335  30.624  27.559  1.00  0.00     0.027 H 
ATOM      3  H   UNL A   1      32.203  29.252  27.728  1.00  0.00     0.027 H 
ENDROOT
BRANCH   1   4
ATOM      4  C   UNL A   1      33.558  29.065  26.135  1.00  0.00    -0.036 C 
ATOM      5  H   UNL A   1      33.135  29.099  25.153  1.00  0.00     0.028 H 
ATOM      6  H   UNL A   1      34.548  29.469  26.178  1.00  0.00     0.028 H 
BRANCH   4   7
ATOM      7  C   UNL A   1      33.670  27.594  26.557  1.00  0.00     0.018 C 
ATOM      8  H   UNL A   1      34.165  27.039  25.788  1.00  0.00     0.049 H 
ATOM      9  H   UNL A   1      34.232  27.524  27.465  1.00  0.00     0.049 H 
BRANCH   7  10
ATOM     10  N   UNL A   1      32.337  27.046  26.768  1.00  0.00    -0.352 N 
ATOM     11  C   UNL A   1      31.548  26.223  26.016  1.00  0.00     0.252 C 
ATOM     12  O   UNL A   1      30.414  25.943  26.398  1.00  0.00    -0.269 OA
ATOM     13  H   UNL A   1      31.925  27.323  27.618  1.00  0.00     0.163 HD
BRANCH  11  14
ATOM     14  C   UNL A   1      32.042  25.546  24.801  1.00  0.00     0.060 A 
ATOM     15  C   UNL A   1      31.852  25.974  23.488  1.00  0.00     0.100 A 
ATOM     16  C   UNL A   1      32.321  25.189  22.421  1.00  0.00    -0.040 A 
ATOM     17  C   UNL A   1      32.867  23.924  22.661  1.00  0.00    -0.053 A 
ATOM     18  H   UNL A   1      32.263  25.547  21.455  1.00  0.00     0.064 H 
ATOM     19  C   UNL A   1      32.595  24.269  25.027  1.00  0.00    -0.040 A 
ATOM     20  C   UNL A   1      32.971  23.433  23.966  1.00  0.00    -0.017 A 
ATOM     21  H   UNL A   1      33.194  23.350  21.868  1.00  0.00     0.063 H 
ATOM     22  H   UNL A   1      32.725  23.942  25.997  1.00  0.00     0.064 H 
BRANCH  15  23
ATOM     23  S   UNL A   1      30.881  27.395  23.083  1.00  0.00     0.264 S 
ATOM     24  O   UNL A   1      30.764  27.410  21.641  1.00  0.00    -0.201 OA
ATOM     25  O   UNL A   1      31.339  28.544  23.822  1.00  0.00    -0.201 OA
BRANCH  23  26
ATOM     26  N   UNL A   1      29.375  27.018  23.660  1.00  0.00    -0.249 N 
ATOM     27  C   UNL A   1      28.162  27.692  23.469  1.00  0.00     0.230 C 
ATOM     28  O   UNL A   1      27.133  27.151  23.852  1.00  0.00    -0.274 OA
ATOM     29  H   UNL A   1      29.325  26.206  24.215  1.00  0.00     0.183 HD
BRANCH  27  30
ATOM     30  C   UNL A   1      28.163  29.064  22.859  1.00  0.00     0.016 C 
ATOM     31  H   UNL A   1      28.790  29.068  21.993  1.00  0.00     0.033 H 
ATOM     32  H   UNL A   1      28.533  29.772  23.571  1.00  0.00     0.033 H 
ATOM     33  H   UNL A   1      27.165  29.330  22.578  1.00  0.00     0.033 H 
ENDBRANCH  27  30
ENDBRANCH  23  26
ENDBRANCH  15  23
BRANCH  20  34
ATOM     34  C   UNL A   1      33.334  22.019  24.220  1.00  0.00    -0.011 A 
ATOM     35  C   UNL A   1      32.384  20.936  24.014  1.00  0.00    -0.038 A 
ATOM     36  C   UNL A   1      34.590  21.706  24.587  1.00  0.00     0.012 A 
ATOM     37  C   UNL A   1      32.752  19.659  24.163  1.00  0.00     0.013 A 
ATOM     38  H   UNL A   1      31.411  21.157  23.751  1.00  0.00     0.064 H 
ATOM     39  C   UNL A   1      35.017  20.286  24.754  1.00  0.00     0.255 A 
ATOM     40  H   UNL A   1      35.270  22.462  24.757  1.00  0.00     0.069 H 
ATOM     41  N   UNL A   1      34.044  19.328  24.521  1.00  0.00    -0.258 N 
ATOM     42  H   UNL A   1      32.061  18.908  24.006  1.00  0.00     0.082 H 
ATOM     43  O   UNL A   1      36.183  20.061  25.064  1.00  0.00    -0.269 OA
BRANCH  41  44
ATOM     44  C   UNL A   1      34.439  17.947  24.634  1.00  0.00     0.321 C 
ATOM     45  F   UNL A   1      33.552  17.250  25.385  1.00  0.00    -0.185 F 
ATOM     46  F   UNL A   1      34.515  17.357  23.416  1.00  0.00    -0.185 F 
ATOM     47  H   UNL A   1      35.402  17.938  25.099  1.00  0.00     0.131 H 
ENDBRANCH  41  44
ENDBRANCH  20  34
ENDBRANCH  11  14
ENDBRANCH   7  10
ENDBRANCH   4   7
ENDBRANCH   1   4
BRANCH   1  48
ATOM     48  C   UNL A   1      31.592  30.717  26.351  1.00  0.00    -0.052 C 
ATOM     49  H   UNL A   1      30.672  30.189  26.492  1.00  0.00     0.027 H 
ATOM     50  H   UNL A   1      31.907  30.796  25.331  1.00  0.00     0.027 H 
BRANCH  48  51
ATOM     51  C   UNL A   1      31.377  32.164  26.824  1.00  0.00    -0.036 C 
ATOM     52  H   UNL A   1      30.781  32.130  27.712  1.00  0.00     0.028 H 
ATOM     53  H   UNL A   1      30.920  32.664  25.996  1.00  0.00     0.028 H 
BRANCH  51  54
ATOM     54  C   UNL A   1      32.633  32.980  27.141  1.00  0.00     0.018 C 
ATOM     55  H   UNL A   1      33.193  33.107  26.239  1.00  0.00     0.049 H 
ATOM     56  H   UNL A   1      33.183  32.440  27.884  1.00  0.00     0.049 H 
BRANCH  54  57
ATOM     57  N   UNL A   1      32.341  34.291  27.691  1.00  0.00    -0.352 N 
ATOM     58  C   UNL A   1      32.982  34.977  28.692  1.00  0.00     0.251 C 
ATOM     59  H   UNL A   1      31.573  34.755  27.287  1.00  0.00     0.163 HD
ATOM     60  O   UNL A   1      32.539  36.057  29.076  1.00  0.00    -0.269 OA
BRANCH  58  61
ATOM     61  C   UNL A   1      34.184  34.416  29.350  1.00  0.00     0.039 A 
ATOM     62  C   UNL A   1      34.010  33.701  30.541  1.00  0.00    -0.049 A 
ATOM     63  C   UNL A   1      35.473  34.627  28.846  1.00  0.00    -0.049 A 
ATOM     64  C   UNL A   1      35.112  33.145  31.194  1.00  0.00    -0.053 A 
ATOM     65  H   UNL A   1      33.064  33.584  30.937  1.00  0.00     0.063 H 
ATOM     66  C   UNL A   1      36.575  34.060  29.494  1.00  0.00    -0.053 A 
ATOM     67  H   UNL A   1      35.609  35.200  27.998  1.00  0.00     0.063 H 
ATOM     68  C   UNL A   1      36.401  33.306  30.664  1.00  0.00    -0.014 A 
ATOM     69  H   UNL A   1      34.979  32.614  32.068  1.00  0.00     0.063 H 
ATOM     70  H   UNL A   1      37.522  34.196  29.107  1.00  0.00     0.063 H 
BRANCH  68  71
ATOM     71  C   UNL A   1      37.565  32.651  31.306  1.00  0.00     0.031 A 
ATOM     72  C   UNL A   1      38.308  31.549  30.613  1.00  0.00     0.074 A 
ATOM     73  C   UNL A   1      37.943  33.043  32.537  1.00  0.00     0.049 A 
ATOM     74  N   UNL A   1      39.288  30.807  31.065  1.00  0.00    -0.248 NA
ATOM     75  C   UNL A   1      37.895  31.237  29.238  1.00  0.00    -0.034 C 
ATOM     76  C   UNL A   1      37.306  34.104  33.317  1.00  0.00    -0.036 A 
ATOM     77  N   UNL A   1      38.954  32.590  33.345  1.00  0.00    -0.354 N 
ATOM     78  C   UNL A   1      39.592  29.922  30.041  1.00  0.00     0.074 A 
ATOM     79  C   UNL A   1      38.706  30.231  28.937  1.00  0.00    -0.034 C 
ATOM     80  H   UNL A   1      37.166  31.682  28.660  1.00  0.00     0.065 H 
ATOM     81  C   UNL A   1      37.945  34.224  34.493  1.00  0.00    -0.036 A 
ATOM     82  H   UNL A   1      36.497  34.669  33.014  1.00  0.00     0.065 H 
ATOM     83  C   UNL A   1      39.022  33.240  34.551  1.00  0.00     0.049 A 
ATOM     84  H   UNL A   1      39.571  31.869  33.085  1.00  0.00     0.167 HD
ATOM     85  C   UNL A   1      40.518  28.934  30.031  1.00  0.00     0.037 A 
ATOM     86  H   UNL A   1      38.706  29.732  28.033  1.00  0.00     0.065 H 
ATOM     87  H   UNL A   1      37.711  34.902  35.235  1.00  0.00     0.065 H 
ATOM     88  C   UNL A   1      39.855  33.056  35.591  1.00  0.00     0.037 A 
ATOM     89  C   UNL A   1      41.413  28.626  31.113  1.00  0.00     0.049 A 
ATOM     90  C   UNL A   1      40.911  31.994  35.529  1.00  0.00     0.074 A 
ATOM     91  C   UNL A   1      42.353  27.613  31.200  1.00  0.00    -0.036 A 
ATOM     92  N   UNL A   1      41.488  29.344  32.296  1.00  0.00    -0.354 N 
ATOM     93  N   UNL A   1      41.156  31.132  34.575  1.00  0.00    -0.248 NA
ATOM     94  C   UNL A   1      41.804  31.877  36.692  1.00  0.00    -0.034 C 
ATOM     95  C   UNL A   1      43.004  27.723  32.436  1.00  0.00    -0.036 A 
ATOM     96  H   UNL A   1      42.540  26.900  30.479  1.00  0.00     0.065 H 
ATOM     97  C   UNL A   1      42.469  28.805  33.114  1.00  0.00     0.049 A 
ATOM     98  H   UNL A   1      40.928  30.121  32.523  1.00  0.00     0.167 HD
ATOM     99  C   UNL A   1      42.219  30.363  35.022  1.00  0.00     0.074 A 
ATOM    100  C   UNL A   1      42.587  30.869  36.329  1.00  0.00    -0.034 C 
ATOM    101  H   UNL A   1      41.818  32.433  37.562  1.00  0.00     0.065 H 
ATOM    102  H   UNL A   1      43.753  27.103  32.781  1.00  0.00     0.065 H 
ATOM    103  C   UNL A   1      42.826  29.322  34.406  1.00  0.00     0.037 A 
ATOM    104  H   UNL A   1      43.358  30.495  36.903  1.00  0.00     0.065 H 
BRANCH  85 105
ATOM    105  C   UNL A   1      40.596  28.090  28.800  1.00  0.00     0.064 A 
ATOM    106  C   UNL A   1      41.423  28.450  27.728  1.00  0.00     0.173 A 
ATOM    107  C   UNL A   1      39.869  26.895  28.709  1.00  0.00     0.173 A 
ATOM    108  F   UNL A   1      42.129  29.588  27.772  1.00  0.00    -0.203 F 
ATOM    109  C   UNL A   1      41.517  27.638  26.601  1.00  0.00     0.198 A 
ATOM    110  C   UNL A   1      39.969  26.084  27.584  1.00  0.00     0.198 A 
ATOM    111  F   UNL A   1      39.062  26.518  29.713  1.00  0.00    -0.203 F 
ATOM    112  F   UNL A   1      42.306  28.000  25.581  1.00  0.00    -0.200 F 
ATOM    113  C   UNL A   1      40.793  26.455  26.531  1.00  0.00     0.200 A 
ATOM    114  F   UNL A   1      39.267  24.945  27.514  1.00  0.00    -0.200 F 
ATOM    115  F   UNL A   1      40.885  25.676  25.445  1.00  0.00    -0.200 F 
ENDBRANCH  85 105
BRANCH  88 116
ATOM    116  C   UNL A   1      39.711  33.905  36.794  1.00  0.00     0.064 A 
ATOM    117  C   UNL A   1      40.345  35.151  36.872  1.00  0.00     0.173 A 
ATOM    118  C   UNL A   1      38.920  33.493  37.874  1.00  0.00     0.173 A 
ATOM    119  F   UNL A   1      41.122  35.571  35.863  1.00  0.00    -0.203 F 
ATOM    120  C   UNL A   1      40.193  35.959  37.995  1.00  0.00     0.198 A 
ATOM    121  C   UNL A   1      38.765  34.306  38.994  1.00  0.00     0.198 A 
ATOM    122  F   UNL A   1      38.301  32.305  37.837  1.00  0.00    -0.203 F 
ATOM    123  F   UNL A   1      40.817  37.144  38.055  1.00  0.00    -0.200 F 
ATOM    124  C   UNL A   1      39.401  35.537  39.053  1.00  0.00     0.200 A 
ATOM    125  F   UNL A   1      38.001  33.896  40.015  1.00  0.00    -0.200 F 
ATOM    126  F   UNL A   1      39.254  36.316  40.134  1.00  0.00    -0.200 F 
ENDBRANCH  88 116
BRANCH 103 127
ATOM    127  C   UNL A   1      43.945  28.659  35.143  1.00  0.00     0.064 A 
ATOM    128  C   UNL A   1      43.692  27.603  36.028  1.00  0.00     0.173 A 
ATOM    129  C   UNL A   1      45.272  29.061  34.945  1.00  0.00     0.173 A 
ATOM    130  F   UNL A   1      42.435  27.197  36.255  1.00  0.00    -0.203 F 
ATOM    131  C   UNL A   1      44.737  26.971  36.697  1.00  0.00     0.198 A 
ATOM    132  C   UNL A   1      46.314  28.425  35.614  1.00  0.00     0.198 A 
ATOM    133  F   UNL A   1      45.554  30.075  34.114  1.00  0.00    -0.203 F 
ATOM    134  F   UNL A   1      44.476  25.971  37.551  1.00  0.00    -0.200 F 
ATOM    135  C   UNL A   1      46.046  27.382  36.489  1.00  0.00     0.200 A 
ATOM    136  F   UNL A   1      47.578  28.827  35.421  1.00  0.00    -0.200 F 
ATOM    137  F   UNL A   1      47.050  26.776  37.138  1.00  0.00    -0.200 F 
ENDBRANCH 103 127
ENDBRANCH  68  71
ENDBRANCH  58  61
ENDBRANCH  54  57
ENDBRANCH  51  54
ENDBRANCH  48  51
ENDBRANCH   1  48
TORSDOF 18
ENDMDL
MODEL 7
REMARK VINA RESULT:     -12.1      0.671      7.047
REMARK SMILES CC(=O)NS(=O)(=O)c1ccc(-c2ccn(C(F)F)c(=O)c2)cc1C(=O)NCCCCCCNC(=O)c1ccc(-c2c3nc(c(-c4c(F)c(F)c(F)c(F)c4F)c4ccc([nH]4)c(-c4c(F)c(F)c(F)c(F)c4F)c4nc(c(-c5c(F)c(F)c(F)c(F)c5F)c5ccc2[nH]5)C=C4)C=C3)cc1
REMARK SMILES IDX 29 1 28 4 27 7 26 10 24 11 25 12 23 14 8 15 9 16 10 17 22 19
REMARK SMILES IDX 11 20 5 23 6 24 7 25 4 26 2 27 3 28 1 30 12 34 13 35 21 36
REMARK SMILES IDX 14 37 19 39 15 41 20 43 16 44 17 45 18 46 30 48 31 51 32 54
REMARK SMILES IDX 33 57 34 58 35 60 36 61 37 62 98 63 38 64 97 66 39 68 40 71
REMARK SMILES IDX 41 72 91 73 42 74 96 75 90 76 92 77 43 78 95 79 89 81 88 83
REMARK SMILES IDX 44 85 76 88 56 89 75 90 57 91 60 92 74 93 93 94 58 95 59 97
REMARK SMILES IDX 73 99 94 100 61 103 45 105 46 106 54 107 47 108 48 109
REMARK SMILES IDX 52 110 55 111 49 112 50 113 53 114 51 115 77 116 78 117
REMARK SMILES IDX 86 118 79 119 80 120 84 121 87 122 81 123 82 124 85 125
REMARK SMILES IDX 83 126 62 127 63 128 71 129 64 130 65 131 69 132 72 133
REMARK SMILES IDX 66 134 67 135 70 136 68 137
REMARK H PARENT 29 2 29 3 28 5 28 6 27 8 27 9 26 13 9 18 10 21 22 22 4 29 1 31
REMARK H PARENT 1 32 1 33 13 38 21 40 14 42 16 47 30 49 30 50 31 52 31 53
REMARK H PARENT 32 55 32 56 33 59 37 65 98 67 38 69 97 70 96 80 90 82 92 84
REMARK H PARENT 95 86 89 87 57 96 60 98 93 101 58 102 94 104
REMARK Flexibility Score: inf
ROOT
ATOM      1  C   UNL A   1      32.790  29.762  25.799  1.00  0.00    -0.052 C 
ATOM      2  H   UNL A   1      32.614  29.262  24.869  1.00  0.00     0.027 H 
ATOM      3  H   UNL A   1      33.448  30.601  25.707  1.00  0.00     0.027 H 
ENDROOT
BRANCH   1   4
ATOM      4  C   UNL A   1      33.477  28.777  26.747  1.00  0.00    -0.036 C 
ATOM      5  H   UNL A   1      34.369  29.237  27.118  1.00  0.00     0.028 H 
ATOM      6  H   UNL A   1      32.770  28.553  27.517  1.00  0.00     0.028 H 
BRANCH   4   7
ATOM      7  C   UNL A   1      33.861  27.437  26.104  1.00  0.00     0.018 C 
ATOM      8  H   UNL A   1      33.746  27.505  25.042  1.00  0.00     0.049 H 
ATOM      9  H   UNL A   1      34.881  27.209  26.338  1.00  0.00     0.049 H 
BRANCH   7  10
ATOM     10  N   UNL A   1      32.997  26.385  26.620  1.00  0.00    -0.352 N 
ATOM     11  C   UNL A   1      31.934  25.718  26.082  1.00  0.00     0.252 C 
ATOM     12  O   UNL A   1      31.324  24.891  26.756  1.00  0.00    -0.269 OA
ATOM     13  H   UNL A   1      33.224  26.099  27.535  1.00  0.00     0.163 HD
BRANCH  11  14
ATOM     14  C   UNL A   1      31.546  25.858  24.665  1.00  0.00     0.060 A 
ATOM     15  C   UNL A   1      32.013  25.082  23.605  1.00  0.00     0.100 A 
ATOM     16  C   UNL A   1      31.607  25.375  22.292  1.00  0.00    -0.040 A 
ATOM     17  C   UNL A   1      30.838  26.510  22.026  1.00  0.00    -0.053 A 
ATOM     18  H   UNL A   1      31.879  24.747  21.519  1.00  0.00     0.064 H 
ATOM     19  C   UNL A   1      30.768  27.000  24.382  1.00  0.00    -0.040 A 
ATOM     20  C   UNL A   1      30.445  27.360  23.065  1.00  0.00    -0.017 A 
ATOM     21  H   UNL A   1      30.558  26.723  21.055  1.00  0.00     0.063 H 
ATOM     22  H   UNL A   1      30.431  27.585  25.161  1.00  0.00     0.064 H 
BRANCH  15  23
ATOM     23  S   UNL A   1      33.249  23.836  23.814  1.00  0.00     0.264 S 
ATOM     24  O   UNL A   1      33.999  24.200  24.996  1.00  0.00    -0.201 OA
ATOM     25  O   UNL A   1      33.897  23.556  22.557  1.00  0.00    -0.201 OA
BRANCH  23  26
ATOM     26  N   UNL A   1      32.380  22.486  24.221  1.00  0.00    -0.249 N 
ATOM     27  C   UNL A   1      32.830  21.280  24.773  1.00  0.00     0.230 C 
ATOM     28  O   UNL A   1      31.994  20.469  25.150  1.00  0.00    -0.274 OA
ATOM     29  H   UNL A   1      31.412  22.539  24.051  1.00  0.00     0.183 HD
BRANCH  27  30
ATOM     30  C   UNL A   1      34.302  20.995  24.837  1.00  0.00     0.016 C 
ATOM     31  H   UNL A   1      34.636  21.067  25.851  1.00  0.00     0.033 H 
ATOM     32  H   UNL A   1      34.830  21.707  24.237  1.00  0.00     0.033 H 
ATOM     33  H   UNL A   1      34.492  20.009  24.469  1.00  0.00     0.033 H 
ENDBRANCH  27  30
ENDBRANCH  23  26
ENDBRANCH  15  23
BRANCH  20  34
ATOM     34  C   UNL A   1      29.827  28.676  22.780  1.00  0.00    -0.011 A 
ATOM     35  C   UNL A   1      30.379  29.581  21.783  1.00  0.00    -0.038 A 
ATOM     36  C   UNL A   1      28.688  29.030  23.403  1.00  0.00     0.012 A 
ATOM     37  C   UNL A   1      29.761  30.726  21.474  1.00  0.00     0.013 A 
ATOM     38  H   UNL A   1      31.262  29.336  21.308  1.00  0.00     0.064 H 
ATOM     39  C   UNL A   1      27.985  30.303  23.067  1.00  0.00     0.255 A 
ATOM     40  H   UNL A   1      28.294  28.410  24.126  1.00  0.00     0.069 H 
ATOM     41  N   UNL A   1      28.583  31.088  22.095  1.00  0.00    -0.258 N 
ATOM     42  H   UNL A   1      30.171  31.349  20.759  1.00  0.00     0.082 H 
ATOM     43  O   UNL A   1      26.935  30.559  23.649  1.00  0.00    -0.269 OA
BRANCH  41  44
ATOM     44  C   UNL A   1      27.903  32.302  21.720  1.00  0.00     0.321 C 
ATOM     45  F   UNL A   1      28.517  33.385  22.257  1.00  0.00    -0.185 F 
ATOM     46  F   UNL A   1      27.879  32.456  20.374  1.00  0.00    -0.185 F 
ATOM     47  H   UNL A   1      26.903  32.224  22.091  1.00  0.00     0.131 H 
ENDBRANCH  41  44
ENDBRANCH  20  34
ENDBRANCH  11  14
ENDBRANCH   7  10
ENDBRANCH   4   7
ENDBRANCH   1   4
BRANCH   1  48
ATOM     48  C   UNL A   1      31.454  30.312  26.304  1.00  0.00    -0.052 C 
ATOM     49  H   UNL A   1      31.245  29.846  27.244  1.00  0.00     0.027 H 
ATOM     50  H   UNL A   1      30.747  30.093  25.532  1.00  0.00     0.027 H 
BRANCH  48  51
ATOM     51  C   UNL A   1      31.376  31.834  26.510  1.00  0.00    -0.036 C 
ATOM     52  H   UNL A   1      30.601  32.025  27.223  1.00  0.00     0.028 H 
ATOM     53  H   UNL A   1      31.199  32.239  25.536  1.00  0.00     0.028 H 
BRANCH  51  54
ATOM     54  C   UNL A   1      32.645  32.529  27.009  1.00  0.00     0.018 C 
ATOM     55  H   UNL A   1      33.335  32.601  26.196  1.00  0.00     0.049 H 
ATOM     56  H   UNL A   1      33.033  31.941  27.816  1.00  0.00     0.049 H 
BRANCH  54  57
ATOM     57  N   UNL A   1      32.402  33.862  27.528  1.00  0.00    -0.352 N 
ATOM     58  C   UNL A   1      33.079  34.555  28.500  1.00  0.00     0.251 C 
ATOM     59  H   UNL A   1      31.642  34.339  27.123  1.00  0.00     0.163 HD
ATOM     60  O   UNL A   1      32.675  35.658  28.861  1.00  0.00    -0.269 OA
BRANCH  58  61
ATOM     61  C   UNL A   1      34.275  33.975  29.155  1.00  0.00     0.039 A 
ATOM     62  C   UNL A   1      34.077  33.019  30.159  1.00  0.00    -0.049 A 
ATOM     63  C   UNL A   1      35.571  34.392  28.835  1.00  0.00    -0.049 A 
ATOM     64  C   UNL A   1      35.173  32.437  30.799  1.00  0.00    -0.053 A 
ATOM     65  H   UNL A   1      33.118  32.745  30.426  1.00  0.00     0.063 H 
ATOM     66  C   UNL A   1      36.669  33.800  29.469  1.00  0.00    -0.053 A 
ATOM     67  H   UNL A   1      35.718  35.136  28.135  1.00  0.00     0.063 H 
ATOM     68  C   UNL A   1      36.477  32.811  30.445  1.00  0.00    -0.014 A 
ATOM     69  H   UNL A   1      35.023  31.729  31.534  1.00  0.00     0.063 H 
ATOM     70  H   UNL A   1      37.626  34.092  29.215  1.00  0.00     0.063 H 
BRANCH  68  71
ATOM     71  C   UNL A   1      37.645  32.139  31.062  1.00  0.00     0.031 A 
ATOM     72  C   UNL A   1      38.108  32.511  32.439  1.00  0.00     0.074 A 
ATOM     73  C   UNL A   1      38.305  31.196  30.365  1.00  0.00     0.049 A 
ATOM     74  N   UNL A   1      39.161  32.092  33.093  1.00  0.00    -0.248 NA
ATOM     75  C   UNL A   1      37.285  33.483  33.172  1.00  0.00    -0.034 C 
ATOM     76  C   UNL A   1      37.955  30.741  29.020  1.00  0.00    -0.036 A 
ATOM     77  N   UNL A   1      39.411  30.455  30.695  1.00  0.00    -0.354 N 
ATOM     78  C   UNL A   1      39.145  32.766  34.305  1.00  0.00     0.074 A 
ATOM     79  C   UNL A   1      37.966  33.609  34.304  1.00  0.00    -0.034 C 
ATOM     80  H   UNL A   1      36.409  33.944  32.883  1.00  0.00     0.065 H 
ATOM     81  C   UNL A   1      38.829  29.794  28.639  1.00  0.00    -0.036 A 
ATOM     82  H   UNL A   1      37.166  31.092  28.454  1.00  0.00     0.065 H 
ATOM     83  C   UNL A   1      39.804  29.589  29.707  1.00  0.00     0.049 A 
ATOM     84  H   UNL A   1      39.878  30.536  31.558  1.00  0.00     0.167 HD
ATOM     85  C   UNL A   1      40.039  32.697  35.319  1.00  0.00     0.037 A 
ATOM     86  H   UNL A   1      37.692  34.228  35.083  1.00  0.00     0.065 H 
ATOM     87  H   UNL A   1      38.813  29.293  27.737  1.00  0.00     0.065 H 
ATOM     88  C   UNL A   1      40.839  28.732  29.663  1.00  0.00     0.037 A 
ATOM     89  C   UNL A   1      41.204  31.854  35.340  1.00  0.00     0.049 A 
ATOM     90  C   UNL A   1      41.780  28.632  30.826  1.00  0.00     0.074 A 
ATOM     91  C   UNL A   1      42.186  31.756  36.311  1.00  0.00    -0.036 A 
ATOM     92  N   UNL A   1      41.536  30.951  34.342  1.00  0.00    -0.354 N 
ATOM     93  N   UNL A   1      41.781  29.310  31.945  1.00  0.00    -0.248 NA
ATOM     94  C   UNL A   1      42.869  27.648  30.715  1.00  0.00    -0.034 C 
ATOM     95  C   UNL A   1      43.110  30.784  35.904  1.00  0.00    -0.036 A 
ATOM     96  H   UNL A   1      42.230  32.303  37.184  1.00  0.00     0.065 H 
ATOM     97  C   UNL A   1      42.700  30.279  34.682  1.00  0.00     0.049 A 
ATOM     98  H   UNL A   1      41.021  30.808  33.515  1.00  0.00     0.167 HD
ATOM     99  C   UNL A   1      42.870  28.849  32.668  1.00  0.00     0.074 A 
ATOM    100  C   UNL A   1      43.501  27.818  31.869  1.00  0.00    -0.034 C 
ATOM    101  H   UNL A   1      43.083  26.997  29.944  1.00  0.00     0.065 H 
ATOM    102  H   UNL A   1      43.952  30.494  36.426  1.00  0.00     0.065 H 
ATOM    103  C   UNL A   1      43.311  29.255  33.881  1.00  0.00     0.037 A 
ATOM    104  H   UNL A   1      44.336  27.286  32.160  1.00  0.00     0.065 H 
BRANCH  85 105
ATOM    105  C   UNL A   1      39.798  33.582  36.499  1.00  0.00     0.064 A 
ATOM    106  C   UNL A   1      40.354  34.866  36.565  1.00  0.00     0.173 A 
ATOM    107  C   UNL A   1      38.975  33.157  37.551  1.00  0.00     0.173 A 
ATOM    108  F   UNL A   1      41.152  35.308  35.583  1.00  0.00    -0.203 F 
ATOM    109  C   UNL A   1      40.093  35.697  37.651  1.00  0.00     0.198 A 
ATOM    110  C   UNL A   1      38.714  33.991  38.633  1.00  0.00     0.198 A 
ATOM    111  F   UNL A   1      38.429  31.931  37.527  1.00  0.00    -0.203 F 
ATOM    112  F   UNL A   1      40.638  36.919  37.703  1.00  0.00    -0.200 F 
ATOM    113  C   UNL A   1      39.272  35.260  38.682  1.00  0.00     0.200 A 
ATOM    114  F   UNL A   1      37.925  33.568  39.630  1.00  0.00    -0.200 F 
ATOM    115  F   UNL A   1      39.024  36.062  39.726  1.00  0.00    -0.200 F 
ENDBRANCH  85 105
BRANCH  88 116
ATOM    116  C   UNL A   1      41.042  27.901  28.457  1.00  0.00     0.064 A 
ATOM    117  C   UNL A   1      40.414  26.655  28.331  1.00  0.00     0.173 A 
ATOM    118  C   UNL A   1      41.848  28.347  27.403  1.00  0.00     0.173 A 
ATOM    119  F   UNL A   1      39.647  26.189  29.326  1.00  0.00    -0.203 F 
ATOM    120  C   UNL A   1      40.587  25.882  27.187  1.00  0.00     0.198 A 
ATOM    121  C   UNL A   1      42.017  27.575  26.257  1.00  0.00     0.198 A 
ATOM    122  F   UNL A   1      42.469  29.533  27.490  1.00  0.00    -0.203 F 
ATOM    123  F   UNL A   1      39.987  24.688  27.089  1.00  0.00    -0.200 F 
ATOM    124  C   UNL A   1      41.386  26.344  26.150  1.00  0.00     0.200 A 
ATOM    125  F   UNL A   1      42.789  28.022  25.257  1.00  0.00    -0.200 F 
ATOM    126  F   UNL A   1      41.552  25.599  25.048  1.00  0.00    -0.200 F 
ENDBRANCH  88 116
BRANCH 103 127
ATOM    127  C   UNL A   1      44.538  28.587  34.413  1.00  0.00     0.064 A 
ATOM    128  C   UNL A   1      45.811  29.103  34.135  1.00  0.00     0.173 A 
ATOM    129  C   UNL A   1      44.443  27.447  35.221  1.00  0.00     0.173 A 
ATOM    130  F   UNL A   1      45.946  30.185  33.355  1.00  0.00    -0.203 F 
ATOM    131  C   UNL A   1      46.953  28.494  34.649  1.00  0.00     0.198 A 
ATOM    132  C   UNL A   1      45.586  26.842  35.735  1.00  0.00     0.198 A 
ATOM    133  F   UNL A   1      43.243  26.917  35.501  1.00  0.00    -0.203 F 
ATOM    134  F   UNL A   1      48.164  28.992  34.363  1.00  0.00    -0.200 F 
ATOM    135  C   UNL A   1      46.839  27.365  35.449  1.00  0.00     0.200 A 
ATOM    136  F   UNL A   1      45.477  25.747  36.500  1.00  0.00    -0.200 F 
ATOM    137  F   UNL A   1      47.939  26.777  35.938  1.00  0.00    -0.200 F 
ENDBRANCH 103 127
ENDBRANCH  68  71
ENDBRANCH  58  61
ENDBRANCH  54  57
ENDBRANCH  51  54
ENDBRANCH  48  51
ENDBRANCH   1  48
TORSDOF 18
ENDMDL
MODEL 8
REMARK VINA RESULT:     -12.1      4.799      8.652
REMARK SMILES CC(=O)NS(=O)(=O)c1ccc(-c2ccn(C(F)F)c(=O)c2)cc1C(=O)NCCCCCCNC(=O)c1ccc(-c2c3nc(c(-c4c(F)c(F)c(F)c(F)c4F)c4ccc([nH]4)c(-c4c(F)c(F)c(F)c(F)c4F)c4nc(c(-c5c(F)c(F)c(F)c(F)c5F)c5ccc2[nH]5)C=C4)C=C3)cc1
REMARK SMILES IDX 29 1 28 4 27 7 26 10 24 11 25 12 23 14 8 15 9 16 10 17 22 19
REMARK SMILES IDX 11 20 5 23 6 24 7 25 4 26 2 27 3 28 1 30 12 34 13 35 21 36
REMARK SMILES IDX 14 37 19 39 15 41 20 43 16 44 17 45 18 46 30 48 31 51 32 54
REMARK SMILES IDX 33 57 34 58 35 60 36 61 37 62 98 63 38 64 97 66 39 68 40 71
REMARK SMILES IDX 41 72 91 73 42 74 96 75 90 76 92 77 43 78 95 79 89 81 88 83
REMARK SMILES IDX 44 85 76 88 56 89 75 90 57 91 60 92 74 93 93 94 58 95 59 97
REMARK SMILES IDX 73 99 94 100 61 103 45 105 46 106 54 107 47 108 48 109
REMARK SMILES IDX 52 110 55 111 49 112 50 113 53 114 51 115 77 116 78 117
REMARK SMILES IDX 86 118 79 119 80 120 84 121 87 122 81 123 82 124 85 125
REMARK SMILES IDX 83 126 62 127 63 128 71 129 64 130 65 131 69 132 72 133
REMARK SMILES IDX 66 134 67 135 70 136 68 137
REMARK H PARENT 29 2 29 3 28 5 28 6 27 8 27 9 26 13 9 18 10 21 22 22 4 29 1 31
REMARK H PARENT 1 32 1 33 13 38 21 40 14 42 16 47 30 49 30 50 31 52 31 53
REMARK H PARENT 32 55 32 56 33 59 37 65 98 67 38 69 97 70 96 80 90 82 92 84
REMARK H PARENT 95 86 89 87 57 96 60 98 93 101 58 102 94 104
REMARK Flexibility Score: inf
ROOT
ATOM      1  C   UNL A   1      36.652  22.267  24.134  1.00  0.00    -0.052 C 
ATOM      2  H   UNL A   1      37.591  22.281  23.620  1.00  0.00     0.027 H 
ATOM      3  H   UNL A   1      35.812  22.339  23.475  1.00  0.00     0.027 H 
ENDROOT
BRANCH   1   4
ATOM      4  C   UNL A   1      36.590  23.491  25.049  1.00  0.00    -0.036 C 
ATOM      5  H   UNL A   1      36.629  23.153  26.063  1.00  0.00     0.028 H 
ATOM      6  H   UNL A   1      37.419  24.113  24.783  1.00  0.00     0.028 H 
BRANCH   4   7
ATOM      7  C   UNL A   1      35.329  24.349  24.880  1.00  0.00     0.018 C 
ATOM      8  H   UNL A   1      34.615  24.087  25.633  1.00  0.00     0.049 H 
ATOM      9  H   UNL A   1      35.586  25.384  24.977  1.00  0.00     0.049 H 
BRANCH   7  10
ATOM     10  N   UNL A   1      34.754  24.114  23.563  1.00  0.00    -0.352 N 
ATOM     11  C   UNL A   1      33.470  24.144  23.099  1.00  0.00     0.252 C 
ATOM     12  O   UNL A   1      33.233  23.849  21.929  1.00  0.00    -0.269 OA
ATOM     13  H   UNL A   1      35.421  23.890  22.874  1.00  0.00     0.163 HD
BRANCH  11  14
ATOM     14  C   UNL A   1      32.344  24.637  23.915  1.00  0.00     0.060 A 
ATOM     15  C   UNL A   1      31.671  23.920  24.903  1.00  0.00     0.100 A 
ATOM     16  C   UNL A   1      30.567  24.495  25.556  1.00  0.00    -0.040 A 
ATOM     17  C   UNL A   1      30.063  25.730  25.138  1.00  0.00    -0.053 A 
ATOM     18  H   UNL A   1      30.126  24.004  26.348  1.00  0.00     0.064 H 
ATOM     19  C   UNL A   1      31.825  25.883  23.505  1.00  0.00    -0.040 A 
ATOM     20  C   UNL A   1      30.662  26.418  24.078  1.00  0.00    -0.017 A 
ATOM     21  H   UNL A   1      29.242  26.135  25.614  1.00  0.00     0.063 H 
ATOM     22  H   UNL A   1      32.311  26.411  22.765  1.00  0.00     0.064 H 
BRANCH  15  23
ATOM     23  S   UNL A   1      32.034  22.228  25.263  1.00  0.00     0.264 S 
ATOM     24  O   UNL A   1      30.857  21.687  25.907  1.00  0.00    -0.201 OA
ATOM     25  O   UNL A   1      33.346  22.109  25.849  1.00  0.00    -0.201 OA
BRANCH  23  26
ATOM     26  N   UNL A   1      32.106  21.516  23.769  1.00  0.00    -0.249 N 
ATOM     27  C   UNL A   1      32.292  20.167  23.442  1.00  0.00     0.230 C 
ATOM     28  O   UNL A   1      32.149  19.831  22.274  1.00  0.00    -0.274 OA
ATOM     29  H   UNL A   1      32.004  22.128  23.004  1.00  0.00     0.183 HD
BRANCH  27  30
ATOM     30  C   UNL A   1      32.707  19.195  24.507  1.00  0.00     0.016 C 
ATOM     31  H   UNL A   1      32.315  19.511  25.451  1.00  0.00     0.033 H 
ATOM     32  H   UNL A   1      33.775  19.157  24.560  1.00  0.00     0.033 H 
ATOM     33  H   UNL A   1      32.327  18.223  24.271  1.00  0.00     0.033 H 
ENDBRANCH  27  30
ENDBRANCH  23  26
ENDBRANCH  15  23
BRANCH  20  34
ATOM     34  C   UNL A   1      30.012  27.608  23.479  1.00  0.00    -0.011 A 
ATOM     35  C   UNL A   1      30.766  28.585  22.708  1.00  0.00    -0.038 A 
ATOM     36  C   UNL A   1      28.681  27.767  23.586  1.00  0.00     0.012 A 
ATOM     37  C   UNL A   1      30.152  29.606  22.100  1.00  0.00     0.013 A 
ATOM     38  H   UNL A   1      31.791  28.490  22.631  1.00  0.00     0.064 H 
ATOM     39  C   UNL A   1      27.980  28.899  22.911  1.00  0.00     0.255 A 
ATOM     40  H   UNL A   1      28.134  27.095  24.145  1.00  0.00     0.069 H 
ATOM     41  N   UNL A   1      28.784  29.767  22.190  1.00  0.00    -0.258 N 
ATOM     42  H   UNL A   1      30.708  30.283  21.555  1.00  0.00     0.082 H 
ATOM     43  O   UNL A   1      26.760  28.978  23.022  1.00  0.00    -0.269 OA
BRANCH  41  44
ATOM     44  C   UNL A   1      28.128  30.844  21.492  1.00  0.00     0.321 C 
ATOM     45  F   UNL A   1      28.960  31.906  21.354  1.00  0.00    -0.185 F 
ATOM     46  F   UNL A   1      27.729  30.458  20.256  1.00  0.00    -0.185 F 
ATOM     47  H   UNL A   1      27.276  31.118  22.077  1.00  0.00     0.131 H 
ENDBRANCH  41  44
ENDBRANCH  20  34
ENDBRANCH  11  14
ENDBRANCH   7  10
ENDBRANCH   4   7
ENDBRANCH   1   4
BRANCH   1  48
ATOM     48  C   UNL A   1      36.524  20.921  24.853  1.00  0.00    -0.052 C 
ATOM     49  H   UNL A   1      35.733  20.375  24.383  1.00  0.00     0.027 H 
ATOM     50  H   UNL A   1      36.348  21.164  25.880  1.00  0.00     0.027 H 
BRANCH  48  51
ATOM     51  C   UNL A   1      37.774  20.026  24.854  1.00  0.00    -0.036 C 
ATOM     52  H   UNL A   1      38.221  20.091  23.884  1.00  0.00     0.028 H 
ATOM     53  H   UNL A   1      37.419  19.051  25.119  1.00  0.00     0.028 H 
BRANCH  51  54
ATOM     54  C   UNL A   1      38.857  20.353  25.886  1.00  0.00     0.018 C 
ATOM     55  H   UNL A   1      38.407  20.371  26.856  1.00  0.00     0.049 H 
ATOM     56  H   UNL A   1      39.275  21.301  25.617  1.00  0.00     0.049 H 
BRANCH  54  57
ATOM     57  N   UNL A   1      39.944  19.391  25.899  1.00  0.00    -0.352 N 
ATOM     58  C   UNL A   1      41.281  19.593  26.135  1.00  0.00     0.251 C 
ATOM     59  H   UNL A   1      39.685  18.460  25.713  1.00  0.00     0.163 HD
ATOM     60  O   UNL A   1      42.070  18.657  26.029  1.00  0.00    -0.269 OA
BRANCH  58  61
ATOM     61  C   UNL A   1      41.798  20.937  26.479  1.00  0.00     0.039 A 
ATOM     62  C   UNL A   1      42.031  21.840  25.434  1.00  0.00    -0.049 A 
ATOM     63  C   UNL A   1      42.104  21.301  27.795  1.00  0.00    -0.049 A 
ATOM     64  C   UNL A   1      42.511  23.123  25.708  1.00  0.00    -0.053 A 
ATOM     65  H   UNL A   1      41.849  21.556  24.458  1.00  0.00     0.063 H 
ATOM     66  C   UNL A   1      42.573  22.590  28.070  1.00  0.00    -0.053 A 
ATOM     67  H   UNL A   1      41.985  20.619  28.560  1.00  0.00     0.063 H 
ATOM     68  C   UNL A   1      42.767  23.512  27.031  1.00  0.00    -0.014 A 
ATOM     69  H   UNL A   1      42.676  23.787  24.936  1.00  0.00     0.063 H 
ATOM     70  H   UNL A   1      42.775  22.864  29.044  1.00  0.00     0.063 H 
BRANCH  68  71
ATOM     71  C   UNL A   1      43.198  24.896  27.337  1.00  0.00     0.031 A 
ATOM     72  C   UNL A   1      44.597  25.349  27.045  1.00  0.00     0.074 A 
ATOM     73  C   UNL A   1      42.323  25.748  27.900  1.00  0.00     0.049 A 
ATOM     74  N   UNL A   1      45.169  26.492  27.330  1.00  0.00    -0.248 NA
ATOM     75  C   UNL A   1      45.469  24.393  26.348  1.00  0.00    -0.034 C 
ATOM     76  C   UNL A   1      40.933  25.433  28.232  1.00  0.00    -0.036 A 
ATOM     77  N   UNL A   1      42.476  27.053  28.296  1.00  0.00    -0.354 N 
ATOM     78  C   UNL A   1      46.474  26.386  26.872  1.00  0.00     0.074 A 
ATOM     79  C   UNL A   1      46.606  25.074  26.273  1.00  0.00    -0.034 C 
ATOM     80  H   UNL A   1      45.254  23.444  26.006  1.00  0.00     0.065 H 
ATOM     81  C   UNL A   1      40.358  26.518  28.779  1.00  0.00    -0.036 A 
ATOM     82  H   UNL A   1      40.469  24.525  28.073  1.00  0.00     0.065 H 
ATOM     83  C   UNL A   1      41.344  27.594  28.847  1.00  0.00     0.049 A 
ATOM     84  H   UNL A   1      43.319  27.552  28.194  1.00  0.00     0.167 HD
ATOM     85  C   UNL A   1      47.471  27.297  26.957  1.00  0.00     0.037 A 
ATOM     86  H   UNL A   1      47.473  24.715  25.843  1.00  0.00     0.065 H 
ATOM     87  H   UNL A   1      39.379  26.580  29.098  1.00  0.00     0.065 H 
ATOM     88  C   UNL A   1      41.126  28.819  29.359  1.00  0.00     0.037 A 
ATOM     89  C   UNL A   1      47.350  28.608  27.535  1.00  0.00     0.049 A 
ATOM     90  C   UNL A   1      42.233  29.829  29.385  1.00  0.00     0.074 A 
ATOM     91  C   UNL A   1      48.325  29.577  27.700  1.00  0.00    -0.036 A 
ATOM     92  N   UNL A   1      46.170  29.138  28.033  1.00  0.00    -0.354 N 
ATOM     93  N   UNL A   1      43.475  29.699  28.993  1.00  0.00    -0.248 NA
ATOM     94  C   UNL A   1      41.908  31.156  29.930  1.00  0.00    -0.034 C 
ATOM     95  C   UNL A   1      47.731  30.700  28.290  1.00  0.00    -0.036 A 
ATOM     96  H   UNL A   1      49.317  29.487  27.433  1.00  0.00     0.065 H 
ATOM     97  C   UNL A   1      46.389  30.429  28.490  1.00  0.00     0.049 A 
ATOM     98  H   UNL A   1      45.305  28.669  28.057  1.00  0.00     0.167 HD
ATOM     99  C   UNL A   1      44.084  30.918  29.253  1.00  0.00     0.074 A 
ATOM    100  C   UNL A   1      43.072  31.783  29.822  1.00  0.00    -0.034 C 
ATOM    101  H   UNL A   1      41.010  31.507  30.299  1.00  0.00     0.065 H 
ATOM    102  H   UNL A   1      48.213  31.580  28.534  1.00  0.00     0.065 H 
ATOM    103  C   UNL A   1      45.372  31.278  29.048  1.00  0.00     0.037 A 
ATOM    104  H   UNL A   1      43.235  32.761  30.106  1.00  0.00     0.065 H 
BRANCH  85 105
ATOM    105  C   UNL A   1      48.806  26.893  26.420  1.00  0.00     0.064 A 
ATOM    106  C   UNL A   1      49.157  27.145  25.088  1.00  0.00     0.173 A 
ATOM    107  C   UNL A   1      49.754  26.285  27.255  1.00  0.00     0.173 A 
ATOM    108  F   UNL A   1      48.277  27.718  24.255  1.00  0.00    -0.203 F 
ATOM    109  C   UNL A   1      50.417  26.798  24.608  1.00  0.00     0.198 A 
ATOM    110  C   UNL A   1      51.013  25.943  26.773  1.00  0.00     0.198 A 
ATOM    111  F   UNL A   1      49.454  26.022  28.537  1.00  0.00    -0.203 F 
ATOM    112  F   UNL A   1      50.734  27.039  23.329  1.00  0.00    -0.200 F 
ATOM    113  C   UNL A   1      51.344  26.201  25.450  1.00  0.00     0.200 A 
ATOM    114  F   UNL A   1      51.907  25.363  27.585  1.00  0.00    -0.200 F 
ATOM    115  F   UNL A   1      52.555  25.868  24.986  1.00  0.00    -0.200 F 
ENDBRANCH  85 105
BRANCH  88 116
ATOM    116  C   UNL A   1      39.790  29.151  29.900  1.00  0.00     0.064 A 
ATOM    117  C   UNL A   1      38.777  29.632  29.062  1.00  0.00     0.173 A 
ATOM    118  C   UNL A   1      39.500  28.974  31.259  1.00  0.00     0.173 A 
ATOM    119  F   UNL A   1      39.023  29.828  27.759  1.00  0.00    -0.203 F 
ATOM    120  C   UNL A   1      37.513  29.925  29.567  1.00  0.00     0.198 A 
ATOM    121  C   UNL A   1      38.234  29.263  31.761  1.00  0.00     0.198 A 
ATOM    122  F   UNL A   1      40.447  28.520  32.092  1.00  0.00    -0.203 F 
ATOM    123  F   UNL A   1      36.559  30.394  28.751  1.00  0.00    -0.200 F 
ATOM    124  C   UNL A   1      37.243  29.737  30.915  1.00  0.00     0.200 A 
ATOM    125  F   UNL A   1      37.975  29.082  33.063  1.00  0.00    -0.200 F 
ATOM    126  F   UNL A   1      36.025  30.019  31.401  1.00  0.00    -0.200 F 
ENDBRANCH  88 116
BRANCH 103 127
ATOM    127  C   UNL A   1      45.758  32.665  29.447  1.00  0.00     0.064 A 
ATOM    128  C   UNL A   1      46.242  32.931  30.735  1.00  0.00     0.173 A 
ATOM    129  C   UNL A   1      45.671  33.725  28.536  1.00  0.00     0.173 A 
ATOM    130  F   UNL A   1      46.328  31.946  31.641  1.00  0.00    -0.203 F 
ATOM    131  C   UNL A   1      46.622  34.219  31.100  1.00  0.00     0.198 A 
ATOM    132  C   UNL A   1      46.055  35.012  28.903  1.00  0.00     0.198 A 
ATOM    133  F   UNL A   1      45.203  33.514  27.297  1.00  0.00    -0.203 F 
ATOM    134  F   UNL A   1      47.070  34.459  32.341  1.00  0.00    -0.200 F 
ATOM    135  C   UNL A   1      46.529  35.258  30.184  1.00  0.00     0.200 A 
ATOM    136  F   UNL A   1      45.956  36.017  28.023  1.00  0.00    -0.200 F 
ATOM    137  F   UNL A   1      46.890  36.498  30.539  1.00  0.00    -0.200 F 
ENDBRANCH 103 127
ENDBRANCH  68  71
ENDBRANCH  58  61
ENDBRANCH  54  57
ENDBRANCH  51  54
ENDBRANCH  48  51
ENDBRANCH   1  48
TORSDOF 18
ENDMDL
MODEL 9
REMARK VINA RESULT:     -12.0      2.604      8.360
REMARK SMILES CC(=O)NS(=O)(=O)c1ccc(-c2ccn(C(F)F)c(=O)c2)cc1C(=O)NCCCCCCNC(=O)c1ccc(-c2c3nc(c(-c4c(F)c(F)c(F)c(F)c4F)c4ccc([nH]4)c(-c4c(F)c(F)c(F)c(F)c4F)c4nc(c(-c5c(F)c(F)c(F)c(F)c5F)c5ccc2[nH]5)C=C4)C=C3)cc1
REMARK SMILES IDX 29 1 28 4 27 7 26 10 24 11 25 12 23 14 8 15 9 16 10 17 22 19
REMARK SMILES IDX 11 20 5 23 6 24 7 25 4 26 2 27 3 28 1 30 12 34 13 35 21 36
REMARK SMILES IDX 14 37 19 39 15 41 20 43 16 44 17 45 18 46 30 48 31 51 32 54
REMARK SMILES IDX 33 57 34 58 35 60 36 61 37 62 98 63 38 64 97 66 39 68 40 71
REMARK SMILES IDX 41 72 91 73 42 74 96 75 90 76 92 77 43 78 95 79 89 81 88 83
REMARK SMILES IDX 44 85 76 88 56 89 75 90 57 91 60 92 74 93 93 94 58 95 59 97
REMARK SMILES IDX 73 99 94 100 61 103 45 105 46 106 54 107 47 108 48 109
REMARK SMILES IDX 52 110 55 111 49 112 50 113 53 114 51 115 77 116 78 117
REMARK SMILES IDX 86 118 79 119 80 120 84 121 87 122 81 123 82 124 85 125
REMARK SMILES IDX 83 126 62 127 63 128 71 129 64 130 65 131 69 132 72 133
REMARK SMILES IDX 66 134 67 135 70 136 68 137
REMARK H PARENT 29 2 29 3 28 5 28 6 27 8 27 9 26 13 9 18 10 21 22 22 4 29 1 31
REMARK H PARENT 1 32 1 33 13 38 21 40 14 42 16 47 30 49 30 50 31 52 31 53
REMARK H PARENT 32 55 32 56 33 59 37 65 98 67 38 69 97 70 96 80 90 82 92 84
REMARK H PARENT 95 86 89 87 57 96 60 98 93 101 58 102 94 104
REMARK Flexibility Score: inf
ROOT
ATOM      1  C   UNL A   1      31.978  29.598  27.245  1.00  0.00    -0.052 C 
ATOM      2  H   UNL A   1      31.915  29.977  28.244  1.00  0.00     0.027 H 
ATOM      3  H   UNL A   1      31.339  28.757  27.074  1.00  0.00     0.027 H 
ENDROOT
BRANCH   1   4
ATOM      4  C   UNL A   1      33.408  29.107  27.011  1.00  0.00    -0.036 C 
ATOM      5  H   UNL A   1      33.888  29.784  26.336  1.00  0.00     0.028 H 
ATOM      6  H   UNL A   1      33.879  29.071  27.972  1.00  0.00     0.028 H 
BRANCH   4   7
ATOM      7  C   UNL A   1      33.509  27.693  26.423  1.00  0.00     0.018 C 
ATOM      8  H   UNL A   1      33.656  27.757  25.365  1.00  0.00     0.049 H 
ATOM      9  H   UNL A   1      34.336  27.179  26.868  1.00  0.00     0.049 H 
BRANCH   7  10
ATOM     10  N   UNL A   1      32.279  26.963  26.699  1.00  0.00    -0.352 N 
ATOM     11  C   UNL A   1      31.608  25.993  26.011  1.00  0.00     0.252 C 
ATOM     12  O   UNL A   1      30.538  25.566  26.439  1.00  0.00    -0.269 OA
ATOM     13  H   UNL A   1      31.848  27.219  27.547  1.00  0.00     0.163 HD
BRANCH  11  14
ATOM     14  C   UNL A   1      32.172  25.336  24.816  1.00  0.00     0.060 A 
ATOM     15  C   UNL A   1      32.076  25.796  23.504  1.00  0.00     0.100 A 
ATOM     16  C   UNL A   1      32.605  25.027  22.452  1.00  0.00    -0.040 A 
ATOM     17  C   UNL A   1      33.117  23.750  22.698  1.00  0.00    -0.053 A 
ATOM     18  H   UNL A   1      32.615  25.407  21.493  1.00  0.00     0.064 H 
ATOM     19  C   UNL A   1      32.694  24.046  25.049  1.00  0.00    -0.040 A 
ATOM     20  C   UNL A   1      33.128  23.229  23.996  1.00  0.00    -0.017 A 
ATOM     21  H   UNL A   1      33.489  23.189  21.916  1.00  0.00     0.063 H 
ATOM     22  H   UNL A   1      32.755  23.696  26.017  1.00  0.00     0.064 H 
BRANCH  15  23
ATOM     23  S   UNL A   1      31.152  27.239  23.068  1.00  0.00     0.264 S 
ATOM     24  O   UNL A   1      31.019  27.217  21.628  1.00  0.00    -0.201 OA
ATOM     25  O   UNL A   1      31.660  28.391  23.769  1.00  0.00    -0.201 OA
BRANCH  23  26
ATOM     26  N   UNL A   1      29.640  26.934  23.672  1.00  0.00    -0.249 N 
ATOM     27  C   UNL A   1      28.448  27.639  23.464  1.00  0.00     0.230 C 
ATOM     28  O   UNL A   1      27.406  27.146  23.876  1.00  0.00    -0.274 OA
ATOM     29  H   UNL A   1      29.570  26.147  24.260  1.00  0.00     0.183 HD
BRANCH  27  30
ATOM     30  C   UNL A   1      28.487  28.984  22.800  1.00  0.00     0.016 C 
ATOM     31  H   UNL A   1      28.614  29.745  23.542  1.00  0.00     0.033 H 
ATOM     32  H   UNL A   1      27.570  29.149  22.274  1.00  0.00     0.033 H 
ATOM     33  H   UNL A   1      29.304  29.018  22.111  1.00  0.00     0.033 H 
ENDBRANCH  27  30
ENDBRANCH  23  26
ENDBRANCH  15  23
BRANCH  20  34
ATOM     34  C   UNL A   1      33.455  21.804  24.240  1.00  0.00    -0.011 A 
ATOM     35  C   UNL A   1      32.467  20.751  24.065  1.00  0.00    -0.038 A 
ATOM     36  C   UNL A   1      34.711  21.453  24.570  1.00  0.00     0.012 A 
ATOM     37  C   UNL A   1      32.800  19.463  24.204  1.00  0.00     0.013 A 
ATOM     38  H   UNL A   1      31.493  21.001  23.831  1.00  0.00     0.064 H 
ATOM     39  C   UNL A   1      35.099  20.021  24.726  1.00  0.00     0.255 A 
ATOM     40  H   UNL A   1      35.419  22.188  24.718  1.00  0.00     0.069 H 
ATOM     41  N   UNL A   1      34.091  19.093  24.524  1.00  0.00    -0.258 N 
ATOM     42  H   UNL A   1      32.081  18.734  24.069  1.00  0.00     0.082 H 
ATOM     43  O   UNL A   1      36.267  19.761  25.001  1.00  0.00    -0.269 OA
BRANCH  41  44
ATOM     44  C   UNL A   1      34.447  17.701  24.626  1.00  0.00     0.321 C 
ATOM     45  F   UNL A   1      33.601  17.045  25.458  1.00  0.00    -0.185 F 
ATOM     46  F   UNL A   1      34.403  17.093  23.416  1.00  0.00    -0.185 F 
ATOM     47  H   UNL A   1      35.444  17.664  25.012  1.00  0.00     0.131 H 
ENDBRANCH  41  44
ENDBRANCH  20  34
ENDBRANCH  11  14
ENDBRANCH   7  10
ENDBRANCH   4   7
ENDBRANCH   1   4
BRANCH   1  48
ATOM     48  C   UNL A   1      31.513  30.698  26.288  1.00  0.00    -0.052 C 
ATOM     49  H   UNL A   1      30.547  30.422  25.921  1.00  0.00     0.027 H 
ATOM     50  H   UNL A   1      32.273  30.760  25.537  1.00  0.00     0.027 H 
BRANCH  48  51
ATOM     51  C   UNL A   1      31.403  32.114  26.876  1.00  0.00    -0.036 C 
ATOM     52  H   UNL A   1      31.058  32.020  27.885  1.00  0.00     0.028 H 
ATOM     53  H   UNL A   1      30.737  32.637  26.222  1.00  0.00     0.028 H 
BRANCH  51  54
ATOM     54  C   UNL A   1      32.684  32.953  26.900  1.00  0.00     0.018 C 
ATOM     55  H   UNL A   1      32.964  33.173  25.893  1.00  0.00     0.049 H 
ATOM     56  H   UNL A   1      33.429  32.379  27.411  1.00  0.00     0.049 H 
BRANCH  54  57
ATOM     57  N   UNL A   1      32.535  34.203  27.622  1.00  0.00    -0.352 N 
ATOM     58  C   UNL A   1      33.220  34.661  28.720  1.00  0.00     0.251 C 
ATOM     59  H   UNL A   1      31.845  34.811  27.272  1.00  0.00     0.163 HD
ATOM     60  O   UNL A   1      32.900  35.726  29.241  1.00  0.00    -0.269 OA
BRANCH  58  61
ATOM     61  C   UNL A   1      34.321  33.868  29.315  1.00  0.00     0.039 A 
ATOM     62  C   UNL A   1      35.636  34.286  29.077  1.00  0.00    -0.049 A 
ATOM     63  C   UNL A   1      34.082  32.703  30.051  1.00  0.00    -0.049 A 
ATOM     64  C   UNL A   1      36.708  33.577  29.624  1.00  0.00    -0.053 A 
ATOM     65  H   UNL A   1      35.814  35.120  28.495  1.00  0.00     0.063 H 
ATOM     66  C   UNL A   1      35.155  32.000  30.609  1.00  0.00    -0.053 A 
ATOM     67  H   UNL A   1      33.117  32.362  30.183  1.00  0.00     0.063 H 
ATOM     68  C   UNL A   1      36.473  32.438  30.409  1.00  0.00    -0.014 A 
ATOM     69  H   UNL A   1      37.675  33.890  29.450  1.00  0.00     0.063 H 
ATOM     70  H   UNL A   1      34.976  31.154  31.172  1.00  0.00     0.063 H 
BRANCH  68  71
ATOM     71  C   UNL A   1      37.599  31.729  31.058  1.00  0.00     0.031 A 
ATOM     72  C   UNL A   1      37.978  32.021  32.479  1.00  0.00     0.074 A 
ATOM     73  C   UNL A   1      38.300  30.823  30.352  1.00  0.00     0.049 A 
ATOM     74  N   UNL A   1      38.988  31.562  33.173  1.00  0.00    -0.248 NA
ATOM     75  C   UNL A   1      37.112  32.954  33.214  1.00  0.00    -0.034 C 
ATOM     76  C   UNL A   1      38.033  30.445  28.964  1.00  0.00    -0.036 A 
ATOM     77  N   UNL A   1      39.383  30.059  30.707  1.00  0.00    -0.354 N 
ATOM     78  C   UNL A   1      38.898  32.168  34.417  1.00  0.00     0.074 A 
ATOM     79  C   UNL A   1      37.723  33.015  34.391  1.00  0.00    -0.034 C 
ATOM     80  H   UNL A   1      36.256  33.435  32.898  1.00  0.00     0.065 H 
ATOM     81  C   UNL A   1      38.928  29.516  28.585  1.00  0.00    -0.036 A 
ATOM     82  H   UNL A   1      37.281  30.829  28.372  1.00  0.00     0.065 H 
ATOM     83  C   UNL A   1      39.835  29.248  29.698  1.00  0.00     0.049 A 
ATOM     84  H   UNL A   1      39.796  30.091  31.600  1.00  0.00     0.167 HD
ATOM     85  C   UNL A   1      39.728  32.039  35.479  1.00  0.00     0.037 A 
ATOM     86  H   UNL A   1      37.402  33.591  35.185  1.00  0.00     0.065 H 
ATOM     87  H   UNL A   1      38.967  29.066  27.658  1.00  0.00     0.065 H 
ATOM     88  C   UNL A   1      40.870  28.390  29.670  1.00  0.00     0.037 A 
ATOM     89  C   UNL A   1      40.889  31.191  35.523  1.00  0.00     0.049 A 
ATOM     90  C   UNL A   1      41.738  28.222  30.881  1.00  0.00     0.074 A 
ATOM     91  C   UNL A   1      41.810  31.035  36.546  1.00  0.00    -0.036 A 
ATOM     92  N   UNL A   1      41.281  30.344  34.499  1.00  0.00    -0.354 N 
ATOM     93  N   UNL A   1      41.671  28.837  32.034  1.00  0.00    -0.248 NA
ATOM     94  C   UNL A   1      42.830  27.241  30.783  1.00  0.00    -0.034 C 
ATOM     95  C   UNL A   1      42.756  30.083  36.143  1.00  0.00    -0.036 A 
ATOM     96  H   UNL A   1      41.800  31.533  37.449  1.00  0.00     0.065 H 
ATOM     97  C   UNL A   1      42.421  29.648  34.872  1.00  0.00     0.049 A 
ATOM     98  H   UNL A   1      40.818  30.248  33.636  1.00  0.00     0.167 HD
ATOM     99  C   UNL A   1      42.713  28.331  32.795  1.00  0.00     0.074 A 
ATOM    100  C   UNL A   1      43.391  27.344  31.981  1.00  0.00    -0.034 C 
ATOM    101  H   UNL A   1      43.091  26.633  29.991  1.00  0.00     0.065 H 
ATOM    102  H   UNL A   1      43.564  29.761  36.699  1.00  0.00     0.065 H 
ATOM    103  C   UNL A   1      43.079  28.667  34.054  1.00  0.00     0.037 A 
ATOM    104  H   UNL A   1      44.205  26.792  32.292  1.00  0.00     0.065 H 
BRANCH  85 105
ATOM    105  C   UNL A   1      39.417  32.858  36.688  1.00  0.00     0.064 A 
ATOM    106  C   UNL A   1      38.481  32.424  37.635  1.00  0.00     0.173 A 
ATOM    107  C   UNL A   1      40.087  34.068  36.920  1.00  0.00     0.173 A 
ATOM    108  F   UNL A   1      37.813  31.277  37.447  1.00  0.00    -0.203 F 
ATOM    109  C   UNL A   1      38.224  33.177  38.778  1.00  0.00     0.198 A 
ATOM    110  C   UNL A   1      39.831  34.816  38.065  1.00  0.00     0.198 A 
ATOM    111  F   UNL A   1      40.987  34.521  36.034  1.00  0.00    -0.203 F 
ATOM    112  F   UNL A   1      37.321  32.751  39.670  1.00  0.00    -0.200 F 
ATOM    113  C   UNL A   1      38.901  34.369  38.993  1.00  0.00     0.200 A 
ATOM    114  F   UNL A   1      40.481  35.969  38.270  1.00  0.00    -0.200 F 
ATOM    115  F   UNL A   1      38.652  35.093  40.093  1.00  0.00    -0.200 F 
ENDBRANCH  85 105
BRANCH  88 116
ATOM    116  C   UNL A   1      41.146  27.626  28.434  1.00  0.00     0.064 A 
ATOM    117  C   UNL A   1      42.065  28.099  27.490  1.00  0.00     0.173 A 
ATOM    118  C   UNL A   1      40.510  26.403  28.188  1.00  0.00     0.173 A 
ATOM    119  F   UNL A   1      42.682  29.273  27.685  1.00  0.00    -0.203 F 
ATOM    120  C   UNL A   1      42.340  27.369  26.336  1.00  0.00     0.198 A 
ATOM    121  C   UNL A   1      40.790  25.673  27.036  1.00  0.00     0.198 A 
ATOM    122  F   UNL A   1      39.620  25.921  29.068  1.00  0.00    -0.203 F 
ATOM    123  F   UNL A   1      43.216  27.844  25.439  1.00  0.00    -0.200 F 
ATOM    124  C   UNL A   1      41.704  26.157  26.112  1.00  0.00     0.200 A 
ATOM    125  F   UNL A   1      40.174  24.503  26.821  1.00  0.00    -0.200 F 
ATOM    126  F   UNL A   1      41.970  25.455  25.001  1.00  0.00    -0.200 F 
ENDBRANCH  88 116
BRANCH 103 127
ATOM    127  C   UNL A   1      44.271  27.966  34.622  1.00  0.00     0.064 A 
ATOM    128  C   UNL A   1      44.126  26.758  35.318  1.00  0.00     0.173 A 
ATOM    129  C   UNL A   1      45.560  28.486  34.450  1.00  0.00     0.173 A 
ATOM    130  F   UNL A   1      42.908  26.234  35.515  1.00  0.00    -0.203 F 
ATOM    131  C   UNL A   1      45.238  26.094  35.828  1.00  0.00     0.198 A 
ATOM    132  C   UNL A   1      46.670  27.818  34.959  1.00  0.00     0.198 A 
ATOM    133  F   UNL A   1      45.739  29.645  33.800  1.00  0.00    -0.203 F 
ATOM    134  F   UNL A   1      45.081  24.946  36.502  1.00  0.00    -0.200 F 
ATOM    135  C   UNL A   1      46.508  26.624  35.647  1.00  0.00     0.200 A 
ATOM    136  F   UNL A   1      47.895  28.334  34.794  1.00  0.00    -0.200 F 
ATOM    137  F   UNL A   1      47.577  25.986  36.144  1.00  0.00    -0.200 F 
ENDBRANCH 103 127
ENDBRANCH  68  71
ENDBRANCH  58  61
ENDBRANCH  54  57
ENDBRANCH  51  54
ENDBRANCH  48  51
ENDBRANCH   1  48
TORSDOF 18
ENDMDL
MODEL 10
REMARK VINA RESULT:     -11.9      5.048      9.090
REMARK SMILES CC(=O)NS(=O)(=O)c1ccc(-c2ccn(C(F)F)c(=O)c2)cc1C(=O)NCCCCCCNC(=O)c1ccc(-c2c3nc(c(-c4c(F)c(F)c(F)c(F)c4F)c4ccc([nH]4)c(-c4c(F)c(F)c(F)c(F)c4F)c4nc(c(-c5c(F)c(F)c(F)c(F)c5F)c5ccc2[nH]5)C=C4)C=C3)cc1
REMARK SMILES IDX 29 1 28 4 27 7 26 10 24 11 25 12 23 14 8 15 9 16 10 17 22 19
REMARK SMILES IDX 11 20 5 23 6 24 7 25 4 26 2 27 3 28 1 30 12 34 13 35 21 36
REMARK SMILES IDX 14 37 19 39 15 41 20 43 16 44 17 45 18 46 30 48 31 51 32 54
REMARK SMILES IDX 33 57 34 58 35 60 36 61 37 62 98 63 38 64 97 66 39 68 40 71
REMARK SMILES IDX 41 72 91 73 42 74 96 75 90 76 92 77 43 78 95 79 89 81 88 83
REMARK SMILES IDX 44 85 76 88 56 89 75 90 57 91 60 92 74 93 93 94 58 95 59 97
REMARK SMILES IDX 73 99 94 100 61 103 45 105 46 106 54 107 47 108 48 109
REMARK SMILES IDX 52 110 55 111 49 112 50 113 53 114 51 115 77 116 78 117
REMARK SMILES IDX 86 118 79 119 80 120 84 121 87 122 81 123 82 124 85 125
REMARK SMILES IDX 83 126 62 127 63 128 71 129 64 130 65 131 69 132 72 133
REMARK SMILES IDX 66 134 67 135 70 136 68 137
REMARK H PARENT 29 2 29 3 28 5 28 6 27 8 27 9 26 13 9 18 10 21 22 22 4 29 1 31
REMARK H PARENT 1 32 1 33 13 38 21 40 14 42 16 47 30 49 30 50 31 52 31 53
REMARK H PARENT 32 55 32 56 33 59 37 65 98 67 38 69 97 70 96 80 90 82 92 84
REMARK H PARENT 95 86 89 87 57 96 60 98 93 101 58 102 94 104
REMARK Flexibility Score: inf
ROOT
ATOM      1  C   UNL A   1      37.026  22.215  23.907  1.00  0.00    -0.052 C 
ATOM      2  H   UNL A   1      37.509  22.925  23.268  1.00  0.00     0.027 H 
ATOM      3  H   UNL A   1      36.751  21.313  23.400  1.00  0.00     0.027 H 
ENDROOT
BRANCH   1   4
ATOM      4  C   UNL A   1      35.725  22.838  24.416  1.00  0.00    -0.036 C 
ATOM      5  H   UNL A   1      35.430  23.602  23.729  1.00  0.00     0.028 H 
ATOM      6  H   UNL A   1      35.014  22.042  24.487  1.00  0.00     0.028 H 
BRANCH   4   7
ATOM      7  C   UNL A   1      35.823  23.462  25.814  1.00  0.00     0.018 C 
ATOM      8  H   UNL A   1      36.850  23.644  26.053  1.00  0.00     0.049 H 
ATOM      9  H   UNL A   1      35.284  24.388  25.830  1.00  0.00     0.049 H 
BRANCH   7  10
ATOM     10  N   UNL A   1      35.250  22.551  26.795  1.00  0.00    -0.352 N 
ATOM     11  C   UNL A   1      33.987  22.064  26.973  1.00  0.00     0.252 C 
ATOM     12  O   UNL A   1      33.740  21.333  27.931  1.00  0.00    -0.269 OA
ATOM     13  H   UNL A   1      35.900  22.222  27.457  1.00  0.00     0.163 HD
BRANCH  11  14
ATOM     14  C   UNL A   1      32.908  22.280  25.990  1.00  0.00     0.060 A 
ATOM     15  C   UNL A   1      32.442  21.348  25.065  1.00  0.00     0.100 A 
ATOM     16  C   UNL A   1      31.451  21.717  24.139  1.00  0.00    -0.040 A 
ATOM     17  C   UNL A   1      31.016  23.042  24.058  1.00  0.00    -0.053 A 
ATOM     18  H   UNL A   1      31.041  21.005  23.515  1.00  0.00     0.064 H 
ATOM     19  C   UNL A   1      32.459  23.614  25.898  1.00  0.00    -0.040 A 
ATOM     20  C   UNL A   1      31.548  24.016  24.911  1.00  0.00    -0.017 A 
ATOM     21  H   UNL A   1      30.298  23.305  23.364  1.00  0.00     0.063 H 
ATOM     22  H   UNL A   1      32.811  24.311  26.572  1.00  0.00     0.064 H 
BRANCH  15  23
ATOM     23  S   UNL A   1      33.171  19.749  24.878  1.00  0.00     0.264 S 
ATOM     24  O   UNL A   1      32.531  18.894  25.855  1.00  0.00    -0.201 OA
ATOM     25  O   UNL A   1      34.605  19.857  24.784  1.00  0.00    -0.201 OA
BRANCH  23  26
ATOM     26  N   UNL A   1      32.627  19.239  23.399  1.00  0.00    -0.249 N 
ATOM     27  C   UNL A   1      32.777  17.988  22.787  1.00  0.00     0.230 C 
ATOM     28  O   UNL A   1      32.153  17.772  21.756  1.00  0.00    -0.274 OA
ATOM     29  H   UNL A   1      32.128  19.909  22.878  1.00  0.00     0.183 HD
BRANCH  27  30
ATOM     30  C   UNL A   1      33.725  16.983  23.372  1.00  0.00     0.016 C 
ATOM     31  H   UNL A   1      34.678  17.442  23.532  1.00  0.00     0.033 H 
ATOM     32  H   UNL A   1      33.834  16.160  22.697  1.00  0.00     0.033 H 
ATOM     33  H   UNL A   1      33.338  16.630  24.305  1.00  0.00     0.033 H 
ENDBRANCH  27  30
ENDBRANCH  23  26
ENDBRANCH  15  23
BRANCH  20  34
ATOM     34  C   UNL A   1      31.268  25.455  24.691  1.00  0.00    -0.011 A 
ATOM     35  C   UNL A   1      31.409  26.433  25.758  1.00  0.00    -0.038 A 
ATOM     36  C   UNL A   1      30.938  25.892  23.462  1.00  0.00     0.012 A 
ATOM     37  C   UNL A   1      31.238  27.739  25.523  1.00  0.00     0.013 A 
ATOM     38  H   UNL A   1      31.643  26.115  26.712  1.00  0.00     0.064 H 
ATOM     39  C   UNL A   1      30.747  27.345  23.183  1.00  0.00     0.255 A 
ATOM     40  H   UNL A   1      30.814  25.210  22.699  1.00  0.00     0.069 H 
ATOM     41  N   UNL A   1      30.918  28.198  24.261  1.00  0.00    -0.258 N 
ATOM     42  H   UNL A   1      31.349  28.414  26.296  1.00  0.00     0.082 H 
ATOM     43  O   UNL A   1      30.473  27.687  22.037  1.00  0.00    -0.269 OA
BRANCH  41  44
ATOM     44  C   UNL A   1      30.782  29.610  24.011  1.00  0.00     0.321 C 
ATOM     45  F   UNL A   1      29.482  29.943  23.812  1.00  0.00    -0.185 F 
ATOM     46  F   UNL A   1      31.248  30.341  25.053  1.00  0.00    -0.185 F 
ATOM     47  H   UNL A   1      31.355  29.826  23.135  1.00  0.00     0.131 H 
ENDBRANCH  41  44
ENDBRANCH  20  34
ENDBRANCH  11  14
ENDBRANCH   7  10
ENDBRANCH   4   7
ENDBRANCH   1   4
BRANCH   1  48
ATOM     48  C   UNL A   1      38.016  21.811  25.003  1.00  0.00    -0.052 C 
ATOM     49  H   UNL A   1      37.540  21.976  25.947  1.00  0.00     0.027 H 
ATOM     50  H   UNL A   1      38.886  22.410  24.835  1.00  0.00     0.027 H 
BRANCH  48  51
ATOM     51  C   UNL A   1      38.510  20.356  24.976  1.00  0.00    -0.036 C 
ATOM     52  H   UNL A   1      39.231  20.273  24.190  1.00  0.00     0.028 H 
ATOM     53  H   UNL A   1      37.629  19.764  24.840  1.00  0.00     0.028 H 
BRANCH  51  54
ATOM     54  C   UNL A   1      39.158  19.822  26.257  1.00  0.00     0.018 C 
ATOM     55  H   UNL A   1      38.427  19.260  26.798  1.00  0.00     0.049 H 
ATOM     56  H   UNL A   1      39.508  20.668  26.811  1.00  0.00     0.049 H 
BRANCH  54  57
ATOM     57  N   UNL A   1      40.304  18.969  26.006  1.00  0.00    -0.352 N 
ATOM     58  C   UNL A   1      41.640  19.283  26.005  1.00  0.00     0.251 C 
ATOM     59  H   UNL A   1      40.093  18.028  25.808  1.00  0.00     0.163 HD
ATOM     60  O   UNL A   1      42.470  18.432  25.694  1.00  0.00    -0.269 OA
BRANCH  58  61
ATOM     61  C   UNL A   1      42.099  20.651  26.339  1.00  0.00     0.039 A 
ATOM     62  C   UNL A   1      42.309  21.550  25.286  1.00  0.00    -0.049 A 
ATOM     63  C   UNL A   1      42.374  21.042  27.654  1.00  0.00    -0.049 A 
ATOM     64  C   UNL A   1      42.734  22.854  25.550  1.00  0.00    -0.053 A 
ATOM     65  H   UNL A   1      42.150  21.247  24.311  1.00  0.00     0.063 H 
ATOM     66  C   UNL A   1      42.788  22.352  27.919  1.00  0.00    -0.053 A 
ATOM     67  H   UNL A   1      42.273  20.366  28.426  1.00  0.00     0.063 H 
ATOM     68  C   UNL A   1      42.958  23.269  26.871  1.00  0.00    -0.014 A 
ATOM     69  H   UNL A   1      42.882  23.515  24.771  1.00  0.00     0.063 H 
ATOM     70  H   UNL A   1      42.967  22.645  28.891  1.00  0.00     0.063 H 
BRANCH  68  71
ATOM     71  C   UNL A   1      43.330  24.673  27.164  1.00  0.00     0.031 A 
ATOM     72  C   UNL A   1      44.715  25.176  26.889  1.00  0.00     0.074 A 
ATOM     73  C   UNL A   1      42.413  25.497  27.702  1.00  0.00     0.049 A 
ATOM     74  N   UNL A   1      45.237  26.344  27.167  1.00  0.00    -0.248 NA
ATOM     75  C   UNL A   1      45.635  24.246  26.219  1.00  0.00    -0.034 C 
ATOM     76  C   UNL A   1      41.031  25.133  28.015  1.00  0.00    -0.036 A 
ATOM     77  N   UNL A   1      42.509  26.812  28.081  1.00  0.00    -0.354 N 
ATOM     78  C   UNL A   1      46.552  26.283  26.732  1.00  0.00     0.074 A 
ATOM     79  C   UNL A   1      46.746  24.969  26.153  1.00  0.00    -0.034 C 
ATOM     80  H   UNL A   1      45.462  23.284  25.887  1.00  0.00     0.065 H 
ATOM     81  C   UNL A   1      40.406  26.201  28.537  1.00  0.00    -0.036 A 
ATOM     82  H   UNL A   1      40.605  24.205  27.860  1.00  0.00     0.065 H 
ATOM     83  C   UNL A   1      41.347  27.316  28.607  1.00  0.00     0.049 A 
ATOM     84  H   UNL A   1      43.333  27.342  27.986  1.00  0.00     0.167 HD
ATOM     85  C   UNL A   1      47.513  27.233  26.820  1.00  0.00     0.037 A 
ATOM     86  H   UNL A   1      47.633  24.638  25.742  1.00  0.00     0.065 H 
ATOM     87  H   UNL A   1      39.420  26.229  28.840  1.00  0.00     0.065 H 
ATOM     88  C   UNL A   1      41.073  28.538  29.098  1.00  0.00     0.037 A 
ATOM     89  C   UNL A   1      47.330  28.545  27.378  1.00  0.00     0.049 A 
ATOM     90  C   UNL A   1      42.140  29.591  29.128  1.00  0.00     0.074 A 
ATOM     91  C   UNL A   1      48.264  29.555  27.545  1.00  0.00    -0.036 A 
ATOM     92  N   UNL A   1      46.123  29.036  27.849  1.00  0.00    -0.354 N 
ATOM     93  N   UNL A   1      43.393  29.504  28.758  1.00  0.00    -0.248 NA
ATOM     94  C   UNL A   1      41.754  30.911  29.649  1.00  0.00    -0.034 C 
ATOM     95  C   UNL A   1      47.618  30.661  28.111  1.00  0.00    -0.036 A 
ATOM     96  H   UNL A   1      49.263  29.500  27.296  1.00  0.00     0.065 H 
ATOM     97  C   UNL A   1      46.284  30.340  28.292  1.00  0.00     0.049 A 
ATOM     98  H   UNL A   1      45.276  28.534  27.866  1.00  0.00     0.167 HD
ATOM     99  C   UNL A   1      43.949  30.749  29.011  1.00  0.00     0.074 A 
ATOM    100  C   UNL A   1      42.895  31.581  29.551  1.00  0.00    -0.034 C 
ATOM    101  H   UNL A   1      40.838  31.231  29.999  1.00  0.00     0.065 H 
ATOM    102  H   UNL A   1      48.061  31.562  28.350  1.00  0.00     0.065 H 
ATOM    103  C   UNL A   1      45.226  31.156  28.821  1.00  0.00     0.037 A 
ATOM    104  H   UNL A   1      43.015  32.569  29.824  1.00  0.00     0.065 H 
BRANCH  85 105
ATOM    105  C   UNL A   1      48.871  26.875  26.311  1.00  0.00     0.064 A 
ATOM    106  C   UNL A   1      49.803  26.226  27.130  1.00  0.00     0.173 A 
ATOM    107  C   UNL A   1      49.228  27.149  24.983  1.00  0.00     0.173 A 
ATOM    108  F   UNL A   1      49.504  25.953  28.408  1.00  0.00    -0.203 F 
ATOM    109  C   UNL A   1      51.052  25.863  26.635  1.00  0.00     0.198 A 
ATOM    110  C   UNL A   1      50.475  26.781  24.491  1.00  0.00     0.198 A 
ATOM    111  F   UNL A   1      48.364  27.773  24.168  1.00  0.00    -0.203 F 
ATOM    112  F   UNL A   1      51.935  25.250  27.434  1.00  0.00    -0.200 F 
ATOM    113  C   UNL A   1      51.386  26.138  25.316  1.00  0.00     0.200 A 
ATOM    114  F   UNL A   1      50.799  27.051  23.219  1.00  0.00    -0.200 F 
ATOM    115  F   UNL A   1      52.590  25.789  24.843  1.00  0.00    -0.200 F 
ENDBRANCH  85 105
BRANCH  88 116
ATOM    116  C   UNL A   1      39.717  28.825  29.612  1.00  0.00     0.064 A 
ATOM    117  C   UNL A   1      38.719  29.320  28.765  1.00  0.00     0.173 A 
ATOM    118  C   UNL A   1      39.392  28.589  30.954  1.00  0.00     0.173 A 
ATOM    119  F   UNL A   1      38.998  29.573  27.478  1.00  0.00    -0.203 F 
ATOM    120  C   UNL A   1      37.436  29.571  29.244  1.00  0.00     0.198 A 
ATOM    121  C   UNL A   1      38.107  28.835  31.430  1.00  0.00     0.198 A 
ATOM    122  F   UNL A   1      40.323  28.119  31.796  1.00  0.00    -0.203 F 
ATOM    123  F   UNL A   1      36.497  30.055  28.419  1.00  0.00    -0.200 F 
ATOM    124  C   UNL A   1      37.131  29.325  30.576  1.00  0.00     0.200 A 
ATOM    125  F   UNL A   1      37.815  28.598  32.716  1.00  0.00    -0.200 F 
ATOM    126  F   UNL A   1      35.896  29.566  31.036  1.00  0.00    -0.200 F 
ENDBRANCH  88 116
BRANCH 103 127
ATOM    127  C   UNL A   1      45.551  32.562  29.208  1.00  0.00     0.064 A 
ATOM    128  C   UNL A   1      45.393  33.612  28.292  1.00  0.00     0.173 A 
ATOM    129  C   UNL A   1      45.996  32.868  30.501  1.00  0.00     0.173 A 
ATOM    130  F   UNL A   1      44.982  33.360  27.041  1.00  0.00    -0.203 F 
ATOM    131  C   UNL A   1      45.676  34.925  28.659  1.00  0.00     0.198 A 
ATOM    132  C   UNL A   1      46.275  34.182  30.865  1.00  0.00     0.198 A 
ATOM    133  F   UNL A   1      46.170  31.890  31.403  1.00  0.00    -0.203 F 
ATOM    134  F   UNL A   1      45.532  35.914  27.767  1.00  0.00    -0.200 F 
ATOM    135  C   UNL A   1      46.115  35.208  29.945  1.00  0.00     0.200 A 
ATOM    136  F   UNL A   1      46.709  34.455  32.103  1.00  0.00    -0.200 F 
ATOM    137  F   UNL A   1      46.392  36.471  30.295  1.00  0.00    -0.200 F 
ENDBRANCH 103 127
ENDBRANCH  68  71
ENDBRANCH  58  61
ENDBRANCH  54  57
ENDBRANCH  51  54
ENDBRANCH  48  51
ENDBRANCH   1  48
TORSDOF 18
ENDMDL
