MODEL 1
REMARK VINA RESULT:     -12.5      0.000      0.000
REMARK SMILES CC(=O)Nc1ccc(/C(=C\c2ccc(S(C)(=O)=O)cc2)C(=O)NCCCCCCNC(=O)c2ccc(-c3c4nc(c(-c5c(F)c(F)c(F)c(F)c5F)c5ccc([nH]5)c(-c5c(F)c(F)c(F)c(F)c5F)c5nc(c(-c6c(F)c(F)c(F)c(F)c6F)c6ccc3[nH]6)C=C5)C=C4)cc2)cc1
REMARK SMILES IDX 26 1 25 4 24 7 23 10 21 11 22 12 9 14 10 15 8 17 5 18 6 19
REMARK SMILES IDX 97 20 7 21 96 23 4 27 2 28 3 29 1 31 11 35 12 36 20 37 13 38
REMARK SMILES IDX 19 40 14 42 15 45 17 46 18 47 16 48 27 52 28 55 29 58 30 61
REMARK SMILES IDX 31 62 32 64 33 65 34 66 95 67 35 68 94 70 36 72 37 75 38 76
REMARK SMILES IDX 88 77 39 78 93 79 87 80 89 81 40 82 92 83 86 85 85 87 41 89
REMARK SMILES IDX 73 92 53 93 72 94 54 95 57 96 71 97 90 98 55 99 56 101
REMARK SMILES IDX 70 103 91 104 58 107 42 109 43 110 51 111 44 112 45 113
REMARK SMILES IDX 49 114 52 115 46 116 47 117 50 118 48 119 74 120 75 121
REMARK SMILES IDX 83 122 76 123 77 124 81 125 84 126 78 127 79 128 82 129
REMARK SMILES IDX 80 130 59 131 60 132 68 133 61 134 62 135 66 136 69 137
REMARK SMILES IDX 63 138 64 139 67 140 65 141
REMARK H PARENT 26 2 26 3 25 5 25 6 24 8 24 9 23 13 10 16 6 22 97 24 7 25
REMARK H PARENT 96 26 4 30 1 32 1 33 1 34 12 39 20 41 13 43 19 44 16 49 16 50
REMARK H PARENT 16 51 27 53 27 54 28 56 28 57 29 59 29 60 30 63 34 69 95 71
REMARK H PARENT 35 73 94 74 93 84 87 86 89 88 92 90 86 91 54 100 57 102 90 105
REMARK H PARENT 55 106 91 108
REMARK Flexibility Score: inf
ROOT
ATOM      1  C   UNL A   1      31.131  26.255  25.602  1.00  0.00    -0.052 C 
ATOM      2  H   UNL A   1      31.891  25.525  25.416  1.00  0.00     0.027 H 
ATOM      3  H   UNL A   1      30.653  26.136  26.552  1.00  0.00     0.027 H 
ENDROOT
BRANCH   1   4
ATOM      4  C   UNL A   1      30.031  26.079  24.541  1.00  0.00    -0.036 C 
ATOM      5  H   UNL A   1      29.117  25.835  25.040  1.00  0.00     0.028 H 
ATOM      6  H   UNL A   1      29.965  26.999  24.001  1.00  0.00     0.028 H 
BRANCH   4   7
ATOM      7  C   UNL A   1      30.338  24.977  23.522  1.00  0.00     0.018 C 
ATOM      8  H   UNL A   1      30.502  24.053  24.036  1.00  0.00     0.049 H 
ATOM      9  H   UNL A   1      29.511  24.873  22.851  1.00  0.00     0.049 H 
BRANCH   7  10
ATOM     10  N   UNL A   1      31.524  25.327  22.771  1.00  0.00    -0.352 N 
ATOM     11  C   UNL A   1      32.782  24.833  22.642  1.00  0.00     0.251 C 
ATOM     12  O   UNL A   1      33.495  25.514  21.901  1.00  0.00    -0.269 OA
ATOM     13  H   UNL A   1      31.383  26.123  22.210  1.00  0.00     0.163 HD
BRANCH  11  14
ATOM     14  C   UNL A   1      33.280  23.528  23.263  1.00  0.00     0.047 C 
ATOM     15  C   UNL A   1      32.422  22.485  23.370  1.00  0.00    -0.042 C 
ATOM     16  H   UNL A   1      31.429  22.708  23.197  1.00  0.00     0.064 H 
BRANCH  14  17
ATOM     17  C   UNL A   1      34.642  23.498  23.919  1.00  0.00    -0.013 A 
ATOM     18  C   UNL A   1      37.000  23.002  25.453  1.00  0.00     0.041 A 
ATOM     19  C   UNL A   1      36.947  22.676  24.097  1.00  0.00    -0.038 A 
ATOM     20  C   UNL A   1      35.950  23.729  25.984  1.00  0.00    -0.038 A 
ATOM     21  C   UNL A   1      35.795  22.952  23.334  1.00  0.00    -0.052 A 
ATOM     22  H   UNL A   1      37.760  22.227  23.648  1.00  0.00     0.064 H 
ATOM     23  C   UNL A   1      34.783  23.933  25.245  1.00  0.00    -0.052 A 
ATOM     24  H   UNL A   1      36.030  24.124  26.934  1.00  0.00     0.064 H 
ATOM     25  H   UNL A   1      35.800  22.750  22.322  1.00  0.00     0.063 H 
ATOM     26  H   UNL A   1      33.992  24.425  25.691  1.00  0.00     0.063 H 
BRANCH  18  27
ATOM     27  N   UNL A   1      38.109  22.568  26.199  1.00  0.00    -0.326 N 
ATOM     28  C   UNL A   1      39.204  23.236  26.674  1.00  0.00     0.221 C 
ATOM     29  O   UNL A   1      40.086  22.589  27.246  1.00  0.00    -0.275 OA
ATOM     30  H   UNL A   1      38.096  21.608  26.419  1.00  0.00     0.169 HD
BRANCH  28  31
ATOM     31  C   UNL A   1      39.324  24.733  26.559  1.00  0.00     0.015 C 
ATOM     32  H   UNL A   1      40.162  25.069  27.132  1.00  0.00     0.033 H 
ATOM     33  H   UNL A   1      38.431  25.192  26.931  1.00  0.00     0.033 H 
ATOM     34  H   UNL A   1      39.462  25.003  25.532  1.00  0.00     0.033 H 
ENDBRANCH  28  31
ENDBRANCH  18  27
ENDBRANCH  14  17
BRANCH  15  35
ATOM     35  C   UNL A   1      32.706  21.079  23.696  1.00  0.00    -0.025 A 
ATOM     36  C   UNL A   1      32.237  20.101  22.800  1.00  0.00    -0.054 A 
ATOM     37  C   UNL A   1      33.473  20.695  24.798  1.00  0.00    -0.054 A 
ATOM     38  C   UNL A   1      32.584  18.760  22.967  1.00  0.00    -0.043 A 
ATOM     39  H   UNL A   1      31.630  20.377  22.013  1.00  0.00     0.063 H 
ATOM     40  C   UNL A   1      33.826  19.350  24.969  1.00  0.00    -0.043 A 
ATOM     41  H   UNL A   1      33.781  21.401  25.486  1.00  0.00     0.063 H 
ATOM     42  C   UNL A   1      33.390  18.394  24.046  1.00  0.00     0.067 A 
ATOM     43  H   UNL A   1      32.251  18.047  22.299  1.00  0.00     0.064 H 
ATOM     44  H   UNL A   1      34.407  19.066  25.774  1.00  0.00     0.064 H 
BRANCH  42  45
ATOM     45  S   UNL A   1      33.970  16.715  24.153  1.00  0.00     0.175 S 
ATOM     46  O   UNL A   1      34.028  16.202  22.798  1.00  0.00    -0.224 OA
ATOM     47  O   UNL A   1      35.147  16.712  25.001  1.00  0.00    -0.224 OA
BRANCH  45  48
ATOM     48  C   UNL A   1      32.676  15.864  25.012  1.00  0.00     0.043 C 
ATOM     49  H   UNL A   1      33.103  15.158  25.693  1.00  0.00     0.040 H 
ATOM     50  H   UNL A   1      32.058  15.350  24.307  1.00  0.00     0.040 H 
ATOM     51  H   UNL A   1      32.084  16.571  25.557  1.00  0.00     0.040 H 
ENDBRANCH  45  48
ENDBRANCH  42  45
ENDBRANCH  15  35
ENDBRANCH  11  14
ENDBRANCH   7  10
ENDBRANCH   4   7
ENDBRANCH   1   4
BRANCH   1  52
ATOM     52  C   UNL A   1      31.793  27.638  25.624  1.00  0.00    -0.052 C 
ATOM     53  H   UNL A   1      31.466  28.150  26.505  1.00  0.00     0.027 H 
ATOM     54  H   UNL A   1      31.501  28.128  24.719  1.00  0.00     0.027 H 
BRANCH  52  55
ATOM     55  C   UNL A   1      33.323  27.615  25.627  1.00  0.00    -0.036 C 
ATOM     56  H   UNL A   1      33.650  26.850  24.954  1.00  0.00     0.028 H 
ATOM     57  H   UNL A   1      33.629  27.436  26.636  1.00  0.00     0.028 H 
BRANCH  55  58
ATOM     58  C   UNL A   1      33.963  28.931  25.202  1.00  0.00     0.018 C 
ATOM     59  H   UNL A   1      33.985  28.978  24.133  1.00  0.00     0.049 H 
ATOM     60  H   UNL A   1      34.954  28.968  25.606  1.00  0.00     0.049 H 
BRANCH  58  61
ATOM     61  N   UNL A   1      33.225  30.075  25.709  1.00  0.00    -0.352 N 
ATOM     62  C   UNL A   1      33.432  30.798  26.857  1.00  0.00     0.251 C 
ATOM     63  H   UNL A   1      32.470  30.373  25.152  1.00  0.00     0.163 HD
ATOM     64  O   UNL A   1      32.581  31.587  27.255  1.00  0.00    -0.269 OA
BRANCH  62  65
ATOM     65  C   UNL A   1      34.684  30.617  27.619  1.00  0.00     0.039 A 
ATOM     66  C   UNL A   1      35.605  31.666  27.667  1.00  0.00    -0.049 A 
ATOM     67  C   UNL A   1      34.960  29.407  28.263  1.00  0.00    -0.049 A 
ATOM     68  C   UNL A   1      36.787  31.516  28.395  1.00  0.00    -0.053 A 
ATOM     69  H   UNL A   1      35.414  32.549  27.167  1.00  0.00     0.063 H 
ATOM     70  C   UNL A   1      36.101  29.284  29.047  1.00  0.00    -0.053 A 
ATOM     71  H   UNL A   1      34.317  28.606  28.156  1.00  0.00     0.063 H 
ATOM     72  C   UNL A   1      37.034  30.331  29.109  1.00  0.00    -0.014 A 
ATOM     73  H   UNL A   1      37.483  32.278  28.410  1.00  0.00     0.063 H 
ATOM     74  H   UNL A   1      36.264  28.420  29.588  1.00  0.00     0.063 H 
BRANCH  72  75
ATOM     75  C   UNL A   1      38.278  30.152  29.896  1.00  0.00     0.031 A 
ATOM     76  C   UNL A   1      39.418  29.355  29.326  1.00  0.00     0.074 A 
ATOM     77  C   UNL A   1      38.360  30.657  31.143  1.00  0.00     0.049 A 
ATOM     78  N   UNL A   1      40.556  29.020  29.880  1.00  0.00    -0.248 NA
ATOM     79  C   UNL A   1      39.243  28.838  27.959  1.00  0.00    -0.034 C 
ATOM     80  C   UNL A   1      37.306  31.413  31.820  1.00  0.00    -0.036 A 
ATOM     81  N   UNL A   1      39.375  30.600  32.065  1.00  0.00    -0.354 N 
ATOM     82  C   UNL A   1      41.220  28.244  28.940  1.00  0.00     0.074 A 
ATOM     83  C   UNL A   1      40.337  28.109  27.802  1.00  0.00    -0.034 C 
ATOM     84  H   UNL A   1      38.469  29.002  27.296  1.00  0.00     0.065 H 
ATOM     85  C   UNL A   1      37.735  31.767  33.042  1.00  0.00    -0.036 A 
ATOM     86  H   UNL A   1      36.381  31.638  31.422  1.00  0.00     0.065 H 
ATOM     87  C   UNL A   1      39.078  31.232  33.248  1.00  0.00     0.049 A 
ATOM     88  H   UNL A   1      40.232  30.149  31.896  1.00  0.00     0.167 HD
ATOM     89  C   UNL A   1      42.464  27.713  29.008  1.00  0.00     0.037 A 
ATOM     90  H   UNL A   1      40.533  27.520  26.977  1.00  0.00     0.065 H 
ATOM     91  H   UNL A   1      37.202  32.327  33.725  1.00  0.00     0.065 H 
ATOM     92  C   UNL A   1      39.807  31.360  34.373  1.00  0.00     0.037 A 
ATOM     93  C   UNL A   1      43.350  27.877  30.130  1.00  0.00     0.049 A 
ATOM     94  C   UNL A   1      41.186  30.759  34.424  1.00  0.00     0.074 A 
ATOM     95  C   UNL A   1      44.651  27.428  30.276  1.00  0.00    -0.036 A 
ATOM     96  N   UNL A   1      43.023  28.544  31.302  1.00  0.00    -0.354 N 
ATOM     97  N   UNL A   1      41.829  30.081  33.505  1.00  0.00    -0.248 NA
ATOM     98  C   UNL A   1      41.945  30.950  35.668  1.00  0.00    -0.034 C 
ATOM     99  C   UNL A   1      45.095  27.784  31.554  1.00  0.00    -0.036 A 
ATOM    100  H   UNL A   1      45.199  26.920  29.564  1.00  0.00     0.065 H 
ATOM    101  C   UNL A   1      44.091  28.500  32.184  1.00  0.00     0.049 A 
ATOM    102  H   UNL A   1      42.160  28.982  31.481  1.00  0.00     0.167 HD
ATOM    103  C   UNL A   1      43.076  29.792  34.043  1.00  0.00     0.074 A 
ATOM    104  C   UNL A   1      43.104  30.381  35.367  1.00  0.00    -0.034 C 
ATOM    105  H   UNL A   1      41.654  31.407  36.545  1.00  0.00     0.065 H 
ATOM    106  H   UNL A   1      46.015  27.551  31.958  1.00  0.00     0.065 H 
ATOM    107  C   UNL A   1      44.105  29.102  33.493  1.00  0.00     0.037 A 
ATOM    108  H   UNL A   1      43.922  30.360  35.995  1.00  0.00     0.065 H 
BRANCH  89 109
ATOM    109  C   UNL A   1      42.942  26.907  27.834  1.00  0.00     0.064 A 
ATOM    110  C   UNL A   1      43.671  27.492  26.786  1.00  0.00     0.173 A 
ATOM    111  C   UNL A   1      42.695  25.528  27.769  1.00  0.00     0.173 A 
ATOM    112  F   UNL A   1      43.924  28.810  26.793  1.00  0.00    -0.203 F 
ATOM    113  C   UNL A   1      44.107  26.732  25.704  1.00  0.00     0.198 A 
ATOM    114  C   UNL A   1      43.161  24.766  26.700  1.00  0.00     0.198 A 
ATOM    115  F   UNL A   1      42.007  24.917  28.745  1.00  0.00    -0.203 F 
ATOM    116  F   UNL A   1      44.753  27.323  24.690  1.00  0.00    -0.200 F 
ATOM    117  C   UNL A   1      43.858  25.369  25.665  1.00  0.00     0.200 A 
ATOM    118  F   UNL A   1      42.931  23.446  26.672  1.00  0.00    -0.200 F 
ATOM    119  F   UNL A   1      44.283  24.638  24.626  1.00  0.00    -0.200 F 
ENDBRANCH  89 109
BRANCH  92 120
ATOM    120  C   UNL A   1      39.259  32.108  35.533  1.00  0.00     0.064 A 
ATOM    121  C   UNL A   1      39.535  33.472  35.707  1.00  0.00     0.173 A 
ATOM    122  C   UNL A   1      38.453  31.480  36.494  1.00  0.00     0.173 A 
ATOM    123  F   UNL A   1      40.316  34.113  34.824  1.00  0.00    -0.203 F 
ATOM    124  C   UNL A   1      39.048  34.172  36.808  1.00  0.00     0.198 A 
ATOM    125  C   UNL A   1      37.942  32.188  37.580  1.00  0.00     0.198 A 
ATOM    126  F   UNL A   1      38.153  30.178  36.372  1.00  0.00    -0.203 F 
ATOM    127  F   UNL A   1      39.368  35.462  36.974  1.00  0.00    -0.200 F 
ATOM    128  C   UNL A   1      38.247  33.531  37.741  1.00  0.00     0.200 A 
ATOM    129  F   UNL A   1      37.156  31.568  38.471  1.00  0.00    -0.200 F 
ATOM    130  F   UNL A   1      37.776  34.205  38.799  1.00  0.00    -0.200 F 
ENDBRANCH  92 120
BRANCH 107 131
ATOM    131  C   UNL A   1      45.365  28.983  34.301  1.00  0.00     0.064 A 
ATOM    132  C   UNL A   1      46.380  29.948  34.231  1.00  0.00     0.173 A 
ATOM    133  C   UNL A   1      45.538  27.910  35.188  1.00  0.00     0.173 A 
ATOM    134  F   UNL A   1      46.269  30.985  33.388  1.00  0.00    -0.203 F 
ATOM    135  C   UNL A   1      47.535  29.828  35.000  1.00  0.00     0.198 A 
ATOM    136  C   UNL A   1      46.679  27.810  35.979  1.00  0.00     0.198 A 
ATOM    137  F   UNL A   1      44.593  26.964  35.297  1.00  0.00    -0.203 F 
ATOM    138  F   UNL A   1      48.513  30.737  34.881  1.00  0.00    -0.200 F 
ATOM    139  C   UNL A   1      47.679  28.765  35.879  1.00  0.00     0.200 A 
ATOM    140  F   UNL A   1      46.810  26.790  36.838  1.00  0.00    -0.200 F 
ATOM    141  F   UNL A   1      48.787  28.657  36.625  1.00  0.00    -0.200 F 
ENDBRANCH 107 131
ENDBRANCH  72  75
ENDBRANCH  62  65
ENDBRANCH  58  61
ENDBRANCH  55  58
ENDBRANCH  52  55
ENDBRANCH   1  52
TORSDOF 19
ENDMDL
MODEL 2
REMARK VINA RESULT:     -12.4      1.826      2.699
REMARK SMILES CC(=O)Nc1ccc(/C(=C\c2ccc(S(C)(=O)=O)cc2)C(=O)NCCCCCCNC(=O)c2ccc(-c3c4nc(c(-c5c(F)c(F)c(F)c(F)c5F)c5ccc([nH]5)c(-c5c(F)c(F)c(F)c(F)c5F)c5nc(c(-c6c(F)c(F)c(F)c(F)c6F)c6ccc3[nH]6)C=C5)C=C4)cc2)cc1
REMARK SMILES IDX 26 1 25 4 24 7 23 10 21 11 22 12 9 14 10 15 8 17 5 18 6 19
REMARK SMILES IDX 97 20 7 21 96 23 4 27 2 28 3 29 1 31 11 35 12 36 20 37 13 38
REMARK SMILES IDX 19 40 14 42 15 45 17 46 18 47 16 48 27 52 28 55 29 58 30 61
REMARK SMILES IDX 31 62 32 64 33 65 34 66 95 67 35 68 94 70 36 72 37 75 38 76
REMARK SMILES IDX 88 77 39 78 93 79 87 80 89 81 40 82 92 83 86 85 85 87 41 89
REMARK SMILES IDX 73 92 53 93 72 94 54 95 57 96 71 97 90 98 55 99 56 101
REMARK SMILES IDX 70 103 91 104 58 107 42 109 43 110 51 111 44 112 45 113
REMARK SMILES IDX 49 114 52 115 46 116 47 117 50 118 48 119 74 120 75 121
REMARK SMILES IDX 83 122 76 123 77 124 81 125 84 126 78 127 79 128 82 129
REMARK SMILES IDX 80 130 59 131 60 132 68 133 61 134 62 135 66 136 69 137
REMARK SMILES IDX 63 138 64 139 67 140 65 141
REMARK H PARENT 26 2 26 3 25 5 25 6 24 8 24 9 23 13 10 16 6 22 97 24 7 25
REMARK H PARENT 96 26 4 30 1 32 1 33 1 34 12 39 20 41 13 43 19 44 16 49 16 50
REMARK H PARENT 16 51 27 53 27 54 28 56 28 57 29 59 29 60 30 63 34 69 95 71
REMARK H PARENT 35 73 94 74 93 84 87 86 89 88 92 90 86 91 54 100 57 102 90 105
REMARK H PARENT 55 106 91 108
REMARK Flexibility Score: inf
ROOT
ATOM      1  C   UNL A   1      32.022  29.375  26.847  1.00  0.00    -0.052 C 
ATOM      2  H   UNL A   1      33.092  29.355  26.859  1.00  0.00     0.027 H 
ATOM      3  H   UNL A   1      31.592  29.624  27.795  1.00  0.00     0.027 H 
ENDROOT
BRANCH   1   4
ATOM      4  C   UNL A   1      31.521  27.961  26.505  1.00  0.00    -0.036 C 
ATOM      5  H   UNL A   1      31.139  27.513  27.398  1.00  0.00     0.028 H 
ATOM      6  H   UNL A   1      30.770  28.067  25.751  1.00  0.00     0.028 H 
BRANCH   4   7
ATOM      7  C   UNL A   1      32.612  27.051  25.933  1.00  0.00     0.018 C 
ATOM      8  H   UNL A   1      33.574  27.446  26.185  1.00  0.00     0.049 H 
ATOM      9  H   UNL A   1      32.508  26.069  26.346  1.00  0.00     0.049 H 
BRANCH   7  10
ATOM     10  N   UNL A   1      32.483  26.982  24.494  1.00  0.00    -0.352 N 
ATOM     11  C   UNL A   1      32.699  26.045  23.536  1.00  0.00     0.251 C 
ATOM     12  O   UNL A   1      32.495  26.465  22.394  1.00  0.00    -0.269 OA
ATOM     13  H   UNL A   1      32.155  27.828  24.112  1.00  0.00     0.163 HD
BRANCH  11  14
ATOM     14  C   UNL A   1      33.071  24.586  23.803  1.00  0.00     0.047 C 
ATOM     15  C   UNL A   1      32.080  23.680  23.981  1.00  0.00    -0.042 C 
ATOM     16  H   UNL A   1      31.136  24.076  24.115  1.00  0.00     0.064 H 
BRANCH  14  17
ATOM     17  C   UNL A   1      34.519  24.231  24.060  1.00  0.00    -0.013 A 
ATOM     18  C   UNL A   1      37.034  23.146  24.869  1.00  0.00     0.041 A 
ATOM     19  C   UNL A   1      36.562  22.967  23.568  1.00  0.00    -0.038 A 
ATOM     20  C   UNL A   1      36.336  24.009  25.695  1.00  0.00    -0.038 A 
ATOM     21  C   UNL A   1      35.337  23.531  23.161  1.00  0.00    -0.052 A 
ATOM     22  H   UNL A   1      37.117  22.414  22.896  1.00  0.00     0.064 H 
ATOM     23  C   UNL A   1      35.088  24.504  25.312  1.00  0.00    -0.052 A 
ATOM     24  H   UNL A   1      36.742  24.290  26.602  1.00  0.00     0.064 H 
ATOM     25  H   UNL A   1      35.037  23.428  22.179  1.00  0.00     0.063 H 
ATOM     26  H   UNL A   1      34.563  25.095  25.977  1.00  0.00     0.063 H 
BRANCH  18  27
ATOM     27  N   UNL A   1      38.181  22.437  25.265  1.00  0.00    -0.326 N 
ATOM     28  C   UNL A   1      38.419  21.099  25.411  1.00  0.00     0.221 C 
ATOM     29  O   UNL A   1      39.514  20.740  25.854  1.00  0.00    -0.275 OA
ATOM     30  H   UNL A   1      38.953  23.010  25.478  1.00  0.00     0.169 HD
BRANCH  28  31
ATOM     31  C   UNL A   1      37.403  20.069  24.994  1.00  0.00     0.015 C 
ATOM     32  H   UNL A   1      36.771  20.478  24.234  1.00  0.00     0.033 H 
ATOM     33  H   UNL A   1      36.808  19.791  25.840  1.00  0.00     0.033 H 
ATOM     34  H   UNL A   1      37.906  19.204  24.613  1.00  0.00     0.033 H 
ENDBRANCH  28  31
ENDBRANCH  18  27
ENDBRANCH  14  17
BRANCH  15  35
ATOM     35  C   UNL A   1      32.159  22.212  24.011  1.00  0.00    -0.025 A 
ATOM     36  C   UNL A   1      32.150  21.540  22.775  1.00  0.00    -0.054 A 
ATOM     37  C   UNL A   1      32.318  21.483  25.191  1.00  0.00    -0.054 A 
ATOM     38  C   UNL A   1      32.361  20.163  22.713  1.00  0.00    -0.043 A 
ATOM     39  H   UNL A   1      31.985  22.071  21.905  1.00  0.00     0.063 H 
ATOM     40  C   UNL A   1      32.531  20.100  25.135  1.00  0.00    -0.043 A 
ATOM     41  H   UNL A   1      32.277  21.962  26.105  1.00  0.00     0.063 H 
ATOM     42  C   UNL A   1      32.563  19.451  23.896  1.00  0.00     0.067 A 
ATOM     43  H   UNL A   1      32.368  19.675  21.803  1.00  0.00     0.064 H 
ATOM     44  H   UNL A   1      32.664  19.561  26.006  1.00  0.00     0.064 H 
BRANCH  42  45
ATOM     45  S   UNL A   1      33.004  17.729  23.797  1.00  0.00     0.175 S 
ATOM     46  O   UNL A   1      32.276  17.047  24.850  1.00  0.00    -0.224 OA
ATOM     47  O   UNL A   1      32.865  17.321  22.412  1.00  0.00    -0.224 OA
BRANCH  45  48
ATOM     48  C   UNL A   1      34.727  17.699  24.207  1.00  0.00     0.043 C 
ATOM     49  H   UNL A   1      35.078  16.689  24.198  1.00  0.00     0.040 H 
ATOM     50  H   UNL A   1      34.869  18.118  25.180  1.00  0.00     0.040 H 
ATOM     51  H   UNL A   1      35.274  18.273  23.487  1.00  0.00     0.040 H 
ENDBRANCH  45  48
ENDBRANCH  42  45
ENDBRANCH  15  35
ENDBRANCH  11  14
ENDBRANCH   7  10
ENDBRANCH   4   7
ENDBRANCH   1   4
BRANCH   1  52
ATOM     52  C   UNL A   1      31.577  30.472  25.872  1.00  0.00    -0.052 C 
ATOM     53  H   UNL A   1      30.641  30.178  25.444  1.00  0.00     0.027 H 
ATOM     54  H   UNL A   1      32.359  30.568  25.147  1.00  0.00     0.027 H 
BRANCH  52  55
ATOM     55  C   UNL A   1      31.400  31.855  26.501  1.00  0.00    -0.036 C 
ATOM     56  H   UNL A   1      30.740  31.762  27.339  1.00  0.00     0.028 H 
ATOM     57  H   UNL A   1      31.011  32.495  25.738  1.00  0.00     0.028 H 
BRANCH  55  58
ATOM     58  C   UNL A   1      32.699  32.488  26.984  1.00  0.00     0.018 C 
ATOM     59  H   UNL A   1      33.419  32.450  26.193  1.00  0.00     0.049 H 
ATOM     60  H   UNL A   1      33.041  31.940  27.838  1.00  0.00     0.049 H 
BRANCH  58  61
ATOM     61  N   UNL A   1      32.507  33.872  27.381  1.00  0.00    -0.352 N 
ATOM     62  C   UNL A   1      33.085  34.564  28.415  1.00  0.00     0.251 C 
ATOM     63  H   UNL A   1      31.873  34.386  26.831  1.00  0.00     0.163 HD
ATOM     64  O   UNL A   1      32.644  35.656  28.754  1.00  0.00    -0.269 OA
BRANCH  62  65
ATOM     65  C   UNL A   1      34.242  33.982  29.127  1.00  0.00     0.039 A 
ATOM     66  C   UNL A   1      34.020  32.983  30.078  1.00  0.00    -0.049 A 
ATOM     67  C   UNL A   1      35.540  34.440  28.875  1.00  0.00    -0.049 A 
ATOM     68  C   UNL A   1      35.104  32.414  30.749  1.00  0.00    -0.053 A 
ATOM     69  H   UNL A   1      33.059  32.667  30.284  1.00  0.00     0.063 H 
ATOM     70  C   UNL A   1      36.623  33.822  29.490  1.00  0.00    -0.053 A 
ATOM     71  H   UNL A   1      35.692  35.234  28.234  1.00  0.00     0.063 H 
ATOM     72  C   UNL A   1      36.416  32.814  30.444  1.00  0.00    -0.014 A 
ATOM     73  H   UNL A   1      34.941  31.696  31.472  1.00  0.00     0.063 H 
ATOM     74  H   UNL A   1      37.584  34.104  29.243  1.00  0.00     0.063 H 
BRANCH  72  75
ATOM     75  C   UNL A   1      37.583  32.216  31.138  1.00  0.00     0.031 A 
ATOM     76  C   UNL A   1      38.357  31.107  30.483  1.00  0.00     0.074 A 
ATOM     77  C   UNL A   1      37.908  32.631  32.378  1.00  0.00     0.049 A 
ATOM     78  N   UNL A   1      39.356  30.403  30.952  1.00  0.00    -0.248 NA
ATOM     79  C   UNL A   1      37.931  30.714  29.130  1.00  0.00    -0.034 C 
ATOM     80  C   UNL A   1      37.208  33.670  33.133  1.00  0.00    -0.036 A 
ATOM     81  N   UNL A   1      38.907  32.220  33.224  1.00  0.00    -0.354 N 
ATOM     82  C   UNL A   1      39.665  29.480  29.961  1.00  0.00     0.074 A 
ATOM     83  C   UNL A   1      38.712  29.673  28.890  1.00  0.00    -0.034 C 
ATOM     84  H   UNL A   1      37.211  31.141  28.525  1.00  0.00     0.065 H 
ATOM     85  C   UNL A   1      37.810  33.830  34.322  1.00  0.00    -0.036 A 
ATOM     86  H   UNL A   1      36.383  34.196  32.804  1.00  0.00     0.065 H 
ATOM     87  C   UNL A   1      38.914  32.880  34.428  1.00  0.00     0.049 A 
ATOM     88  H   UNL A   1      39.556  31.518  32.991  1.00  0.00     0.167 HD
ATOM     89  C   UNL A   1      40.668  28.570  29.937  1.00  0.00     0.037 A 
ATOM     90  H   UNL A   1      38.649  29.076  28.050  1.00  0.00     0.065 H 
ATOM     91  H   UNL A   1      37.537  34.514  35.045  1.00  0.00     0.065 H 
ATOM     92  C   UNL A   1      39.718  32.731  35.498  1.00  0.00     0.037 A 
ATOM     93  C   UNL A   1      41.631  28.403  30.993  1.00  0.00     0.049 A 
ATOM     94  C   UNL A   1      40.824  31.711  35.447  1.00  0.00     0.074 A 
ATOM     95  C   UNL A   1      42.720  27.550  31.042  1.00  0.00    -0.036 A 
ATOM     96  N   UNL A   1      41.620  29.106  32.189  1.00  0.00    -0.354 N 
ATOM     97  N   UNL A   1      41.146  30.886  34.480  1.00  0.00    -0.248 NA
ATOM     98  C   UNL A   1      41.685  31.608  36.633  1.00  0.00    -0.034 C 
ATOM     99  C   UNL A   1      43.340  27.704  32.286  1.00  0.00    -0.036 A 
ATOM    100  H   UNL A   1      43.022  26.911  30.290  1.00  0.00     0.065 H 
ATOM    101  C   UNL A   1      42.671  28.691  32.991  1.00  0.00     0.049 A 
ATOM    102  H   UNL A   1      40.963  29.798  32.431  1.00  0.00     0.167 HD
ATOM    103  C   UNL A   1      42.262  30.190  34.925  1.00  0.00     0.074 A 
ATOM    104  C   UNL A   1      42.570  30.700  36.246  1.00  0.00    -0.034 C 
ATOM    105  H   UNL A   1      41.618  32.110  37.531  1.00  0.00     0.065 H 
ATOM    106  H   UNL A   1      44.157  27.172  32.622  1.00  0.00     0.065 H 
ATOM    107  C   UNL A   1      42.969  29.218  34.298  1.00  0.00     0.037 A 
ATOM    108  H   UNL A   1      43.376  30.395  36.814  1.00  0.00     0.065 H 
BRANCH  89 109
ATOM    109  C   UNL A   1      40.775  27.686  28.727  1.00  0.00     0.064 A 
ATOM    110  C   UNL A   1      40.033  26.500  28.612  1.00  0.00     0.173 A 
ATOM    111  C   UNL A   1      41.608  28.043  27.656  1.00  0.00     0.173 A 
ATOM    112  F   UNL A   1      39.231  26.105  29.613  1.00  0.00    -0.203 F 
ATOM    113  C   UNL A   1      40.144  25.691  27.485  1.00  0.00     0.198 A 
ATOM    114  C   UNL A   1      41.691  27.247  26.516  1.00  0.00     0.198 A 
ATOM    115  F   UNL A   1      42.337  29.168  27.711  1.00  0.00    -0.203 F 
ATOM    116  F   UNL A   1      39.466  24.536  27.421  1.00  0.00    -0.200 F 
ATOM    117  C   UNL A   1      40.967  26.068  26.435  1.00  0.00     0.200 A 
ATOM    118  F   UNL A   1      42.477  27.621  25.497  1.00  0.00    -0.200 F 
ATOM    119  F   UNL A   1      41.068  25.291  25.348  1.00  0.00    -0.200 F 
ENDBRANCH  89 109
BRANCH  92 120
ATOM    120  C   UNL A   1      39.524  33.583  36.699  1.00  0.00     0.064 A 
ATOM    121  C   UNL A   1      40.145  34.837  36.800  1.00  0.00     0.173 A 
ATOM    122  C   UNL A   1      38.721  33.166  37.770  1.00  0.00     0.173 A 
ATOM    123  F   UNL A   1      40.938  35.272  35.809  1.00  0.00    -0.203 F 
ATOM    124  C   UNL A   1      39.991  35.628  37.936  1.00  0.00     0.198 A 
ATOM    125  C   UNL A   1      38.544  33.972  38.893  1.00  0.00     0.198 A 
ATOM    126  F   UNL A   1      38.098  31.979  37.721  1.00  0.00    -0.203 F 
ATOM    127  F   UNL A   1      40.635  36.799  38.026  1.00  0.00    -0.200 F 
ATOM    128  C   UNL A   1      39.185  35.198  38.979  1.00  0.00     0.200 A 
ATOM    129  F   UNL A   1      37.752  33.558  39.893  1.00  0.00    -0.200 F 
ATOM    130  F   UNL A   1      39.034  35.961  40.071  1.00  0.00    -0.200 F 
ENDBRANCH  92 120
BRANCH 107 131
ATOM    131  C   UNL A   1      44.171  28.671  35.012  1.00  0.00     0.064 A 
ATOM    132  C   UNL A   1      45.435  29.265  34.889  1.00  0.00     0.173 A 
ATOM    133  C   UNL A   1      44.044  27.563  35.864  1.00  0.00     0.173 A 
ATOM    134  F   UNL A   1      45.611  30.316  34.076  1.00  0.00    -0.203 F 
ATOM    135  C   UNL A   1      46.535  28.752  35.572  1.00  0.00     0.198 A 
ATOM    136  C   UNL A   1      45.140  27.073  36.570  1.00  0.00     0.198 A 
ATOM    137  F   UNL A   1      42.855  26.964  36.022  1.00  0.00    -0.203 F 
ATOM    138  F   UNL A   1      47.744  29.305  35.401  1.00  0.00    -0.200 F 
ATOM    139  C   UNL A   1      46.385  27.663  36.418  1.00  0.00     0.200 A 
ATOM    140  F   UNL A   1      44.989  26.031  37.398  1.00  0.00    -0.200 F 
ATOM    141  F   UNL A   1      47.443  27.177  37.081  1.00  0.00    -0.200 F 
ENDBRANCH 107 131
ENDBRANCH  72  75
ENDBRANCH  62  65
ENDBRANCH  58  61
ENDBRANCH  55  58
ENDBRANCH  52  55
ENDBRANCH   1  52
TORSDOF 19
ENDMDL
MODEL 3
REMARK VINA RESULT:     -12.2      1.705      2.483
REMARK SMILES CC(=O)Nc1ccc(/C(=C\c2ccc(S(C)(=O)=O)cc2)C(=O)NCCCCCCNC(=O)c2ccc(-c3c4nc(c(-c5c(F)c(F)c(F)c(F)c5F)c5ccc([nH]5)c(-c5c(F)c(F)c(F)c(F)c5F)c5nc(c(-c6c(F)c(F)c(F)c(F)c6F)c6ccc3[nH]6)C=C5)C=C4)cc2)cc1
REMARK SMILES IDX 26 1 25 4 24 7 23 10 21 11 22 12 9 14 10 15 8 17 5 18 6 19
REMARK SMILES IDX 97 20 7 21 96 23 4 27 2 28 3 29 1 31 11 35 12 36 20 37 13 38
REMARK SMILES IDX 19 40 14 42 15 45 17 46 18 47 16 48 27 52 28 55 29 58 30 61
REMARK SMILES IDX 31 62 32 64 33 65 34 66 95 67 35 68 94 70 36 72 37 75 38 76
REMARK SMILES IDX 88 77 39 78 93 79 87 80 89 81 40 82 92 83 86 85 85 87 41 89
REMARK SMILES IDX 73 92 53 93 72 94 54 95 57 96 71 97 90 98 55 99 56 101
REMARK SMILES IDX 70 103 91 104 58 107 42 109 43 110 51 111 44 112 45 113
REMARK SMILES IDX 49 114 52 115 46 116 47 117 50 118 48 119 74 120 75 121
REMARK SMILES IDX 83 122 76 123 77 124 81 125 84 126 78 127 79 128 82 129
REMARK SMILES IDX 80 130 59 131 60 132 68 133 61 134 62 135 66 136 69 137
REMARK SMILES IDX 63 138 64 139 67 140 65 141
REMARK H PARENT 26 2 26 3 25 5 25 6 24 8 24 9 23 13 10 16 6 22 97 24 7 25
REMARK H PARENT 96 26 4 30 1 32 1 33 1 34 12 39 20 41 13 43 19 44 16 49 16 50
REMARK H PARENT 16 51 27 53 27 54 28 56 28 57 29 59 29 60 30 63 34 69 95 71
REMARK H PARENT 35 73 94 74 93 84 87 86 89 88 92 90 86 91 54 100 57 102 90 105
REMARK H PARENT 55 106 91 108
REMARK Flexibility Score: inf
ROOT
ATOM      1  C   UNL A   1      31.879  29.112  26.898  1.00  0.00    -0.052 C 
ATOM      2  H   UNL A   1      32.941  29.063  27.022  1.00  0.00     0.027 H 
ATOM      3  H   UNL A   1      31.357  29.357  27.800  1.00  0.00     0.027 H 
ENDROOT
BRANCH   1   4
ATOM      4  C   UNL A   1      31.382  27.718  26.479  1.00  0.00    -0.036 C 
ATOM      5  H   UNL A   1      30.985  27.227  27.341  1.00  0.00     0.028 H 
ATOM      6  H   UNL A   1      30.644  27.863  25.719  1.00  0.00     0.028 H 
BRANCH   4   7
ATOM      7  C   UNL A   1      32.481  26.836  25.879  1.00  0.00     0.018 C 
ATOM      8  H   UNL A   1      33.430  27.312  26.008  1.00  0.00     0.049 H 
ATOM      9  H   UNL A   1      32.486  25.887  26.375  1.00  0.00     0.049 H 
BRANCH   7  10
ATOM     10  N   UNL A   1      32.230  26.638  24.468  1.00  0.00    -0.352 N 
ATOM     11  C   UNL A   1      32.442  25.645  23.567  1.00  0.00     0.251 C 
ATOM     12  O   UNL A   1      32.100  25.951  22.421  1.00  0.00    -0.269 OA
ATOM     13  H   UNL A   1      31.795  27.419  24.058  1.00  0.00     0.163 HD
BRANCH  11  14
ATOM     14  C   UNL A   1      32.966  24.249  23.904  1.00  0.00     0.047 C 
ATOM     15  C   UNL A   1      32.075  23.254  24.131  1.00  0.00    -0.042 C 
ATOM     16  H   UNL A   1      31.095  23.554  24.247  1.00  0.00     0.064 H 
BRANCH  14  17
ATOM     17  C   UNL A   1      34.442  24.062  24.174  1.00  0.00    -0.013 A 
ATOM     18  C   UNL A   1      37.060  23.252  24.982  1.00  0.00     0.041 A 
ATOM     19  C   UNL A   1      36.634  23.086  23.663  1.00  0.00    -0.038 A 
ATOM     20  C   UNL A   1      36.248  23.978  25.835  1.00  0.00    -0.038 A 
ATOM     21  C   UNL A   1      35.355  23.517  23.259  1.00  0.00    -0.052 A 
ATOM     22  H   UNL A   1      37.263  22.642  22.976  1.00  0.00     0.064 H 
ATOM     23  C   UNL A   1      34.954  24.335  25.451  1.00  0.00    -0.052 A 
ATOM     24  H   UNL A   1      36.602  24.258  26.763  1.00  0.00     0.064 H 
ATOM     25  H   UNL A   1      35.084  23.430  22.266  1.00  0.00     0.063 H 
ATOM     26  H   UNL A   1      34.350  24.821  26.133  1.00  0.00     0.063 H 
BRANCH  18  27
ATOM     27  N   UNL A   1      38.279  22.670  25.366  1.00  0.00    -0.326 N 
ATOM     28  C   UNL A   1      38.662  21.365  25.506  1.00  0.00     0.221 C 
ATOM     29  O   UNL A   1      39.792  21.125  25.938  1.00  0.00    -0.275 OA
ATOM     30  H   UNL A   1      38.988  23.322  25.573  1.00  0.00     0.169 HD
BRANCH  28  31
ATOM     31  C   UNL A   1      37.758  20.232  25.094  1.00  0.00     0.015 C 
ATOM     32  H   UNL A   1      37.759  19.480  25.855  1.00  0.00     0.033 H 
ATOM     33  H   UNL A   1      38.109  19.811  24.175  1.00  0.00     0.033 H 
ATOM     34  H   UNL A   1      36.762  20.601  24.959  1.00  0.00     0.033 H 
ENDBRANCH  28  31
ENDBRANCH  18  27
ENDBRANCH  14  17
BRANCH  15  35
ATOM     35  C   UNL A   1      32.309  21.805  24.233  1.00  0.00    -0.025 A 
ATOM     36  C   UNL A   1      32.109  21.036  23.072  1.00  0.00    -0.054 A 
ATOM     37  C   UNL A   1      32.785  21.192  25.394  1.00  0.00    -0.054 A 
ATOM     38  C   UNL A   1      32.442  19.681  23.051  1.00  0.00    -0.043 A 
ATOM     39  H   UNL A   1      31.712  21.477  22.228  1.00  0.00     0.063 H 
ATOM     40  C   UNL A   1      33.122  19.833  25.378  1.00  0.00    -0.043 A 
ATOM     41  H   UNL A   1      32.888  21.740  26.263  1.00  0.00     0.063 H 
ATOM     42  C   UNL A   1      32.960  19.090  24.204  1.00  0.00     0.067 A 
ATOM     43  H   UNL A   1      32.308  19.124  22.193  1.00  0.00     0.064 H 
ATOM     44  H   UNL A   1      33.489  19.381  26.231  1.00  0.00     0.064 H 
BRANCH  42  45
ATOM     45  S   UNL A   1      33.543  17.410  24.119  1.00  0.00     0.175 S 
ATOM     46  O   UNL A   1      33.177  16.903  22.810  1.00  0.00    -0.224 OA
ATOM     47  O   UNL A   1      34.926  17.404  24.559  1.00  0.00    -0.224 OA
BRANCH  45  48
ATOM     48  C   UNL A   1      32.579  16.555  25.334  1.00  0.00     0.043 C 
ATOM     49  H   UNL A   1      33.107  15.685  25.661  1.00  0.00     0.040 H 
ATOM     50  H   UNL A   1      31.643  16.264  24.906  1.00  0.00     0.040 H 
ATOM     51  H   UNL A   1      32.404  17.201  26.170  1.00  0.00     0.040 H 
ENDBRANCH  45  48
ENDBRANCH  42  45
ENDBRANCH  15  35
ENDBRANCH  11  14
ENDBRANCH   7  10
ENDBRANCH   4   7
ENDBRANCH   1   4
BRANCH   1  52
ATOM     52  C   UNL A   1      31.567  30.236  25.904  1.00  0.00    -0.052 C 
ATOM     53  H   UNL A   1      30.672  29.977  25.377  1.00  0.00     0.027 H 
ATOM     54  H   UNL A   1      32.421  30.322  25.265  1.00  0.00     0.027 H 
BRANCH  52  55
ATOM     55  C   UNL A   1      31.363  31.614  26.537  1.00  0.00    -0.036 C 
ATOM     56  H   UNL A   1      30.743  31.498  27.402  1.00  0.00     0.028 H 
ATOM     57  H   UNL A   1      30.918  32.236  25.790  1.00  0.00     0.028 H 
BRANCH  55  58
ATOM     58  C   UNL A   1      32.656  32.298  26.964  1.00  0.00     0.018 C 
ATOM     59  H   UNL A   1      33.348  32.273  26.148  1.00  0.00     0.049 H 
ATOM     60  H   UNL A   1      33.047  31.775  27.813  1.00  0.00     0.049 H 
BRANCH  58  61
ATOM     61  N   UNL A   1      32.430  33.681  27.349  1.00  0.00    -0.352 N 
ATOM     62  C   UNL A   1      33.016  34.405  28.356  1.00  0.00     0.251 C 
ATOM     63  H   UNL A   1      31.763  34.166  26.812  1.00  0.00     0.163 HD
ATOM     64  O   UNL A   1      32.549  35.487  28.695  1.00  0.00    -0.269 OA
BRANCH  62  65
ATOM     65  C   UNL A   1      34.211  33.871  29.040  1.00  0.00     0.039 A 
ATOM     66  C   UNL A   1      34.068  32.784  29.906  1.00  0.00    -0.049 A 
ATOM     67  C   UNL A   1      35.466  34.458  28.847  1.00  0.00    -0.049 A 
ATOM     68  C   UNL A   1      35.190  32.260  30.549  1.00  0.00    -0.053 A 
ATOM     69  H   UNL A   1      33.136  32.371  30.070  1.00  0.00     0.063 H 
ATOM     70  C   UNL A   1      36.593  33.890  29.431  1.00  0.00    -0.053 A 
ATOM     71  H   UNL A   1      35.555  35.311  28.274  1.00  0.00     0.063 H 
ATOM     72  C   UNL A   1      36.465  32.795  30.299  1.00  0.00    -0.014 A 
ATOM     73  H   UNL A   1      35.084  31.476  31.212  1.00  0.00     0.063 H 
ATOM     74  H   UNL A   1      37.528  34.273  29.223  1.00  0.00     0.063 H 
BRANCH  72  75
ATOM     75  C   UNL A   1      37.673  32.248  30.965  1.00  0.00     0.031 A 
ATOM     76  C   UNL A   1      38.485  31.181  30.285  1.00  0.00     0.074 A 
ATOM     77  C   UNL A   1      38.004  32.668  32.201  1.00  0.00     0.049 A 
ATOM     78  N   UNL A   1      39.525  30.521  30.727  1.00  0.00    -0.248 NA
ATOM     79  C   UNL A   1      38.050  30.779  28.937  1.00  0.00    -0.034 C 
ATOM     80  C   UNL A   1      37.272  33.668  32.979  1.00  0.00    -0.036 A 
ATOM     81  N   UNL A   1      39.038  32.298  33.024  1.00  0.00    -0.354 N 
ATOM     82  C   UNL A   1      39.856  29.621  29.724  1.00  0.00     0.074 A 
ATOM     83  C   UNL A   1      38.874  29.777  28.674  1.00  0.00    -0.034 C 
ATOM     84  H   UNL A   1      37.299  31.176  28.351  1.00  0.00     0.065 H 
ATOM     85  C   UNL A   1      37.890  33.846  34.157  1.00  0.00    -0.036 A 
ATOM     86  H   UNL A   1      36.417  34.157  32.671  1.00  0.00     0.065 H 
ATOM     87  C   UNL A   1      39.039  32.949  34.233  1.00  0.00     0.049 A 
ATOM     88  H   UNL A   1      39.715  31.629  32.771  1.00  0.00     0.167 HD
ATOM     89  C   UNL A   1      40.900  28.759  29.671  1.00  0.00     0.037 A 
ATOM     90  H   UNL A   1      38.821  29.184  27.830  1.00  0.00     0.065 H 
ATOM     91  H   UNL A   1      37.600  34.511  34.891  1.00  0.00     0.065 H 
ATOM     92  C   UNL A   1      39.871  32.829  35.285  1.00  0.00     0.037 A 
ATOM     93  C   UNL A   1      41.891  28.630  30.706  1.00  0.00     0.049 A 
ATOM     94  C   UNL A   1      41.022  31.863  35.203  1.00  0.00     0.074 A 
ATOM     95  C   UNL A   1      43.019  27.829  30.726  1.00  0.00    -0.036 A 
ATOM     96  N   UNL A   1      41.872  29.323  31.908  1.00  0.00    -0.354 N 
ATOM     97  N   UNL A   1      41.362  31.061  34.223  1.00  0.00    -0.248 NA
ATOM     98  C   UNL A   1      41.911  31.792  36.371  1.00  0.00    -0.034 C 
ATOM     99  C   UNL A   1      43.658  28.003  31.959  1.00  0.00    -0.036 A 
ATOM    100  H   UNL A   1      43.336  27.210  29.963  1.00  0.00     0.065 H 
ATOM    101  C   UNL A   1      42.958  28.952  32.685  1.00  0.00     0.049 A 
ATOM    102  H   UNL A   1      41.188  29.981  32.169  1.00  0.00     0.167 HD
ATOM    103  C   UNL A   1      42.519  30.415  34.640  1.00  0.00     0.074 A 
ATOM    104  C   UNL A   1      42.829  30.929  35.958  1.00  0.00    -0.034 C 
ATOM    105  H   UNL A   1      41.840  32.284  37.274  1.00  0.00     0.065 H 
ATOM    106  H   UNL A   1      44.505  27.507  32.273  1.00  0.00     0.065 H 
ATOM    107  C   UNL A   1      43.257  29.483  33.991  1.00  0.00     0.037 A 
ATOM    108  H   UNL A   1      43.660  30.658  36.507  1.00  0.00     0.065 H 
BRANCH  89 109
ATOM    109  C   UNL A   1      41.024  27.890  28.452  1.00  0.00     0.064 A 
ATOM    110  C   UNL A   1      41.764  28.295  27.331  1.00  0.00     0.173 A 
ATOM    111  C   UNL A   1      40.421  26.624  28.416  1.00  0.00     0.173 A 
ATOM    112  F   UNL A   1      42.351  29.502  27.309  1.00  0.00    -0.203 F 
ATOM    113  C   UNL A   1      41.870  27.479  26.208  1.00  0.00     0.198 A 
ATOM    114  C   UNL A   1      40.555  25.798  27.303  1.00  0.00     0.198 A 
ATOM    115  F   UNL A   1      39.704  26.185  29.462  1.00  0.00    -0.203 F 
ATOM    116  F   UNL A   1      42.537  27.910  25.128  1.00  0.00    -0.200 F 
ATOM    117  C   UNL A   1      41.272  26.228  26.197  1.00  0.00     0.200 A 
ATOM    118  F   UNL A   1      39.987  24.584  27.301  1.00  0.00    -0.200 F 
ATOM    119  F   UNL A   1      41.379  25.441  25.118  1.00  0.00    -0.200 F 
ENDBRANCH  89 109
BRANCH  92 120
ATOM    120  C   UNL A   1      39.662  33.663  36.497  1.00  0.00     0.064 A 
ATOM    121  C   UNL A   1      38.907  33.185  37.578  1.00  0.00     0.173 A 
ATOM    122  C   UNL A   1      40.204  34.953  36.600  1.00  0.00     0.173 A 
ATOM    123  F   UNL A   1      38.353  31.966  37.519  1.00  0.00    -0.203 F 
ATOM    124  C   UNL A   1      38.683  33.973  38.705  1.00  0.00     0.198 A 
ATOM    125  C   UNL A   1      40.003  35.729  37.740  1.00  0.00     0.198 A 
ATOM    126  F   UNL A   1      40.939  35.455  35.597  1.00  0.00    -0.203 F 
ATOM    127  F   UNL A   1      37.918  33.511  39.702  1.00  0.00    -0.200 F 
ATOM    128  C   UNL A   1      39.236  35.242  38.787  1.00  0.00     0.200 A 
ATOM    129  F   UNL A   1      40.552  36.949  37.821  1.00  0.00    -0.200 F 
ATOM    130  F   UNL A   1      39.022  36.000  39.872  1.00  0.00    -0.200 F 
ENDBRANCH  92 120
BRANCH 107 131
ATOM    131  C   UNL A   1      44.498  28.987  34.676  1.00  0.00     0.064 A 
ATOM    132  C   UNL A   1      45.730  29.640  34.532  1.00  0.00     0.173 A 
ATOM    133  C   UNL A   1      44.441  27.868  35.520  1.00  0.00     0.173 A 
ATOM    134  F   UNL A   1      45.840  30.705  33.724  1.00  0.00    -0.203 F 
ATOM    135  C   UNL A   1      46.867  29.174  35.188  1.00  0.00     0.198 A 
ATOM    136  C   UNL A   1      45.572  27.424  36.200  1.00  0.00     0.198 A 
ATOM    137  F   UNL A   1      43.284  27.213  35.698  1.00  0.00    -0.203 F 
ATOM    138  F   UNL A   1      48.045  29.785  34.998  1.00  0.00    -0.200 F 
ATOM    139  C   UNL A   1      46.785  28.074  36.027  1.00  0.00     0.200 A 
ATOM    140  F   UNL A   1      45.487  26.370  37.022  1.00  0.00    -0.200 F 
ATOM    141  F   UNL A   1      47.878  27.633  36.665  1.00  0.00    -0.200 F 
ENDBRANCH 107 131
ENDBRANCH  72  75
ENDBRANCH  62  65
ENDBRANCH  58  61
ENDBRANCH  55  58
ENDBRANCH  52  55
ENDBRANCH   1  52
TORSDOF 19
ENDMDL
MODEL 4
REMARK VINA RESULT:     -12.2      0.699      7.122
REMARK SMILES CC(=O)Nc1ccc(/C(=C\c2ccc(S(C)(=O)=O)cc2)C(=O)NCCCCCCNC(=O)c2ccc(-c3c4nc(c(-c5c(F)c(F)c(F)c(F)c5F)c5ccc([nH]5)c(-c5c(F)c(F)c(F)c(F)c5F)c5nc(c(-c6c(F)c(F)c(F)c(F)c6F)c6ccc3[nH]6)C=C5)C=C4)cc2)cc1
REMARK SMILES IDX 26 1 25 4 24 7 23 10 21 11 22 12 9 14 10 15 8 17 5 18 6 19
REMARK SMILES IDX 97 20 7 21 96 23 4 27 2 28 3 29 1 31 11 35 12 36 20 37 13 38
REMARK SMILES IDX 19 40 14 42 15 45 17 46 18 47 16 48 27 52 28 55 29 58 30 61
REMARK SMILES IDX 31 62 32 64 33 65 34 66 95 67 35 68 94 70 36 72 37 75 38 76
REMARK SMILES IDX 88 77 39 78 93 79 87 80 89 81 40 82 92 83 86 85 85 87 41 89
REMARK SMILES IDX 73 92 53 93 72 94 54 95 57 96 71 97 90 98 55 99 56 101
REMARK SMILES IDX 70 103 91 104 58 107 42 109 43 110 51 111 44 112 45 113
REMARK SMILES IDX 49 114 52 115 46 116 47 117 50 118 48 119 74 120 75 121
REMARK SMILES IDX 83 122 76 123 77 124 81 125 84 126 78 127 79 128 82 129
REMARK SMILES IDX 80 130 59 131 60 132 68 133 61 134 62 135 66 136 69 137
REMARK SMILES IDX 63 138 64 139 67 140 65 141
REMARK H PARENT 26 2 26 3 25 5 25 6 24 8 24 9 23 13 10 16 6 22 97 24 7 25
REMARK H PARENT 96 26 4 30 1 32 1 33 1 34 12 39 20 41 13 43 19 44 16 49 16 50
REMARK H PARENT 16 51 27 53 27 54 28 56 28 57 29 59 29 60 30 63 34 69 95 71
REMARK H PARENT 35 73 94 74 93 84 87 86 89 88 92 90 86 91 54 100 57 102 90 105
REMARK H PARENT 55 106 91 108
REMARK Flexibility Score: inf
ROOT
ATOM      1  C   UNL A   1      30.932  26.738  26.200  1.00  0.00    -0.052 C 
ATOM      2  H   UNL A   1      31.124  26.632  27.248  1.00  0.00     0.027 H 
ATOM      3  H   UNL A   1      29.895  26.869  25.970  1.00  0.00     0.027 H 
ENDROOT
BRANCH   1   4
ATOM      4  C   UNL A   1      31.365  25.437  25.503  1.00  0.00    -0.036 C 
ATOM      5  H   UNL A   1      32.408  25.507  25.275  1.00  0.00     0.028 H 
ATOM      6  H   UNL A   1      31.151  24.633  26.176  1.00  0.00     0.028 H 
BRANCH   4   7
ATOM      7  C   UNL A   1      30.601  25.156  24.206  1.00  0.00     0.018 C 
ATOM      8  H   UNL A   1      30.145  24.190  24.264  1.00  0.00     0.049 H 
ATOM      9  H   UNL A   1      29.845  25.902  24.071  1.00  0.00     0.049 H 
BRANCH   7  10
ATOM     10  N   UNL A   1      31.515  25.192  23.085  1.00  0.00    -0.352 N 
ATOM     11  C   UNL A   1      32.588  24.469  22.675  1.00  0.00     0.251 C 
ATOM     12  O   UNL A   1      33.105  24.913  21.647  1.00  0.00    -0.269 OA
ATOM     13  H   UNL A   1      31.305  25.924  22.462  1.00  0.00     0.163 HD
BRANCH  11  14
ATOM     14  C   UNL A   1      33.087  23.185  23.337  1.00  0.00     0.047 C 
ATOM     15  C   UNL A   1      32.234  22.139  23.460  1.00  0.00    -0.042 C 
ATOM     16  H   UNL A   1      31.242  22.351  23.269  1.00  0.00     0.064 H 
BRANCH  14  17
ATOM     17  C   UNL A   1      34.440  23.181  24.012  1.00  0.00    -0.013 A 
ATOM     18  C   UNL A   1      36.842  22.655  25.465  1.00  0.00     0.041 A 
ATOM     19  C   UNL A   1      36.834  22.649  24.069  1.00  0.00    -0.038 A 
ATOM     20  C   UNL A   1      35.704  23.095  26.115  1.00  0.00    -0.038 A 
ATOM     21  C   UNL A   1      35.656  22.942  23.354  1.00  0.00    -0.052 A 
ATOM     22  H   UNL A   1      37.700  22.427  23.556  1.00  0.00     0.064 H 
ATOM     23  C   UNL A   1      34.520  23.311  25.406  1.00  0.00    -0.052 A 
ATOM     24  H   UNL A   1      35.729  23.267  27.133  1.00  0.00     0.064 H 
ATOM     25  H   UNL A   1      35.689  22.982  22.324  1.00  0.00     0.063 H 
ATOM     26  H   UNL A   1      33.670  23.578  25.928  1.00  0.00     0.063 H 
BRANCH  18  27
ATOM     27  N   UNL A   1      37.999  22.209  26.126  1.00  0.00    -0.326 N 
ATOM     28  C   UNL A   1      39.117  22.871  26.552  1.00  0.00     0.221 C 
ATOM     29  O   UNL A   1      40.037  22.215  27.048  1.00  0.00    -0.275 OA
ATOM     30  H   UNL A   1      38.006  21.243  26.317  1.00  0.00     0.169 HD
BRANCH  28  31
ATOM     31  C   UNL A   1      39.219  24.372  26.476  1.00  0.00     0.015 C 
ATOM     32  H   UNL A   1      39.044  24.691  25.470  1.00  0.00     0.033 H 
ATOM     33  H   UNL A   1      40.198  24.679  26.782  1.00  0.00     0.033 H 
ATOM     34  H   UNL A   1      38.489  24.813  27.122  1.00  0.00     0.033 H 
ENDBRANCH  28  31
ENDBRANCH  18  27
ENDBRANCH  14  17
BRANCH  15  35
ATOM     35  C   UNL A   1      32.522  20.745  23.828  1.00  0.00    -0.025 A 
ATOM     36  C   UNL A   1      32.203  19.749  22.886  1.00  0.00    -0.054 A 
ATOM     37  C   UNL A   1      33.158  20.389  25.020  1.00  0.00    -0.054 A 
ATOM     38  C   UNL A   1      32.573  18.422  23.102  1.00  0.00    -0.043 A 
ATOM     39  H   UNL A   1      31.691  20.003  22.027  1.00  0.00     0.063 H 
ATOM     40  C   UNL A   1      33.532  19.057  25.242  1.00  0.00    -0.043 A 
ATOM     41  H   UNL A   1      33.352  21.106  25.737  1.00  0.00     0.063 H 
ATOM     42  C   UNL A   1      33.248  18.085  24.277  1.00  0.00     0.067 A 
ATOM     43  H   UNL A   1      32.350  17.697  22.403  1.00  0.00     0.064 H 
ATOM     44  H   UNL A   1      34.016  18.795  26.115  1.00  0.00     0.064 H 
BRANCH  42  45
ATOM     45  S   UNL A   1      33.867  16.427  24.466  1.00  0.00     0.175 S 
ATOM     46  O   UNL A   1      34.022  15.881  23.131  1.00  0.00    -0.224 OA
ATOM     47  O   UNL A   1      34.990  16.481  25.382  1.00  0.00    -0.224 OA
BRANCH  45  48
ATOM     48  C   UNL A   1      32.547  15.561  25.269  1.00  0.00     0.043 C 
ATOM     49  H   UNL A   1      31.820  16.264  25.618  1.00  0.00     0.040 H 
ATOM     50  H   UNL A   1      32.936  15.008  26.097  1.00  0.00     0.040 H 
ATOM     51  H   UNL A   1      32.087  14.888  24.574  1.00  0.00     0.040 H 
ENDBRANCH  45  48
ENDBRANCH  42  45
ENDBRANCH  15  35
ENDBRANCH  11  14
ENDBRANCH   7  10
ENDBRANCH   4   7
ENDBRANCH   1   4
BRANCH   1  52
ATOM     52  C   UNL A   1      31.645  28.003  25.710  1.00  0.00    -0.052 C 
ATOM     53  H   UNL A   1      31.584  28.741  26.483  1.00  0.00     0.027 H 
ATOM     54  H   UNL A   1      31.152  28.298  24.807  1.00  0.00     0.027 H 
BRANCH  52  55
ATOM     55  C   UNL A   1      33.120  27.809  25.353  1.00  0.00    -0.036 C 
ATOM     56  H   UNL A   1      33.178  27.166  24.500  1.00  0.00     0.028 H 
ATOM     57  H   UNL A   1      33.596  27.395  26.216  1.00  0.00     0.028 H 
BRANCH  55  58
ATOM     58  C   UNL A   1      33.854  29.104  25.025  1.00  0.00     0.018 C 
ATOM     59  H   UNL A   1      33.877  29.231  23.963  1.00  0.00     0.049 H 
ATOM     60  H   UNL A   1      34.845  29.037  25.424  1.00  0.00     0.049 H 
BRANCH  58  61
ATOM     61  N   UNL A   1      33.202  30.256  25.625  1.00  0.00    -0.352 N 
ATOM     62  C   UNL A   1      33.455  30.864  26.828  1.00  0.00     0.251 C 
ATOM     63  H   UNL A   1      32.477  30.656  25.093  1.00  0.00     0.163 HD
ATOM     64  O   UNL A   1      32.665  31.681  27.289  1.00  0.00    -0.269 OA
BRANCH  62  65
ATOM     65  C   UNL A   1      34.684  30.524  27.575  1.00  0.00     0.039 A 
ATOM     66  C   UNL A   1      35.706  31.473  27.664  1.00  0.00    -0.049 A 
ATOM     67  C   UNL A   1      34.837  29.265  28.163  1.00  0.00    -0.049 A 
ATOM     68  C   UNL A   1      36.867  31.172  28.378  1.00  0.00    -0.053 A 
ATOM     69  H   UNL A   1      35.603  32.391  27.205  1.00  0.00     0.063 H 
ATOM     70  C   UNL A   1      35.961  28.993  28.935  1.00  0.00    -0.053 A 
ATOM     71  H   UNL A   1      34.117  28.539  28.024  1.00  0.00     0.063 H 
ATOM     72  C   UNL A   1      36.994  29.937  29.037  1.00  0.00    -0.014 A 
ATOM     73  H   UNL A   1      37.635  31.859  28.422  1.00  0.00     0.063 H 
ATOM     74  H   UNL A   1      36.037  28.094  29.435  1.00  0.00     0.063 H 
BRANCH  72  75
ATOM     75  C   UNL A   1      38.215  29.600  29.809  1.00  0.00     0.031 A 
ATOM     76  C   UNL A   1      38.417  30.177  31.182  1.00  0.00     0.074 A 
ATOM     77  C   UNL A   1      39.166  28.825  29.252  1.00  0.00     0.049 A 
ATOM     78  N   UNL A   1      39.445  30.067  31.986  1.00  0.00    -0.248 NA
ATOM     79  C   UNL A   1      37.330  31.016  31.712  1.00  0.00    -0.034 C 
ATOM     80  C   UNL A   1      39.103  28.240  27.912  1.00  0.00    -0.036 A 
ATOM     81  N   UNL A   1      40.377  28.404  29.743  1.00  0.00    -0.354 N 
ATOM     82  C   UNL A   1      39.135  30.833  33.102  1.00  0.00     0.074 A 
ATOM     83  C   UNL A   1      37.850  31.448  32.850  1.00  0.00    -0.034 C 
ATOM     84  H   UNL A   1      36.403  31.215  31.303  1.00  0.00     0.065 H 
ATOM     85  C   UNL A   1      40.215  27.520  27.695  1.00  0.00    -0.036 A 
ATOM     86  H   UNL A   1      38.328  28.362  27.242  1.00  0.00     0.065 H 
ATOM     87  C   UNL A   1      41.084  27.622  28.863  1.00  0.00     0.049 A 
ATOM     88  H   UNL A   1      40.706  28.640  30.640  1.00  0.00     0.167 HD
ATOM     89  C   UNL A   1      39.846  30.988  34.245  1.00  0.00     0.037 A 
ATOM     90  H   UNL A   1      37.399  32.134  33.476  1.00  0.00     0.065 H 
ATOM     91  H   UNL A   1      40.422  26.981  26.839  1.00  0.00     0.065 H 
ATOM     92  C   UNL A   1      42.301  27.057  28.985  1.00  0.00     0.037 A 
ATOM     93  C   UNL A   1      41.109  30.349  34.501  1.00  0.00     0.049 A 
ATOM     94  C   UNL A   1      43.072  27.247  30.264  1.00  0.00     0.074 A 
ATOM     95  C   UNL A   1      41.883  30.395  35.648  1.00  0.00    -0.036 A 
ATOM     96  N   UNL A   1      41.785  29.545  33.595  1.00  0.00    -0.354 N 
ATOM     97  N   UNL A   1      42.741  27.921  31.339  1.00  0.00    -0.248 NA
ATOM     98  C   UNL A   1      44.382  26.588  30.351  1.00  0.00    -0.034 C 
ATOM     99  C   UNL A   1      43.049  29.657  35.418  1.00  0.00    -0.036 A 
ATOM    100  H   UNL A   1      41.641  30.888  36.522  1.00  0.00     0.065 H 
ATOM    101  C   UNL A   1      42.977  29.107  34.149  1.00  0.00     0.049 A 
ATOM    102  H   UNL A   1      41.465  29.320  32.691  1.00  0.00     0.167 HD
ATOM    103  C   UNL A   1      43.783  27.743  32.239  1.00  0.00     0.074 A 
ATOM    104  C   UNL A   1      44.752  26.886  31.589  1.00  0.00    -0.034 C 
ATOM    105  H   UNL A   1      44.883  26.039  29.636  1.00  0.00     0.065 H 
ATOM    106  H   UNL A   1      43.830  29.543  36.082  1.00  0.00     0.065 H 
ATOM    107  C   UNL A   1      43.925  28.243  33.491  1.00  0.00     0.037 A 
ATOM    108  H   UNL A   1      45.621  26.549  32.033  1.00  0.00     0.065 H 
BRANCH  89 109
ATOM    109  C   UNL A   1      39.270  31.883  35.305  1.00  0.00     0.064 A 
ATOM    110  C   UNL A   1      38.454  31.380  36.331  1.00  0.00     0.173 A 
ATOM    111  C   UNL A   1      39.563  33.254  35.316  1.00  0.00     0.173 A 
ATOM    112  F   UNL A   1      38.133  30.077  36.361  1.00  0.00    -0.203 F 
ATOM    113  C   UNL A   1      37.928  32.221  37.306  1.00  0.00     0.198 A 
ATOM    114  C   UNL A   1      39.060  34.087  36.312  1.00  0.00     0.198 A 
ATOM    115  F   UNL A   1      40.341  33.788  34.362  1.00  0.00    -0.203 F 
ATOM    116  F   UNL A   1      37.106  31.727  38.244  1.00  0.00    -0.200 F 
ATOM    117  C   UNL A   1      38.237  33.573  37.301  1.00  0.00     0.200 A 
ATOM    118  F   UNL A   1      39.372  35.391  36.312  1.00  0.00    -0.200 F 
ATOM    119  F   UNL A   1      37.734  34.381  38.244  1.00  0.00    -0.200 F 
ENDBRANCH  89 109
BRANCH  92 120
ATOM    120  C   UNL A   1      42.855  26.239  27.876  1.00  0.00     0.064 A 
ATOM    121  C   UNL A   1      42.579  24.866  27.787  1.00  0.00     0.173 A 
ATOM    122  C   UNL A   1      43.673  26.804  26.888  1.00  0.00     0.173 A 
ATOM    123  F   UNL A   1      41.817  24.276  28.720  1.00  0.00    -0.203 F 
ATOM    124  C   UNL A   1      43.120  24.087  26.767  1.00  0.00     0.198 A 
ATOM    125  C   UNL A   1      44.189  26.029  25.850  1.00  0.00     0.198 A 
ATOM    126  F   UNL A   1      43.962  28.114  26.922  1.00  0.00    -0.203 F 
ATOM    127  F   UNL A   1      42.880  22.770  26.733  1.00  0.00    -0.200 F 
ATOM    128  C   UNL A   1      43.919  24.671  25.796  1.00  0.00     0.200 A 
ATOM    129  F   UNL A   1      44.949  26.601  24.906  1.00  0.00    -0.200 F 
ATOM    130  F   UNL A   1      44.437  23.922  24.812  1.00  0.00    -0.200 F 
ENDBRANCH  92 120
BRANCH 107 131
ATOM    131  C   UNL A   1      45.151  27.843  34.258  1.00  0.00     0.064 A 
ATOM    132  C   UNL A   1      46.340  28.582  34.185  1.00  0.00     0.173 A 
ATOM    133  C   UNL A   1      45.120  26.728  35.110  1.00  0.00     0.173 A 
ATOM    134  F   UNL A   1      46.426  29.647  33.374  1.00  0.00    -0.203 F 
ATOM    135  C   UNL A   1      47.463  28.203  34.917  1.00  0.00     0.198 A 
ATOM    136  C   UNL A   1      46.234  26.372  35.865  1.00  0.00     0.198 A 
ATOM    137  F   UNL A   1      44.004  25.993  35.221  1.00  0.00    -0.203 F 
ATOM    138  F   UNL A   1      48.604  28.896  34.795  1.00  0.00    -0.200 F 
ATOM    139  C   UNL A   1      47.406  27.105  35.762  1.00  0.00     0.200 A 
ATOM    140  F   UNL A   1      46.173  25.319  36.692  1.00  0.00    -0.200 F 
ATOM    141  F   UNL A   1      48.485  26.748  36.472  1.00  0.00    -0.200 F 
ENDBRANCH 107 131
ENDBRANCH  72  75
ENDBRANCH  62  65
ENDBRANCH  58  61
ENDBRANCH  55  58
ENDBRANCH  52  55
ENDBRANCH   1  52
TORSDOF 19
ENDMDL
MODEL 5
REMARK VINA RESULT:     -12.1      1.669      7.346
REMARK SMILES CC(=O)Nc1ccc(/C(=C\c2ccc(S(C)(=O)=O)cc2)C(=O)NCCCCCCNC(=O)c2ccc(-c3c4nc(c(-c5c(F)c(F)c(F)c(F)c5F)c5ccc([nH]5)c(-c5c(F)c(F)c(F)c(F)c5F)c5nc(c(-c6c(F)c(F)c(F)c(F)c6F)c6ccc3[nH]6)C=C5)C=C4)cc2)cc1
REMARK SMILES IDX 26 1 25 4 24 7 23 10 21 11 22 12 9 14 10 15 8 17 5 18 6 19
REMARK SMILES IDX 97 20 7 21 96 23 4 27 2 28 3 29 1 31 11 35 12 36 20 37 13 38
REMARK SMILES IDX 19 40 14 42 15 45 17 46 18 47 16 48 27 52 28 55 29 58 30 61
REMARK SMILES IDX 31 62 32 64 33 65 34 66 95 67 35 68 94 70 36 72 37 75 38 76
REMARK SMILES IDX 88 77 39 78 93 79 87 80 89 81 40 82 92 83 86 85 85 87 41 89
REMARK SMILES IDX 73 92 53 93 72 94 54 95 57 96 71 97 90 98 55 99 56 101
REMARK SMILES IDX 70 103 91 104 58 107 42 109 43 110 51 111 44 112 45 113
REMARK SMILES IDX 49 114 52 115 46 116 47 117 50 118 48 119 74 120 75 121
REMARK SMILES IDX 83 122 76 123 77 124 81 125 84 126 78 127 79 128 82 129
REMARK SMILES IDX 80 130 59 131 60 132 68 133 61 134 62 135 66 136 69 137
REMARK SMILES IDX 63 138 64 139 67 140 65 141
REMARK H PARENT 26 2 26 3 25 5 25 6 24 8 24 9 23 13 10 16 6 22 97 24 7 25
REMARK H PARENT 96 26 4 30 1 32 1 33 1 34 12 39 20 41 13 43 19 44 16 49 16 50
REMARK H PARENT 16 51 27 53 27 54 28 56 28 57 29 59 29 60 30 63 34 69 95 71
REMARK H PARENT 35 73 94 74 93 84 87 86 89 88 92 90 86 91 54 100 57 102 90 105
REMARK H PARENT 55 106 91 108
REMARK Flexibility Score: inf
ROOT
ATOM      1  C   UNL A   1      32.118  29.431  25.549  1.00  0.00    -0.052 C 
ATOM      2  H   UNL A   1      31.261  29.160  24.967  1.00  0.00     0.027 H 
ATOM      3  H   UNL A   1      32.766  30.123  25.053  1.00  0.00     0.027 H 
ENDROOT
BRANCH   1   4
ATOM      4  C   UNL A   1      32.951  28.160  25.790  1.00  0.00    -0.036 C 
ATOM      5  H   UNL A   1      33.823  28.205  25.173  1.00  0.00     0.028 H 
ATOM      6  H   UNL A   1      33.192  28.135  26.832  1.00  0.00     0.028 H 
BRANCH   4   7
ATOM      7  C   UNL A   1      32.195  26.867  25.470  1.00  0.00     0.018 C 
ATOM      8  H   UNL A   1      32.707  26.037  25.911  1.00  0.00     0.049 H 
ATOM      9  H   UNL A   1      31.203  26.927  25.868  1.00  0.00     0.049 H 
BRANCH   7  10
ATOM     10  N   UNL A   1      32.126  26.685  24.037  1.00  0.00    -0.352 N 
ATOM     11  C   UNL A   1      32.442  25.698  23.160  1.00  0.00     0.251 C 
ATOM     12  O   UNL A   1      32.255  26.018  21.984  1.00  0.00    -0.269 OA
ATOM     13  H   UNL A   1      31.757  27.475  23.582  1.00  0.00     0.163 HD
BRANCH  11  14
ATOM     14  C   UNL A   1      32.903  24.293  23.548  1.00  0.00     0.047 C 
ATOM     15  C   UNL A   1      31.969  23.330  23.746  1.00  0.00    -0.042 C 
ATOM     16  H   UNL A   1      30.995  23.664  23.807  1.00  0.00     0.064 H 
BRANCH  14  17
ATOM     17  C   UNL A   1      34.356  24.064  23.896  1.00  0.00    -0.013 A 
ATOM     18  C   UNL A   1      36.902  23.190  24.852  1.00  0.00     0.041 A 
ATOM     19  C   UNL A   1      36.536  23.004  23.518  1.00  0.00    -0.038 A 
ATOM     20  C   UNL A   1      36.075  23.962  25.647  1.00  0.00    -0.038 A 
ATOM     21  C   UNL A   1      35.294  23.466  23.040  1.00  0.00    -0.052 A 
ATOM     22  H   UNL A   1      37.183  22.523  22.874  1.00  0.00     0.064 H 
ATOM     23  C   UNL A   1      34.814  24.352  25.190  1.00  0.00    -0.052 A 
ATOM     24  H   UNL A   1      36.392  24.254  26.585  1.00  0.00     0.064 H 
ATOM     25  H   UNL A   1      35.070  23.364  22.038  1.00  0.00     0.063 H 
ATOM     26  H   UNL A   1      34.194  24.874  25.829  1.00  0.00     0.063 H 
BRANCH  18  27
ATOM     27  N   UNL A   1      38.081  22.578  25.311  1.00  0.00    -0.326 N 
ATOM     28  C   UNL A   1      38.434  21.263  25.441  1.00  0.00     0.221 C 
ATOM     29  O   UNL A   1      39.524  20.993  25.951  1.00  0.00    -0.275 OA
ATOM     30  H   UNL A   1      38.781  23.212  25.590  1.00  0.00     0.169 HD
BRANCH  28  31
ATOM     31  C   UNL A   1      37.548  20.157  24.930  1.00  0.00     0.015 C 
ATOM     32  H   UNL A   1      36.976  19.755  25.739  1.00  0.00     0.033 H 
ATOM     33  H   UNL A   1      38.153  19.384  24.503  1.00  0.00     0.033 H 
ATOM     34  H   UNL A   1      36.886  20.545  24.183  1.00  0.00     0.033 H 
ENDBRANCH  28  31
ENDBRANCH  18  27
ENDBRANCH  14  17
BRANCH  15  35
ATOM     35  C   UNL A   1      32.151  21.877  23.884  1.00  0.00    -0.025 A 
ATOM     36  C   UNL A   1      32.038  21.099  22.718  1.00  0.00    -0.054 A 
ATOM     37  C   UNL A   1      32.498  21.266  25.091  1.00  0.00    -0.054 A 
ATOM     38  C   UNL A   1      32.333  19.735  22.742  1.00  0.00    -0.043 A 
ATOM     39  H   UNL A   1      31.735  21.540  21.836  1.00  0.00     0.063 H 
ATOM     40  C   UNL A   1      32.796  19.898  25.121  1.00  0.00    -0.043 A 
ATOM     41  H   UNL A   1      32.535  21.822  25.961  1.00  0.00     0.063 H 
ATOM     42  C   UNL A   1      32.723  19.145  23.945  1.00  0.00     0.067 A 
ATOM     43  H   UNL A   1      32.264  19.170  21.882  1.00  0.00     0.064 H 
ATOM     44  H   UNL A   1      33.068  19.447  26.009  1.00  0.00     0.064 H 
BRANCH  42  45
ATOM     45  S   UNL A   1      33.263  17.449  23.932  1.00  0.00     0.175 S 
ATOM     46  O   UNL A   1      32.515  16.760  24.966  1.00  0.00    -0.224 OA
ATOM     47  O   UNL A   1      33.227  16.988  22.557  1.00  0.00    -0.224 OA
BRANCH  45  48
ATOM     48  C   UNL A   1      34.959  17.531  24.437  1.00  0.00     0.043 C 
ATOM     49  H   UNL A   1      35.544  16.871  23.831  1.00  0.00     0.040 H 
ATOM     50  H   UNL A   1      35.040  17.239  25.463  1.00  0.00     0.040 H 
ATOM     51  H   UNL A   1      35.317  18.533  24.321  1.00  0.00     0.040 H 
ENDBRANCH  45  48
ENDBRANCH  42  45
ENDBRANCH  15  35
ENDBRANCH  11  14
ENDBRANCH   7  10
ENDBRANCH   4   7
ENDBRANCH   1   4
BRANCH   1  52
ATOM     52  C   UNL A   1      31.629  30.134  26.819  1.00  0.00    -0.052 C 
ATOM     53  H   UNL A   1      32.341  29.952  27.597  1.00  0.00     0.027 H 
ATOM     54  H   UNL A   1      30.660  29.733  27.034  1.00  0.00     0.027 H 
BRANCH  52  55
ATOM     55  C   UNL A   1      31.449  31.648  26.685  1.00  0.00    -0.036 C 
ATOM     56  H   UNL A   1      30.800  31.981  27.468  1.00  0.00     0.028 H 
ATOM     57  H   UNL A   1      31.047  31.827  25.710  1.00  0.00     0.028 H 
BRANCH  55  58
ATOM     58  C   UNL A   1      32.750  32.437  26.774  1.00  0.00     0.018 C 
ATOM     59  H   UNL A   1      33.175  32.519  25.795  1.00  0.00     0.049 H 
ATOM     60  H   UNL A   1      33.412  31.918  27.436  1.00  0.00     0.049 H 
BRANCH  58  61
ATOM     61  N   UNL A   1      32.532  33.772  27.306  1.00  0.00    -0.352 N 
ATOM     62  C   UNL A   1      33.112  34.374  28.394  1.00  0.00     0.251 C 
ATOM     63  H   UNL A   1      31.877  34.320  26.819  1.00  0.00     0.163 HD
ATOM     64  O   UNL A   1      32.651  35.417  28.845  1.00  0.00    -0.269 OA
BRANCH  62  65
ATOM     65  C   UNL A   1      34.294  33.754  29.029  1.00  0.00     0.039 A 
ATOM     66  C   UNL A   1      34.102  32.758  29.989  1.00  0.00    -0.049 A 
ATOM     67  C   UNL A   1      35.585  34.174  28.696  1.00  0.00    -0.049 A 
ATOM     68  C   UNL A   1      35.209  32.153  30.588  1.00  0.00    -0.053 A 
ATOM     69  H   UNL A   1      33.147  32.470  30.255  1.00  0.00     0.063 H 
ATOM     70  C   UNL A   1      36.687  33.522  29.239  1.00  0.00    -0.053 A 
ATOM     71  H   UNL A   1      35.720  34.967  28.050  1.00  0.00     0.063 H 
ATOM     72  C   UNL A   1      36.510  32.516  30.201  1.00  0.00    -0.014 A 
ATOM     73  H   UNL A   1      35.071  31.437  31.318  1.00  0.00     0.063 H 
ATOM     74  H   UNL A   1      37.638  33.777  28.932  1.00  0.00     0.063 H 
BRANCH  72  75
ATOM     75  C   UNL A   1      37.701  31.880  30.818  1.00  0.00     0.031 A 
ATOM     76  C   UNL A   1      38.158  32.312  32.183  1.00  0.00     0.074 A 
ATOM     77  C   UNL A   1      38.402  30.960  30.127  1.00  0.00     0.049 A 
ATOM     78  N   UNL A   1      39.213  31.938  32.862  1.00  0.00    -0.248 NA
ATOM     79  C   UNL A   1      37.336  33.325  32.865  1.00  0.00    -0.034 C 
ATOM     80  C   UNL A   1      38.081  30.489  28.780  1.00  0.00    -0.036 A 
ATOM     81  N   UNL A   1      39.535  30.263  30.463  1.00  0.00    -0.354 N 
ATOM     82  C   UNL A   1      39.188  32.678  34.037  1.00  0.00     0.074 A 
ATOM     83  C   UNL A   1      38.048  33.564  33.955  1.00  0.00    -0.034 C 
ATOM     84  H   UNL A   1      36.438  33.740  32.569  1.00  0.00     0.065 H 
ATOM     85  C   UNL A   1      38.984  29.567  28.410  1.00  0.00    -0.036 A 
ATOM     86  H   UNL A   1      37.287  30.814  28.205  1.00  0.00     0.065 H 
ATOM     87  C   UNL A   1      39.966  29.408  29.478  1.00  0.00     0.049 A 
ATOM     88  H   UNL A   1      39.996  30.366  31.326  1.00  0.00     0.167 HD
ATOM     89  C   UNL A   1      40.026  32.607  35.099  1.00  0.00     0.037 A 
ATOM     90  H   UNL A   1      37.820  34.288  34.654  1.00  0.00     0.065 H 
ATOM     91  H   UNL A   1      38.983  29.052  27.516  1.00  0.00     0.065 H 
ATOM     92  C   UNL A   1      41.038  28.594  29.441  1.00  0.00     0.037 A 
ATOM     93  C   UNL A   1      41.141  31.701  35.187  1.00  0.00     0.049 A 
ATOM     94  C   UNL A   1      41.955  28.535  30.633  1.00  0.00     0.074 A 
ATOM     95  C   UNL A   1      42.016  31.509  36.241  1.00  0.00    -0.036 A 
ATOM     96  N   UNL A   1      41.533  30.833  34.178  1.00  0.00    -0.354 N 
ATOM     97  N   UNL A   1      41.886  29.193  31.765  1.00  0.00    -0.248 NA
ATOM     98  C   UNL A   1      43.094  27.611  30.546  1.00  0.00    -0.034 C 
ATOM     99  C   UNL A   1      42.967  30.559  35.853  1.00  0.00    -0.036 A 
ATOM    100  H   UNL A   1      41.974  31.985  37.157  1.00  0.00     0.065 H 
ATOM    101  C   UNL A   1      42.652  30.119  34.578  1.00  0.00     0.049 A 
ATOM    102  H   UNL A   1      41.084  30.739  33.308  1.00  0.00     0.167 HD
ATOM    103  C   UNL A   1      42.950  28.742  32.536  1.00  0.00     0.074 A 
ATOM    104  C   UNL A   1      43.641  27.744  31.747  1.00  0.00    -0.034 C 
ATOM    105  H   UNL A   1      43.391  27.015  29.758  1.00  0.00     0.065 H 
ATOM    106  H   UNL A   1      43.766  30.241  36.421  1.00  0.00     0.065 H 
ATOM    107  C   UNL A   1      43.320  29.120  33.783  1.00  0.00     0.037 A 
ATOM    108  H   UNL A   1      44.456  27.204  32.077  1.00  0.00     0.065 H 
BRANCH  89 109
ATOM    109  C   UNL A   1      39.765  33.532  36.253  1.00  0.00     0.064 A 
ATOM    110  C   UNL A   1      38.929  33.165  37.319  1.00  0.00     0.173 A 
ATOM    111  C   UNL A   1      40.384  34.790  36.310  1.00  0.00     0.173 A 
ATOM    112  F   UNL A   1      38.302  31.978  37.307  1.00  0.00    -0.203 F 
ATOM    113  C   UNL A   1      38.697  34.033  38.381  1.00  0.00     0.198 A 
ATOM    114  C   UNL A   1      40.174  35.643  37.391  1.00  0.00     0.198 A 
ATOM    115  F   UNL A   1      41.197  35.190  35.322  1.00  0.00    -0.203 F 
ATOM    116  F   UNL A   1      37.851  33.682  39.360  1.00  0.00    -0.200 F 
ATOM    117  C   UNL A   1      39.325  35.269  38.421  1.00  0.00     0.200 A 
ATOM    118  F   UNL A   1      40.794  36.831  37.433  1.00  0.00    -0.200 F 
ATOM    119  F   UNL A   1      39.105  36.101  39.447  1.00  0.00    -0.200 F 
ENDBRANCH  89 109
BRANCH  92 120
ATOM    120  C   UNL A   1      41.289  27.750  28.244  1.00  0.00     0.064 A 
ATOM    121  C   UNL A   1      40.702  26.482  28.121  1.00  0.00     0.173 A 
ATOM    122  C   UNL A   1      42.122  28.186  27.203  1.00  0.00     0.173 A 
ATOM    123  F   UNL A   1      39.912  26.014  29.099  1.00  0.00    -0.203 F 
ATOM    124  C   UNL A   1      40.956  25.674  27.016  1.00  0.00     0.198 A 
ATOM    125  C   UNL A   1      42.352  27.388  26.084  1.00  0.00     0.198 A 
ATOM    126  F   UNL A   1      42.703  29.393  27.268  1.00  0.00    -0.203 F 
ATOM    127  F   UNL A   1      40.421  24.448  26.947  1.00  0.00    -0.200 F 
ATOM    128  C   UNL A   1      41.777  26.130  25.995  1.00  0.00     0.200 A 
ATOM    129  F   UNL A   1      43.135  27.839  25.093  1.00  0.00    -0.200 F 
ATOM    130  F   UNL A   1      42.020  25.354  24.930  1.00  0.00    -0.200 F 
ENDBRANCH  92 120
BRANCH 107 131
ATOM    131  C   UNL A   1      44.501  28.422  34.393  1.00  0.00     0.064 A 
ATOM    132  C   UNL A   1      45.800  28.940  34.284  1.00  0.00     0.173 A 
ATOM    133  C   UNL A   1      44.323  27.242  35.131  1.00  0.00     0.173 A 
ATOM    134  F   UNL A   1      46.025  30.057  33.577  1.00  0.00    -0.203 F 
ATOM    135  C   UNL A   1      46.881  28.286  34.870  1.00  0.00     0.198 A 
ATOM    136  C   UNL A   1      45.401  26.609  35.742  1.00  0.00     0.198 A 
ATOM    137  F   UNL A   1      43.100  26.710  35.271  1.00  0.00    -0.203 F 
ATOM    138  F   UNL A   1      48.120  28.772  34.712  1.00  0.00    -0.200 F 
ATOM    139  C   UNL A   1      46.680  27.127  35.605  1.00  0.00     0.200 A 
ATOM    140  F   UNL A   1      45.203  25.498  36.464  1.00  0.00    -0.200 F 
ATOM    141  F   UNL A   1      47.721  26.505  36.175  1.00  0.00    -0.200 F 
ENDBRANCH 107 131
ENDBRANCH  72  75
ENDBRANCH  62  65
ENDBRANCH  58  61
ENDBRANCH  55  58
ENDBRANCH  52  55
ENDBRANCH   1  52
TORSDOF 19
ENDMDL
MODEL 6
REMARK VINA RESULT:     -11.8      1.425      7.199
REMARK SMILES CC(=O)Nc1ccc(/C(=C\c2ccc(S(C)(=O)=O)cc2)C(=O)NCCCCCCNC(=O)c2ccc(-c3c4nc(c(-c5c(F)c(F)c(F)c(F)c5F)c5ccc([nH]5)c(-c5c(F)c(F)c(F)c(F)c5F)c5nc(c(-c6c(F)c(F)c(F)c(F)c6F)c6ccc3[nH]6)C=C5)C=C4)cc2)cc1
REMARK SMILES IDX 26 1 25 4 24 7 23 10 21 11 22 12 9 14 10 15 8 17 5 18 6 19
REMARK SMILES IDX 97 20 7 21 96 23 4 27 2 28 3 29 1 31 11 35 12 36 20 37 13 38
REMARK SMILES IDX 19 40 14 42 15 45 17 46 18 47 16 48 27 52 28 55 29 58 30 61
REMARK SMILES IDX 31 62 32 64 33 65 34 66 95 67 35 68 94 70 36 72 37 75 38 76
REMARK SMILES IDX 88 77 39 78 93 79 87 80 89 81 40 82 92 83 86 85 85 87 41 89
REMARK SMILES IDX 73 92 53 93 72 94 54 95 57 96 71 97 90 98 55 99 56 101
REMARK SMILES IDX 70 103 91 104 58 107 42 109 43 110 51 111 44 112 45 113
REMARK SMILES IDX 49 114 52 115 46 116 47 117 50 118 48 119 74 120 75 121
REMARK SMILES IDX 83 122 76 123 77 124 81 125 84 126 78 127 79 128 82 129
REMARK SMILES IDX 80 130 59 131 60 132 68 133 61 134 62 135 66 136 69 137
REMARK SMILES IDX 63 138 64 139 67 140 65 141
REMARK H PARENT 26 2 26 3 25 5 25 6 24 8 24 9 23 13 10 16 6 22 97 24 7 25
REMARK H PARENT 96 26 4 30 1 32 1 33 1 34 12 39 20 41 13 43 19 44 16 49 16 50
REMARK H PARENT 16 51 27 53 27 54 28 56 28 57 29 59 29 60 30 63 34 69 95 71
REMARK H PARENT 35 73 94 74 93 84 87 86 89 88 92 90 86 91 54 100 57 102 90 105
REMARK H PARENT 55 106 91 108
REMARK Flexibility Score: inf
ROOT
ATOM      1  C   UNL A   1      32.207  28.596  27.270  1.00  0.00    -0.052 C 
ATOM      2  H   UNL A   1      32.451  27.868  28.015  1.00  0.00     0.027 H 
ATOM      3  H   UNL A   1      31.560  29.370  27.629  1.00  0.00     0.027 H 
ENDROOT
BRANCH   1   4
ATOM      4  C   UNL A   1      31.443  27.886  26.140  1.00  0.00    -0.036 C 
ATOM      5  H   UNL A   1      30.439  27.716  26.466  1.00  0.00     0.028 H 
ATOM      6  H   UNL A   1      31.488  28.522  25.281  1.00  0.00     0.028 H 
BRANCH   4   7
ATOM      7  C   UNL A   1      32.059  26.542  25.740  1.00  0.00     0.018 C 
ATOM      8  H   UNL A   1      33.092  26.527  26.019  1.00  0.00     0.049 H 
ATOM      9  H   UNL A   1      31.540  25.750  26.240  1.00  0.00     0.049 H 
BRANCH   7  10
ATOM     10  N   UNL A   1      31.945  26.360  24.309  1.00  0.00    -0.352 N 
ATOM     11  C   UNL A   1      32.283  25.397  23.415  1.00  0.00     0.251 C 
ATOM     12  O   UNL A   1      32.031  25.709  22.249  1.00  0.00    -0.269 OA
ATOM     13  H   UNL A   1      31.512  27.130  23.874  1.00  0.00     0.163 HD
BRANCH  11  14
ATOM     14  C   UNL A   1      32.838  24.019  23.777  1.00  0.00     0.047 C 
ATOM     15  C   UNL A   1      31.971  23.005  24.012  1.00  0.00    -0.042 C 
ATOM     16  H   UNL A   1      30.982  23.282  24.116  1.00  0.00     0.064 H 
BRANCH  14  17
ATOM     17  C   UNL A   1      34.317  23.873  24.060  1.00  0.00    -0.013 A 
ATOM     18  C   UNL A   1      36.947  23.141  24.899  1.00  0.00     0.041 A 
ATOM     19  C   UNL A   1      36.536  22.944  23.580  1.00  0.00    -0.038 A 
ATOM     20  C   UNL A   1      36.112  23.859  25.736  1.00  0.00    -0.038 A 
ATOM     21  C   UNL A   1      35.250  23.337  23.160  1.00  0.00    -0.052 A 
ATOM     22  H   UNL A   1      37.181  22.506  22.905  1.00  0.00     0.064 H 
ATOM     23  C   UNL A   1      34.812  24.178  25.336  1.00  0.00    -0.052 A 
ATOM     24  H   UNL A   1      36.452  24.162  26.662  1.00  0.00     0.064 H 
ATOM     25  H   UNL A   1      34.989  23.229  22.167  1.00  0.00     0.063 H 
ATOM     26  H   UNL A   1      34.191  24.659  26.007  1.00  0.00     0.063 H 
BRANCH  18  27
ATOM     27  N   UNL A   1      38.178  22.596  25.301  1.00  0.00    -0.326 N 
ATOM     28  C   UNL A   1      38.598  21.303  25.446  1.00  0.00     0.221 C 
ATOM     29  O   UNL A   1      39.728  21.096  25.895  1.00  0.00    -0.275 OA
ATOM     30  H   UNL A   1      38.864  23.268  25.520  1.00  0.00     0.169 HD
BRANCH  28  31
ATOM     31  C   UNL A   1      37.734  20.143  25.020  1.00  0.00     0.015 C 
ATOM     32  H   UNL A   1      37.687  19.425  25.810  1.00  0.00     0.033 H 
ATOM     33  H   UNL A   1      38.154  19.687  24.148  1.00  0.00     0.033 H 
ATOM     34  H   UNL A   1      36.748  20.495  24.798  1.00  0.00     0.033 H 
ENDBRANCH  28  31
ENDBRANCH  18  27
ENDBRANCH  14  17
BRANCH  15  35
ATOM     35  C   UNL A   1      32.240  21.565  24.136  1.00  0.00    -0.025 A 
ATOM     36  C   UNL A   1      32.153  20.788  22.966  1.00  0.00    -0.054 A 
ATOM     37  C   UNL A   1      32.644  20.968  25.332  1.00  0.00    -0.054 A 
ATOM     38  C   UNL A   1      32.528  19.444  22.976  1.00  0.00    -0.043 A 
ATOM     39  H   UNL A   1      31.809  21.216  22.093  1.00  0.00     0.063 H 
ATOM     40  C   UNL A   1      33.023  19.619  25.348  1.00  0.00    -0.043 A 
ATOM     41  H   UNL A   1      32.664  21.519  26.205  1.00  0.00     0.063 H 
ATOM     42  C   UNL A   1      32.974  18.870  24.167  1.00  0.00     0.067 A 
ATOM     43  H   UNL A   1      32.477  18.881  22.112  1.00  0.00     0.064 H 
ATOM     44  H   UNL A   1      33.337  19.180  26.227  1.00  0.00     0.064 H 
BRANCH  42  45
ATOM     45  S   UNL A   1      33.613  17.209  24.133  1.00  0.00     0.175 S 
ATOM     46  O   UNL A   1      33.310  16.669  22.821  1.00  0.00    -0.224 OA
ATOM     47  O   UNL A   1      34.978  17.255  24.622  1.00  0.00    -0.224 OA
BRANCH  45  48
ATOM     48  C   UNL A   1      32.633  16.343  25.328  1.00  0.00     0.043 C 
ATOM     49  H   UNL A   1      33.275  15.816  26.001  1.00  0.00     0.040 H 
ATOM     50  H   UNL A   1      31.992  15.649  24.827  1.00  0.00     0.040 H 
ATOM     51  H   UNL A   1      32.038  17.045  25.877  1.00  0.00     0.040 H 
ENDBRANCH  45  48
ENDBRANCH  42  45
ENDBRANCH  15  35
ENDBRANCH  11  14
ENDBRANCH   7  10
ENDBRANCH   4   7
ENDBRANCH   1   4
BRANCH   1  52
ATOM     52  C   UNL A   1      33.505  29.288  26.838  1.00  0.00    -0.052 C 
ATOM     53  H   UNL A   1      33.900  28.759  25.995  1.00  0.00     0.027 H 
ATOM     54  H   UNL A   1      34.155  29.271  27.688  1.00  0.00     0.027 H 
BRANCH  52  55
ATOM     55  C   UNL A   1      33.347  30.759  26.445  1.00  0.00    -0.036 C 
ATOM     56  H   UNL A   1      33.054  30.803  25.417  1.00  0.00     0.028 H 
ATOM     57  H   UNL A   1      34.289  31.231  26.627  1.00  0.00     0.028 H 
BRANCH  55  58
ATOM     58  C   UNL A   1      32.311  31.513  27.270  1.00  0.00     0.018 C 
ATOM     59  H   UNL A   1      32.360  31.173  28.284  1.00  0.00     0.049 H 
ATOM     60  H   UNL A   1      31.345  31.322  26.849  1.00  0.00     0.049 H 
BRANCH  58  61
ATOM     61  N   UNL A   1      32.543  32.947  27.241  1.00  0.00    -0.352 N 
ATOM     62  C   UNL A   1      33.493  33.682  27.902  1.00  0.00     0.251 C 
ATOM     63  H   UNL A   1      31.932  33.463  26.667  1.00  0.00     0.163 HD
ATOM     64  O   UNL A   1      33.410  34.905  27.950  1.00  0.00    -0.269 OA
BRANCH  62  65
ATOM     65  C   UNL A   1      34.620  32.994  28.565  1.00  0.00     0.039 A 
ATOM     66  C   UNL A   1      35.906  33.140  28.041  1.00  0.00    -0.049 A 
ATOM     67  C   UNL A   1      34.403  32.186  29.686  1.00  0.00    -0.049 A 
ATOM     68  C   UNL A   1      36.983  32.508  28.665  1.00  0.00    -0.053 A 
ATOM     69  H   UNL A   1      36.061  33.713  27.196  1.00  0.00     0.063 H 
ATOM     70  C   UNL A   1      35.484  31.617  30.349  1.00  0.00    -0.053 A 
ATOM     71  H   UNL A   1      33.441  32.013  30.020  1.00  0.00     0.063 H 
ATOM     72  C   UNL A   1      36.783  31.759  29.837  1.00  0.00    -0.014 A 
ATOM     73  H   UNL A   1      37.930  32.590  28.264  1.00  0.00     0.063 H 
ATOM     74  H   UNL A   1      35.332  31.088  31.222  1.00  0.00     0.063 H 
BRANCH  72  75
ATOM     75  C   UNL A   1      37.913  31.085  30.522  1.00  0.00     0.031 A 
ATOM     76  C   UNL A   1      38.247  31.439  31.944  1.00  0.00     0.074 A 
ATOM     77  C   UNL A   1      38.674  30.201  29.847  1.00  0.00     0.049 A 
ATOM     78  N   UNL A   1      39.236  31.023  32.693  1.00  0.00    -0.248 NA
ATOM     79  C   UNL A   1      37.367  32.417  32.604  1.00  0.00    -0.034 C 
ATOM     80  C   UNL A   1      38.475  29.806  28.452  1.00  0.00    -0.036 A 
ATOM     81  N   UNL A   1      39.773  29.481  30.243  1.00  0.00    -0.354 N 
ATOM     82  C   UNL A   1      39.106  31.698  33.900  1.00  0.00     0.074 A 
ATOM     83  C   UNL A   1      37.977  32.592  33.765  1.00  0.00    -0.034 C 
ATOM     84  H   UNL A   1      36.498  32.851  32.253  1.00  0.00     0.065 H 
ATOM     85  C   UNL A   1      39.408  28.902  28.114  1.00  0.00    -0.036 A 
ATOM     86  H   UNL A   1      37.736  30.166  27.828  1.00  0.00     0.065 H 
ATOM     87  C   UNL A   1      40.291  28.680  29.256  1.00  0.00     0.049 A 
ATOM     88  H   UNL A   1      40.154  29.535  31.149  1.00  0.00     0.167 HD
ATOM     89  C   UNL A   1      39.846  31.564  35.027  1.00  0.00     0.037 A 
ATOM     90  H   UNL A   1      37.687  33.277  34.480  1.00  0.00     0.065 H 
ATOM     91  H   UNL A   1      39.487  28.437  27.196  1.00  0.00     0.065 H 
ATOM     92  C   UNL A   1      41.362  27.864  29.269  1.00  0.00     0.037 A 
ATOM     93  C   UNL A   1      40.949  30.650  35.164  1.00  0.00     0.049 A 
ATOM     94  C   UNL A   1      42.169  27.736  30.533  1.00  0.00     0.074 A 
ATOM     95  C   UNL A   1      41.726  30.397  36.280  1.00  0.00    -0.036 A 
ATOM     96  N   UNL A   1      41.431  29.837  34.148  1.00  0.00    -0.354 N 
ATOM     97  N   UNL A   1      41.999  28.331  31.689  1.00  0.00    -0.248 NA
ATOM     98  C   UNL A   1      43.312  26.813  30.498  1.00  0.00    -0.034 C 
ATOM     99  C   UNL A   1      42.708  29.465  35.927  1.00  0.00    -0.036 A 
ATOM    100  H   UNL A   1      41.602  30.822  37.213  1.00  0.00     0.065 H 
ATOM    101  C   UNL A   1      42.509  29.097  34.607  1.00  0.00     0.049 A 
ATOM    102  H   UNL A   1      41.061  29.794  33.237  1.00  0.00     0.167 HD
ATOM    103  C   UNL A   1      42.989  27.834  32.526  1.00  0.00     0.074 A 
ATOM    104  C   UNL A   1      43.749  26.877  31.748  1.00  0.00    -0.034 C 
ATOM    105  H   UNL A   1      43.679  26.260  29.708  1.00  0.00     0.065 H 
ATOM    106  H   UNL A   1      43.454  29.113  36.546  1.00  0.00     0.065 H 
ATOM    107  C   UNL A   1      43.246  28.141  33.821  1.00  0.00     0.037 A 
ATOM    108  H   UNL A   1      44.532  26.316  32.120  1.00  0.00     0.065 H 
BRANCH  89 109
ATOM    109  C   UNL A   1      39.483  32.426  36.202  1.00  0.00     0.064 A 
ATOM    110  C   UNL A   1      40.121  33.653  36.442  1.00  0.00     0.173 A 
ATOM    111  C   UNL A   1      38.463  32.035  37.084  1.00  0.00     0.173 A 
ATOM    112  F   UNL A   1      41.111  34.068  35.636  1.00  0.00    -0.203 F 
ATOM    113  C   UNL A   1      39.773  34.441  37.536  1.00  0.00     0.198 A 
ATOM    114  C   UNL A   1      38.098  32.842  38.159  1.00  0.00     0.198 A 
ATOM    115  F   UNL A   1      37.818  30.875  36.900  1.00  0.00    -0.203 F 
ATOM    116  F   UNL A   1      40.434  35.583  37.774  1.00  0.00    -0.200 F 
ATOM    117  C   UNL A   1      38.758  34.039  38.390  1.00  0.00     0.200 A 
ATOM    118  F   UNL A   1      37.106  32.457  38.975  1.00  0.00    -0.200 F 
ATOM    119  F   UNL A   1      38.421  34.800  39.439  1.00  0.00    -0.200 F 
ENDBRANCH  89 109
BRANCH  92 120
ATOM    120  C   UNL A   1      41.720  27.086  28.055  1.00  0.00     0.064 A 
ATOM    121  C   UNL A   1      42.602  27.610  27.099  1.00  0.00     0.173 A 
ATOM    122  C   UNL A   1      41.187  25.810  27.821  1.00  0.00     0.173 A 
ATOM    123  F   UNL A   1      43.123  28.834  27.269  1.00  0.00    -0.203 F 
ATOM    124  C   UNL A   1      42.919  26.898  25.944  1.00  0.00     0.198 A 
ATOM    125  C   UNL A   1      41.528  25.087  26.679  1.00  0.00     0.198 A 
ATOM    126  F   UNL A   1      40.345  25.261  28.707  1.00  0.00    -0.203 F 
ATOM    127  F   UNL A   1      43.726  27.442  25.024  1.00  0.00    -0.200 F 
ATOM    128  C   UNL A   1      42.386  25.635  25.738  1.00  0.00     0.200 A 
ATOM    129  F   UNL A   1      41.022  23.860  26.492  1.00  0.00    -0.200 F 
ATOM    130  F   UNL A   1      42.693  24.948  24.628  1.00  0.00    -0.200 F 
ENDBRANCH  92 120
BRANCH 107 131
ATOM    131  C   UNL A   1      44.368  27.405  34.494  1.00  0.00     0.064 A 
ATOM    132  C   UNL A   1      44.169  26.160  35.109  1.00  0.00     0.173 A 
ATOM    133  C   UNL A   1      45.668  27.934  34.485  1.00  0.00     0.173 A 
ATOM    134  F   UNL A   1      42.943  25.619  35.157  1.00  0.00    -0.203 F 
ATOM    135  C   UNL A   1      45.226  25.485  35.714  1.00  0.00     0.198 A 
ATOM    136  C   UNL A   1      46.728  27.241  35.063  1.00  0.00     0.198 A 
ATOM    137  F   UNL A   1      45.912  29.117  33.903  1.00  0.00    -0.203 F 
ATOM    138  F   UNL A   1      45.004  24.320  36.338  1.00  0.00    -0.200 F 
ATOM    139  C   UNL A   1      46.505  26.022  35.683  1.00  0.00     0.200 A 
ATOM    140  F   UNL A   1      47.965  27.754  35.019  1.00  0.00    -0.200 F 
ATOM    141  F   UNL A   1      47.522  25.366  36.258  1.00  0.00    -0.200 F 
ENDBRANCH 107 131
ENDBRANCH  72  75
ENDBRANCH  62  65
ENDBRANCH  58  61
ENDBRANCH  55  58
ENDBRANCH  52  55
ENDBRANCH   1  52
TORSDOF 19
ENDMDL
MODEL 7
REMARK VINA RESULT:     -11.6      4.761      8.921
REMARK SMILES CC(=O)Nc1ccc(/C(=C\c2ccc(S(C)(=O)=O)cc2)C(=O)NCCCCCCNC(=O)c2ccc(-c3c4nc(c(-c5c(F)c(F)c(F)c(F)c5F)c5ccc([nH]5)c(-c5c(F)c(F)c(F)c(F)c5F)c5nc(c(-c6c(F)c(F)c(F)c(F)c6F)c6ccc3[nH]6)C=C5)C=C4)cc2)cc1
REMARK SMILES IDX 26 1 25 4 24 7 23 10 21 11 22 12 9 14 10 15 8 17 5 18 6 19
REMARK SMILES IDX 97 20 7 21 96 23 4 27 2 28 3 29 1 31 11 35 12 36 20 37 13 38
REMARK SMILES IDX 19 40 14 42 15 45 17 46 18 47 16 48 27 52 28 55 29 58 30 61
REMARK SMILES IDX 31 62 32 64 33 65 34 66 95 67 35 68 94 70 36 72 37 75 38 76
REMARK SMILES IDX 88 77 39 78 93 79 87 80 89 81 40 82 92 83 86 85 85 87 41 89
REMARK SMILES IDX 73 92 53 93 72 94 54 95 57 96 71 97 90 98 55 99 56 101
REMARK SMILES IDX 70 103 91 104 58 107 42 109 43 110 51 111 44 112 45 113
REMARK SMILES IDX 49 114 52 115 46 116 47 117 50 118 48 119 74 120 75 121
REMARK SMILES IDX 83 122 76 123 77 124 81 125 84 126 78 127 79 128 82 129
REMARK SMILES IDX 80 130 59 131 60 132 68 133 61 134 62 135 66 136 69 137
REMARK SMILES IDX 63 138 64 139 67 140 65 141
REMARK H PARENT 26 2 26 3 25 5 25 6 24 8 24 9 23 13 10 16 6 22 97 24 7 25
REMARK H PARENT 96 26 4 30 1 32 1 33 1 34 12 39 20 41 13 43 19 44 16 49 16 50
REMARK H PARENT 16 51 27 53 27 54 28 56 28 57 29 59 29 60 30 63 34 69 95 71
REMARK H PARENT 35 73 94 74 93 84 87 86 89 88 92 90 86 91 54 100 57 102 90 105
REMARK H PARENT 55 106 91 108
REMARK Flexibility Score: inf
ROOT
ATOM      1  C   UNL A   1      42.227  20.906  27.520  1.00  0.00    -0.052 C 
ATOM      2  H   UNL A   1      43.053  21.319  28.062  1.00  0.00     0.027 H 
ATOM      3  H   UNL A   1      42.320  21.015  26.459  1.00  0.00     0.027 H 
ENDROOT
BRANCH   1   4
ATOM      4  C   UNL A   1      40.959  21.677  27.923  1.00  0.00    -0.036 C 
ATOM      5  H   UNL A   1      40.494  21.162  28.737  1.00  0.00     0.028 H 
ATOM      6  H   UNL A   1      41.264  22.666  28.191  1.00  0.00     0.028 H 
BRANCH   4   7
ATOM      7  C   UNL A   1      39.940  21.810  26.787  1.00  0.00     0.018 C 
ATOM      8  H   UNL A   1      40.430  21.646  25.849  1.00  0.00     0.049 H 
ATOM      9  H   UNL A   1      39.164  21.084  26.918  1.00  0.00     0.049 H 
BRANCH   7  10
ATOM     10  N   UNL A   1      39.364  23.137  26.803  1.00  0.00    -0.352 N 
ATOM     11  C   UNL A   1      38.186  23.696  26.426  1.00  0.00     0.251 C 
ATOM     12  O   UNL A   1      38.159  24.919  26.586  1.00  0.00    -0.269 OA
ATOM     13  H   UNL A   1      39.981  23.802  27.183  1.00  0.00     0.163 HD
BRANCH  11  14
ATOM     14  C   UNL A   1      36.964  22.921  25.932  1.00  0.00     0.047 C 
ATOM     15  C   UNL A   1      37.154  21.750  25.277  1.00  0.00    -0.042 C 
ATOM     16  H   UNL A   1      38.125  21.556  24.988  1.00  0.00     0.064 H 
BRANCH  14  17
ATOM     17  C   UNL A   1      35.601  23.571  26.006  1.00  0.00    -0.013 A 
ATOM     18  C   UNL A   1      32.898  24.449  25.713  1.00  0.00     0.041 A 
ATOM     19  C   UNL A   1      33.283  23.665  26.802  1.00  0.00    -0.038 A 
ATOM     20  C   UNL A   1      33.894  24.933  24.883  1.00  0.00    -0.038 A 
ATOM     21  C   UNL A   1      34.623  23.261  26.963  1.00  0.00    -0.052 A 
ATOM     22  H   UNL A   1      32.577  23.377  27.497  1.00  0.00     0.064 H 
ATOM     23  C   UNL A   1      35.206  24.470  25.004  1.00  0.00    -0.052 A 
ATOM     24  H   UNL A   1      33.665  25.643  24.170  1.00  0.00     0.064 H 
ATOM     25  H   UNL A   1      34.891  22.726  27.804  1.00  0.00     0.063 H 
ATOM     26  H   UNL A   1      35.913  24.801  24.329  1.00  0.00     0.063 H 
BRANCH  18  27
ATOM     27  N   UNL A   1      31.529  24.695  25.520  1.00  0.00    -0.326 N 
ATOM     28  C   UNL A   1      30.737  25.756  25.864  1.00  0.00     0.221 C 
ATOM     29  O   UNL A   1      29.526  25.684  25.639  1.00  0.00    -0.275 OA
ATOM     30  H   UNL A   1      31.052  23.972  25.052  1.00  0.00     0.169 HD
BRANCH  28  31
ATOM     31  C   UNL A   1      31.319  27.013  26.455  1.00  0.00     0.015 C 
ATOM     32  H   UNL A   1      32.204  26.773  27.004  1.00  0.00     0.033 H 
ATOM     33  H   UNL A   1      30.603  27.463  27.112  1.00  0.00     0.033 H 
ATOM     34  H   UNL A   1      31.561  27.698  25.669  1.00  0.00     0.033 H 
ENDBRANCH  28  31
ENDBRANCH  18  27
ENDBRANCH  14  17
BRANCH  15  35
ATOM     35  C   UNL A   1      36.169  20.717  24.922  1.00  0.00    -0.025 A 
ATOM     36  C   UNL A   1      36.625  19.387  24.856  1.00  0.00    -0.054 A 
ATOM     37  C   UNL A   1      34.814  20.993  24.727  1.00  0.00    -0.054 A 
ATOM     38  C   UNL A   1      35.726  18.337  24.663  1.00  0.00    -0.043 A 
ATOM     39  H   UNL A   1      37.632  19.186  24.953  1.00  0.00     0.063 H 
ATOM     40  C   UNL A   1      33.908  19.943  24.533  1.00  0.00    -0.043 A 
ATOM     41  H   UNL A   1      34.480  21.970  24.725  1.00  0.00     0.063 H 
ATOM     42  C   UNL A   1      34.368  18.622  24.514  1.00  0.00     0.067 A 
ATOM     43  H   UNL A   1      36.062  17.362  24.630  1.00  0.00     0.064 H 
ATOM     44  H   UNL A   1      32.904  20.143  24.404  1.00  0.00     0.064 H 
BRANCH  42  45
ATOM     45  S   UNL A   1      33.212  17.271  24.442  1.00  0.00     0.175 S 
ATOM     46  O   UNL A   1      32.017  17.701  25.142  1.00  0.00    -0.224 OA
ATOM     47  O   UNL A   1      33.146  16.824  23.063  1.00  0.00    -0.224 OA
BRANCH  45  48
ATOM     48  C   UNL A   1      33.981  15.991  25.394  1.00  0.00     0.043 C 
ATOM     49  H   UNL A   1      34.413  15.267  24.736  1.00  0.00     0.040 H 
ATOM     50  H   UNL A   1      33.249  15.518  26.014  1.00  0.00     0.040 H 
ATOM     51  H   UNL A   1      34.748  16.416  26.010  1.00  0.00     0.040 H 
ENDBRANCH  45  48
ENDBRANCH  42  45
ENDBRANCH  15  35
ENDBRANCH  11  14
ENDBRANCH   7  10
ENDBRANCH   4   7
ENDBRANCH   1   4
BRANCH   1  52
ATOM     52  C   UNL A   1      42.183  19.399  27.795  1.00  0.00    -0.052 C 
ATOM     53  H   UNL A   1      41.190  19.145  28.102  1.00  0.00     0.027 H 
ATOM     54  H   UNL A   1      42.918  19.207  28.549  1.00  0.00     0.027 H 
BRANCH  52  55
ATOM     55  C   UNL A   1      42.551  18.518  26.599  1.00  0.00    -0.036 C 
ATOM     56  H   UNL A   1      41.774  17.796  26.461  1.00  0.00     0.028 H 
ATOM     57  H   UNL A   1      43.496  18.070  26.823  1.00  0.00     0.028 H 
BRANCH  55  58
ATOM     58  C   UNL A   1      42.727  19.286  25.295  1.00  0.00     0.018 C 
ATOM     59  H   UNL A   1      42.814  20.330  25.515  1.00  0.00     0.049 H 
ATOM     60  H   UNL A   1      41.875  19.095  24.676  1.00  0.00     0.049 H 
BRANCH  58  61
ATOM     61  N   UNL A   1      43.915  18.856  24.575  1.00  0.00    -0.352 N 
ATOM     62  C   UNL A   1      44.972  19.605  24.126  1.00  0.00     0.251 C 
ATOM     63  H   UNL A   1      43.967  17.892  24.383  1.00  0.00     0.163 HD
ATOM     64  O   UNL A   1      45.780  19.128  23.337  1.00  0.00    -0.269 OA
BRANCH  62  65
ATOM     65  C   UNL A   1      45.131  20.999  24.591  1.00  0.00     0.039 A 
ATOM     66  C   UNL A   1      44.788  22.043  23.729  1.00  0.00    -0.049 A 
ATOM     67  C   UNL A   1      45.640  21.273  25.864  1.00  0.00    -0.049 A 
ATOM     68  C   UNL A   1      44.919  23.365  24.159  1.00  0.00    -0.053 A 
ATOM     69  H   UNL A   1      44.440  21.840  22.779  1.00  0.00     0.063 H 
ATOM     70  C   UNL A   1      45.701  22.586  26.317  1.00  0.00    -0.053 A 
ATOM     71  H   UNL A   1      45.970  20.502  26.466  1.00  0.00     0.063 H 
ATOM     72  C   UNL A   1      45.356  23.646  25.465  1.00  0.00    -0.014 A 
ATOM     73  H   UNL A   1      44.694  24.140  23.515  1.00  0.00     0.063 H 
ATOM     74  H   UNL A   1      46.000  22.783  27.285  1.00  0.00     0.063 H 
BRANCH  72  75
ATOM     75  C   UNL A   1      45.494  25.043  25.945  1.00  0.00     0.031 A 
ATOM     76  C   UNL A   1      46.833  25.724  25.895  1.00  0.00     0.074 A 
ATOM     77  C   UNL A   1      44.431  25.675  26.479  1.00  0.00     0.049 A 
ATOM     78  N   UNL A   1      47.179  26.907  26.334  1.00  0.00    -0.248 NA
ATOM     79  C   UNL A   1      47.941  24.958  25.300  1.00  0.00    -0.034 C 
ATOM     80  C   UNL A   1      43.090  25.106  26.619  1.00  0.00    -0.036 A 
ATOM     81  N   UNL A   1      44.315  26.935  27.010  1.00  0.00    -0.354 N 
ATOM     82  C   UNL A   1      48.541  27.020  26.082  1.00  0.00     0.074 A 
ATOM     83  C   UNL A   1      48.970  25.765  25.506  1.00  0.00    -0.034 C 
ATOM     84  H   UNL A   1      47.920  24.034  24.840  1.00  0.00     0.065 H 
ATOM     85  C   UNL A   1      42.282  26.018  27.181  1.00  0.00    -0.036 A 
ATOM     86  H   UNL A   1      42.812  24.154  26.332  1.00  0.00     0.065 H 
ATOM     87  C   UNL A   1      43.054  27.222  27.473  1.00  0.00     0.049 A 
ATOM     88  H   UNL A   1      45.064  27.572  27.057  1.00  0.00     0.167 HD
ATOM     89  C   UNL A   1      49.353  28.083  26.290  1.00  0.00     0.037 A 
ATOM     90  H   UNL A   1      49.950  25.529  25.285  1.00  0.00     0.065 H 
ATOM     91  H   UNL A   1      41.277  25.889  27.374  1.00  0.00     0.065 H 
ATOM     92  C   UNL A   1      42.578  28.331  28.070  1.00  0.00     0.037 A 
ATOM     93  C   UNL A   1      48.913  29.340  26.835  1.00  0.00     0.049 A 
ATOM     94  C   UNL A   1      43.502  29.499  28.292  1.00  0.00     0.074 A 
ATOM     95  C   UNL A   1      49.644  30.499  27.032  1.00  0.00    -0.036 A 
ATOM     96  N   UNL A   1      47.622  29.602  27.271  1.00  0.00    -0.354 N 
ATOM     97  N   UNL A   1      44.773  29.617  27.992  1.00  0.00    -0.248 NA
ATOM     98  C   UNL A   1      42.923  30.691  28.926  1.00  0.00    -0.034 C 
ATOM     99  C   UNL A   1      48.807  31.447  27.631  1.00  0.00    -0.036 A 
ATOM    100  H   UNL A   1      50.635  30.639  26.781  1.00  0.00     0.065 H 
ATOM    101  C   UNL A   1      47.542  30.898  27.756  1.00  0.00     0.049 A 
ATOM    102  H   UNL A   1      46.875  28.962  27.240  1.00  0.00     0.167 HD
ATOM    103  C   UNL A   1      45.138  30.903  28.370  1.00  0.00     0.074 A 
ATOM    104  C   UNL A   1      43.949  31.530  28.910  1.00  0.00    -0.034 C 
ATOM    105  H   UNL A   1      41.968  30.836  29.289  1.00  0.00     0.065 H 
ATOM    106  H   UNL A   1      49.086  32.394  27.928  1.00  0.00     0.065 H 
ATOM    107  C   UNL A   1      46.346  31.509  28.279  1.00  0.00     0.037 A 
ATOM    108  H   UNL A   1      43.905  32.507  29.239  1.00  0.00     0.065 H 
BRANCH  89 109
ATOM    109  C   UNL A   1      50.802  27.934  25.922  1.00  0.00     0.064 A 
ATOM    110  C   UNL A   1      51.777  27.613  26.880  1.00  0.00     0.173 A 
ATOM    111  C   UNL A   1      51.217  28.082  24.590  1.00  0.00     0.173 A 
ATOM    112  F   UNL A   1      51.435  27.472  28.170  1.00  0.00    -0.203 F 
ATOM    113  C   UNL A   1      53.115  27.477  26.523  1.00  0.00     0.198 A 
ATOM    114  C   UNL A   1      52.553  27.915  24.233  1.00  0.00     0.198 A 
ATOM    115  F   UNL A   1      50.328  28.384  23.633  1.00  0.00    -0.203 F 
ATOM    116  F   UNL A   1      54.036  27.225  27.465  1.00  0.00    -0.200 F 
ATOM    117  C   UNL A   1      53.502  27.621  25.200  1.00  0.00     0.200 A 
ATOM    118  F   UNL A   1      52.922  28.040  22.950  1.00  0.00    -0.200 F 
ATOM    119  F   UNL A   1      54.790  27.485  24.858  1.00  0.00    -0.200 F 
ENDBRANCH  89 109
BRANCH  92 120
ATOM    120  C   UNL A   1      41.151  28.402  28.479  1.00  0.00     0.064 A 
ATOM    121  C   UNL A   1      40.178  28.920  27.612  1.00  0.00     0.173 A 
ATOM    122  C   UNL A   1      40.729  27.959  29.741  1.00  0.00     0.173 A 
ATOM    123  F   UNL A   1      40.536  29.373  26.401  1.00  0.00    -0.203 F 
ATOM    124  C   UNL A   1      38.844  29.016  28.000  1.00  0.00     0.198 A 
ATOM    125  C   UNL A   1      39.389  28.028  30.117  1.00  0.00     0.198 A 
ATOM    126  F   UNL A   1      41.618  27.448  30.606  1.00  0.00    -0.203 F 
ATOM    127  F   UNL A   1      37.944  29.560  27.171  1.00  0.00    -0.200 F 
ATOM    128  C   UNL A   1      38.449  28.564  29.250  1.00  0.00     0.200 A 
ATOM    129  F   UNL A   1      39.010  27.577  31.321  1.00  0.00    -0.200 F 
ATOM    130  F   UNL A   1      37.165  28.653  29.623  1.00  0.00    -0.200 F 
ENDBRANCH  92 120
BRANCH 107 131
ATOM    131  C   UNL A   1      46.436  32.938  28.732  1.00  0.00     0.064 A 
ATOM    132  C   UNL A   1      46.179  34.005  27.859  1.00  0.00     0.173 A 
ATOM    133  C   UNL A   1      46.742  33.239  30.068  1.00  0.00     0.173 A 
ATOM    134  F   UNL A   1      45.897  33.771  26.569  1.00  0.00    -0.203 F 
ATOM    135  C   UNL A   1      46.252  35.324  28.302  1.00  0.00     0.198 A 
ATOM    136  C   UNL A   1      46.783  34.557  30.514  1.00  0.00     0.198 A 
ATOM    137  F   UNL A   1      46.988  32.254  30.943  1.00  0.00    -0.203 F 
ATOM    138  F   UNL A   1      46.051  36.330  27.439  1.00  0.00    -0.200 F 
ATOM    139  C   UNL A   1      46.545  35.598  29.629  1.00  0.00     0.200 A 
ATOM    140  F   UNL A   1      47.051  34.819  31.800  1.00  0.00    -0.200 F 
ATOM    141  F   UNL A   1      46.605  36.867  30.055  1.00  0.00    -0.200 F 
ENDBRANCH 107 131
ENDBRANCH  72  75
ENDBRANCH  62  65
ENDBRANCH  58  61
ENDBRANCH  55  58
ENDBRANCH  52  55
ENDBRANCH   1  52
TORSDOF 19
ENDMDL
MODEL 8
REMARK VINA RESULT:     -11.4      2.785      8.539
REMARK SMILES CC(=O)Nc1ccc(/C(=C\c2ccc(S(C)(=O)=O)cc2)C(=O)NCCCCCCNC(=O)c2ccc(-c3c4nc(c(-c5c(F)c(F)c(F)c(F)c5F)c5ccc([nH]5)c(-c5c(F)c(F)c(F)c(F)c5F)c5nc(c(-c6c(F)c(F)c(F)c(F)c6F)c6ccc3[nH]6)C=C5)C=C4)cc2)cc1
REMARK SMILES IDX 26 1 25 4 24 7 23 10 21 11 22 12 9 14 10 15 8 17 5 18 6 19
REMARK SMILES IDX 97 20 7 21 96 23 4 27 2 28 3 29 1 31 11 35 12 36 20 37 13 38
REMARK SMILES IDX 19 40 14 42 15 45 17 46 18 47 16 48 27 52 28 55 29 58 30 61
REMARK SMILES IDX 31 62 32 64 33 65 34 66 95 67 35 68 94 70 36 72 37 75 38 76
REMARK SMILES IDX 88 77 39 78 93 79 87 80 89 81 40 82 92 83 86 85 85 87 41 89
REMARK SMILES IDX 73 92 53 93 72 94 54 95 57 96 71 97 90 98 55 99 56 101
REMARK SMILES IDX 70 103 91 104 58 107 42 109 43 110 51 111 44 112 45 113
REMARK SMILES IDX 49 114 52 115 46 116 47 117 50 118 48 119 74 120 75 121
REMARK SMILES IDX 83 122 76 123 77 124 81 125 84 126 78 127 79 128 82 129
REMARK SMILES IDX 80 130 59 131 60 132 68 133 61 134 62 135 66 136 69 137
REMARK SMILES IDX 63 138 64 139 67 140 65 141
REMARK H PARENT 26 2 26 3 25 5 25 6 24 8 24 9 23 13 10 16 6 22 97 24 7 25
REMARK H PARENT 96 26 4 30 1 32 1 33 1 34 12 39 20 41 13 43 19 44 16 49 16 50
REMARK H PARENT 16 51 27 53 27 54 28 56 28 57 29 59 29 60 30 63 34 69 95 71
REMARK H PARENT 35 73 94 74 93 84 87 86 89 88 92 90 86 91 54 100 57 102 90 105
REMARK H PARENT 55 106 91 108
REMARK Flexibility Score: inf
ROOT
ATOM      1  C   UNL A   1      34.356  31.617  28.697  1.00  0.00    -0.052 C 
ATOM      2  H   UNL A   1      34.750  31.490  29.685  1.00  0.00     0.027 H 
ATOM      3  H   UNL A   1      33.307  31.416  28.630  1.00  0.00     0.027 H 
ENDROOT
BRANCH   1   4
ATOM      4  C   UNL A   1      35.049  30.600  27.774  1.00  0.00    -0.036 C 
ATOM      5  H   UNL A   1      35.753  31.124  27.162  1.00  0.00     0.028 H 
ATOM      6  H   UNL A   1      35.520  29.875  28.402  1.00  0.00     0.028 H 
BRANCH   4   7
ATOM      7  C   UNL A   1      34.078  29.846  26.861  1.00  0.00     0.018 C 
ATOM      8  H   UNL A   1      33.786  30.481  26.050  1.00  0.00     0.049 H 
ATOM      9  H   UNL A   1      34.559  28.971  26.476  1.00  0.00     0.049 H 
BRANCH   7  10
ATOM     10  N   UNL A   1      32.906  29.457  27.613  1.00  0.00    -0.352 N 
ATOM     11  C   UNL A   1      31.936  28.514  27.495  1.00  0.00     0.251 C 
ATOM     12  O   UNL A   1      31.076  28.592  28.376  1.00  0.00    -0.269 OA
ATOM     13  H   UNL A   1      32.778  30.016  28.413  1.00  0.00     0.163 HD
BRANCH  11  14
ATOM     14  C   UNL A   1      31.918  27.400  26.449  1.00  0.00     0.047 C 
ATOM     15  C   UNL A   1      32.534  26.226  26.733  1.00  0.00    -0.042 C 
ATOM     16  H   UNL A   1      33.141  26.235  27.567  1.00  0.00     0.064 H 
BRANCH  14  17
ATOM     17  C   UNL A   1      31.395  27.700  25.063  1.00  0.00    -0.013 A 
ATOM     18  C   UNL A   1      30.052  28.622  22.716  1.00  0.00     0.041 A 
ATOM     19  C   UNL A   1      31.361  29.020  22.995  1.00  0.00    -0.038 A 
ATOM     20  C   UNL A   1      29.494  27.636  23.509  1.00  0.00    -0.038 A 
ATOM     21  C   UNL A   1      32.033  28.537  24.135  1.00  0.00    -0.052 A 
ATOM     22  H   UNL A   1      31.841  29.675  22.360  1.00  0.00     0.064 H 
ATOM     23  C   UNL A   1      30.135  27.218  24.677  1.00  0.00    -0.052 A 
ATOM     24  H   UNL A   1      28.598  27.205  23.234  1.00  0.00     0.064 H 
ATOM     25  H   UNL A   1      33.018  28.805  24.291  1.00  0.00     0.063 H 
ATOM     26  H   UNL A   1      29.663  26.527  25.282  1.00  0.00     0.063 H 
BRANCH  18  27
ATOM     27  N   UNL A   1      29.379  29.249  21.654  1.00  0.00    -0.326 N 
ATOM     28  C   UNL A   1      28.392  30.195  21.633  1.00  0.00     0.221 C 
ATOM     29  O   UNL A   1      27.914  30.524  20.544  1.00  0.00    -0.275 OA
ATOM     30  H   UNL A   1      29.670  28.951  20.761  1.00  0.00     0.169 HD
BRANCH  28  31
ATOM     31  C   UNL A   1      27.923  30.871  22.896  1.00  0.00     0.015 C 
ATOM     32  H   UNL A   1      28.297  31.872  22.924  1.00  0.00     0.033 H 
ATOM     33  H   UNL A   1      28.287  30.331  23.745  1.00  0.00     0.033 H 
ATOM     34  H   UNL A   1      26.853  30.888  22.915  1.00  0.00     0.033 H 
ENDBRANCH  28  31
ENDBRANCH  18  27
ENDBRANCH  14  17
BRANCH  15  35
ATOM     35  C   UNL A   1      32.458  24.943  26.019  1.00  0.00    -0.025 A 
ATOM     36  C   UNL A   1      33.579  24.560  25.259  1.00  0.00    -0.054 A 
ATOM     37  C   UNL A   1      31.369  24.075  26.128  1.00  0.00    -0.054 A 
ATOM     38  C   UNL A   1      33.639  23.298  24.668  1.00  0.00    -0.043 A 
ATOM     39  H   UNL A   1      34.364  25.218  25.138  1.00  0.00     0.063 H 
ATOM     40  C   UNL A   1      31.424  22.807  25.537  1.00  0.00    -0.043 A 
ATOM     41  H   UNL A   1      30.524  24.368  26.643  1.00  0.00     0.063 H 
ATOM     42  C   UNL A   1      32.563  22.422  24.822  1.00  0.00     0.067 A 
ATOM     43  H   UNL A   1      34.469  23.014  24.124  1.00  0.00     0.064 H 
ATOM     44  H   UNL A   1      30.627  22.158  25.630  1.00  0.00     0.064 H 
BRANCH  42  45
ATOM     45  S   UNL A   1      32.719  20.756  24.214  1.00  0.00     0.175 S 
ATOM     46  O   UNL A   1      31.850  19.928  25.026  1.00  0.00    -0.224 OA
ATOM     47  O   UNL A   1      32.569  20.801  22.771  1.00  0.00    -0.224 OA
BRANCH  45  48
ATOM     48  C   UNL A   1      34.398  20.319  24.575  1.00  0.00     0.043 C 
ATOM     49  H   UNL A   1      34.970  21.208  24.739  1.00  0.00     0.040 H 
ATOM     50  H   UNL A   1      34.810  19.776  23.751  1.00  0.00     0.040 H 
ATOM     51  H   UNL A   1      34.426  19.709  25.454  1.00  0.00     0.040 H 
ENDBRANCH  45  48
ENDBRANCH  42  45
ENDBRANCH  15  35
ENDBRANCH  11  14
ENDBRANCH   7  10
ENDBRANCH   4   7
ENDBRANCH   1   4
BRANCH   1  52
ATOM     52  C   UNL A   1      34.540  33.085  28.297  1.00  0.00    -0.052 C 
ATOM     53  H   UNL A   1      34.883  33.114  27.283  1.00  0.00     0.027 H 
ATOM     54  H   UNL A   1      35.240  33.503  28.990  1.00  0.00     0.027 H 
BRANCH  52  55
ATOM     55  C   UNL A   1      33.274  33.939  28.395  1.00  0.00    -0.036 C 
ATOM     56  H   UNL A   1      32.642  33.519  29.149  1.00  0.00     0.028 H 
ATOM     57  H   UNL A   1      32.821  33.934  27.426  1.00  0.00     0.028 H 
BRANCH  55  58
ATOM     58  C   UNL A   1      33.536  35.398  28.749  1.00  0.00     0.018 C 
ATOM     59  H   UNL A   1      33.265  36.012  27.916  1.00  0.00     0.049 H 
ATOM     60  H   UNL A   1      34.576  35.505  28.980  1.00  0.00     0.049 H 
BRANCH  58  61
ATOM     61  N   UNL A   1      32.769  35.814  29.911  1.00  0.00    -0.352 N 
ATOM     62  C   UNL A   1      32.903  35.424  31.220  1.00  0.00     0.251 C 
ATOM     63  H   UNL A   1      32.053  36.465  29.735  1.00  0.00     0.163 HD
ATOM     64  O   UNL A   1      32.031  35.692  32.039  1.00  0.00    -0.269 OA
BRANCH  62  65
ATOM     65  C   UNL A   1      34.103  34.672  31.640  1.00  0.00     0.039 A 
ATOM     66  C   UNL A   1      33.956  33.357  32.086  1.00  0.00    -0.049 A 
ATOM     67  C   UNL A   1      35.367  35.272  31.617  1.00  0.00    -0.049 A 
ATOM     68  C   UNL A   1      35.082  32.628  32.473  1.00  0.00    -0.053 A 
ATOM     69  H   UNL A   1      33.019  32.925  32.131  1.00  0.00     0.063 H 
ATOM     70  C   UNL A   1      36.495  34.522  31.932  1.00  0.00    -0.053 A 
ATOM     71  H   UNL A   1      35.461  36.269  31.366  1.00  0.00     0.063 H 
ATOM     72  C   UNL A   1      36.363  33.199  32.378  1.00  0.00    -0.014 A 
ATOM     73  H   UNL A   1      34.974  31.666  32.831  1.00  0.00     0.063 H 
ATOM     74  H   UNL A   1      37.433  34.941  31.837  1.00  0.00     0.063 H 
BRANCH  72  75
ATOM     75  C   UNL A   1      37.574  32.440  32.775  1.00  0.00     0.031 A 
ATOM     76  C   UNL A   1      38.255  32.744  34.081  1.00  0.00     0.074 A 
ATOM     77  C   UNL A   1      38.093  31.521  31.938  1.00  0.00     0.049 A 
ATOM     78  N   UNL A   1      39.362  32.250  34.574  1.00  0.00    -0.248 NA
ATOM     79  C   UNL A   1      37.623  33.765  34.932  1.00  0.00    -0.034 C 
ATOM     80  C   UNL A   1      37.546  31.166  30.628  1.00  0.00    -0.036 A 
ATOM     81  N   UNL A   1      39.203  30.723  32.063  1.00  0.00    -0.354 N 
ATOM     82  C   UNL A   1      39.565  32.909  35.780  1.00  0.00     0.074 A 
ATOM     83  C   UNL A   1      38.499  33.878  35.918  1.00  0.00    -0.034 C 
ATOM     84  H   UNL A   1      36.728  34.262  34.797  1.00  0.00     0.065 H 
ATOM     85  C   UNL A   1      38.310  30.209  30.077  1.00  0.00    -0.036 A 
ATOM     86  H   UNL A   1      36.708  31.585  30.196  1.00  0.00     0.065 H 
ATOM     87  C   UNL A   1      39.419  29.909  30.978  1.00  0.00     0.049 A 
ATOM     88  H   UNL A   1      39.789  30.735  32.853  1.00  0.00     0.167 HD
ATOM     89  C   UNL A   1      40.537  32.706  36.701  1.00  0.00     0.037 A 
ATOM     90  H   UNL A   1      38.433  34.567  36.683  1.00  0.00     0.065 H 
ATOM     91  H   UNL A   1      38.140  29.758  29.165  1.00  0.00     0.065 H 
ATOM     92  C   UNL A   1      40.406  29.025  30.737  1.00  0.00     0.037 A 
ATOM     93  C   UNL A   1      41.577  31.719  36.572  1.00  0.00     0.049 A 
ATOM     94  C   UNL A   1      41.476  28.819  31.776  1.00  0.00     0.074 A 
ATOM     95  C   UNL A   1      42.575  31.395  37.473  1.00  0.00    -0.036 A 
ATOM     96  N   UNL A   1      41.750  30.896  35.469  1.00  0.00    -0.354 N 
ATOM     97  N   UNL A   1      41.622  29.403  32.941  1.00  0.00    -0.248 NA
ATOM     98  C   UNL A   1      42.513  27.825  31.469  1.00  0.00    -0.034 C 
ATOM     99  C   UNL A   1      43.381  30.408  36.896  1.00  0.00    -0.036 A 
ATOM    100  H   UNL A   1      42.703  31.810  38.410  1.00  0.00     0.065 H 
ATOM    101  C   UNL A   1      42.853  30.079  35.659  1.00  0.00     0.049 A 
ATOM    102  H   UNL A   1      41.175  30.894  34.670  1.00  0.00     0.167 HD
ATOM    103  C   UNL A   1      42.745  28.826  33.520  1.00  0.00     0.074 A 
ATOM    104  C   UNL A   1      43.235  27.837  32.582  1.00  0.00    -0.034 C 
ATOM    105  H   UNL A   1      42.646  27.265  30.614  1.00  0.00     0.065 H 
ATOM    106  H   UNL A   1      44.226  29.996  37.321  1.00  0.00     0.065 H 
ATOM    107  C   UNL A   1      43.319  29.091  34.719  1.00  0.00     0.037 A 
ATOM    108  H   UNL A   1      44.042  27.219  32.757  1.00  0.00     0.065 H 
BRANCH  89 109
ATOM    109  C   UNL A   1      40.519  33.567  37.932  1.00  0.00     0.064 A 
ATOM    110  C   UNL A   1      39.705  33.263  39.033  1.00  0.00     0.173 A 
ATOM    111  C   UNL A   1      41.350  34.694  38.024  1.00  0.00     0.173 A 
ATOM    112  F   UNL A   1      38.882  32.203  38.992  1.00  0.00    -0.203 F 
ATOM    113  C   UNL A   1      39.699  34.071  40.167  1.00  0.00     0.198 A 
ATOM    114  C   UNL A   1      41.364  35.482  39.173  1.00  0.00     0.198 A 
ATOM    115  F   UNL A   1      42.152  35.030  37.003  1.00  0.00    -0.203 F 
ATOM    116  F   UNL A   1      38.872  33.790  41.184  1.00  0.00    -0.200 F 
ATOM    117  C   UNL A   1      40.534  35.175  40.239  1.00  0.00     0.200 A 
ATOM    118  F   UNL A   1      42.182  36.541  39.245  1.00  0.00    -0.200 F 
ATOM    119  F   UNL A   1      40.531  35.949  41.333  1.00  0.00    -0.200 F 
ENDBRANCH  89 109
BRANCH  92 120
ATOM    120  C   UNL A   1      40.415  28.248  29.471  1.00  0.00     0.064 A 
ATOM    121  C   UNL A   1      41.161  28.682  28.365  1.00  0.00     0.173 A 
ATOM    122  C   UNL A   1      39.678  27.063  29.334  1.00  0.00     0.173 A 
ATOM    123  F   UNL A   1      41.867  29.820  28.441  1.00  0.00    -0.203 F 
ATOM    124  C   UNL A   1      41.151  27.975  27.165  1.00  0.00     0.198 A 
ATOM    125  C   UNL A   1      39.692  26.340  28.142  1.00  0.00     0.198 A 
ATOM    126  F   UNL A   1      38.954  26.599  30.363  1.00  0.00    -0.203 F 
ATOM    127  F   UNL A   1      41.833  28.438  26.110  1.00  0.00    -0.200 F 
ATOM    128  C   UNL A   1      40.421  26.801  27.057  1.00  0.00     0.200 A 
ATOM    129  F   UNL A   1      38.997  25.198  28.047  1.00  0.00    -0.200 F 
ATOM    130  F   UNL A   1      40.413  26.118  25.903  1.00  0.00    -0.200 F 
ENDBRANCH  92 120
BRANCH 107 131
ATOM    131  C   UNL A   1      44.515  28.271  35.106  1.00  0.00     0.064 A 
ATOM    132  C   UNL A   1      45.822  28.697  34.829  1.00  0.00     0.173 A 
ATOM    133  C   UNL A   1      44.350  27.063  35.802  1.00  0.00     0.173 A 
ATOM    134  F   UNL A   1      46.032  29.836  34.154  1.00  0.00    -0.203 F 
ATOM    135  C   UNL A   1      46.920  27.930  35.211  1.00  0.00     0.198 A 
ATOM    136  C   UNL A   1      45.451  26.315  36.210  1.00  0.00     0.198 A 
ATOM    137  F   UNL A   1      43.121  26.616  36.097  1.00  0.00    -0.203 F 
ATOM    138  F   UNL A   1      48.158  28.332  34.894  1.00  0.00    -0.200 F 
ATOM    139  C   UNL A   1      46.733  26.745  35.908  1.00  0.00     0.200 A 
ATOM    140  F   UNL A   1      45.269  25.179  36.896  1.00  0.00    -0.200 F 
ATOM    141  F   UNL A   1      47.792  26.013  36.283  1.00  0.00    -0.200 F 
ENDBRANCH 107 131
ENDBRANCH  72  75
ENDBRANCH  62  65
ENDBRANCH  58  61
ENDBRANCH  55  58
ENDBRANCH  52  55
ENDBRANCH   1  52
TORSDOF 19
ENDMDL
MODEL 9
REMARK VINA RESULT:     -11.1      2.762      5.285
REMARK SMILES CC(=O)Nc1ccc(/C(=C\c2ccc(S(C)(=O)=O)cc2)C(=O)NCCCCCCNC(=O)c2ccc(-c3c4nc(c(-c5c(F)c(F)c(F)c(F)c5F)c5ccc([nH]5)c(-c5c(F)c(F)c(F)c(F)c5F)c5nc(c(-c6c(F)c(F)c(F)c(F)c6F)c6ccc3[nH]6)C=C5)C=C4)cc2)cc1
REMARK SMILES IDX 26 1 25 4 24 7 23 10 21 11 22 12 9 14 10 15 8 17 5 18 6 19
REMARK SMILES IDX 97 20 7 21 96 23 4 27 2 28 3 29 1 31 11 35 12 36 20 37 13 38
REMARK SMILES IDX 19 40 14 42 15 45 17 46 18 47 16 48 27 52 28 55 29 58 30 61
REMARK SMILES IDX 31 62 32 64 33 65 34 66 95 67 35 68 94 70 36 72 37 75 38 76
REMARK SMILES IDX 88 77 39 78 93 79 87 80 89 81 40 82 92 83 86 85 85 87 41 89
REMARK SMILES IDX 73 92 53 93 72 94 54 95 57 96 71 97 90 98 55 99 56 101
REMARK SMILES IDX 70 103 91 104 58 107 42 109 43 110 51 111 44 112 45 113
REMARK SMILES IDX 49 114 52 115 46 116 47 117 50 118 48 119 74 120 75 121
REMARK SMILES IDX 83 122 76 123 77 124 81 125 84 126 78 127 79 128 82 129
REMARK SMILES IDX 80 130 59 131 60 132 68 133 61 134 62 135 66 136 69 137
REMARK SMILES IDX 63 138 64 139 67 140 65 141
REMARK H PARENT 26 2 26 3 25 5 25 6 24 8 24 9 23 13 10 16 6 22 97 24 7 25
REMARK H PARENT 96 26 4 30 1 32 1 33 1 34 12 39 20 41 13 43 19 44 16 49 16 50
REMARK H PARENT 16 51 27 53 27 54 28 56 28 57 29 59 29 60 30 63 34 69 95 71
REMARK H PARENT 35 73 94 74 93 84 87 86 89 88 92 90 86 91 54 100 57 102 90 105
REMARK H PARENT 55 106 91 108
REMARK Flexibility Score: inf
ROOT
ATOM      1  C   UNL A   1      34.508  31.538  28.634  1.00  0.00    -0.052 C 
ATOM      2  H   UNL A   1      34.951  31.542  29.609  1.00  0.00     0.027 H 
ATOM      3  H   UNL A   1      33.462  31.313  28.644  1.00  0.00     0.027 H 
ENDROOT
BRANCH   1   4
ATOM      4  C   UNL A   1      35.180  30.427  27.810  1.00  0.00    -0.036 C 
ATOM      5  H   UNL A   1      35.944  30.869  27.206  1.00  0.00     0.028 H 
ATOM      6  H   UNL A   1      35.574  29.715  28.504  1.00  0.00     0.028 H 
BRANCH   4   7
ATOM      7  C   UNL A   1      34.209  29.677  26.894  1.00  0.00     0.018 C 
ATOM      8  H   UNL A   1      33.952  30.299  26.062  1.00  0.00     0.049 H 
ATOM      9  H   UNL A   1      34.675  28.780  26.540  1.00  0.00     0.049 H 
BRANCH   7  10
ATOM     10  N   UNL A   1      33.011  29.336  27.629  1.00  0.00    -0.352 N 
ATOM     11  C   UNL A   1      32.007  28.432  27.499  1.00  0.00     0.251 C 
ATOM     12  O   UNL A   1      31.137  28.548  28.366  1.00  0.00    -0.269 OA
ATOM     13  H   UNL A   1      32.893  29.903  28.425  1.00  0.00     0.163 HD
BRANCH  11  14
ATOM     14  C   UNL A   1      31.961  27.315  26.456  1.00  0.00     0.047 C 
ATOM     15  C   UNL A   1      32.566  26.135  26.736  1.00  0.00    -0.042 C 
ATOM     16  H   UNL A   1      33.183  26.138  27.562  1.00  0.00     0.064 H 
BRANCH  14  17
ATOM     17  C   UNL A   1      31.424  27.618  25.075  1.00  0.00    -0.013 A 
ATOM     18  C   UNL A   1      30.056  28.542  22.744  1.00  0.00     0.041 A 
ATOM     19  C   UNL A   1      31.363  28.949  23.016  1.00  0.00    -0.038 A 
ATOM     20  C   UNL A   1      29.513  27.547  23.536  1.00  0.00    -0.038 A 
ATOM     21  C   UNL A   1      32.048  28.467  24.148  1.00  0.00    -0.052 A 
ATOM     22  H   UNL A   1      31.833  29.612  22.380  1.00  0.00     0.064 H 
ATOM     23  C   UNL A   1      30.166  27.128  24.697  1.00  0.00    -0.052 A 
ATOM     24  H   UNL A   1      28.618  27.109  23.266  1.00  0.00     0.064 H 
ATOM     25  H   UNL A   1      33.032  28.742  24.297  1.00  0.00     0.063 H 
ATOM     26  H   UNL A   1      29.705  26.429  25.302  1.00  0.00     0.063 H 
BRANCH  18  27
ATOM     27  N   UNL A   1      29.369  29.168  21.691  1.00  0.00    -0.326 N 
ATOM     28  C   UNL A   1      28.386  30.119  21.683  1.00  0.00     0.221 C 
ATOM     29  O   UNL A   1      27.893  30.448  20.601  1.00  0.00    -0.275 OA
ATOM     30  H   UNL A   1      29.644  28.866  20.795  1.00  0.00     0.169 HD
BRANCH  28  31
ATOM     31  C   UNL A   1      27.941  30.802  22.950  1.00  0.00     0.015 C 
ATOM     32  H   UNL A   1      27.105  30.278  23.362  1.00  0.00     0.033 H 
ATOM     33  H   UNL A   1      27.658  31.811  22.732  1.00  0.00     0.033 H 
ATOM     34  H   UNL A   1      28.745  30.802  23.657  1.00  0.00     0.033 H 
ENDBRANCH  28  31
ENDBRANCH  18  27
ENDBRANCH  14  17
BRANCH  15  35
ATOM     35  C   UNL A   1      32.464  24.851  26.027  1.00  0.00    -0.025 A 
ATOM     36  C   UNL A   1      33.559  24.464  25.231  1.00  0.00    -0.054 A 
ATOM     37  C   UNL A   1      31.378  23.985  26.172  1.00  0.00    -0.054 A 
ATOM     38  C   UNL A   1      33.597  23.201  24.640  1.00  0.00    -0.043 A 
ATOM     39  H   UNL A   1      34.341  25.121  25.084  1.00  0.00     0.063 H 
ATOM     40  C   UNL A   1      31.411  22.716  25.581  1.00  0.00    -0.043 A 
ATOM     41  H   UNL A   1      30.550  24.281  26.714  1.00  0.00     0.063 H 
ATOM     42  C   UNL A   1      32.525  22.328  24.830  1.00  0.00     0.067 A 
ATOM     43  H   UNL A   1      34.409  22.915  24.070  1.00  0.00     0.064 H 
ATOM     44  H   UNL A   1      30.616  22.068  25.701  1.00  0.00     0.064 H 
BRANCH  42  45
ATOM     45  S   UNL A   1      32.659  20.661  24.220  1.00  0.00     0.175 S 
ATOM     46  O   UNL A   1      31.809  19.837  25.057  1.00  0.00    -0.224 OA
ATOM     47  O   UNL A   1      32.469  20.705  22.782  1.00  0.00    -0.224 OA
BRANCH  45  48
ATOM     48  C   UNL A   1      34.344  20.218  24.535  1.00  0.00     0.043 C 
ATOM     49  H   UNL A   1      34.982  20.719  23.838  1.00  0.00     0.040 H 
ATOM     50  H   UNL A   1      34.461  19.160  24.429  1.00  0.00     0.040 H 
ATOM     51  H   UNL A   1      34.609  20.507  25.532  1.00  0.00     0.040 H 
ENDBRANCH  45  48
ENDBRANCH  42  45
ENDBRANCH  15  35
ENDBRANCH  11  14
ENDBRANCH   7  10
ENDBRANCH   4   7
ENDBRANCH   1   4
BRANCH   1  52
ATOM     52  C   UNL A   1      34.639  32.949  28.047  1.00  0.00    -0.052 C 
ATOM     53  H   UNL A   1      34.878  32.856  27.008  1.00  0.00     0.027 H 
ATOM     54  H   UNL A   1      35.402  33.443  28.612  1.00  0.00     0.027 H 
BRANCH  52  55
ATOM     55  C   UNL A   1      33.383  33.813  28.171  1.00  0.00    -0.036 C 
ATOM     56  H   UNL A   1      32.724  33.351  28.877  1.00  0.00     0.028 H 
ATOM     57  H   UNL A   1      32.957  33.884  27.193  1.00  0.00     0.028 H 
BRANCH  55  58
ATOM     58  C   UNL A   1      33.655  35.239  28.636  1.00  0.00     0.018 C 
ATOM     59  H   UNL A   1      33.435  35.913  27.834  1.00  0.00     0.049 H 
ATOM     60  H   UNL A   1      34.684  35.307  28.921  1.00  0.00     0.049 H 
BRANCH  58  61
ATOM     61  N   UNL A   1      32.841  35.593  29.787  1.00  0.00    -0.352 N 
ATOM     62  C   UNL A   1      32.976  35.201  31.094  1.00  0.00     0.251 C 
ATOM     63  H   UNL A   1      32.087  36.198  29.602  1.00  0.00     0.163 HD
ATOM     64  O   UNL A   1      32.073  35.403  31.899  1.00  0.00    -0.269 OA
BRANCH  62  65
ATOM     65  C   UNL A   1      34.214  34.524  31.531  1.00  0.00     0.039 A 
ATOM     66  C   UNL A   1      35.416  35.236  31.517  1.00  0.00    -0.049 A 
ATOM     67  C   UNL A   1      34.193  33.183  31.928  1.00  0.00    -0.049 A 
ATOM     68  C   UNL A   1      36.592  34.614  31.940  1.00  0.00    -0.053 A 
ATOM     69  H   UNL A   1      35.435  36.216  31.195  1.00  0.00     0.063 H 
ATOM     70  C   UNL A   1      35.351  32.588  32.418  1.00  0.00    -0.053 A 
ATOM     71  H   UNL A   1      33.321  32.637  31.857  1.00  0.00     0.063 H 
ATOM     72  C   UNL A   1      36.565  33.292  32.414  1.00  0.00    -0.014 A 
ATOM     73  H   UNL A   1      37.487  35.128  31.904  1.00  0.00     0.063 H 
ATOM     74  H   UNL A   1      35.318  31.625  32.787  1.00  0.00     0.063 H 
BRANCH  72  75
ATOM     75  C   UNL A   1      37.801  32.615  32.877  1.00  0.00     0.031 A 
ATOM     76  C   UNL A   1      38.435  31.550  32.026  1.00  0.00     0.074 A 
ATOM     77  C   UNL A   1      38.318  32.916  34.084  1.00  0.00     0.049 A 
ATOM     78  N   UNL A   1      39.469  30.789  32.283  1.00  0.00    -0.248 NA
ATOM     79  C   UNL A   1      37.803  31.281  30.724  1.00  0.00    -0.034 C 
ATOM     80  C   UNL A   1      37.770  33.902  35.016  1.00  0.00    -0.036 A 
ATOM     81  N   UNL A   1      39.416  32.416  34.736  1.00  0.00    -0.354 N 
ATOM     82  C   UNL A   1      39.599  29.947  31.187  1.00  0.00     0.074 A 
ATOM     83  C   UNL A   1      38.507  30.249  30.288  1.00  0.00    -0.034 C 
ATOM     84  H   UNL A   1      37.017  31.772  30.270  1.00  0.00     0.065 H 
ATOM     85  C   UNL A   1      38.544  33.948  36.111  1.00  0.00    -0.036 A 
ATOM     86  H   UNL A   1      36.923  34.470  34.857  1.00  0.00     0.065 H 
ATOM     87  C   UNL A   1      39.621  32.972  35.975  1.00  0.00     0.049 A 
ATOM     88  H   UNL A   1      40.001  31.723  34.353  1.00  0.00     0.167 HD
ATOM     89  C   UNL A   1      40.558  29.022  30.940  1.00  0.00     0.037 A 
ATOM     90  H   UNL A   1      38.302  29.727  29.422  1.00  0.00     0.065 H 
ATOM     91  H   UNL A   1      38.402  34.574  36.920  1.00  0.00     0.065 H 
ATOM     92  C   UNL A   1      40.568  32.716  36.898  1.00  0.00     0.037 A 
ATOM     93  C   UNL A   1      41.660  28.748  31.824  1.00  0.00     0.049 A 
ATOM     94  C   UNL A   1      41.621  31.683  36.601  1.00  0.00     0.074 A 
ATOM     95  C   UNL A   1      42.716  27.873  31.642  1.00  0.00    -0.036 A 
ATOM     96  N   UNL A   1      41.847  29.348  33.061  1.00  0.00    -0.354 N 
ATOM     97  N   UNL A   1      41.771  30.936  35.533  1.00  0.00    -0.248 NA
ATOM     98  C   UNL A   1      42.642  31.463  37.634  1.00  0.00    -0.034 C 
ATOM     99  C   UNL A   1      43.517  27.909  32.788  1.00  0.00    -0.036 A 
ATOM    100  H   UNL A   1      42.884  27.293  30.804  1.00  0.00     0.065 H 
ATOM    101  C   UNL A   1      42.991  28.846  33.662  1.00  0.00     0.049 A 
ATOM    102  H   UNL A   1      41.255  30.029  33.454  1.00  0.00     0.167 HD
ATOM    103  C   UNL A   1      42.918  30.184  35.750  1.00  0.00     0.074 A 
ATOM    104  C   UNL A   1      43.432  30.574  37.047  1.00  0.00    -0.034 C 
ATOM    105  H   UNL A   1      42.725  31.889  38.569  1.00  0.00     0.065 H 
ATOM    106  H   UNL A   1      44.357  27.334  32.954  1.00  0.00     0.065 H 
ATOM    107  C   UNL A   1      43.493  29.255  34.949  1.00  0.00     0.037 A 
ATOM    108  H   UNL A   1      44.302  30.206  37.462  1.00  0.00     0.065 H 
BRANCH  89 109
ATOM    109  C   UNL A   1      40.459  28.242  29.660  1.00  0.00     0.064 A 
ATOM    110  C   UNL A   1      41.151  28.633  28.503  1.00  0.00     0.173 A 
ATOM    111  C   UNL A   1      39.688  27.072  29.598  1.00  0.00     0.173 A 
ATOM    112  F   UNL A   1      41.893  29.751  28.505  1.00  0.00    -0.203 F 
ATOM    113  C   UNL A   1      41.049  27.899  27.325  1.00  0.00     0.198 A 
ATOM    114  C   UNL A   1      39.614  26.324  28.425  1.00  0.00     0.198 A 
ATOM    115  F   UNL A   1      39.009  26.650  30.675  1.00  0.00    -0.203 F 
ATOM    116  F   UNL A   1      41.675  28.323  26.217  1.00  0.00    -0.200 F 
ATOM    117  C   UNL A   1      40.287  26.742  27.288  1.00  0.00     0.200 A 
ATOM    118  F   UNL A   1      38.887  25.198  28.397  1.00  0.00    -0.200 F 
ATOM    119  F   UNL A   1      40.194  26.034  26.154  1.00  0.00    -0.200 F 
ENDBRANCH  89 109
BRANCH  92 120
ATOM    120  C   UNL A   1      40.579  33.468  38.179  1.00  0.00     0.064 A 
ATOM    121  C   UNL A   1      39.676  33.155  39.206  1.00  0.00     0.173 A 
ATOM    122  C   UNL A   1      41.484  34.516  38.405  1.00  0.00     0.173 A 
ATOM    123  F   UNL A   1      38.778  32.174  39.030  1.00  0.00    -0.203 F 
ATOM    124  C   UNL A   1      39.661  33.875  40.398  1.00  0.00     0.198 A 
ATOM    125  C   UNL A   1      41.488  35.216  39.610  1.00  0.00     0.198 A 
ATOM    126  F   UNL A   1      42.373  34.851  37.459  1.00  0.00    -0.203 F 
ATOM    127  F   UNL A   1      38.756  33.587  41.342  1.00  0.00    -0.200 F 
ATOM    128  C   UNL A   1      40.572  34.902  40.601  1.00  0.00     0.200 A 
ATOM    129  F   UNL A   1      42.380  36.197  39.807  1.00  0.00    -0.200 F 
ATOM    130  F   UNL A   1      40.561  35.593  41.749  1.00  0.00    -0.200 F 
ENDBRANCH  92 120
BRANCH 107 131
ATOM    131  C   UNL A   1      44.769  28.625  35.430  1.00  0.00     0.064 A 
ATOM    132  C   UNL A   1      46.021  29.195  35.156  1.00  0.00     0.173 A 
ATOM    133  C   UNL A   1      44.733  27.460  36.210  1.00  0.00     0.173 A 
ATOM    134  F   UNL A   1      46.110  30.300  34.402  1.00  0.00    -0.203 F 
ATOM    135  C   UNL A   1      47.192  28.604  35.624  1.00  0.00     0.198 A 
ATOM    136  C   UNL A   1      45.903  26.891  36.703  1.00  0.00     0.198 A 
ATOM    137  F   UNL A   1      43.560  26.881  36.506  1.00  0.00    -0.203 F 
ATOM    138  F   UNL A   1      48.380  29.139  35.310  1.00  0.00    -0.200 F 
ATOM    139  C   UNL A   1      47.132  27.459  36.404  1.00  0.00     0.200 A 
ATOM    140  F   UNL A   1      45.842  25.793  37.469  1.00  0.00    -0.200 F 
ATOM    141  F   UNL A   1      48.260  26.898  36.861  1.00  0.00    -0.200 F 
ENDBRANCH 107 131
ENDBRANCH  72  75
ENDBRANCH  62  65
ENDBRANCH  58  61
ENDBRANCH  55  58
ENDBRANCH  52  55
ENDBRANCH   1  52
TORSDOF 19
ENDMDL
MODEL 10
REMARK VINA RESULT:     -11.1      5.232     10.112
REMARK SMILES CC(=O)Nc1ccc(/C(=C\c2ccc(S(C)(=O)=O)cc2)C(=O)NCCCCCCNC(=O)c2ccc(-c3c4nc(c(-c5c(F)c(F)c(F)c(F)c5F)c5ccc([nH]5)c(-c5c(F)c(F)c(F)c(F)c5F)c5nc(c(-c6c(F)c(F)c(F)c(F)c6F)c6ccc3[nH]6)C=C5)C=C4)cc2)cc1
REMARK SMILES IDX 26 1 25 4 24 7 23 10 21 11 22 12 9 14 10 15 8 17 5 18 6 19
REMARK SMILES IDX 97 20 7 21 96 23 4 27 2 28 3 29 1 31 11 35 12 36 20 37 13 38
REMARK SMILES IDX 19 40 14 42 15 45 17 46 18 47 16 48 27 52 28 55 29 58 30 61
REMARK SMILES IDX 31 62 32 64 33 65 34 66 95 67 35 68 94 70 36 72 37 75 38 76
REMARK SMILES IDX 88 77 39 78 93 79 87 80 89 81 40 82 92 83 86 85 85 87 41 89
REMARK SMILES IDX 73 92 53 93 72 94 54 95 57 96 71 97 90 98 55 99 56 101
REMARK SMILES IDX 70 103 91 104 58 107 42 109 43 110 51 111 44 112 45 113
REMARK SMILES IDX 49 114 52 115 46 116 47 117 50 118 48 119 74 120 75 121
REMARK SMILES IDX 83 122 76 123 77 124 81 125 84 126 78 127 79 128 82 129
REMARK SMILES IDX 80 130 59 131 60 132 68 133 61 134 62 135 66 136 69 137
REMARK SMILES IDX 63 138 64 139 67 140 65 141
REMARK H PARENT 26 2 26 3 25 5 25 6 24 8 24 9 23 13 10 16 6 22 97 24 7 25
REMARK H PARENT 96 26 4 30 1 32 1 33 1 34 12 39 20 41 13 43 19 44 16 49 16 50
REMARK H PARENT 16 51 27 53 27 54 28 56 28 57 29 59 29 60 30 63 34 69 95 71
REMARK H PARENT 35 73 94 74 93 84 87 86 89 88 92 90 86 91 54 100 57 102 90 105
REMARK H PARENT 55 106 91 108
REMARK Flexibility Score: inf
ROOT
ATOM      1  C   UNL A   1      42.861  23.993  28.187  1.00  0.00    -0.052 C 
ATOM      2  H   UNL A   1      42.723  23.977  27.126  1.00  0.00     0.027 H 
ATOM      3  H   UNL A   1      42.325  24.782  28.673  1.00  0.00     0.027 H 
ENDROOT
BRANCH   1   4
ATOM      4  C   UNL A   1      44.351  24.249  28.470  1.00  0.00    -0.036 C 
ATOM      5  H   UNL A   1      44.577  25.260  28.205  1.00  0.00     0.028 H 
ATOM      6  H   UNL A   1      44.512  24.057  29.509  1.00  0.00     0.028 H 
BRANCH   4   7
ATOM      7  C   UNL A   1      45.287  23.322  27.688  1.00  0.00     0.018 C 
ATOM      8  H   UNL A   1      46.292  23.680  27.770  1.00  0.00     0.049 H 
ATOM      9  H   UNL A   1      45.225  22.332  28.091  1.00  0.00     0.049 H 
BRANCH   7  10
ATOM     10  N   UNL A   1      44.897  23.298  26.296  1.00  0.00    -0.352 N 
ATOM     11  C   UNL A   1      45.130  24.065  25.201  1.00  0.00     0.251 C 
ATOM     12  O   UNL A   1      44.524  23.676  24.199  1.00  0.00    -0.269 OA
ATOM     13  H   UNL A   1      44.316  22.531  26.089  1.00  0.00     0.163 HD
BRANCH  11  14
ATOM     14  C   UNL A   1      46.101  25.245  25.146  1.00  0.00     0.047 C 
ATOM     15  C   UNL A   1      47.389  25.017  24.793  1.00  0.00    -0.042 C 
ATOM     16  H   UNL A   1      47.672  24.025  24.770  1.00  0.00     0.064 H 
BRANCH  14  17
ATOM     17  C   UNL A   1      45.656  26.590  25.677  1.00  0.00    -0.013 A 
ATOM     18  C   UNL A   1      44.487  28.819  27.028  1.00  0.00     0.041 A 
ATOM     19  C   UNL A   1      45.817  28.460  27.256  1.00  0.00    -0.038 A 
ATOM     20  C   UNL A   1      43.813  28.179  26.004  1.00  0.00    -0.038 A 
ATOM     21  C   UNL A   1      46.401  27.381  26.564  1.00  0.00    -0.052 A 
ATOM     22  H   UNL A   1      46.378  28.991  27.940  1.00  0.00     0.064 H 
ATOM     23  C   UNL A   1      44.371  27.064  25.375  1.00  0.00    -0.052 A 
ATOM     24  H   UNL A   1      42.890  28.528  25.702  1.00  0.00     0.064 H 
ATOM     25  H   UNL A   1      47.400  27.170  26.712  1.00  0.00     0.063 H 
ATOM     26  H   UNL A   1      43.816  26.568  24.658  1.00  0.00     0.063 H 
BRANCH  18  27
ATOM     27  N   UNL A   1      43.912  29.801  27.851  1.00  0.00    -0.326 N 
ATOM     28  C   UNL A   1      43.959  31.167  27.810  1.00  0.00     0.221 C 
ATOM     29  O   UNL A   1      43.416  31.804  28.716  1.00  0.00    -0.275 OA
ATOM     30  H   UNL A   1      43.377  29.439  28.595  1.00  0.00     0.169 HD
BRANCH  28  31
ATOM     31  C   UNL A   1      44.608  31.897  26.662  1.00  0.00     0.015 C 
ATOM     32  H   UNL A   1      45.178  31.207  26.077  1.00  0.00     0.033 H 
ATOM     33  H   UNL A   1      45.255  32.659  27.044  1.00  0.00     0.033 H 
ATOM     34  H   UNL A   1      43.852  32.344  26.050  1.00  0.00     0.033 H 
ENDBRANCH  28  31
ENDBRANCH  18  27
ENDBRANCH  14  17
BRANCH  15  35
ATOM     35  C   UNL A   1      48.438  25.983  24.438  1.00  0.00    -0.025 A 
ATOM     36  C   UNL A   1      49.553  26.070  25.293  1.00  0.00    -0.054 A 
ATOM     37  C   UNL A   1      48.406  26.745  23.268  1.00  0.00    -0.054 A 
ATOM     38  C   UNL A   1      50.651  26.859  24.952  1.00  0.00    -0.043 A 
ATOM     39  H   UNL A   1      49.558  25.544  26.181  1.00  0.00     0.063 H 
ATOM     40  C   UNL A   1      49.506  27.539  22.920  1.00  0.00    -0.043 A 
ATOM     41  H   UNL A   1      47.571  26.725  22.660  1.00  0.00     0.063 H 
ATOM     42  C   UNL A   1      50.626  27.581  23.758  1.00  0.00     0.067 A 
ATOM     43  H   UNL A   1      51.473  26.908  25.574  1.00  0.00     0.064 H 
ATOM     44  H   UNL A   1      49.490  28.091  22.048  1.00  0.00     0.064 H 
BRANCH  42  45
ATOM     45  S   UNL A   1      52.095  28.446  23.247  1.00  0.00     0.175 S 
ATOM     46  O   UNL A   1      52.836  27.545  22.386  1.00  0.00    -0.224 OA
ATOM     47  O   UNL A   1      51.691  29.758  22.778  1.00  0.00    -0.224 OA
BRANCH  45  48
ATOM     48  C   UNL A   1      53.014  28.660  24.746  1.00  0.00     0.043 C 
ATOM     49  H   UNL A   1      52.379  29.080  25.497  1.00  0.00     0.040 H 
ATOM     50  H   UNL A   1      53.839  29.318  24.567  1.00  0.00     0.040 H 
ATOM     51  H   UNL A   1      53.381  27.711  25.078  1.00  0.00     0.040 H 
ENDBRANCH  45  48
ENDBRANCH  42  45
ENDBRANCH  15  35
ENDBRANCH  11  14
ENDBRANCH   7  10
ENDBRANCH   4   7
ENDBRANCH   1   4
BRANCH   1  52
ATOM     52  C   UNL A   1      42.310  22.683  28.760  1.00  0.00    -0.052 C 
ATOM     53  H   UNL A   1      41.737  22.915  29.634  1.00  0.00     0.027 H 
ATOM     54  H   UNL A   1      43.157  22.062  28.966  1.00  0.00     0.027 H 
BRANCH  52  55
ATOM     55  C   UNL A   1      41.416  21.891  27.803  1.00  0.00    -0.036 C 
ATOM     56  H   UNL A   1      40.417  21.904  28.187  1.00  0.00     0.028 H 
ATOM     57  H   UNL A   1      41.823  20.904  27.744  1.00  0.00     0.028 H 
BRANCH  55  58
ATOM     58  C   UNL A   1      41.389  22.441  26.382  1.00  0.00     0.018 C 
ATOM     59  H   UNL A   1      41.922  21.771  25.740  1.00  0.00     0.049 H 
ATOM     60  H   UNL A   1      41.847  23.408  26.389  1.00  0.00     0.049 H 
BRANCH  58  61
ATOM     61  N   UNL A   1      40.030  22.586  25.889  1.00  0.00    -0.352 N 
ATOM     62  C   UNL A   1      39.076  23.507  26.241  1.00  0.00     0.251 C 
ATOM     63  H   UNL A   1      39.755  21.932  25.208  1.00  0.00     0.163 HD
ATOM     64  O   UNL A   1      37.908  23.352  25.902  1.00  0.00    -0.269 OA
BRANCH  62  65
ATOM     65  C   UNL A   1      39.461  24.689  27.041  1.00  0.00     0.039 A 
ATOM     66  C   UNL A   1      40.164  25.725  26.423  1.00  0.00    -0.049 A 
ATOM     67  C   UNL A   1      39.150  24.761  28.403  1.00  0.00    -0.049 A 
ATOM     68  C   UNL A   1      40.522  26.854  27.162  1.00  0.00    -0.053 A 
ATOM     69  H   UNL A   1      40.418  25.657  25.425  1.00  0.00     0.063 H 
ATOM     70  C   UNL A   1      39.442  25.916  29.119  1.00  0.00    -0.053 A 
ATOM     71  H   UNL A   1      38.706  23.958  28.875  1.00  0.00     0.063 H 
ATOM     72  C   UNL A   1      40.144  26.968  28.511  1.00  0.00    -0.014 A 
ATOM     73  H   UNL A   1      41.066  27.609  26.716  1.00  0.00     0.063 H 
ATOM     74  H   UNL A   1      39.141  26.002  30.102  1.00  0.00     0.063 H 
BRANCH  72  75
ATOM     75  C   UNL A   1      40.506  28.162  29.312  1.00  0.00     0.031 A 
ATOM     76  C   UNL A   1      41.855  28.242  29.972  1.00  0.00     0.074 A 
ATOM     77  C   UNL A   1      39.603  29.145  29.494  1.00  0.00     0.049 A 
ATOM     78  N   UNL A   1      42.334  29.160  30.772  1.00  0.00    -0.248 NA
ATOM     79  C   UNL A   1      42.778  27.123  29.723  1.00  0.00    -0.034 C 
ATOM     80  C   UNL A   1      38.249  29.163  28.939  1.00  0.00    -0.036 A 
ATOM     81  N   UNL A   1      39.687  30.316  30.206  1.00  0.00    -0.354 N 
ATOM     82  C   UNL A   1      43.602  28.722  31.133  1.00  0.00     0.074 A 
ATOM     83  C   UNL A   1      43.796  27.430  30.511  1.00  0.00    -0.034 C 
ATOM     84  H   UNL A   1      42.662  26.311  29.097  1.00  0.00     0.065 H 
ATOM     85  C   UNL A   1      37.636  30.297  29.314  1.00  0.00    -0.036 A 
ATOM     86  H   UNL A   1      37.833  28.422  28.354  1.00  0.00     0.065 H 
ATOM     87  C   UNL A   1      38.539  31.068  30.164  1.00  0.00     0.049 A 
ATOM     88  H   UNL A   1      40.493  30.590  30.699  1.00  0.00     0.167 HD
ATOM     89  C   UNL A   1      44.530  29.352  31.892  1.00  0.00     0.037 A 
ATOM     90  H   UNL A   1      44.620  26.828  30.663  1.00  0.00     0.065 H 
ATOM     91  H   UNL A   1      36.681  30.579  29.044  1.00  0.00     0.065 H 
ATOM     92  C   UNL A   1      38.247  32.244  30.752  1.00  0.00     0.037 A 
ATOM     93  C   UNL A   1      44.342  30.651  32.483  1.00  0.00     0.049 A 
ATOM     94  C   UNL A   1      39.294  32.922  31.593  1.00  0.00     0.074 A 
ATOM     95  C   UNL A   1      45.239  31.401  33.222  1.00  0.00    -0.036 A 
ATOM     96  N   UNL A   1      43.172  31.393  32.400  1.00  0.00    -0.354 N 
ATOM     97  N   UNL A   1      40.513  32.529  31.876  1.00  0.00    -0.248 NA
ATOM     98  C   UNL A   1      38.929  34.214  32.190  1.00  0.00    -0.034 C 
ATOM     99  C   UNL A   1      44.597  32.577  33.626  1.00  0.00    -0.036 A 
ATOM    100  H   UNL A   1      46.214  31.139  33.437  1.00  0.00     0.065 H 
ATOM    101  C   UNL A   1      43.319  32.584  33.093  1.00  0.00     0.049 A 
ATOM    102  H   UNL A   1      42.359  31.114  31.921  1.00  0.00     0.167 HD
ATOM    103  C   UNL A   1      41.070  33.535  32.654  1.00  0.00     0.074 A 
ATOM    104  C   UNL A   1      40.059  34.564  32.788  1.00  0.00    -0.034 C 
ATOM    105  H   UNL A   1      38.029  34.717  32.154  1.00  0.00     0.065 H 
ATOM    106  H   UNL A   1      45.008  33.313  34.220  1.00  0.00     0.065 H 
ATOM    107  C   UNL A   1      42.305  33.602  33.206  1.00  0.00     0.037 A 
ATOM    108  H   UNL A   1      40.201  35.457  33.286  1.00  0.00     0.065 H 
BRANCH  89 109
ATOM    109  C   UNL A   1      45.834  28.644  32.125  1.00  0.00     0.064 A 
ATOM    110  C   UNL A   1      46.936  28.832  31.276  1.00  0.00     0.173 A 
ATOM    111  C   UNL A   1      45.995  27.793  33.228  1.00  0.00     0.173 A 
ATOM    112  F   UNL A   1      46.832  29.626  30.200  1.00  0.00    -0.203 F 
ATOM    113  C   UNL A   1      48.139  28.169  31.505  1.00  0.00     0.198 A 
ATOM    114  C   UNL A   1      47.210  27.156  33.471  1.00  0.00     0.198 A 
ATOM    115  F   UNL A   1      44.977  27.580  34.074  1.00  0.00    -0.203 F 
ATOM    116  F   UNL A   1      49.160  28.321  30.649  1.00  0.00    -0.200 F 
ATOM    117  C   UNL A   1      48.278  27.337  32.606  1.00  0.00     0.200 A 
ATOM    118  F   UNL A   1      47.346  26.364  34.543  1.00  0.00    -0.200 F 
ATOM    119  F   UNL A   1      49.437  26.704  32.827  1.00  0.00    -0.200 F 
ENDBRANCH  89 109
BRANCH  92 120
ATOM    120  C   UNL A   1      36.914  32.867  30.546  1.00  0.00     0.064 A 
ATOM    121  C   UNL A   1      35.921  32.787  31.534  1.00  0.00     0.173 A 
ATOM    122  C   UNL A   1      36.601  33.550  29.361  1.00  0.00     0.173 A 
ATOM    123  F   UNL A   1      36.167  32.129  32.676  1.00  0.00    -0.203 F 
ATOM    124  C   UNL A   1      34.660  33.344  31.335  1.00  0.00     0.198 A 
ATOM    125  C   UNL A   1      35.349  34.132  29.176  1.00  0.00     0.198 A 
ATOM    126  F   UNL A   1      37.517  33.661  28.388  1.00  0.00    -0.203 F 
ATOM    127  F   UNL A   1      33.715  33.211  32.275  1.00  0.00    -0.200 F 
ATOM    128  C   UNL A   1      34.377  34.021  30.159  1.00  0.00     0.200 A 
ATOM    129  F   UNL A   1      35.084  34.798  28.043  1.00  0.00    -0.200 F 
ATOM    130  F   UNL A   1      33.164  34.560  29.968  1.00  0.00    -0.200 F 
ENDBRANCH  92 120
BRANCH 107 131
ATOM    131  C   UNL A   1      42.652  34.846  33.971  1.00  0.00     0.064 A 
ATOM    132  C   UNL A   1      42.522  34.914  35.366  1.00  0.00     0.173 A 
ATOM    133  C   UNL A   1      43.160  35.970  33.302  1.00  0.00     0.173 A 
ATOM    134  F   UNL A   1      42.027  33.873  36.050  1.00  0.00    -0.203 F 
ATOM    135  C   UNL A   1      42.864  36.073  36.060  1.00  0.00     0.198 A 
ATOM    136  C   UNL A   1      43.531  37.115  34.003  1.00  0.00     0.198 A 
ATOM    137  F   UNL A   1      43.311  35.953  31.970  1.00  0.00    -0.203 F 
ATOM    138  F   UNL A   1      42.686  36.132  37.387  1.00  0.00    -0.200 F 
ATOM    139  C   UNL A   1      43.376  37.167  35.379  1.00  0.00     0.200 A 
ATOM    140  F   UNL A   1      44.039  38.165  33.345  1.00  0.00    -0.200 F 
ATOM    141  F   UNL A   1      43.712  38.277  36.051  1.00  0.00    -0.200 F 
ENDBRANCH 107 131
ENDBRANCH  72  75
ENDBRANCH  62  65
ENDBRANCH  58  61
ENDBRANCH  55  58
ENDBRANCH  52  55
ENDBRANCH   1  52
TORSDOF 19
ENDMDL
