MODEL 1
REMARK VINA RESULT:      -9.3      0.000      0.000
REMARK SMILES CC/C=C/C/C=C/C/C=C/C/C=C/CC/C=C/COCC(=O)NCCCCCCNC(=O)c1ccc(-c2c3nc(c(-c4c(F)c(F)c(F)c(F)c4F)c4ccc([nH]4)c(-c4c(F)c(F)c(F)c(F)c4F)c4nc(c(-c5c(F)c(F)c(F)c(F)c5F)c5ccc2[nH]5)C=C4)C=C3)cc1
REMARK SMILES IDX 18 1 17 4 16 5 15 8 14 11 13 14 12 15 11 18 10 21 9 22 8 25
REMARK SMILES IDX 7 28 6 29 5 32 4 35 3 36 2 39 1 42 19 46 20 47 21 50 22 51
REMARK SMILES IDX 23 52 24 54 25 57 26 60 27 63 28 66 29 69 30 72 31 73 32 75
REMARK SMILES IDX 33 76 34 77 95 78 35 79 94 81 36 83 37 86 38 87 88 88 39 89
REMARK SMILES IDX 93 90 87 91 89 92 40 93 92 94 86 96 85 98 41 100 73 103
REMARK SMILES IDX 53 104 72 105 54 106 57 107 71 108 90 109 55 110 56 112
REMARK SMILES IDX 70 114 91 115 58 118 42 120 43 121 51 122 44 123 45 124
REMARK SMILES IDX 49 125 52 126 46 127 47 128 50 129 48 130 74 131 75 132
REMARK SMILES IDX 83 133 76 134 77 135 81 136 84 137 78 138 79 139 82 140
REMARK SMILES IDX 80 141 59 142 60 143 68 144 61 145 62 146 66 147 69 148
REMARK SMILES IDX 63 149 64 150 67 151 65 152
REMARK H PARENT 18 2 18 3 16 6 17 7 15 9 15 10 14 12 14 13 12 16 13 17 11 19
REMARK H PARENT 11 20 9 23 10 24 8 26 8 27 6 30 7 31 5 33 5 34 3 37 4 38 2 40
REMARK H PARENT 2 41 1 43 1 44 1 45 20 48 20 49 23 53 24 55 24 56 25 58 25 59
REMARK H PARENT 26 61 26 62 27 64 27 65 28 67 28 68 29 70 29 71 30 74 34 80
REMARK H PARENT 95 82 35 84 94 85 93 95 87 97 89 99 92 101 86 102 54 111
REMARK H PARENT 57 113 90 116 55 117 91 119
REMARK Flexibility Score: inf
ROOT
ATOM      1  C   UNL A   1      33.036  26.168  25.954  1.00  0.00     0.065 C 
ATOM      2  H   UNL A   1      32.372  26.322  26.779  1.00  0.00     0.061 H 
ATOM      3  H   UNL A   1      32.481  26.147  25.039  1.00  0.00     0.061 H 
ENDROOT
BRANCH   1   4
ATOM      4  C   UNL A   1      33.743  24.861  26.126  1.00  0.00    -0.063 C 
ATOM      5  C   UNL A   1      34.963  24.623  25.622  1.00  0.00    -0.086 C 
ATOM      6  H   UNL A   1      35.475  25.417  25.207  1.00  0.00     0.057 H 
ATOM      7  H   UNL A   1      33.272  24.111  26.655  1.00  0.00     0.060 H 
BRANCH   5   8
ATOM      8  C   UNL A   1      35.636  23.279  25.620  1.00  0.00    -0.032 C 
ATOM      9  H   UNL A   1      36.644  23.398  25.959  1.00  0.00     0.031 H 
ATOM     10  H   UNL A   1      35.081  22.634  26.267  1.00  0.00     0.031 H 
BRANCH   8  11
ATOM     11  C   UNL A   1      35.655  22.639  24.222  1.00  0.00    -0.032 C 
ATOM     12  H   UNL A   1      36.673  22.540  23.906  1.00  0.00     0.031 H 
ATOM     13  H   UNL A   1      35.167  21.690  24.296  1.00  0.00     0.031 H 
BRANCH  11  14
ATOM     14  C   UNL A   1      34.912  23.449  23.193  1.00  0.00    -0.088 C 
ATOM     15  C   UNL A   1      33.707  23.126  22.701  1.00  0.00    -0.085 C 
ATOM     16  H   UNL A   1      33.236  22.288  23.076  1.00  0.00     0.058 H 
ATOM     17  H   UNL A   1      35.360  24.312  22.844  1.00  0.00     0.057 H 
BRANCH  15  18
ATOM     18  C   UNL A   1      33.004  23.915  21.633  1.00  0.00    -0.017 C 
ATOM     19  H   UNL A   1      33.534  23.810  20.709  1.00  0.00     0.035 H 
ATOM     20  H   UNL A   1      32.006  23.544  21.527  1.00  0.00     0.035 H 
BRANCH  18  21
ATOM     21  C   UNL A   1      32.948  25.368  22.009  1.00  0.00    -0.084 C 
ATOM     22  C   UNL A   1      31.823  26.011  22.363  1.00  0.00    -0.084 C 
ATOM     23  H   UNL A   1      30.950  25.464  22.414  1.00  0.00     0.058 H 
ATOM     24  H   UNL A   1      33.829  25.906  21.993  1.00  0.00     0.058 H 
BRANCH  22  25
ATOM     25  C   UNL A   1      31.757  27.474  22.692  1.00  0.00    -0.017 C 
ATOM     26  H   UNL A   1      32.010  27.616  23.721  1.00  0.00     0.035 H 
ATOM     27  H   UNL A   1      32.446  28.001  22.065  1.00  0.00     0.035 H 
BRANCH  25  28
ATOM     28  C   UNL A   1      30.373  28.005  22.446  1.00  0.00    -0.084 C 
ATOM     29  C   UNL A   1      29.343  27.845  23.293  1.00  0.00    -0.084 C 
ATOM     30  H   UNL A   1      29.518  27.342  24.177  1.00  0.00     0.058 H 
ATOM     31  H   UNL A   1      30.203  28.526  21.571  1.00  0.00     0.058 H 
BRANCH  29  32
ATOM     32  C   UNL A   1      27.953  28.350  23.034  1.00  0.00    -0.017 C 
ATOM     33  H   UNL A   1      27.501  27.756  22.269  1.00  0.00     0.035 H 
ATOM     34  H   UNL A   1      27.390  28.280  23.942  1.00  0.00     0.035 H 
BRANCH  32  35
ATOM     35  C   UNL A   1      27.980  29.785  22.594  1.00  0.00    -0.085 C 
ATOM     36  C   UNL A   1      28.083  30.829  23.433  1.00  0.00    -0.089 C 
ATOM     37  H   UNL A   1      28.156  30.633  24.443  1.00  0.00     0.057 H 
ATOM     38  H   UNL A   1      27.917  29.982  21.583  1.00  0.00     0.058 H 
BRANCH  36  39
ATOM     39  C   UNL A   1      28.098  32.263  22.988  1.00  0.00    -0.038 C 
ATOM     40  H   UNL A   1      27.214  32.748  23.346  1.00  0.00     0.031 H 
ATOM     41  H   UNL A   1      28.974  32.731  23.387  1.00  0.00     0.031 H 
BRANCH  39  42
ATOM     42  C   UNL A   1      28.144  32.368  21.472  1.00  0.00    -0.062 C 
ATOM     43  H   UNL A   1      27.574  33.217  21.156  1.00  0.00     0.023 H 
ATOM     44  H   UNL A   1      27.732  31.481  21.040  1.00  0.00     0.023 H 
ATOM     45  H   UNL A   1      29.159  32.483  21.152  1.00  0.00     0.023 H 
ENDBRANCH  39  42
ENDBRANCH  36  39
ENDBRANCH  32  35
ENDBRANCH  29  32
ENDBRANCH  25  28
ENDBRANCH  22  25
ENDBRANCH  18  21
ENDBRANCH  15  18
ENDBRANCH  11  14
ENDBRANCH   8  11
ENDBRANCH   5   8
ENDBRANCH   1   4
BRANCH   1  46
ATOM     46  O   UNL A   1      33.982  27.236  25.901  1.00  0.00    -0.368 OA
BRANCH  46  47
ATOM     47  C   UNL A   1      33.691  28.313  26.787  1.00  0.00     0.126 C 
ATOM     48  H   UNL A   1      34.530  28.427  27.440  1.00  0.00     0.067 H 
ATOM     49  H   UNL A   1      32.774  28.034  27.264  1.00  0.00     0.067 H 
BRANCH  47  50
ATOM     50  C   UNL A   1      33.404  29.684  26.162  1.00  0.00     0.246 C 
ATOM     51  O   UNL A   1      32.758  29.810  25.121  1.00  0.00    -0.272 OA
ATOM     52  N   UNL A   1      33.857  30.803  26.799  1.00  0.00    -0.354 N 
ATOM     53  H   UNL A   1      33.582  31.663  26.407  1.00  0.00     0.163 HD
BRANCH  52  54
ATOM     54  C   UNL A   1      34.694  30.881  27.980  1.00  0.00     0.017 C 
ATOM     55  H   UNL A   1      35.393  30.072  27.966  1.00  0.00     0.049 H 
ATOM     56  H   UNL A   1      34.066  30.823  28.844  1.00  0.00     0.049 H 
BRANCH  54  57
ATOM     57  C   UNL A   1      35.460  32.202  28.027  1.00  0.00    -0.036 C 
ATOM     58  H   UNL A   1      35.618  32.535  27.023  1.00  0.00     0.028 H 
ATOM     59  H   UNL A   1      36.374  32.008  28.549  1.00  0.00     0.028 H 
BRANCH  57  60
ATOM     60  C   UNL A   1      34.743  33.320  28.797  1.00  0.00    -0.052 C 
ATOM     61  H   UNL A   1      35.185  33.387  29.770  1.00  0.00     0.027 H 
ATOM     62  H   UNL A   1      33.708  33.051  28.817  1.00  0.00     0.027 H 
BRANCH  60  63
ATOM     63  C   UNL A   1      34.811  34.706  28.149  1.00  0.00    -0.052 C 
ATOM     64  H   UNL A   1      34.577  34.598  27.110  1.00  0.00     0.027 H 
ATOM     65  H   UNL A   1      35.801  35.071  28.326  1.00  0.00     0.027 H 
BRANCH  63  66
ATOM     66  C   UNL A   1      33.859  35.747  28.743  1.00  0.00    -0.036 C 
ATOM     67  H   UNL A   1      33.418  36.294  27.936  1.00  0.00     0.028 H 
ATOM     68  H   UNL A   1      34.448  36.359  29.393  1.00  0.00     0.028 H 
BRANCH  66  69
ATOM     69  C   UNL A   1      32.735  35.168  29.596  1.00  0.00     0.018 C 
ATOM     70  H   UNL A   1      32.985  34.161  29.858  1.00  0.00     0.049 H 
ATOM     71  H   UNL A   1      31.833  35.209  29.021  1.00  0.00     0.049 H 
BRANCH  69  72
ATOM     72  N   UNL A   1      32.519  35.929  30.817  1.00  0.00    -0.352 N 
ATOM     73  C   UNL A   1      33.117  35.802  32.045  1.00  0.00     0.251 C 
ATOM     74  H   UNL A   1      31.843  36.642  30.751  1.00  0.00     0.163 HD
ATOM     75  O   UNL A   1      32.673  36.412  33.015  1.00  0.00    -0.269 OA
BRANCH  73  76
ATOM     76  C   UNL A   1      34.280  34.906  32.215  1.00  0.00     0.039 A 
ATOM     77  C   UNL A   1      35.547  35.375  31.862  1.00  0.00    -0.049 A 
ATOM     78  C   UNL A   1      34.127  33.613  32.724  1.00  0.00    -0.049 A 
ATOM     79  C   UNL A   1      36.671  34.580  32.098  1.00  0.00    -0.053 A 
ATOM     80  H   UNL A   1      35.653  36.306  31.428  1.00  0.00     0.063 H 
ATOM     81  C   UNL A   1      35.252  32.849  33.025  1.00  0.00    -0.053 A 
ATOM     82  H   UNL A   1      33.183  33.226  32.878  1.00  0.00     0.063 H 
ATOM     83  C   UNL A   1      36.537  33.330  32.727  1.00  0.00    -0.014 A 
ATOM     84  H   UNL A   1      37.604  34.910  31.808  1.00  0.00     0.063 H 
ATOM     85  H   UNL A   1      35.141  31.925  33.469  1.00  0.00     0.063 H 
BRANCH  83  86
ATOM     86  C   UNL A   1      37.732  32.543  33.127  1.00  0.00     0.031 A 
ATOM     87  C   UNL A   1      38.459  32.850  34.407  1.00  0.00     0.074 A 
ATOM     88  C   UNL A   1      38.203  31.593  32.295  1.00  0.00     0.049 A 
ATOM     89  N   UNL A   1      39.554  32.313  34.884  1.00  0.00    -0.248 NA
ATOM     90  C   UNL A   1      37.893  33.912  35.252  1.00  0.00    -0.034 C 
ATOM     91  C   UNL A   1      37.615  31.237  31.002  1.00  0.00    -0.036 A 
ATOM     92  N   UNL A   1      39.293  30.764  32.402  1.00  0.00    -0.354 N 
ATOM     93  C   UNL A   1      39.813  32.976  36.076  1.00  0.00     0.074 A 
ATOM     94  C   UNL A   1      38.788  33.987  36.228  1.00  0.00    -0.034 C 
ATOM     95  H   UNL A   1      37.026  34.456  35.121  1.00  0.00     0.065 H 
ATOM     96  C   UNL A   1      38.336  30.252  30.446  1.00  0.00    -0.036 A 
ATOM     97  H   UNL A   1      36.778  31.674  30.586  1.00  0.00     0.065 H 
ATOM     98  C   UNL A   1      39.464  29.939  31.317  1.00  0.00     0.049 A 
ATOM     99  H   UNL A   1      39.892  30.761  33.182  1.00  0.00     0.167 HD
ATOM    100  C   UNL A   1      40.806  32.748  36.969  1.00  0.00     0.037 A 
ATOM    101  H   UNL A   1      38.758  34.676  36.996  1.00  0.00     0.065 H 
ATOM    102  H   UNL A   1      38.127  29.791  29.547  1.00  0.00     0.065 H 
ATOM    103  C   UNL A   1      40.432  29.043  31.044  1.00  0.00     0.037 A 
ATOM    104  C   UNL A   1      41.814  31.731  36.820  1.00  0.00     0.049 A 
ATOM    105  C   UNL A   1      41.536  28.828  32.045  1.00  0.00     0.074 A 
ATOM    106  C   UNL A   1      42.819  31.378  37.705  1.00  0.00    -0.036 A 
ATOM    107  N   UNL A   1      41.954  30.910  35.709  1.00  0.00    -0.354 N 
ATOM    108  N   UNL A   1      41.722  29.404  33.207  1.00  0.00    -0.248 NA
ATOM    109  C   UNL A   1      42.564  27.838  31.696  1.00  0.00    -0.034 C 
ATOM    110  C   UNL A   1      43.604  30.389  37.104  1.00  0.00    -0.036 A 
ATOM    111  H   UNL A   1      42.964  31.777  38.645  1.00  0.00     0.065 H 
ATOM    112  C   UNL A   1      43.051  30.079  35.872  1.00  0.00     0.049 A 
ATOM    113  H   UNL A   1      41.361  30.918  34.923  1.00  0.00     0.167 HD
ATOM    114  C   UNL A   1      42.870  28.831  33.739  1.00  0.00     0.074 A 
ATOM    115  C   UNL A   1      43.324  27.845  32.781  1.00  0.00    -0.034 C 
ATOM    116  H   UNL A   1      42.666  27.282  30.833  1.00  0.00     0.065 H 
ATOM    117  H   UNL A   1      44.452  29.962  37.510  1.00  0.00     0.065 H 
ATOM    118  C   UNL A   1      43.494  29.101  34.911  1.00  0.00     0.037 A 
ATOM    119  H   UNL A   1      44.138  27.226  32.926  1.00  0.00     0.065 H 
BRANCH 100 120
ATOM    120  C   UNL A   1      40.859  33.615  38.195  1.00  0.00     0.064 A 
ATOM    121  C   UNL A   1      40.028  33.378  39.301  1.00  0.00     0.173 A 
ATOM    122  C   UNL A   1      41.798  34.653  38.291  1.00  0.00     0.173 A 
ATOM    123  F   UNL A   1      39.108  32.404  39.258  1.00  0.00    -0.203 F 
ATOM    124  C   UNL A   1      40.121  34.162  40.449  1.00  0.00     0.198 A 
ATOM    125  C   UNL A   1      41.909  35.414  39.452  1.00  0.00     0.198 A 
ATOM    126  F   UNL A   1      42.621  34.917  37.266  1.00  0.00    -0.203 F 
ATOM    127  F   UNL A   1      39.291  33.942  41.478  1.00  0.00    -0.200 F 
ATOM    128  C   UNL A   1      41.068  35.172  40.527  1.00  0.00     0.200 A 
ATOM    129  F   UNL A   1      42.836  36.379  39.531  1.00  0.00    -0.200 F 
ATOM    130  F   UNL A   1      41.168  35.915  41.637  1.00  0.00    -0.200 F 
ENDBRANCH 100 120
BRANCH 103 131
ATOM    131  C   UNL A   1      40.405  28.280  29.768  1.00  0.00     0.064 A 
ATOM    132  C   UNL A   1      41.140  28.707  28.653  1.00  0.00     0.173 A 
ATOM    133  C   UNL A   1      39.626  27.121  29.628  1.00  0.00     0.173 A 
ATOM    134  F   UNL A   1      41.884  29.820  28.730  1.00  0.00    -0.203 F 
ATOM    135  C   UNL A   1      41.076  28.021  27.442  1.00  0.00     0.198 A 
ATOM    136  C   UNL A   1      39.590  26.417  28.426  1.00  0.00     0.198 A 
ATOM    137  F   UNL A   1      38.907  26.665  30.665  1.00  0.00    -0.203 F 
ATOM    138  F   UNL A   1      41.744  28.484  26.377  1.00  0.00    -0.200 F 
ATOM    139  C   UNL A   1      40.306  26.874  27.331  1.00  0.00     0.200 A 
ATOM    140  F   UNL A   1      38.857  25.299  28.330  1.00  0.00    -0.200 F 
ATOM    141  F   UNL A   1      40.245  26.215  26.166  1.00  0.00    -0.200 F 
ENDBRANCH 103 131
BRANCH 118 142
ATOM    142  C   UNL A   1      44.724  28.301  35.237  1.00  0.00     0.064 A 
ATOM    143  C   UNL A   1      44.647  27.072  35.906  1.00  0.00     0.173 A 
ATOM    144  C   UNL A   1      45.992  28.755  34.840  1.00  0.00     0.173 A 
ATOM    145  F   UNL A   1      43.461  26.601  36.321  1.00  0.00    -0.203 F 
ATOM    146  C   UNL A   1      45.796  26.338  36.192  1.00  0.00     0.198 A 
ATOM    147  C   UNL A   1      47.135  28.002  35.097  1.00  0.00     0.198 A 
ATOM    148  F   UNL A   1      46.122  29.921  34.192  1.00  0.00    -0.203 F 
ATOM    149  F   UNL A   1      45.703  25.191  36.880  1.00  0.00    -0.200 F 
ATOM    150  C   UNL A   1      47.037  26.800  35.780  1.00  0.00     0.200 A 
ATOM    151  F   UNL A   1      48.331  28.442  34.683  1.00  0.00    -0.200 F 
ATOM    152  F   UNL A   1      48.141  26.089  36.048  1.00  0.00    -0.200 F 
ENDBRANCH 118 142
ENDBRANCH  83  86
ENDBRANCH  73  76
ENDBRANCH  69  72
ENDBRANCH  66  69
ENDBRANCH  63  66
ENDBRANCH  60  63
ENDBRANCH  57  60
ENDBRANCH  54  57
ENDBRANCH  52  54
ENDBRANCH  47  50
ENDBRANCH  46  47
ENDBRANCH   1  46
TORSDOF 27
ENDMDL
MODEL 2
REMARK VINA RESULT:      -9.0      6.650     12.371
REMARK SMILES CC/C=C/C/C=C/C/C=C/C/C=C/CC/C=C/COCC(=O)NCCCCCCNC(=O)c1ccc(-c2c3nc(c(-c4c(F)c(F)c(F)c(F)c4F)c4ccc([nH]4)c(-c4c(F)c(F)c(F)c(F)c4F)c4nc(c(-c5c(F)c(F)c(F)c(F)c5F)c5ccc2[nH]5)C=C4)C=C3)cc1
REMARK SMILES IDX 18 1 17 4 16 5 15 8 14 11 13 14 12 15 11 18 10 21 9 22 8 25
REMARK SMILES IDX 7 28 6 29 5 32 4 35 3 36 2 39 1 42 19 46 20 47 21 50 22 51
REMARK SMILES IDX 23 52 24 54 25 57 26 60 27 63 28 66 29 69 30 72 31 73 32 75
REMARK SMILES IDX 33 76 34 77 95 78 35 79 94 81 36 83 37 86 38 87 88 88 39 89
REMARK SMILES IDX 93 90 87 91 89 92 40 93 92 94 86 96 85 98 41 100 73 103
REMARK SMILES IDX 53 104 72 105 54 106 57 107 71 108 90 109 55 110 56 112
REMARK SMILES IDX 70 114 91 115 58 118 42 120 43 121 51 122 44 123 45 124
REMARK SMILES IDX 49 125 52 126 46 127 47 128 50 129 48 130 74 131 75 132
REMARK SMILES IDX 83 133 76 134 77 135 81 136 84 137 78 138 79 139 82 140
REMARK SMILES IDX 80 141 59 142 60 143 68 144 61 145 62 146 66 147 69 148
REMARK SMILES IDX 63 149 64 150 67 151 65 152
REMARK H PARENT 18 2 18 3 16 6 17 7 15 9 15 10 14 12 14 13 12 16 13 17 11 19
REMARK H PARENT 11 20 9 23 10 24 8 26 8 27 6 30 7 31 5 33 5 34 3 37 4 38 2 40
REMARK H PARENT 2 41 1 43 1 44 1 45 20 48 20 49 23 53 24 55 24 56 25 58 25 59
REMARK H PARENT 26 61 26 62 27 64 27 65 28 67 28 68 29 70 29 71 30 74 34 80
REMARK H PARENT 95 82 35 84 94 85 93 95 87 97 89 99 92 101 86 102 54 111
REMARK H PARENT 57 113 90 116 55 117 91 119
REMARK Flexibility Score: inf
ROOT
ATOM      1  C   UNL A   1      45.987  30.707  26.386  1.00  0.00     0.065 C 
ATOM      2  H   UNL A   1      46.062  30.180  25.457  1.00  0.00     0.061 H 
ATOM      3  H   UNL A   1      46.632  30.259  27.113  1.00  0.00     0.061 H 
ENDROOT
BRANCH   1   4
ATOM      4  C   UNL A   1      44.576  30.641  26.879  1.00  0.00    -0.063 C 
ATOM      5  C   UNL A   1      43.926  29.482  27.068  1.00  0.00    -0.086 C 
ATOM      6  H   UNL A   1      44.469  28.608  26.985  1.00  0.00     0.057 H 
ATOM      7  H   UNL A   1      44.082  31.524  27.081  1.00  0.00     0.060 H 
BRANCH   5   8
ATOM      8  C   UNL A   1      42.463  29.371  27.393  1.00  0.00    -0.032 C 
ATOM      9  H   UNL A   1      42.354  28.832  28.311  1.00  0.00     0.031 H 
ATOM     10  H   UNL A   1      42.069  30.362  27.473  1.00  0.00     0.031 H 
BRANCH   8  11
ATOM     11  C   UNL A   1      41.676  28.639  26.293  1.00  0.00    -0.032 C 
ATOM     12  H   UNL A   1      41.128  29.363  25.726  1.00  0.00     0.031 H 
ATOM     13  H   UNL A   1      42.384  28.111  25.689  1.00  0.00     0.031 H 
BRANCH  11  14
ATOM     14  C   UNL A   1      40.706  27.625  26.839  1.00  0.00    -0.088 C 
ATOM     15  C   UNL A   1      40.483  27.417  28.145  1.00  0.00    -0.085 C 
ATOM     16  H   UNL A   1      40.978  28.016  28.825  1.00  0.00     0.058 H 
ATOM     17  H   UNL A   1      40.177  27.053  26.162  1.00  0.00     0.057 H 
BRANCH  15  18
ATOM     18  C   UNL A   1      39.553  26.363  28.674  1.00  0.00    -0.017 C 
ATOM     19  H   UNL A   1      39.740  26.219  29.718  1.00  0.00     0.035 H 
ATOM     20  H   UNL A   1      38.543  26.681  28.523  1.00  0.00     0.035 H 
BRANCH  18  21
ATOM     21  C   UNL A   1      39.770  25.065  27.951  1.00  0.00    -0.084 C 
ATOM     22  C   UNL A   1      40.939  24.404  27.924  1.00  0.00    -0.084 C 
ATOM     23  H   UNL A   1      41.727  24.794  28.464  1.00  0.00     0.058 H 
ATOM     24  H   UNL A   1      38.971  24.656  27.441  1.00  0.00     0.058 H 
BRANCH  22  25
ATOM     25  C   UNL A   1      41.171  23.131  27.162  1.00  0.00    -0.017 C 
ATOM     26  H   UNL A   1      41.104  22.301  27.833  1.00  0.00     0.035 H 
ATOM     27  H   UNL A   1      40.429  23.048  26.395  1.00  0.00     0.035 H 
BRANCH  25  28
ATOM     28  C   UNL A   1      42.531  23.142  26.523  1.00  0.00    -0.084 C 
ATOM     29  C   UNL A   1      42.788  23.654  25.309  1.00  0.00    -0.084 C 
ATOM     30  H   UNL A   1      42.006  24.085  24.790  1.00  0.00     0.058 H 
ATOM     31  H   UNL A   1      43.316  22.731  27.051  1.00  0.00     0.058 H 
BRANCH  29  32
ATOM     32  C   UNL A   1      44.140  23.639  24.656  1.00  0.00    -0.017 C 
ATOM     33  H   UNL A   1      44.552  22.655  24.728  1.00  0.00     0.035 H 
ATOM     34  H   UNL A   1      44.029  23.924  23.631  1.00  0.00     0.035 H 
BRANCH  32  35
ATOM     35  C   UNL A   1      45.066  24.612  25.328  1.00  0.00    -0.085 C 
ATOM     36  C   UNL A   1      44.903  25.945  25.305  1.00  0.00    -0.089 C 
ATOM     37  H   UNL A   1      44.087  26.326  24.802  1.00  0.00     0.057 H 
ATOM     38  H   UNL A   1      45.878  24.234  25.839  1.00  0.00     0.058 H 
BRANCH  36  39
ATOM     39  C   UNL A   1      45.839  26.915  25.968  1.00  0.00    -0.038 C 
ATOM     40  H   UNL A   1      46.680  27.080  25.328  1.00  0.00     0.031 H 
ATOM     41  H   UNL A   1      45.310  27.829  26.140  1.00  0.00     0.031 H 
BRANCH  39  42
ATOM     42  C   UNL A   1      46.328  26.381  27.305  1.00  0.00    -0.062 C 
ATOM     43  H   UNL A   1      45.505  25.960  27.844  1.00  0.00     0.023 H 
ATOM     44  H   UNL A   1      46.755  27.180  27.873  1.00  0.00     0.023 H 
ATOM     45  H   UNL A   1      47.068  25.625  27.138  1.00  0.00     0.023 H 
ENDBRANCH  39  42
ENDBRANCH  36  39
ENDBRANCH  32  35
ENDBRANCH  29  32
ENDBRANCH  25  28
ENDBRANCH  22  25
ENDBRANCH  18  21
ENDBRANCH  15  18
ENDBRANCH  11  14
ENDBRANCH   8  11
ENDBRANCH   5   8
ENDBRANCH   1   4
BRANCH   1  46
ATOM     46  O   UNL A   1      46.377  32.067  26.190  1.00  0.00    -0.368 OA
BRANCH  46  47
ATOM     47  C   UNL A   1      45.286  32.978  26.117  1.00  0.00     0.126 C 
ATOM     48  H   UNL A   1      45.362  33.639  26.955  1.00  0.00     0.067 H 
ATOM     49  H   UNL A   1      44.413  32.358  26.101  1.00  0.00     0.067 H 
BRANCH  47  50
ATOM     50  C   UNL A   1      45.172  33.845  24.857  1.00  0.00     0.246 C 
ATOM     51  O   UNL A   1      44.401  33.570  23.936  1.00  0.00    -0.272 OA
ATOM     52  N   UNL A   1      45.931  34.976  24.767  1.00  0.00    -0.354 N 
ATOM     53  H   UNL A   1      45.768  35.544  23.980  1.00  0.00     0.163 HD
BRANCH  52  54
ATOM     54  C   UNL A   1      46.948  35.444  25.688  1.00  0.00     0.017 C 
ATOM     55  H   UNL A   1      46.788  34.991  26.643  1.00  0.00     0.049 H 
ATOM     56  H   UNL A   1      46.876  36.509  25.758  1.00  0.00     0.049 H 
BRANCH  54  57
ATOM     57  C   UNL A   1      48.348  35.085  25.193  1.00  0.00    -0.036 C 
ATOM     58  H   UNL A   1      48.833  35.986  24.878  1.00  0.00     0.028 H 
ATOM     59  H   UNL A   1      48.222  34.382  24.396  1.00  0.00     0.028 H 
BRANCH  57  60
ATOM     60  C   UNL A   1      49.234  34.404  26.245  1.00  0.00    -0.052 C 
ATOM     61  H   UNL A   1      49.954  33.801  25.730  1.00  0.00     0.027 H 
ATOM     62  H   UNL A   1      48.574  33.840  26.870  1.00  0.00     0.027 H 
BRANCH  60  63
ATOM     63  C   UNL A   1      49.992  35.356  27.176  1.00  0.00    -0.052 C 
ATOM     64  H   UNL A   1      49.661  35.173  28.177  1.00  0.00     0.027 H 
ATOM     65  H   UNL A   1      49.777  36.345  26.830  1.00  0.00     0.027 H 
BRANCH  63  66
ATOM     66  C   UNL A   1      51.516  35.215  27.147  1.00  0.00    -0.036 C 
ATOM     67  H   UNL A   1      51.863  35.141  28.156  1.00  0.00     0.028 H 
ATOM     68  H   UNL A   1      51.889  36.076  26.635  1.00  0.00     0.028 H 
BRANCH  66  69
ATOM     69  C   UNL A   1      52.028  34.000  26.378  1.00  0.00     0.018 C 
ATOM     70  H   UNL A   1      52.550  34.339  25.507  1.00  0.00     0.049 H 
ATOM     71  H   UNL A   1      51.183  33.398  26.117  1.00  0.00     0.049 H 
BRANCH  69  72
ATOM     72  N   UNL A   1      52.929  33.182  27.175  1.00  0.00    -0.352 N 
ATOM     73  C   UNL A   1      52.665  32.407  28.276  1.00  0.00     0.251 C 
ATOM     74  H   UNL A   1      53.868  33.185  26.880  1.00  0.00     0.163 HD
ATOM     75  O   UNL A   1      53.588  31.932  28.933  1.00  0.00    -0.269 OA
BRANCH  73  76
ATOM     76  C   UNL A   1      51.268  32.163  28.694  1.00  0.00     0.039 A 
ATOM     77  C   UNL A   1      50.816  32.726  29.889  1.00  0.00    -0.049 A 
ATOM     78  C   UNL A   1      50.405  31.392  27.911  1.00  0.00    -0.049 A 
ATOM     79  C   UNL A   1      49.477  32.586  30.258  1.00  0.00    -0.053 A 
ATOM     80  H   UNL A   1      51.469  33.244  30.498  1.00  0.00     0.063 H 
ATOM     81  C   UNL A   1      49.054  31.312  28.242  1.00  0.00    -0.053 A 
ATOM     82  H   UNL A   1      50.767  30.884  27.089  1.00  0.00     0.063 H 
ATOM     83  C   UNL A   1      48.573  31.919  29.412  1.00  0.00    -0.014 A 
ATOM     84  H   UNL A   1      49.147  32.972  31.157  1.00  0.00     0.063 H 
ATOM     85  H   UNL A   1      48.404  30.803  27.624  1.00  0.00     0.063 H 
BRANCH  83  86
ATOM     86  C   UNL A   1      47.118  31.897  29.712  1.00  0.00     0.031 A 
ATOM     87  C   UNL A   1      46.433  30.614  30.092  1.00  0.00     0.074 A 
ATOM     88  C   UNL A   1      46.400  33.029  29.570  1.00  0.00     0.049 A 
ATOM     89  N   UNL A   1      45.163  30.393  30.323  1.00  0.00    -0.248 NA
ATOM     90  C   UNL A   1      47.281  29.418  30.209  1.00  0.00    -0.034 C 
ATOM     91  C   UNL A   1      46.942  34.325  29.159  1.00  0.00    -0.036 A 
ATOM     92  N   UNL A   1      45.059  33.271  29.741  1.00  0.00    -0.354 N 
ATOM     93  C   UNL A   1      45.058  29.038  30.602  1.00  0.00     0.074 A 
ATOM     94  C   UNL A   1      46.385  28.475  30.466  1.00  0.00    -0.034 C 
ATOM     95  H   UNL A   1      48.305  29.335  30.115  1.00  0.00     0.065 H 
ATOM     96  C   UNL A   1      45.950  35.228  29.126  1.00  0.00    -0.036 A 
ATOM     97  H   UNL A   1      47.930  34.515  28.929  1.00  0.00     0.065 H 
ATOM     98  C   UNL A   1      44.695  34.567  29.468  1.00  0.00     0.049 A 
ATOM     99  H   UNL A   1      44.421  32.581  30.032  1.00  0.00     0.167 HD
ATOM    100  C   UNL A   1      43.958  28.332  30.958  1.00  0.00     0.037 A 
ATOM    101  H   UNL A   1      46.605  27.471  30.557  1.00  0.00     0.065 H 
ATOM    102  H   UNL A   1      46.058  36.228  28.896  1.00  0.00     0.065 H 
ATOM    103  C   UNL A   1      43.483  35.154  29.474  1.00  0.00     0.037 A 
ATOM    104  C   UNL A   1      42.643  28.900  31.107  1.00  0.00     0.049 A 
ATOM    105  C   UNL A   1      42.275  34.339  29.850  1.00  0.00     0.074 A 
ATOM    106  C   UNL A   1      41.480  28.279  31.531  1.00  0.00    -0.036 A 
ATOM    107  N   UNL A   1      42.312  30.218  30.827  1.00  0.00    -0.354 N 
ATOM    108  N   UNL A   1      42.203  33.076  30.192  1.00  0.00    -0.248 NA
ATOM    109  C   UNL A   1      40.979  35.031  29.840  1.00  0.00    -0.034 C 
ATOM    110  C   UNL A   1      40.435  29.204  31.447  1.00  0.00    -0.036 A 
ATOM    111  H   UNL A   1      41.398  27.302  31.853  1.00  0.00     0.065 H 
ATOM    112  C   UNL A   1      40.956  30.418  31.033  1.00  0.00     0.049 A 
ATOM    113  H   UNL A   1      42.947  30.908  30.527  1.00  0.00     0.167 HD
ATOM    114  C   UNL A   1      40.864  32.828  30.462  1.00  0.00     0.074 A 
ATOM    115  C   UNL A   1      40.161  34.079  30.266  1.00  0.00    -0.034 C 
ATOM    116  H   UNL A   1      40.762  36.004  29.573  1.00  0.00     0.065 H 
ATOM    117  H   UNL A   1      39.442  29.014  31.658  1.00  0.00     0.065 H 
ATOM    118  C   UNL A   1      40.268  31.669  30.834  1.00  0.00     0.037 A 
ATOM    119  H   UNL A   1      39.152  34.212  30.437  1.00  0.00     0.065 H 
BRANCH 100 120
ATOM    120  C   UNL A   1      44.120  26.860  31.212  1.00  0.00     0.064 A 
ATOM    121  C   UNL A   1      44.427  26.362  32.487  1.00  0.00     0.173 A 
ATOM    122  C   UNL A   1      43.900  25.933  30.181  1.00  0.00     0.173 A 
ATOM    123  F   UNL A   1      44.655  27.204  33.505  1.00  0.00    -0.203 F 
ATOM    124  C   UNL A   1      44.528  24.991  32.716  1.00  0.00     0.198 A 
ATOM    125  C   UNL A   1      43.971  24.563  30.422  1.00  0.00     0.198 A 
ATOM    126  F   UNL A   1      43.596  26.355  28.945  1.00  0.00    -0.203 F 
ATOM    127  F   UNL A   1      44.861  24.540  33.933  1.00  0.00    -0.200 F 
ATOM    128  C   UNL A   1      44.291  24.094  31.686  1.00  0.00     0.200 A 
ATOM    129  F   UNL A   1      43.725  23.698  29.429  1.00  0.00    -0.200 F 
ATOM    130  F   UNL A   1      44.372  22.776  31.912  1.00  0.00    -0.200 F 
ENDBRANCH 100 120
BRANCH 103 131
ATOM    131  C   UNL A   1      43.347  36.590  29.111  1.00  0.00     0.064 A 
ATOM    132  C   UNL A   1      42.944  36.977  27.825  1.00  0.00     0.173 A 
ATOM    133  C   UNL A   1      43.641  37.606  30.034  1.00  0.00     0.173 A 
ATOM    134  F   UNL A   1      42.673  36.044  26.900  1.00  0.00    -0.203 F 
ATOM    135  C   UNL A   1      42.865  38.322  27.469  1.00  0.00     0.198 A 
ATOM    136  C   UNL A   1      43.528  38.950  29.687  1.00  0.00     0.198 A 
ATOM    137  F   UNL A   1      44.026  37.291  31.280  1.00  0.00    -0.203 F 
ATOM    138  F   UNL A   1      42.533  38.662  26.216  1.00  0.00    -0.200 F 
ATOM    139  C   UNL A   1      43.152  39.308  28.401  1.00  0.00     0.200 A 
ATOM    140  F   UNL A   1      43.789  39.898  30.597  1.00  0.00    -0.200 F 
ATOM    141  F   UNL A   1      43.075  40.600  28.058  1.00  0.00    -0.200 F 
ENDBRANCH 103 131
BRANCH 118 142
ATOM    142  C   UNL A   1      38.786  31.703  31.078  1.00  0.00     0.064 A 
ATOM    143  C   UNL A   1      37.865  31.436  30.055  1.00  0.00     0.173 A 
ATOM    144  C   UNL A   1      38.283  31.970  32.361  1.00  0.00     0.173 A 
ATOM    145  F   UNL A   1      38.294  31.191  28.807  1.00  0.00    -0.203 F 
ATOM    146  C   UNL A   1      36.495  31.462  30.300  1.00  0.00     0.198 A 
ATOM    147  C   UNL A   1      36.913  31.962  32.610  1.00  0.00     0.198 A 
ATOM    148  F   UNL A   1      39.119  32.226  33.377  1.00  0.00    -0.203 F 
ATOM    149  F   UNL A   1      35.632  31.257  29.294  1.00  0.00    -0.200 F 
ATOM    150  C   UNL A   1      36.020  31.717  31.578  1.00  0.00     0.200 A 
ATOM    151  F   UNL A   1      36.457  32.192  33.849  1.00  0.00    -0.200 F 
ATOM    152  F   UNL A   1      34.701  31.734  31.814  1.00  0.00    -0.200 F 
ENDBRANCH 118 142
ENDBRANCH  83  86
ENDBRANCH  73  76
ENDBRANCH  69  72
ENDBRANCH  66  69
ENDBRANCH  63  66
ENDBRANCH  60  63
ENDBRANCH  57  60
ENDBRANCH  54  57
ENDBRANCH  52  54
ENDBRANCH  47  50
ENDBRANCH  46  47
ENDBRANCH   1  46
TORSDOF 27
ENDMDL
MODEL 3
REMARK VINA RESULT:      -8.8      5.128     10.812
REMARK SMILES CC/C=C/C/C=C/C/C=C/C/C=C/CC/C=C/COCC(=O)NCCCCCCNC(=O)c1ccc(-c2c3nc(c(-c4c(F)c(F)c(F)c(F)c4F)c4ccc([nH]4)c(-c4c(F)c(F)c(F)c(F)c4F)c4nc(c(-c5c(F)c(F)c(F)c(F)c5F)c5ccc2[nH]5)C=C4)C=C3)cc1
REMARK SMILES IDX 18 1 17 4 16 5 15 8 14 11 13 14 12 15 11 18 10 21 9 22 8 25
REMARK SMILES IDX 7 28 6 29 5 32 4 35 3 36 2 39 1 42 19 46 20 47 21 50 22 51
REMARK SMILES IDX 23 52 24 54 25 57 26 60 27 63 28 66 29 69 30 72 31 73 32 75
REMARK SMILES IDX 33 76 34 77 95 78 35 79 94 81 36 83 37 86 38 87 88 88 39 89
REMARK SMILES IDX 93 90 87 91 89 92 40 93 92 94 86 96 85 98 41 100 73 103
REMARK SMILES IDX 53 104 72 105 54 106 57 107 71 108 90 109 55 110 56 112
REMARK SMILES IDX 70 114 91 115 58 118 42 120 43 121 51 122 44 123 45 124
REMARK SMILES IDX 49 125 52 126 46 127 47 128 50 129 48 130 74 131 75 132
REMARK SMILES IDX 83 133 76 134 77 135 81 136 84 137 78 138 79 139 82 140
REMARK SMILES IDX 80 141 59 142 60 143 68 144 61 145 62 146 66 147 69 148
REMARK SMILES IDX 63 149 64 150 67 151 65 152
REMARK H PARENT 18 2 18 3 16 6 17 7 15 9 15 10 14 12 14 13 12 16 13 17 11 19
REMARK H PARENT 11 20 9 23 10 24 8 26 8 27 6 30 7 31 5 33 5 34 3 37 4 38 2 40
REMARK H PARENT 2 41 1 43 1 44 1 45 20 48 20 49 23 53 24 55 24 56 25 58 25 59
REMARK H PARENT 26 61 26 62 27 64 27 65 28 67 28 68 29 70 29 71 30 74 34 80
REMARK H PARENT 95 82 35 84 94 85 93 95 87 97 89 99 92 101 86 102 54 111
REMARK H PARENT 57 113 90 116 55 117 91 119
REMARK Flexibility Score: inf
ROOT
ATOM      1  C   UNL A   1      40.695  26.847  29.012  1.00  0.00     0.065 C 
ATOM      2  H   UNL A   1      39.798  26.963  28.440  1.00  0.00     0.061 H 
ATOM      3  H   UNL A   1      40.591  26.027  29.691  1.00  0.00     0.061 H 
ENDROOT
BRANCH   1   4
ATOM      4  C   UNL A   1      40.947  28.099  29.793  1.00  0.00    -0.063 C 
ATOM      5  C   UNL A   1      40.196  28.463  30.844  1.00  0.00    -0.086 C 
ATOM      6  H   UNL A   1      39.498  27.787  31.193  1.00  0.00     0.057 H 
ATOM      7  H   UNL A   1      41.731  28.707  29.512  1.00  0.00     0.060 H 
BRANCH   5   8
ATOM      8  C   UNL A   1      40.301  29.787  31.547  1.00  0.00    -0.032 C 
ATOM      9  H   UNL A   1      39.344  30.037  31.955  1.00  0.00     0.031 H 
ATOM     10  H   UNL A   1      41.039  29.693  32.314  1.00  0.00     0.031 H 
BRANCH   8  11
ATOM     11  C   UNL A   1      40.746  30.915  30.601  1.00  0.00    -0.032 C 
ATOM     12  H   UNL A   1      41.793  31.083  30.740  1.00  0.00     0.031 H 
ATOM     13  H   UNL A   1      40.520  30.605  29.603  1.00  0.00     0.031 H 
BRANCH  11  14
ATOM     14  C   UNL A   1      40.017  32.210  30.846  1.00  0.00    -0.088 C 
ATOM     15  C   UNL A   1      39.755  33.122  29.899  1.00  0.00    -0.085 C 
ATOM     16  H   UNL A   1      40.035  32.911  28.928  1.00  0.00     0.058 H 
ATOM     17  H   UNL A   1      39.697  32.407  31.808  1.00  0.00     0.057 H 
BRANCH  15  18
ATOM     18  C   UNL A   1      39.077  34.435  30.171  1.00  0.00    -0.017 C 
ATOM     19  H   UNL A   1      39.751  35.079  30.696  1.00  0.00     0.035 H 
ATOM     20  H   UNL A   1      38.796  34.881  29.240  1.00  0.00     0.035 H 
BRANCH  18  21
ATOM     21  C   UNL A   1      37.845  34.224  31.003  1.00  0.00    -0.084 C 
ATOM     22  C   UNL A   1      37.801  34.380  32.336  1.00  0.00    -0.084 C 
ATOM     23  H   UNL A   1      38.659  34.699  32.813  1.00  0.00     0.058 H 
ATOM     24  H   UNL A   1      36.978  33.939  30.520  1.00  0.00     0.058 H 
BRANCH  22  25
ATOM     25  C   UNL A   1      36.584  34.123  33.176  1.00  0.00    -0.017 C 
ATOM     26  H   UNL A   1      36.770  34.451  34.177  1.00  0.00     0.035 H 
ATOM     27  H   UNL A   1      35.757  34.658  32.759  1.00  0.00     0.035 H 
BRANCH  25  28
ATOM     28  C   UNL A   1      36.256  32.656  33.190  1.00  0.00    -0.084 C 
ATOM     29  C   UNL A   1      37.121  31.688  32.850  1.00  0.00    -0.084 C 
ATOM     30  H   UNL A   1      38.078  31.966  32.582  1.00  0.00     0.058 H 
ATOM     31  H   UNL A   1      35.305  32.376  33.478  1.00  0.00     0.058 H 
BRANCH  29  32
ATOM     32  C   UNL A   1      36.785  30.224  32.835  1.00  0.00    -0.017 C 
ATOM     33  H   UNL A   1      37.561  29.682  33.332  1.00  0.00     0.035 H 
ATOM     34  H   UNL A   1      35.851  30.082  33.338  1.00  0.00     0.035 H 
BRANCH  32  35
ATOM     35  C   UNL A   1      36.656  29.721  31.427  1.00  0.00    -0.085 C 
ATOM     36  C   UNL A   1      36.893  30.468  30.336  1.00  0.00    -0.089 C 
ATOM     37  H   UNL A   1      37.191  31.447  30.473  1.00  0.00     0.057 H 
ATOM     38  H   UNL A   1      36.367  28.741  31.287  1.00  0.00     0.058 H 
BRANCH  36  39
ATOM     39  C   UNL A   1      36.750  29.965  28.929  1.00  0.00    -0.038 C 
ATOM     40  H   UNL A   1      36.397  28.955  28.954  1.00  0.00     0.031 H 
ATOM     41  H   UNL A   1      36.055  30.595  28.413  1.00  0.00     0.031 H 
BRANCH  39  42
ATOM     42  C   UNL A   1      38.080  30.009  28.191  1.00  0.00    -0.062 C 
ATOM     43  H   UNL A   1      38.595  29.081  28.331  1.00  0.00     0.023 H 
ATOM     44  H   UNL A   1      38.675  30.809  28.576  1.00  0.00     0.023 H 
ATOM     45  H   UNL A   1      37.903  30.164  27.147  1.00  0.00     0.023 H 
ENDBRANCH  39  42
ENDBRANCH  36  39
ENDBRANCH  32  35
ENDBRANCH  29  32
ENDBRANCH  25  28
ENDBRANCH  22  25
ENDBRANCH  18  21
ENDBRANCH  15  18
ENDBRANCH  11  14
ENDBRANCH   8  11
ENDBRANCH   5   8
ENDBRANCH   1   4
BRANCH   1  46
ATOM     46  O   UNL A   1      41.788  26.589  28.131  1.00  0.00    -0.368 OA
BRANCH  46  47
ATOM     47  C   UNL A   1      41.403  26.364  26.779  1.00  0.00     0.126 C 
ATOM     48  H   UNL A   1      42.270  26.513  26.170  1.00  0.00     0.067 H 
ATOM     49  H   UNL A   1      40.599  27.050  26.607  1.00  0.00     0.067 H 
BRANCH  47  50
ATOM     50  C   UNL A   1      40.824  24.988  26.428  1.00  0.00     0.246 C 
ATOM     51  O   UNL A   1      39.612  24.783  26.356  1.00  0.00    -0.272 OA
ATOM     52  N   UNL A   1      41.685  23.963  26.160  1.00  0.00    -0.354 N 
ATOM     53  H   UNL A   1      41.272  23.120  25.861  1.00  0.00     0.163 HD
BRANCH  52  54
ATOM     54  C   UNL A   1      43.131  23.961  26.260  1.00  0.00     0.017 C 
ATOM     55  H   UNL A   1      43.456  22.999  26.592  1.00  0.00     0.049 H 
ATOM     56  H   UNL A   1      43.422  24.720  26.957  1.00  0.00     0.049 H 
BRANCH  54  57
ATOM     57  C   UNL A   1      43.779  24.269  24.911  1.00  0.00    -0.036 C 
ATOM     58  H   UNL A   1      44.295  25.203  24.993  1.00  0.00     0.028 H 
ATOM     59  H   UNL A   1      42.989  24.294  24.190  1.00  0.00     0.028 H 
BRANCH  57  60
ATOM     60  C   UNL A   1      44.778  23.206  24.434  1.00  0.00    -0.052 C 
ATOM     61  H   UNL A   1      44.477  22.885  23.458  1.00  0.00     0.027 H 
ATOM     62  H   UNL A   1      44.755  22.426  25.166  1.00  0.00     0.027 H 
BRANCH  60  63
ATOM     63  C   UNL A   1      46.236  23.671  24.353  1.00  0.00    -0.052 C 
ATOM     64  H   UNL A   1      46.347  24.260  23.466  1.00  0.00     0.027 H 
ATOM     65  H   UNL A   1      46.832  22.782  24.350  1.00  0.00     0.027 H 
BRANCH  63  66
ATOM     66  C   UNL A   1      46.717  24.506  25.541  1.00  0.00    -0.036 C 
ATOM     67  H   UNL A   1      46.895  23.844  26.363  1.00  0.00     0.028 H 
ATOM     68  H   UNL A   1      45.949  25.223  25.737  1.00  0.00     0.028 H 
BRANCH  66  69
ATOM     69  C   UNL A   1      47.995  25.300  25.285  1.00  0.00     0.018 C 
ATOM     70  H   UNL A   1      48.767  24.623  24.985  1.00  0.00     0.049 H 
ATOM     71  H   UNL A   1      48.252  25.808  26.192  1.00  0.00     0.049 H 
BRANCH  69  72
ATOM     72  N   UNL A   1      47.822  26.304  24.247  1.00  0.00    -0.352 N 
ATOM     73  C   UNL A   1      47.084  27.461  24.260  1.00  0.00     0.251 C 
ATOM     74  H   UNL A   1      48.308  26.126  23.409  1.00  0.00     0.163 HD
ATOM     75  O   UNL A   1      46.907  28.093  23.221  1.00  0.00    -0.269 OA
BRANCH  73  76
ATOM     76  C   UNL A   1      46.474  27.936  25.520  1.00  0.00     0.039 A 
ATOM     77  C   UNL A   1      47.297  28.510  26.491  1.00  0.00    -0.049 A 
ATOM     78  C   UNL A   1      45.099  27.825  25.741  1.00  0.00    -0.049 A 
ATOM     79  C   UNL A   1      46.731  29.047  27.649  1.00  0.00    -0.053 A 
ATOM     80  H   UNL A   1      48.320  28.536  26.354  1.00  0.00     0.063 H 
ATOM     81  C   UNL A   1      44.527  28.424  26.862  1.00  0.00    -0.053 A 
ATOM     82  H   UNL A   1      44.508  27.301  25.077  1.00  0.00     0.063 H 
ATOM     83  C   UNL A   1      45.336  29.053  27.821  1.00  0.00    -0.014 A 
ATOM     84  H   UNL A   1      47.340  29.442  28.383  1.00  0.00     0.063 H 
ATOM     85  H   UNL A   1      43.503  28.405  26.988  1.00  0.00     0.063 H 
BRANCH  83  86
ATOM     86  C   UNL A   1      44.709  29.760  28.968  1.00  0.00     0.031 A 
ATOM     87  C   UNL A   1      44.445  31.238  28.906  1.00  0.00     0.074 A 
ATOM     88  C   UNL A   1      44.443  29.073  30.097  1.00  0.00     0.049 A 
ATOM     89  N   UNL A   1      43.968  32.031  29.833  1.00  0.00    -0.248 NA
ATOM     90  C   UNL A   1      44.780  31.919  27.647  1.00  0.00    -0.034 C 
ATOM     91  C   UNL A   1      44.700  27.645  30.297  1.00  0.00    -0.036 A 
ATOM     92  N   UNL A   1      43.912  29.484  31.295  1.00  0.00    -0.354 N 
ATOM     93  C   UNL A   1      43.954  33.302  29.274  1.00  0.00     0.074 A 
ATOM     94  C   UNL A   1      44.514  33.184  27.943  1.00  0.00    -0.034 C 
ATOM     95  H   UNL A   1      45.130  31.518  26.763  1.00  0.00     0.065 H 
ATOM     96  C   UNL A   1      44.311  27.296  31.533  1.00  0.00    -0.036 A 
ATOM     97  H   UNL A   1      45.115  27.009  29.599  1.00  0.00     0.065 H 
ATOM     98  C   UNL A   1      43.821  28.481  32.230  1.00  0.00     0.049 A 
ATOM     99  H   UNL A   1      43.624  30.409  31.467  1.00  0.00     0.167 HD
ATOM    100  C   UNL A   1      43.497  34.456  29.815  1.00  0.00     0.037 A 
ATOM    101  H   UNL A   1      44.684  33.980  27.310  1.00  0.00     0.065 H 
ATOM    102  H   UNL A   1      44.351  26.343  31.926  1.00  0.00     0.065 H 
ATOM    103  C   UNL A   1      43.407  28.515  33.511  1.00  0.00     0.037 A 
ATOM    104  C   UNL A   1      42.926  34.565  31.133  1.00  0.00     0.049 A 
ATOM    105  C   UNL A   1      42.928  29.818  34.093  1.00  0.00     0.074 A 
ATOM    106  C   UNL A   1      42.373  35.678  31.742  1.00  0.00    -0.036 A 
ATOM    107  N   UNL A   1      42.846  33.526  32.050  1.00  0.00    -0.354 N 
ATOM    108  N   UNL A   1      42.843  30.995  33.525  1.00  0.00    -0.248 NA
ATOM    109  C   UNL A   1      42.488  29.795  35.494  1.00  0.00    -0.034 C 
ATOM    110  C   UNL A   1      42.015  35.330  33.048  1.00  0.00    -0.036 A 
ATOM    111  H   UNL A   1      42.246  36.605  31.308  1.00  0.00     0.065 H 
ATOM    112  C   UNL A   1      42.287  33.983  33.233  1.00  0.00     0.049 A 
ATOM    113  H   UNL A   1      43.142  32.602  31.884  1.00  0.00     0.167 HD
ATOM    114  C   UNL A   1      42.317  31.847  34.488  1.00  0.00     0.074 A 
ATOM    115  C   UNL A   1      42.082  31.044  35.669  1.00  0.00    -0.034 C 
ATOM    116  H   UNL A   1      42.492  29.011  36.166  1.00  0.00     0.065 H 
ATOM    117  H   UNL A   1      41.617  35.967  33.756  1.00  0.00     0.065 H 
ATOM    118  C   UNL A   1      42.057  33.174  34.403  1.00  0.00     0.037 A 
ATOM    119  H   UNL A   1      41.651  31.400  36.538  1.00  0.00     0.065 H 
BRANCH 100 120
ATOM    120  C   UNL A   1      43.593  35.706  28.987  1.00  0.00     0.064 A 
ATOM    121  C   UNL A   1      44.756  36.491  28.970  1.00  0.00     0.173 A 
ATOM    122  C   UNL A   1      42.534  36.087  28.149  1.00  0.00     0.173 A 
ATOM    123  F   UNL A   1      45.795  36.177  29.758  1.00  0.00    -0.203 F 
ATOM    124  C   UNL A   1      44.846  37.622  28.162  1.00  0.00     0.198 A 
ATOM    125  C   UNL A   1      42.639  37.200  27.319  1.00  0.00     0.198 A 
ATOM    126  F   UNL A   1      41.402  35.367  28.121  1.00  0.00    -0.203 F 
ATOM    127  F   UNL A   1      45.952  38.379  28.191  1.00  0.00    -0.200 F 
ATOM    128  C   UNL A   1      43.792  37.969  27.330  1.00  0.00     0.200 A 
ATOM    129  F   UNL A   1      41.626  37.523  26.504  1.00  0.00    -0.200 F 
ATOM    130  F   UNL A   1      43.886  39.048  26.541  1.00  0.00    -0.200 F 
ENDBRANCH 100 120
BRANCH 103 131
ATOM    131  C   UNL A   1      43.428  27.276  34.335  1.00  0.00     0.064 A 
ATOM    132  C   UNL A   1      44.618  26.809  34.909  1.00  0.00     0.173 A 
ATOM    133  C   UNL A   1      42.263  26.522  34.546  1.00  0.00     0.173 A 
ATOM    134  F   UNL A   1      45.762  27.482  34.719  1.00  0.00    -0.203 F 
ATOM    135  C   UNL A   1      44.649  25.622  35.639  1.00  0.00     0.198 A 
ATOM    136  C   UNL A   1      42.289  25.354  35.305  1.00  0.00     0.198 A 
ATOM    137  F   UNL A   1      41.096  26.927  34.022  1.00  0.00    -0.203 F 
ATOM    138  F   UNL A   1      45.811  25.169  36.128  1.00  0.00    -0.200 F 
ATOM    139  C   UNL A   1      43.483  24.898  35.841  1.00  0.00     0.200 A 
ATOM    140  F   UNL A   1      41.156  24.668  35.511  1.00  0.00    -0.200 F 
ATOM    141  F   UNL A   1      43.513  23.758  36.543  1.00  0.00    -0.200 F 
ENDBRANCH 103 131
BRANCH 118 142
ATOM    142  C   UNL A   1      41.465  33.839  35.613  1.00  0.00     0.064 A 
ATOM    143  C   UNL A   1      42.258  34.557  36.520  1.00  0.00     0.173 A 
ATOM    144  C   UNL A   1      40.082  33.788  35.847  1.00  0.00     0.173 A 
ATOM    145  F   UNL A   1      43.587  34.623  36.351  1.00  0.00    -0.203 F 
ATOM    146  C   UNL A   1      41.692  35.176  37.632  1.00  0.00     0.198 A 
ATOM    147  C   UNL A   1      39.516  34.437  36.941  1.00  0.00     0.198 A 
ATOM    148  F   UNL A   1      39.277  33.121  35.008  1.00  0.00    -0.203 F 
ATOM    149  F   UNL A   1      42.477  35.811  38.515  1.00  0.00    -0.200 F 
ATOM    150  C   UNL A   1      40.322  35.122  37.838  1.00  0.00     0.200 A 
ATOM    151  F   UNL A   1      38.189  34.398  37.128  1.00  0.00    -0.200 F 
ATOM    152  F   UNL A   1      39.777  35.725  38.903  1.00  0.00    -0.200 F 
ENDBRANCH 118 142
ENDBRANCH  83  86
ENDBRANCH  73  76
ENDBRANCH  69  72
ENDBRANCH  66  69
ENDBRANCH  63  66
ENDBRANCH  60  63
ENDBRANCH  57  60
ENDBRANCH  54  57
ENDBRANCH  52  54
ENDBRANCH  47  50
ENDBRANCH  46  47
ENDBRANCH   1  46
TORSDOF 27
ENDMDL
MODEL 4
REMARK VINA RESULT:      -8.8      5.981     11.815
REMARK SMILES CC/C=C/C/C=C/C/C=C/C/C=C/CC/C=C/COCC(=O)NCCCCCCNC(=O)c1ccc(-c2c3nc(c(-c4c(F)c(F)c(F)c(F)c4F)c4ccc([nH]4)c(-c4c(F)c(F)c(F)c(F)c4F)c4nc(c(-c5c(F)c(F)c(F)c(F)c5F)c5ccc2[nH]5)C=C4)C=C3)cc1
REMARK SMILES IDX 18 1 17 4 16 5 15 8 14 11 13 14 12 15 11 18 10 21 9 22 8 25
REMARK SMILES IDX 7 28 6 29 5 32 4 35 3 36 2 39 1 42 19 46 20 47 21 50 22 51
REMARK SMILES IDX 23 52 24 54 25 57 26 60 27 63 28 66 29 69 30 72 31 73 32 75
REMARK SMILES IDX 33 76 34 77 95 78 35 79 94 81 36 83 37 86 38 87 88 88 39 89
REMARK SMILES IDX 93 90 87 91 89 92 40 93 92 94 86 96 85 98 41 100 73 103
REMARK SMILES IDX 53 104 72 105 54 106 57 107 71 108 90 109 55 110 56 112
REMARK SMILES IDX 70 114 91 115 58 118 42 120 43 121 51 122 44 123 45 124
REMARK SMILES IDX 49 125 52 126 46 127 47 128 50 129 48 130 74 131 75 132
REMARK SMILES IDX 83 133 76 134 77 135 81 136 84 137 78 138 79 139 82 140
REMARK SMILES IDX 80 141 59 142 60 143 68 144 61 145 62 146 66 147 69 148
REMARK SMILES IDX 63 149 64 150 67 151 65 152
REMARK H PARENT 18 2 18 3 16 6 17 7 15 9 15 10 14 12 14 13 12 16 13 17 11 19
REMARK H PARENT 11 20 9 23 10 24 8 26 8 27 6 30 7 31 5 33 5 34 3 37 4 38 2 40
REMARK H PARENT 2 41 1 43 1 44 1 45 20 48 20 49 23 53 24 55 24 56 25 58 25 59
REMARK H PARENT 26 61 26 62 27 64 27 65 28 67 28 68 29 70 29 71 30 74 34 80
REMARK H PARENT 95 82 35 84 94 85 93 95 87 97 89 99 92 101 86 102 54 111
REMARK H PARENT 57 113 90 116 55 117 91 119
REMARK Flexibility Score: inf
ROOT
ATOM      1  C   UNL A   1      31.562  24.392  26.255  1.00  0.00     0.065 C 
ATOM      2  H   UNL A   1      31.181  23.419  26.024  1.00  0.00     0.061 H 
ATOM      3  H   UNL A   1      31.515  24.561  27.310  1.00  0.00     0.061 H 
ENDROOT
BRANCH   1   4
ATOM      4  C   UNL A   1      30.734  25.425  25.557  1.00  0.00    -0.063 C 
ATOM      5  C   UNL A   1      31.216  26.197  24.571  1.00  0.00    -0.086 C 
ATOM      6  H   UNL A   1      32.157  25.979  24.207  1.00  0.00     0.057 H 
ATOM      7  H   UNL A   1      29.752  25.547  25.845  1.00  0.00     0.060 H 
BRANCH   5   8
ATOM      8  C   UNL A   1      30.481  27.358  23.964  1.00  0.00    -0.032 C 
ATOM      9  H   UNL A   1      30.247  27.124  22.946  1.00  0.00     0.031 H 
ATOM     10  H   UNL A   1      29.594  27.522  24.539  1.00  0.00     0.031 H 
BRANCH   8  11
ATOM     11  C   UNL A   1      31.308  28.654  23.996  1.00  0.00    -0.032 C 
ATOM     12  H   UNL A   1      32.238  28.478  23.496  1.00  0.00     0.031 H 
ATOM     13  H   UNL A   1      30.732  29.415  23.512  1.00  0.00     0.031 H 
BRANCH  11  14
ATOM     14  C   UNL A   1      31.600  29.132  25.394  1.00  0.00    -0.088 C 
ATOM     15  C   UNL A   1      32.815  29.492  25.833  1.00  0.00    -0.085 C 
ATOM     16  H   UNL A   1      33.599  29.480  25.162  1.00  0.00     0.058 H 
ATOM     17  H   UNL A   1      30.811  29.186  26.058  1.00  0.00     0.057 H 
BRANCH  15  18
ATOM     18  C   UNL A   1      33.099  29.911  27.247  1.00  0.00    -0.017 C 
ATOM     19  H   UNL A   1      32.217  30.342  27.672  1.00  0.00     0.035 H 
ATOM     20  H   UNL A   1      33.396  29.053  27.812  1.00  0.00     0.035 H 
BRANCH  18  21
ATOM     21  C   UNL A   1      34.208  30.924  27.278  1.00  0.00    -0.084 C 
ATOM     22  C   UNL A   1      34.423  31.774  28.295  1.00  0.00    -0.084 C 
ATOM     23  H   UNL A   1      33.810  31.703  29.122  1.00  0.00     0.058 H 
ATOM     24  H   UNL A   1      34.844  30.970  26.466  1.00  0.00     0.058 H 
BRANCH  22  25
ATOM     25  C   UNL A   1      35.500  32.819  28.307  1.00  0.00    -0.017 C 
ATOM     26  H   UNL A   1      36.109  32.688  29.177  1.00  0.00     0.035 H 
ATOM     27  H   UNL A   1      36.093  32.715  27.422  1.00  0.00     0.035 H 
BRANCH  25  28
ATOM     28  C   UNL A   1      34.897  34.195  28.329  1.00  0.00    -0.084 C 
ATOM     29  C   UNL A   1      33.659  34.468  28.772  1.00  0.00    -0.084 C 
ATOM     30  H   UNL A   1      33.094  33.686  29.139  1.00  0.00     0.058 H 
ATOM     31  H   UNL A   1      35.470  34.980  27.981  1.00  0.00     0.058 H 
BRANCH  29  32
ATOM     32  C   UNL A   1      33.044  35.838  28.766  1.00  0.00    -0.017 C 
ATOM     33  H   UNL A   1      33.570  36.455  28.069  1.00  0.00     0.035 H 
ATOM     34  H   UNL A   1      32.016  35.750  28.484  1.00  0.00     0.035 H 
BRANCH  32  35
ATOM     35  C   UNL A   1      33.119  36.461  30.130  1.00  0.00    -0.085 C 
ATOM     36  C   UNL A   1      32.940  35.786  31.277  1.00  0.00    -0.089 C 
ATOM     37  H   UNL A   1      32.748  34.773  31.219  1.00  0.00     0.057 H 
ATOM     38  H   UNL A   1      33.320  37.471  30.191  1.00  0.00     0.058 H 
BRANCH  36  39
ATOM     39  C   UNL A   1      33.004  36.415  32.639  1.00  0.00    -0.038 C 
ATOM     40  H   UNL A   1      32.024  36.743  32.917  1.00  0.00     0.031 H 
ATOM     41  H   UNL A   1      33.369  35.686  33.331  1.00  0.00     0.031 H 
BRANCH  39  42
ATOM     42  C   UNL A   1      33.949  37.607  32.651  1.00  0.00    -0.062 C 
ATOM     43  H   UNL A   1      33.484  38.435  32.157  1.00  0.00     0.023 H 
ATOM     44  H   UNL A   1      34.853  37.350  32.141  1.00  0.00     0.023 H 
ATOM     45  H   UNL A   1      34.171  37.875  33.662  1.00  0.00     0.023 H 
ENDBRANCH  39  42
ENDBRANCH  36  39
ENDBRANCH  32  35
ENDBRANCH  29  32
ENDBRANCH  25  28
ENDBRANCH  22  25
ENDBRANCH  18  21
ENDBRANCH  15  18
ENDBRANCH  11  14
ENDBRANCH   8  11
ENDBRANCH   5   8
ENDBRANCH   1   4
BRANCH   1  46
ATOM     46  O   UNL A   1      32.921  24.480  25.828  1.00  0.00    -0.368 OA
BRANCH  46  47
ATOM     47  C   UNL A   1      33.558  23.218  25.654  1.00  0.00     0.126 C 
ATOM     48  H   UNL A   1      34.244  23.314  24.838  1.00  0.00     0.067 H 
ATOM     49  H   UNL A   1      32.756  22.527  25.499  1.00  0.00     0.067 H 
BRANCH  47  50
ATOM     50  C   UNL A   1      34.338  22.649  26.846  1.00  0.00     0.246 C 
ATOM     51  O   UNL A   1      33.777  22.232  27.860  1.00  0.00    -0.272 OA
ATOM     52  N   UNL A   1      35.699  22.578  26.766  1.00  0.00    -0.354 N 
ATOM     53  H   UNL A   1      36.152  22.133  27.519  1.00  0.00     0.163 HD
BRANCH  52  54
ATOM     54  C   UNL A   1      36.559  23.076  25.712  1.00  0.00     0.017 C 
ATOM     55  H   UNL A   1      36.328  24.105  25.531  1.00  0.00     0.049 H 
ATOM     56  H   UNL A   1      36.390  22.491  24.832  1.00  0.00     0.049 H 
BRANCH  54  57
ATOM     57  C   UNL A   1      38.032  22.956  26.098  1.00  0.00    -0.036 C 
ATOM     58  H   UNL A   1      38.111  23.065  27.159  1.00  0.00     0.028 H 
ATOM     59  H   UNL A   1      38.553  23.722  25.562  1.00  0.00     0.028 H 
BRANCH  57  60
ATOM     60  C   UNL A   1      38.681  21.623  25.701  1.00  0.00    -0.052 C 
ATOM     61  H   UNL A   1      38.797  21.615  24.637  1.00  0.00     0.027 H 
ATOM     62  H   UNL A   1      38.031  20.855  26.065  1.00  0.00     0.027 H 
BRANCH  60  63
ATOM     63  C   UNL A   1      40.053  21.352  26.329  1.00  0.00    -0.052 C 
ATOM     64  H   UNL A   1      39.981  21.549  27.379  1.00  0.00     0.027 H 
ATOM     65  H   UNL A   1      40.744  21.993  25.823  1.00  0.00     0.027 H 
BRANCH  63  66
ATOM     66  C   UNL A   1      40.579  19.927  26.148  1.00  0.00    -0.036 C 
ATOM     67  H   UNL A   1      40.546  19.689  25.105  1.00  0.00     0.028 H 
ATOM     68  H   UNL A   1      39.953  19.296  26.743  1.00  0.00     0.028 H 
BRANCH  66  69
ATOM     69  C   UNL A   1      42.006  19.707  26.642  1.00  0.00     0.018 C 
ATOM     70  H   UNL A   1      41.984  19.019  27.461  1.00  0.00     0.049 H 
ATOM     71  H   UNL A   1      42.399  20.657  26.940  1.00  0.00     0.049 H 
BRANCH  69  72
ATOM     72  N   UNL A   1      42.873  19.172  25.604  1.00  0.00    -0.352 N 
ATOM     73  C   UNL A   1      43.823  19.806  24.844  1.00  0.00     0.251 C 
ATOM     74  H   UNL A   1      42.761  18.211  25.420  1.00  0.00     0.163 HD
ATOM     75  O   UNL A   1      44.329  19.232  23.882  1.00  0.00    -0.269 OA
BRANCH  73  76
ATOM     76  C   UNL A   1      44.222  21.193  25.161  1.00  0.00     0.039 A 
ATOM     77  C   UNL A   1      43.804  22.223  24.316  1.00  0.00    -0.049 A 
ATOM     78  C   UNL A   1      44.997  21.481  26.287  1.00  0.00    -0.049 A 
ATOM     79  C   UNL A   1      44.091  23.549  24.645  1.00  0.00    -0.053 A 
ATOM     80  H   UNL A   1      43.283  22.006  23.451  1.00  0.00     0.063 H 
ATOM     81  C   UNL A   1      45.223  22.806  26.653  1.00  0.00    -0.053 A 
ATOM     82  H   UNL A   1      45.401  20.714  26.847  1.00  0.00     0.063 H 
ATOM     83  C   UNL A   1      44.761  23.855  25.842  1.00  0.00    -0.014 A 
ATOM     84  H   UNL A   1      43.812  24.310  24.006  1.00  0.00     0.063 H 
ATOM     85  H   UNL A   1      45.733  23.019  27.524  1.00  0.00     0.063 H 
BRANCH  83  86
ATOM     86  C   UNL A   1      44.935  25.263  26.284  1.00  0.00     0.031 A 
ATOM     87  C   UNL A   1      46.294  25.906  26.279  1.00  0.00     0.074 A 
ATOM     88  C   UNL A   1      43.871  25.939  26.760  1.00  0.00     0.049 A 
ATOM     89  N   UNL A   1      46.645  27.098  26.690  1.00  0.00    -0.248 NA
ATOM     90  C   UNL A   1      47.408  25.097  25.762  1.00  0.00    -0.034 C 
ATOM     91  C   UNL A   1      42.510  25.407  26.863  1.00  0.00    -0.036 A 
ATOM     92  N   UNL A   1      43.766  27.214  27.260  1.00  0.00    -0.354 N 
ATOM     93  C   UNL A   1      48.016  27.180  26.492  1.00  0.00     0.074 A 
ATOM     94  C   UNL A   1      48.443  25.900  25.967  1.00  0.00    -0.034 C 
ATOM     95  H   UNL A   1      47.390  24.152  25.348  1.00  0.00     0.065 H 
ATOM     96  C   UNL A   1      41.705  26.351  27.374  1.00  0.00    -0.036 A 
ATOM     97  H   UNL A   1      42.218  24.457  26.586  1.00  0.00     0.065 H 
ATOM     98  C   UNL A   1      42.498  27.537  27.680  1.00  0.00     0.049 A 
ATOM     99  H   UNL A   1      44.526  27.836  27.312  1.00  0.00     0.167 HD
ATOM    100  C   UNL A   1      48.839  28.233  26.711  1.00  0.00     0.037 A 
ATOM    101  H   UNL A   1      49.425  25.645  25.777  1.00  0.00     0.065 H 
ATOM    102  H   UNL A   1      40.689  26.253  27.527  1.00  0.00     0.065 H 
ATOM    103  C   UNL A   1      42.029  28.657  28.264  1.00  0.00     0.037 A 
ATOM    104  C   UNL A   1      48.407  29.509  27.218  1.00  0.00     0.049 A 
ATOM    105  C   UNL A   1      42.973  29.802  28.517  1.00  0.00     0.074 A 
ATOM    106  C   UNL A   1      49.154  30.659  27.408  1.00  0.00    -0.036 A 
ATOM    107  N   UNL A   1      47.114  29.802  27.628  1.00  0.00    -0.354 N 
ATOM    108  N   UNL A   1      44.252  29.895  28.247  1.00  0.00    -0.248 NA
ATOM    109  C   UNL A   1      42.407  30.999  29.155  1.00  0.00    -0.034 C 
ATOM    110  C   UNL A   1      48.330  31.626  27.991  1.00  0.00    -0.036 A 
ATOM    111  H   UNL A   1      50.149  30.781  27.162  1.00  0.00     0.065 H 
ATOM    112  C   UNL A   1      47.053  31.102  28.105  1.00  0.00     0.049 A 
ATOM    113  H   UNL A   1      46.353  29.178  27.586  1.00  0.00     0.167 HD
ATOM    114  C   UNL A   1      44.638  31.164  28.658  1.00  0.00     0.074 A 
ATOM    115  C   UNL A   1      43.451  31.814  29.174  1.00  0.00    -0.034 C 
ATOM    116  H   UNL A   1      41.447  31.162  29.497  1.00  0.00     0.065 H 
ATOM    117  H   UNL A   1      48.623  32.571  28.286  1.00  0.00     0.065 H 
ATOM    118  C   UNL A   1      45.865  31.738  28.616  1.00  0.00     0.037 A 
ATOM    119  H   UNL A   1      43.423  32.788  29.513  1.00  0.00     0.065 H 
BRANCH 100 120
ATOM    120  C   UNL A   1      50.300  28.058  26.405  1.00  0.00     0.064 A 
ATOM    121  C   UNL A   1      50.799  28.179  25.099  1.00  0.00     0.173 A 
ATOM    122  C   UNL A   1      51.220  27.831  27.440  1.00  0.00     0.173 A 
ATOM    123  F   UNL A   1      49.962  28.388  24.072  1.00  0.00    -0.203 F 
ATOM    124  C   UNL A   1      52.162  28.060  24.838  1.00  0.00     0.198 A 
ATOM    125  C   UNL A   1      52.586  27.744  27.179  1.00  0.00     0.198 A 
ATOM    126  F   UNL A   1      50.798  27.714  28.707  1.00  0.00    -0.203 F 
ATOM    127  F   UNL A   1      52.612  28.141  23.579  1.00  0.00    -0.200 F 
ATOM    128  C   UNL A   1      53.054  27.852  25.879  1.00  0.00     0.200 A 
ATOM    129  F   UNL A   1      53.447  27.560  28.189  1.00  0.00    -0.200 F 
ATOM    130  F   UNL A   1      54.367  27.754  25.630  1.00  0.00    -0.200 F 
ENDBRANCH 100 120
BRANCH 103 131
ATOM    131  C   UNL A   1      40.597  28.753  28.652  1.00  0.00     0.064 A 
ATOM    132  C   UNL A   1      39.627  29.193  27.740  1.00  0.00     0.173 A 
ATOM    133  C   UNL A   1      40.170  28.429  29.950  1.00  0.00     0.173 A 
ATOM    134  F   UNL A   1      39.988  29.534  26.494  1.00  0.00    -0.203 F 
ATOM    135  C   UNL A   1      38.293  29.331  28.117  1.00  0.00     0.198 A 
ATOM    136  C   UNL A   1      38.830  28.534  30.315  1.00  0.00     0.198 A 
ATOM    137  F   UNL A   1      41.056  27.998  30.860  1.00  0.00    -0.203 F 
ATOM    138  F   UNL A   1      37.398  29.808  27.242  1.00  0.00    -0.200 F 
ATOM    139  C   UNL A   1      37.894  28.996  29.402  1.00  0.00     0.200 A 
ATOM    140  F   UNL A   1      38.447  28.194  31.553  1.00  0.00    -0.200 F 
ATOM    141  F   UNL A   1      36.611  29.129  29.764  1.00  0.00    -0.200 F 
ENDBRANCH 103 131
BRANCH 118 142
ATOM    142  C   UNL A   1      45.983  33.149  29.121  1.00  0.00     0.064 A 
ATOM    143  C   UNL A   1      46.240  33.429  30.470  1.00  0.00     0.173 A 
ATOM    144  C   UNL A   1      45.875  34.231  28.234  1.00  0.00     0.173 A 
ATOM    145  F   UNL A   1      46.336  32.431  31.361  1.00  0.00    -0.203 F 
ATOM    146  C   UNL A   1      46.356  34.742  30.919  1.00  0.00     0.198 A 
ATOM    147  C   UNL A   1      46.026  35.541  28.681  1.00  0.00     0.198 A 
ATOM    148  F   UNL A   1      45.636  34.020  26.932  1.00  0.00    -0.203 F 
ATOM    149  F   UNL A   1      46.548  34.987  32.223  1.00  0.00    -0.200 F 
ATOM    150  C   UNL A   1      46.257  35.796  30.024  1.00  0.00     0.200 A 
ATOM    151  F   UNL A   1      45.947  36.558  27.810  1.00  0.00    -0.200 F 
ATOM    152  F   UNL A   1      46.378  37.059  30.456  1.00  0.00    -0.200 F 
ENDBRANCH 118 142
ENDBRANCH  83  86
ENDBRANCH  73  76
ENDBRANCH  69  72
ENDBRANCH  66  69
ENDBRANCH  63  66
ENDBRANCH  60  63
ENDBRANCH  57  60
ENDBRANCH  54  57
ENDBRANCH  52  54
ENDBRANCH  47  50
ENDBRANCH  46  47
ENDBRANCH   1  46
TORSDOF 27
ENDMDL
MODEL 5
REMARK VINA RESULT:      -8.5      6.328     12.326
REMARK SMILES CC/C=C/C/C=C/C/C=C/C/C=C/CC/C=C/COCC(=O)NCCCCCCNC(=O)c1ccc(-c2c3nc(c(-c4c(F)c(F)c(F)c(F)c4F)c4ccc([nH]4)c(-c4c(F)c(F)c(F)c(F)c4F)c4nc(c(-c5c(F)c(F)c(F)c(F)c5F)c5ccc2[nH]5)C=C4)C=C3)cc1
REMARK SMILES IDX 18 1 17 4 16 5 15 8 14 11 13 14 12 15 11 18 10 21 9 22 8 25
REMARK SMILES IDX 7 28 6 29 5 32 4 35 3 36 2 39 1 42 19 46 20 47 21 50 22 51
REMARK SMILES IDX 23 52 24 54 25 57 26 60 27 63 28 66 29 69 30 72 31 73 32 75
REMARK SMILES IDX 33 76 34 77 95 78 35 79 94 81 36 83 37 86 38 87 88 88 39 89
REMARK SMILES IDX 93 90 87 91 89 92 40 93 92 94 86 96 85 98 41 100 73 103
REMARK SMILES IDX 53 104 72 105 54 106 57 107 71 108 90 109 55 110 56 112
REMARK SMILES IDX 70 114 91 115 58 118 42 120 43 121 51 122 44 123 45 124
REMARK SMILES IDX 49 125 52 126 46 127 47 128 50 129 48 130 74 131 75 132
REMARK SMILES IDX 83 133 76 134 77 135 81 136 84 137 78 138 79 139 82 140
REMARK SMILES IDX 80 141 59 142 60 143 68 144 61 145 62 146 66 147 69 148
REMARK SMILES IDX 63 149 64 150 67 151 65 152
REMARK H PARENT 18 2 18 3 16 6 17 7 15 9 15 10 14 12 14 13 12 16 13 17 11 19
REMARK H PARENT 11 20 9 23 10 24 8 26 8 27 6 30 7 31 5 33 5 34 3 37 4 38 2 40
REMARK H PARENT 2 41 1 43 1 44 1 45 20 48 20 49 23 53 24 55 24 56 25 58 25 59
REMARK H PARENT 26 61 26 62 27 64 27 65 28 67 28 68 29 70 29 71 30 74 34 80
REMARK H PARENT 95 82 35 84 94 85 93 95 87 97 89 99 92 101 86 102 54 111
REMARK H PARENT 57 113 90 116 55 117 91 119
REMARK Flexibility Score: inf
ROOT
ATOM      1  C   UNL A   1      31.616  23.642  26.498  1.00  0.00     0.065 C 
ATOM      2  H   UNL A   1      31.098  22.707  26.549  1.00  0.00     0.061 H 
ATOM      3  H   UNL A   1      31.888  23.962  27.483  1.00  0.00     0.061 H 
ENDROOT
BRANCH   1   4
ATOM      4  C   UNL A   1      30.721  24.670  25.881  1.00  0.00    -0.063 C 
ATOM      5  C   UNL A   1      31.178  25.645  25.080  1.00  0.00    -0.086 C 
ATOM      6  H   UNL A   1      32.167  25.602  24.788  1.00  0.00     0.057 H 
ATOM      7  H   UNL A   1      29.710  24.627  26.080  1.00  0.00     0.060 H 
BRANCH   5   8
ATOM      8  C   UNL A   1      30.349  26.794  24.581  1.00  0.00    -0.032 C 
ATOM      9  H   UNL A   1      30.058  26.595  23.570  1.00  0.00     0.031 H 
ATOM     10  H   UNL A   1      29.497  26.886  25.221  1.00  0.00     0.031 H 
BRANCH   8  11
ATOM     11  C   UNL A   1      31.115  28.127  24.622  1.00  0.00    -0.032 C 
ATOM     12  H   UNL A   1      31.817  28.142  23.815  1.00  0.00     0.031 H 
ATOM     13  H   UNL A   1      30.395  28.914  24.539  1.00  0.00     0.031 H 
BRANCH  11  14
ATOM     14  C   UNL A   1      31.864  28.336  25.912  1.00  0.00    -0.088 C 
ATOM     15  C   UNL A   1      33.068  28.918  26.002  1.00  0.00    -0.085 C 
ATOM     16  H   UNL A   1      33.499  29.284  25.139  1.00  0.00     0.058 H 
ATOM     17  H   UNL A   1      31.419  28.009  26.784  1.00  0.00     0.057 H 
BRANCH  15  18
ATOM     18  C   UNL A   1      33.827  29.067  27.290  1.00  0.00    -0.017 C 
ATOM     19  H   UNL A   1      33.134  29.180  28.097  1.00  0.00     0.035 H 
ATOM     20  H   UNL A   1      34.428  28.195  27.443  1.00  0.00     0.035 H 
BRANCH  18  21
ATOM     21  C   UNL A   1      34.720  30.273  27.233  1.00  0.00    -0.084 C 
ATOM     22  C   UNL A   1      34.665  31.293  28.104  1.00  0.00    -0.084 C 
ATOM     23  H   UNL A   1      33.990  31.227  28.882  1.00  0.00     0.058 H 
ATOM     24  H   UNL A   1      35.420  30.321  26.475  1.00  0.00     0.058 H 
BRANCH  22  25
ATOM     25  C   UNL A   1      35.523  32.521  28.021  1.00  0.00    -0.017 C 
ATOM     26  H   UNL A   1      35.685  32.769  26.993  1.00  0.00     0.035 H 
ATOM     27  H   UNL A   1      35.025  33.326  28.522  1.00  0.00     0.035 H 
BRANCH  25  28
ATOM     28  C   UNL A   1      36.849  32.282  28.686  1.00  0.00    -0.084 C 
ATOM     29  C   UNL A   1      37.350  33.053  29.665  1.00  0.00    -0.084 C 
ATOM     30  H   UNL A   1      36.781  33.848  29.994  1.00  0.00     0.058 H 
ATOM     31  H   UNL A   1      37.410  31.475  28.371  1.00  0.00     0.058 H 
BRANCH  29  32
ATOM     32  C   UNL A   1      38.688  32.832  30.311  1.00  0.00    -0.017 C 
ATOM     33  H   UNL A   1      38.591  32.955  31.368  1.00  0.00     0.035 H 
ATOM     34  H   UNL A   1      39.020  31.841  30.079  1.00  0.00     0.035 H 
BRANCH  32  35
ATOM     35  C   UNL A   1      39.699  33.812  29.790  1.00  0.00    -0.085 C 
ATOM     36  C   UNL A   1      40.965  33.895  30.232  1.00  0.00    -0.089 C 
ATOM     37  H   UNL A   1      41.265  33.239  30.969  1.00  0.00     0.057 H 
ATOM     38  H   UNL A   1      39.404  34.463  29.046  1.00  0.00     0.058 H 
BRANCH  36  39
ATOM     39  C   UNL A   1      41.969  34.886  29.716  1.00  0.00    -0.038 C 
ATOM     40  H   UNL A   1      42.220  35.568  30.502  1.00  0.00     0.031 H 
ATOM     41  H   UNL A   1      42.835  34.350  29.391  1.00  0.00     0.031 H 
BRANCH  39  42
ATOM     42  C   UNL A   1      41.414  35.669  28.537  1.00  0.00    -0.062 C 
ATOM     43  H   UNL A   1      40.635  35.104  28.069  1.00  0.00     0.023 H 
ATOM     44  H   UNL A   1      42.195  35.851  27.830  1.00  0.00     0.023 H 
ATOM     45  H   UNL A   1      41.019  36.602  28.881  1.00  0.00     0.023 H 
ENDBRANCH  39  42
ENDBRANCH  36  39
ENDBRANCH  32  35
ENDBRANCH  29  32
ENDBRANCH  25  28
ENDBRANCH  22  25
ENDBRANCH  18  21
ENDBRANCH  15  18
ENDBRANCH  11  14
ENDBRANCH   8  11
ENDBRANCH   5   8
ENDBRANCH   1   4
BRANCH   1  46
ATOM     46  O   UNL A   1      32.799  23.486  25.715  1.00  0.00    -0.368 OA
BRANCH  46  47
ATOM     47  C   UNL A   1      33.298  22.152  25.677  1.00  0.00     0.126 C 
ATOM     48  H   UNL A   1      33.737  22.001  24.713  1.00  0.00     0.067 H 
ATOM     49  H   UNL A   1      32.449  21.537  25.895  1.00  0.00     0.067 H 
BRANCH  47  50
ATOM     50  C   UNL A   1      34.345  21.759  26.726  1.00  0.00     0.246 C 
ATOM     51  O   UNL A   1      34.088  21.721  27.929  1.00  0.00    -0.272 OA
ATOM     52  N   UNL A   1      35.597  21.412  26.306  1.00  0.00    -0.354 N 
ATOM     53  H   UNL A   1      36.212  21.089  27.004  1.00  0.00     0.163 HD
BRANCH  52  54
ATOM     54  C   UNL A   1      36.132  21.460  24.960  1.00  0.00     0.017 C 
ATOM     55  H   UNL A   1      35.690  22.282  24.438  1.00  0.00     0.049 H 
ATOM     56  H   UNL A   1      35.904  20.535  24.472  1.00  0.00     0.049 H 
BRANCH  54  57
ATOM     57  C   UNL A   1      37.650  21.636  24.976  1.00  0.00    -0.036 C 
ATOM     58  H   UNL A   1      37.896  22.359  25.726  1.00  0.00     0.028 H 
ATOM     59  H   UNL A   1      37.933  21.948  23.992  1.00  0.00     0.028 H 
BRANCH  57  60
ATOM     60  C   UNL A   1      38.432  20.349  25.271  1.00  0.00    -0.052 C 
ATOM     61  H   UNL A   1      38.600  19.844  24.343  1.00  0.00     0.027 H 
ATOM     62  H   UNL A   1      37.834  19.790  25.960  1.00  0.00     0.027 H 
BRANCH  60  63
ATOM     63  C   UNL A   1      39.789  20.553  25.954  1.00  0.00    -0.052 C 
ATOM     64  H   UNL A   1      39.614  20.723  26.996  1.00  0.00     0.027 H 
ATOM     65  H   UNL A   1      40.251  21.381  25.459  1.00  0.00     0.027 H 
BRANCH  63  66
ATOM     66  C   UNL A   1      40.763  19.379  25.822  1.00  0.00    -0.036 C 
ATOM     67  H   UNL A   1      40.751  19.049  24.805  1.00  0.00     0.028 H 
ATOM     68  H   UNL A   1      40.430  18.632  26.511  1.00  0.00     0.028 H 
BRANCH  66  69
ATOM     69  C   UNL A   1      42.205  19.703  26.200  1.00  0.00     0.018 C 
ATOM     70  H   UNL A   1      42.397  19.323  27.182  1.00  0.00     0.049 H 
ATOM     71  H   UNL A   1      42.321  20.767  26.165  1.00  0.00     0.049 H 
BRANCH  69  72
ATOM     72  N   UNL A   1      43.164  19.119  25.275  1.00  0.00    -0.352 N 
ATOM     73  C   UNL A   1      44.208  19.708  24.609  1.00  0.00     0.251 C 
ATOM     74  H   UNL A   1      43.044  18.157  25.102  1.00  0.00     0.163 HD
ATOM     75  O   UNL A   1      44.798  19.096  23.721  1.00  0.00    -0.269 OA
BRANCH  73  76
ATOM     76  C   UNL A   1      44.611  21.092  24.936  1.00  0.00     0.039 A 
ATOM     77  C   UNL A   1      44.244  22.123  24.068  1.00  0.00    -0.049 A 
ATOM     78  C   UNL A   1      45.338  21.376  26.095  1.00  0.00    -0.049 A 
ATOM     79  C   UNL A   1      44.534  23.447  24.403  1.00  0.00    -0.053 A 
ATOM     80  H   UNL A   1      43.761  21.906  23.182  1.00  0.00     0.063 H 
ATOM     81  C   UNL A   1      45.565  22.701  26.463  1.00  0.00    -0.053 A 
ATOM     82  H   UNL A   1      45.706  20.608  26.677  1.00  0.00     0.063 H 
ATOM     83  C   UNL A   1      45.154  23.750  25.627  1.00  0.00    -0.014 A 
ATOM     84  H   UNL A   1      44.294  24.207  23.748  1.00  0.00     0.063 H 
ATOM     85  H   UNL A   1      46.038  22.912  27.356  1.00  0.00     0.063 H 
BRANCH  83  86
ATOM     86  C   UNL A   1      45.326  25.158  26.069  1.00  0.00     0.031 A 
ATOM     87  C   UNL A   1      46.681  25.810  26.043  1.00  0.00     0.074 A 
ATOM     88  C   UNL A   1      44.266  25.827  26.564  1.00  0.00     0.049 A 
ATOM     89  N   UNL A   1      47.031  27.004  26.451  1.00  0.00    -0.248 NA
ATOM     90  C   UNL A   1      47.791  25.009  25.506  1.00  0.00    -0.034 C 
ATOM     91  C   UNL A   1      42.910  25.287  26.688  1.00  0.00    -0.036 A 
ATOM     92  N   UNL A   1      44.161  27.100  27.068  1.00  0.00    -0.354 N 
ATOM     93  C   UNL A   1      48.399  27.094  26.230  1.00  0.00     0.074 A 
ATOM     94  C   UNL A   1      48.825  25.818  25.695  1.00  0.00    -0.034 C 
ATOM     95  H   UNL A   1      47.772  24.064  25.091  1.00  0.00     0.065 H 
ATOM     96  C   UNL A   1      42.108  26.224  27.215  1.00  0.00    -0.036 A 
ATOM     97  H   UNL A   1      42.619  24.336  26.414  1.00  0.00     0.065 H 
ATOM     98  C   UNL A   1      42.899  27.415  27.510  1.00  0.00     0.049 A 
ATOM     99  H   UNL A   1      44.918  27.727  27.109  1.00  0.00     0.167 HD
ATOM    100  C   UNL A   1      49.219  28.152  26.437  1.00  0.00     0.037 A 
ATOM    101  H   UNL A   1      49.805  25.570  25.489  1.00  0.00     0.065 H 
ATOM    102  H   UNL A   1      41.095  26.120  27.384  1.00  0.00     0.065 H 
ATOM    103  C   UNL A   1      42.432  28.531  28.103  1.00  0.00     0.037 A 
ATOM    104  C   UNL A   1      48.786  29.424  26.954  1.00  0.00     0.049 A 
ATOM    105  C   UNL A   1      43.373  29.681  28.343  1.00  0.00     0.074 A 
ATOM    106  C   UNL A   1      49.530  30.579  27.134  1.00  0.00    -0.036 A 
ATOM    107  N   UNL A   1      47.498  29.709  27.386  1.00  0.00    -0.354 N 
ATOM    108  N   UNL A   1      44.647  29.783  28.053  1.00  0.00    -0.248 NA
ATOM    109  C   UNL A   1      42.810  30.873  28.992  1.00  0.00    -0.034 C 
ATOM    110  C   UNL A   1      48.709  31.540  27.732  1.00  0.00    -0.036 A 
ATOM    111  H   UNL A   1      50.519  30.708  26.872  1.00  0.00     0.065 H 
ATOM    112  C   UNL A   1      47.437  31.008  27.867  1.00  0.00     0.049 A 
ATOM    113  H   UNL A   1      46.741  29.080  27.356  1.00  0.00     0.167 HD
ATOM    114  C   UNL A   1      45.031  31.053  28.459  1.00  0.00     0.074 A 
ATOM    115  C   UNL A   1      43.850  31.694  28.996  1.00  0.00    -0.034 C 
ATOM    116  H   UNL A   1      41.855  31.030  29.351  1.00  0.00     0.065 H 
ATOM    117  H   UNL A   1      49.001  32.486  28.024  1.00  0.00     0.065 H 
ATOM    118  C   UNL A   1      46.254  31.635  28.399  1.00  0.00     0.037 A 
ATOM    119  H   UNL A   1      43.821  32.668  29.338  1.00  0.00     0.065 H 
BRANCH 100 120
ATOM    120  C   UNL A   1      50.675  27.987  26.107  1.00  0.00     0.064 A 
ATOM    121  C   UNL A   1      51.628  27.706  27.097  1.00  0.00     0.173 A 
ATOM    122  C   UNL A   1      51.112  28.045  24.775  1.00  0.00     0.173 A 
ATOM    123  F   UNL A   1      51.265  27.647  28.387  1.00  0.00    -0.203 F 
ATOM    124  C   UNL A   1      52.967  27.510  26.769  1.00  0.00     0.198 A 
ATOM    125  C   UNL A   1      52.446  27.818  24.447  1.00  0.00     0.198 A 
ATOM    126  F   UNL A   1      50.241  28.303  23.788  1.00  0.00    -0.203 F 
ATOM    127  F   UNL A   1      53.867  27.281  27.736  1.00  0.00    -0.200 F 
ATOM    128  C   UNL A   1      53.373  27.556  25.444  1.00  0.00     0.200 A 
ATOM    129  F   UNL A   1      52.833  27.847  23.164  1.00  0.00    -0.200 F 
ATOM    130  F   UNL A   1      54.659  27.351  25.127  1.00  0.00    -0.200 F 
ENDBRANCH 100 120
BRANCH 103 131
ATOM    131  C   UNL A   1      41.006  28.617  28.515  1.00  0.00     0.064 A 
ATOM    132  C   UNL A   1      40.017  29.039  27.616  1.00  0.00     0.173 A 
ATOM    133  C   UNL A   1      40.604  28.301  29.823  1.00  0.00     0.173 A 
ATOM    134  F   UNL A   1      40.352  29.372  26.361  1.00  0.00    -0.203 F 
ATOM    135  C   UNL A   1      38.688  29.168  28.015  1.00  0.00     0.198 A 
ATOM    136  C   UNL A   1      39.270  28.398  30.210  1.00  0.00     0.198 A 
ATOM    137  F   UNL A   1      41.510  27.888  30.722  1.00  0.00    -0.203 F 
ATOM    138  F   UNL A   1      37.774  29.629  27.150  1.00  0.00    -0.200 F 
ATOM    139  C   UNL A   1      38.314  28.842  29.310  1.00  0.00     0.200 A 
ATOM    140  F   UNL A   1      38.912  28.065  31.458  1.00  0.00    -0.200 F 
ATOM    141  F   UNL A   1      37.036  28.967  29.692  1.00  0.00    -0.200 F 
ENDBRANCH 103 131
BRANCH 118 142
ATOM    142  C   UNL A   1      46.372  33.045  28.904  1.00  0.00     0.064 A 
ATOM    143  C   UNL A   1      46.129  34.148  28.073  1.00  0.00     0.173 A 
ATOM    144  C   UNL A   1      46.697  33.294  30.247  1.00  0.00     0.173 A 
ATOM    145  F   UNL A   1      45.831  33.965  26.777  1.00  0.00    -0.203 F 
ATOM    146  C   UNL A   1      46.233  35.448  28.559  1.00  0.00     0.198 A 
ATOM    147  C   UNL A   1      46.766  34.595  30.738  1.00  0.00     0.198 A 
ATOM    148  F   UNL A   1      46.933  32.276  31.086  1.00  0.00    -0.203 F 
ATOM    149  F   UNL A   1      46.048  36.488  27.733  1.00  0.00    -0.200 F 
ATOM    150  C   UNL A   1      46.543  35.671  29.892  1.00  0.00     0.200 A 
ATOM    151  F   UNL A   1      47.050  34.807  32.031  1.00  0.00    -0.200 F 
ATOM    152  F   UNL A   1      46.634  36.923  30.362  1.00  0.00    -0.200 F 
ENDBRANCH 118 142
ENDBRANCH  83  86
ENDBRANCH  73  76
ENDBRANCH  69  72
ENDBRANCH  66  69
ENDBRANCH  63  66
ENDBRANCH  60  63
ENDBRANCH  57  60
ENDBRANCH  54  57
ENDBRANCH  52  54
ENDBRANCH  47  50
ENDBRANCH  46  47
ENDBRANCH   1  46
TORSDOF 27
ENDMDL
MODEL 6
REMARK VINA RESULT:      -8.4      6.226     12.100
REMARK SMILES CC/C=C/C/C=C/C/C=C/C/C=C/CC/C=C/COCC(=O)NCCCCCCNC(=O)c1ccc(-c2c3nc(c(-c4c(F)c(F)c(F)c(F)c4F)c4ccc([nH]4)c(-c4c(F)c(F)c(F)c(F)c4F)c4nc(c(-c5c(F)c(F)c(F)c(F)c5F)c5ccc2[nH]5)C=C4)C=C3)cc1
REMARK SMILES IDX 18 1 17 4 16 5 15 8 14 11 13 14 12 15 11 18 10 21 9 22 8 25
REMARK SMILES IDX 7 28 6 29 5 32 4 35 3 36 2 39 1 42 19 46 20 47 21 50 22 51
REMARK SMILES IDX 23 52 24 54 25 57 26 60 27 63 28 66 29 69 30 72 31 73 32 75
REMARK SMILES IDX 33 76 34 77 95 78 35 79 94 81 36 83 37 86 38 87 88 88 39 89
REMARK SMILES IDX 93 90 87 91 89 92 40 93 92 94 86 96 85 98 41 100 73 103
REMARK SMILES IDX 53 104 72 105 54 106 57 107 71 108 90 109 55 110 56 112
REMARK SMILES IDX 70 114 91 115 58 118 42 120 43 121 51 122 44 123 45 124
REMARK SMILES IDX 49 125 52 126 46 127 47 128 50 129 48 130 74 131 75 132
REMARK SMILES IDX 83 133 76 134 77 135 81 136 84 137 78 138 79 139 82 140
REMARK SMILES IDX 80 141 59 142 60 143 68 144 61 145 62 146 66 147 69 148
REMARK SMILES IDX 63 149 64 150 67 151 65 152
REMARK H PARENT 18 2 18 3 16 6 17 7 15 9 15 10 14 12 14 13 12 16 13 17 11 19
REMARK H PARENT 11 20 9 23 10 24 8 26 8 27 6 30 7 31 5 33 5 34 3 37 4 38 2 40
REMARK H PARENT 2 41 1 43 1 44 1 45 20 48 20 49 23 53 24 55 24 56 25 58 25 59
REMARK H PARENT 26 61 26 62 27 64 27 65 28 67 28 68 29 70 29 71 30 74 34 80
REMARK H PARENT 95 82 35 84 94 85 93 95 87 97 89 99 92 101 86 102 54 111
REMARK H PARENT 57 113 90 116 55 117 91 119
REMARK Flexibility Score: inf
ROOT
ATOM      1  C   UNL A   1      31.552  23.749  25.957  1.00  0.00     0.065 C 
ATOM      2  H   UNL A   1      30.900  22.914  26.110  1.00  0.00     0.061 H 
ATOM      3  H   UNL A   1      31.810  24.188  26.898  1.00  0.00     0.061 H 
ENDROOT
BRANCH   1   4
ATOM      4  C   UNL A   1      30.855  24.772  25.116  1.00  0.00    -0.063 C 
ATOM      5  C   UNL A   1      31.507  25.575  24.261  1.00  0.00    -0.086 C 
ATOM      6  H   UNL A   1      32.509  25.390  24.097  1.00  0.00     0.057 H 
ATOM      7  H   UNL A   1      29.831  24.862  25.196  1.00  0.00     0.060 H 
BRANCH   5   8
ATOM      8  C   UNL A   1      30.878  26.727  23.529  1.00  0.00    -0.032 C 
ATOM      9  H   UNL A   1      30.872  26.507  22.482  1.00  0.00     0.031 H 
ATOM     10  H   UNL A   1      29.886  26.853  23.907  1.00  0.00     0.031 H 
BRANCH   8  11
ATOM     11  C   UNL A   1      31.638  28.046  23.754  1.00  0.00    -0.032 C 
ATOM     12  H   UNL A   1      32.574  27.992  23.239  1.00  0.00     0.031 H 
ATOM     13  H   UNL A   1      31.022  28.838  23.383  1.00  0.00     0.031 H 
BRANCH  11  14
ATOM     14  C   UNL A   1      31.907  28.329  25.208  1.00  0.00    -0.088 C 
ATOM     15  C   UNL A   1      33.132  28.448  25.742  1.00  0.00    -0.085 C 
ATOM     16  H   UNL A   1      33.947  28.380  25.112  1.00  0.00     0.058 H 
ATOM     17  H   UNL A   1      31.095  28.439  25.835  1.00  0.00     0.057 H 
BRANCH  15  18
ATOM     18  C   UNL A   1      33.384  28.674  27.205  1.00  0.00    -0.017 C 
ATOM     19  H   UNL A   1      32.506  29.086  27.656  1.00  0.00     0.035 H 
ATOM     20  H   UNL A   1      33.628  27.739  27.665  1.00  0.00     0.035 H 
BRANCH  18  21
ATOM     21  C   UNL A   1      34.530  29.626  27.396  1.00  0.00    -0.084 C 
ATOM     22  C   UNL A   1      34.397  30.881  27.854  1.00  0.00    -0.084 C 
ATOM     23  H   UNL A   1      33.454  31.199  28.125  1.00  0.00     0.058 H 
ATOM     24  H   UNL A   1      35.479  29.295  27.160  1.00  0.00     0.058 H 
BRANCH  22  25
ATOM     25  C   UNL A   1      35.534  31.850  28.000  1.00  0.00    -0.017 C 
ATOM     26  H   UNL A   1      36.427  31.408  27.610  1.00  0.00     0.035 H 
ATOM     27  H   UNL A   1      35.298  32.744  27.461  1.00  0.00     0.035 H 
BRANCH  25  28
ATOM     28  C   UNL A   1      35.746  32.198  29.447  1.00  0.00    -0.084 C 
ATOM     29  C   UNL A   1      34.767  32.582  30.280  1.00  0.00    -0.084 C 
ATOM     30  H   UNL A   1      33.804  32.623  29.909  1.00  0.00     0.058 H 
ATOM     31  H   UNL A   1      36.705  32.137  29.823  1.00  0.00     0.058 H 
BRANCH  29  32
ATOM     32  C   UNL A   1      34.982  32.958  31.718  1.00  0.00    -0.017 C 
ATOM     33  H   UNL A   1      34.552  32.206  32.345  1.00  0.00     0.035 H 
ATOM     34  H   UNL A   1      36.034  33.037  31.897  1.00  0.00     0.035 H 
BRANCH  32  35
ATOM     35  C   UNL A   1      34.341  34.281  32.025  1.00  0.00    -0.085 C 
ATOM     36  C   UNL A   1      33.825  35.101  31.095  1.00  0.00    -0.089 C 
ATOM     37  H   UNL A   1      33.864  34.802  30.108  1.00  0.00     0.057 H 
ATOM     38  H   UNL A   1      34.293  34.579  33.011  1.00  0.00     0.058 H 
BRANCH  36  39
ATOM     39  C   UNL A   1      33.196  36.429  31.405  1.00  0.00    -0.038 C 
ATOM     40  H   UNL A   1      33.258  37.055  30.539  1.00  0.00     0.031 H 
ATOM     41  H   UNL A   1      32.175  36.263  31.679  1.00  0.00     0.031 H 
BRANCH  39  42
ATOM     42  C   UNL A   1      33.902  37.115  32.565  1.00  0.00    -0.062 C 
ATOM     43  H   UNL A   1      33.829  38.176  32.449  1.00  0.00     0.023 H 
ATOM     44  H   UNL A   1      34.931  36.827  32.577  1.00  0.00     0.023 H 
ATOM     45  H   UNL A   1      33.439  36.825  33.485  1.00  0.00     0.023 H 
ENDBRANCH  39  42
ENDBRANCH  36  39
ENDBRANCH  32  35
ENDBRANCH  29  32
ENDBRANCH  25  28
ENDBRANCH  22  25
ENDBRANCH  18  21
ENDBRANCH  15  18
ENDBRANCH  11  14
ENDBRANCH   8  11
ENDBRANCH   5   8
ENDBRANCH   1   4
BRANCH   1  46
ATOM     46  O   UNL A   1      32.743  23.305  25.307  1.00  0.00    -0.368 OA
BRANCH  46  47
ATOM     47  C   UNL A   1      33.144  21.987  25.667  1.00  0.00     0.126 C 
ATOM     48  H   UNL A   1      33.492  21.503  24.779  1.00  0.00     0.067 H 
ATOM     49  H   UNL A   1      32.275  21.550  26.115  1.00  0.00     0.067 H 
BRANCH  47  50
ATOM     50  C   UNL A   1      34.243  21.848  26.728  1.00  0.00     0.246 C 
ATOM     51  O   UNL A   1      34.042  22.092  27.918  1.00  0.00    -0.272 OA
ATOM     52  N   UNL A   1      35.477  21.411  26.342  1.00  0.00    -0.354 N 
ATOM     53  H   UNL A   1      36.127  21.259  27.066  1.00  0.00     0.163 HD
BRANCH  52  54
ATOM     54  C   UNL A   1      35.949  21.143  24.998  1.00  0.00     0.017 C 
ATOM     55  H   UNL A   1      35.458  21.805  24.318  1.00  0.00     0.049 H 
ATOM     56  H   UNL A   1      35.728  20.123  24.759  1.00  0.00     0.049 H 
BRANCH  54  57
ATOM     57  C   UNL A   1      37.459  21.348  24.892  1.00  0.00    -0.036 C 
ATOM     58  H   UNL A   1      37.737  22.142  25.554  1.00  0.00     0.028 H 
ATOM     59  H   UNL A   1      37.667  21.571  23.866  1.00  0.00     0.028 H 
BRANCH  57  60
ATOM     60  C   UNL A   1      38.291  20.109  25.250  1.00  0.00    -0.052 C 
ATOM     61  H   UNL A   1      38.577  19.628  24.338  1.00  0.00     0.027 H 
ATOM     62  H   UNL A   1      37.669  19.503  25.875  1.00  0.00     0.027 H 
BRANCH  60  63
ATOM     63  C   UNL A   1      39.563  20.388  26.058  1.00  0.00    -0.052 C 
ATOM     64  H   UNL A   1      39.298  20.412  27.095  1.00  0.00     0.027 H 
ATOM     65  H   UNL A   1      39.948  21.318  25.696  1.00  0.00     0.027 H 
BRANCH  63  66
ATOM     66  C   UNL A   1      40.683  19.361  25.879  1.00  0.00    -0.036 C 
ATOM     67  H   UNL A   1      40.633  18.985  24.878  1.00  0.00     0.028 H 
ATOM     68  H   UNL A   1      40.524  18.607  26.620  1.00  0.00     0.028 H 
BRANCH  66  69
ATOM     69  C   UNL A   1      42.089  19.906  26.112  1.00  0.00     0.018 C 
ATOM     70  H   UNL A   1      42.372  19.707  27.125  1.00  0.00     0.049 H 
ATOM     71  H   UNL A   1      42.070  20.957  25.912  1.00  0.00     0.049 H 
BRANCH  69  72
ATOM     72  N   UNL A   1      43.071  19.301  25.224  1.00  0.00    -0.352 N 
ATOM     73  C   UNL A   1      44.153  19.868  24.599  1.00  0.00     0.251 C 
ATOM     74  H   UNL A   1      42.938  18.342  25.046  1.00  0.00     0.163 HD
ATOM     75  O   UNL A   1      44.763  19.243  23.735  1.00  0.00    -0.269 OA
BRANCH  73  76
ATOM     76  C   UNL A   1      44.571  21.243  24.942  1.00  0.00     0.039 A 
ATOM     77  C   UNL A   1      44.221  22.287  24.084  1.00  0.00    -0.049 A 
ATOM     78  C   UNL A   1      45.297  21.506  26.107  1.00  0.00    -0.049 A 
ATOM     79  C   UNL A   1      44.526  23.604  24.433  1.00  0.00    -0.053 A 
ATOM     80  H   UNL A   1      43.738  22.086  23.193  1.00  0.00     0.063 H 
ATOM     81  C   UNL A   1      45.539  22.824  26.490  1.00  0.00    -0.053 A 
ATOM     82  H   UNL A   1      45.653  20.727  26.682  1.00  0.00     0.063 H 
ATOM     83  C   UNL A   1      45.145  23.887  25.663  1.00  0.00    -0.014 A 
ATOM     84  H   UNL A   1      44.299  24.374  23.785  1.00  0.00     0.063 H 
ATOM     85  H   UNL A   1      46.012  23.020  27.386  1.00  0.00     0.063 H 
BRANCH  83  86
ATOM     86  C   UNL A   1      45.333  25.288  26.120  1.00  0.00     0.031 A 
ATOM     87  C   UNL A   1      46.695  25.925  26.099  1.00  0.00     0.074 A 
ATOM     88  C   UNL A   1      44.280  25.963  26.622  1.00  0.00     0.049 A 
ATOM     89  N   UNL A   1      47.059  27.111  26.520  1.00  0.00    -0.248 NA
ATOM     90  C   UNL A   1      47.796  25.118  25.553  1.00  0.00    -0.034 C 
ATOM     91  C   UNL A   1      42.919  25.437  26.742  1.00  0.00    -0.036 A 
ATOM     92  N   UNL A   1      44.190  27.232  27.141  1.00  0.00    -0.354 N 
ATOM     93  C   UNL A   1      48.427  27.188  26.299  1.00  0.00     0.074 A 
ATOM     94  C   UNL A   1      48.839  25.913  25.750  1.00  0.00    -0.034 C 
ATOM     95  H   UNL A   1      47.766  24.178  25.127  1.00  0.00     0.065 H 
ATOM     96  C   UNL A   1      42.128  26.377  27.279  1.00  0.00    -0.036 A 
ATOM     97  H   UNL A   1      42.617  24.492  26.458  1.00  0.00     0.065 H 
ATOM     98  C   UNL A   1      42.932  27.556  27.587  1.00  0.00     0.049 A 
ATOM     99  H   UNL A   1      44.955  27.850  27.188  1.00  0.00     0.167 HD
ATOM    100  C   UNL A   1      49.259  28.234  26.517  1.00  0.00     0.037 A 
ATOM    101  H   UNL A   1      49.816  25.656  25.540  1.00  0.00     0.065 H 
ATOM    102  H   UNL A   1      41.114  26.282  27.448  1.00  0.00     0.065 H 
ATOM    103  C   UNL A   1      42.478  28.670  28.193  1.00  0.00     0.037 A 
ATOM    104  C   UNL A   1      48.841  29.506  27.048  1.00  0.00     0.049 A 
ATOM    105  C   UNL A   1      43.432  29.807  28.444  1.00  0.00     0.074 A 
ATOM    106  C   UNL A   1      49.598  30.650  27.240  1.00  0.00    -0.036 A 
ATOM    107  N   UNL A   1      47.557  29.800  27.484  1.00  0.00    -0.354 N 
ATOM    108  N   UNL A   1      44.707  29.898  28.154  1.00  0.00    -0.248 NA
ATOM    109  C   UNL A   1      42.883  30.998  29.107  1.00  0.00    -0.034 C 
ATOM    110  C   UNL A   1      48.788  31.613  27.849  1.00  0.00    -0.036 A 
ATOM    111  H   UNL A   1      50.588  30.770  26.979  1.00  0.00     0.065 H 
ATOM    112  C   UNL A   1      47.511  31.094  27.979  1.00  0.00     0.049 A 
ATOM    113  H   UNL A   1      46.793  29.180  27.447  1.00  0.00     0.167 HD
ATOM    114  C   UNL A   1      45.106  31.160  28.574  1.00  0.00     0.074 A 
ATOM    115  C   UNL A   1      43.932  31.808  29.119  1.00  0.00    -0.034 C 
ATOM    116  H   UNL A   1      41.930  31.162  29.468  1.00  0.00     0.065 H 
ATOM    117  H   UNL A   1      49.091  32.553  28.151  1.00  0.00     0.065 H 
ATOM    118  C   UNL A   1      46.335  31.728  28.519  1.00  0.00     0.037 A 
ATOM    119  H   UNL A   1      43.914  32.779  29.471  1.00  0.00     0.065 H 
BRANCH 100 120
ATOM    120  C   UNL A   1      50.713  28.056  26.184  1.00  0.00     0.064 A 
ATOM    121  C   UNL A   1      51.665  27.762  27.171  1.00  0.00     0.173 A 
ATOM    122  C   UNL A   1      51.149  28.116  24.851  1.00  0.00     0.173 A 
ATOM    123  F   UNL A   1      51.304  27.702  28.462  1.00  0.00    -0.203 F 
ATOM    124  C   UNL A   1      53.002  27.555  26.840  1.00  0.00     0.198 A 
ATOM    125  C   UNL A   1      52.480  27.877  24.520  1.00  0.00     0.198 A 
ATOM    126  F   UNL A   1      50.279  28.387  23.867  1.00  0.00    -0.203 F 
ATOM    127  F   UNL A   1      53.901  27.314  27.805  1.00  0.00    -0.200 F 
ATOM    128  C   UNL A   1      53.406  27.603  25.515  1.00  0.00     0.200 A 
ATOM    129  F   UNL A   1      52.865  27.908  23.237  1.00  0.00    -0.200 F 
ATOM    130  F   UNL A   1      54.689  27.387  25.195  1.00  0.00    -0.200 F 
ENDBRANCH 100 120
BRANCH 103 131
ATOM    131  C   UNL A   1      41.053  28.768  28.607  1.00  0.00     0.064 A 
ATOM    132  C   UNL A   1      40.656  28.454  29.914  1.00  0.00     0.173 A 
ATOM    133  C   UNL A   1      40.055  29.153  27.698  1.00  0.00     0.173 A 
ATOM    134  F   UNL A   1      41.569  28.060  30.814  1.00  0.00    -0.203 F 
ATOM    135  C   UNL A   1      39.315  28.497  30.290  1.00  0.00     0.198 A 
ATOM    136  C   UNL A   1      38.719  29.228  28.085  1.00  0.00     0.198 A 
ATOM    137  F   UNL A   1      40.381  29.468  26.436  1.00  0.00    -0.203 F 
ATOM    138  F   UNL A   1      38.958  28.137  31.530  1.00  0.00    -0.200 F 
ATOM    139  C   UNL A   1      38.348  28.889  29.377  1.00  0.00     0.200 A 
ATOM    140  F   UNL A   1      37.791  29.625  27.203  1.00  0.00    -0.200 F 
ATOM    141  F   UNL A   1      37.059  28.930  29.739  1.00  0.00    -0.200 F 
ENDBRANCH 103 131
BRANCH 118 142
ATOM    142  C   UNL A   1      46.469  33.132  29.039  1.00  0.00     0.064 A 
ATOM    143  C   UNL A   1      46.250  34.246  28.217  1.00  0.00     0.173 A 
ATOM    144  C   UNL A   1      46.784  33.363  30.387  1.00  0.00     0.173 A 
ATOM    145  F   UNL A   1      45.963  34.080  26.917  1.00  0.00    -0.203 F 
ATOM    146  C   UNL A   1      46.369  35.540  28.717  1.00  0.00     0.198 A 
ATOM    147  C   UNL A   1      46.867  34.657  30.893  1.00  0.00     0.198 A 
ATOM    148  F   UNL A   1      46.997  32.333  31.219  1.00  0.00    -0.203 F 
ATOM    149  F   UNL A   1      46.208  36.590  27.899  1.00  0.00    -0.200 F 
ATOM    150  C   UNL A   1      46.669  35.745  30.055  1.00  0.00     0.200 A 
ATOM    151  F   UNL A   1      47.142  34.852  32.190  1.00  0.00    -0.200 F 
ATOM    152  F   UNL A   1      46.775  36.990  30.538  1.00  0.00    -0.200 F 
ENDBRANCH 118 142
ENDBRANCH  83  86
ENDBRANCH  73  76
ENDBRANCH  69  72
ENDBRANCH  66  69
ENDBRANCH  63  66
ENDBRANCH  60  63
ENDBRANCH  57  60
ENDBRANCH  54  57
ENDBRANCH  52  54
ENDBRANCH  47  50
ENDBRANCH  46  47
ENDBRANCH   1  46
TORSDOF 27
ENDMDL
MODEL 7
REMARK VINA RESULT:      -8.3      6.805     11.047
REMARK SMILES CC/C=C/C/C=C/C/C=C/C/C=C/CC/C=C/COCC(=O)NCCCCCCNC(=O)c1ccc(-c2c3nc(c(-c4c(F)c(F)c(F)c(F)c4F)c4ccc([nH]4)c(-c4c(F)c(F)c(F)c(F)c4F)c4nc(c(-c5c(F)c(F)c(F)c(F)c5F)c5ccc2[nH]5)C=C4)C=C3)cc1
REMARK SMILES IDX 18 1 17 4 16 5 15 8 14 11 13 14 12 15 11 18 10 21 9 22 8 25
REMARK SMILES IDX 7 28 6 29 5 32 4 35 3 36 2 39 1 42 19 46 20 47 21 50 22 51
REMARK SMILES IDX 23 52 24 54 25 57 26 60 27 63 28 66 29 69 30 72 31 73 32 75
REMARK SMILES IDX 33 76 34 77 95 78 35 79 94 81 36 83 37 86 38 87 88 88 39 89
REMARK SMILES IDX 93 90 87 91 89 92 40 93 92 94 86 96 85 98 41 100 73 103
REMARK SMILES IDX 53 104 72 105 54 106 57 107 71 108 90 109 55 110 56 112
REMARK SMILES IDX 70 114 91 115 58 118 42 120 43 121 51 122 44 123 45 124
REMARK SMILES IDX 49 125 52 126 46 127 47 128 50 129 48 130 74 131 75 132
REMARK SMILES IDX 83 133 76 134 77 135 81 136 84 137 78 138 79 139 82 140
REMARK SMILES IDX 80 141 59 142 60 143 68 144 61 145 62 146 66 147 69 148
REMARK SMILES IDX 63 149 64 150 67 151 65 152
REMARK H PARENT 18 2 18 3 16 6 17 7 15 9 15 10 14 12 14 13 12 16 13 17 11 19
REMARK H PARENT 11 20 9 23 10 24 8 26 8 27 6 30 7 31 5 33 5 34 3 37 4 38 2 40
REMARK H PARENT 2 41 1 43 1 44 1 45 20 48 20 49 23 53 24 55 24 56 25 58 25 59
REMARK H PARENT 26 61 26 62 27 64 27 65 28 67 28 68 29 70 29 71 30 74 34 80
REMARK H PARENT 95 82 35 84 94 85 93 95 87 97 89 99 92 101 86 102 54 111
REMARK H PARENT 57 113 90 116 55 117 91 119
REMARK Flexibility Score: inf
ROOT
ATOM      1  C   UNL A   1      36.068  34.092  29.317  1.00  0.00     0.065 C 
ATOM      2  H   UNL A   1      36.903  34.750  29.442  1.00  0.00     0.061 H 
ATOM      3  H   UNL A   1      35.795  33.666  30.260  1.00  0.00     0.061 H 
ENDROOT
BRANCH   1   4
ATOM      4  C   UNL A   1      36.443  32.992  28.375  1.00  0.00    -0.063 C 
ATOM      5  C   UNL A   1      35.898  31.767  28.435  1.00  0.00    -0.086 C 
ATOM      6  H   UNL A   1      35.105  31.625  29.080  1.00  0.00     0.057 H 
ATOM      7  H   UNL A   1      37.149  33.184  27.648  1.00  0.00     0.060 H 
BRANCH   5   8
ATOM      8  C   UNL A   1      36.365  30.589  27.628  1.00  0.00    -0.032 C 
ATOM      9  H   UNL A   1      35.640  30.383  26.868  1.00  0.00     0.031 H 
ATOM     10  H   UNL A   1      37.315  30.837  27.203  1.00  0.00     0.031 H 
BRANCH   8  11
ATOM     11  C   UNL A   1      36.550  29.328  28.489  1.00  0.00    -0.032 C 
ATOM     12  H   UNL A   1      35.977  29.441  29.386  1.00  0.00     0.031 H 
ATOM     13  H   UNL A   1      36.224  28.491  27.909  1.00  0.00     0.031 H 
BRANCH  11  14
ATOM     14  C   UNL A   1      37.987  29.080  28.868  1.00  0.00    -0.088 C 
ATOM     15  C   UNL A   1      38.587  27.883  28.817  1.00  0.00    -0.085 C 
ATOM     16  H   UNL A   1      38.046  27.080  28.459  1.00  0.00     0.058 H 
ATOM     17  H   UNL A   1      38.546  29.887  29.187  1.00  0.00     0.057 H 
BRANCH  15  18
ATOM     18  C   UNL A   1      40.005  27.642  29.252  1.00  0.00    -0.017 C 
ATOM     19  H   UNL A   1      40.229  28.271  30.089  1.00  0.00     0.035 H 
ATOM     20  H   UNL A   1      40.115  26.614  29.528  1.00  0.00     0.035 H 
BRANCH  18  21
ATOM     21  C   UNL A   1      40.955  27.952  28.132  1.00  0.00    -0.084 C 
ATOM     22  C   UNL A   1      40.777  27.554  26.861  1.00  0.00    -0.084 C 
ATOM     23  H   UNL A   1      39.916  27.032  26.635  1.00  0.00     0.058 H 
ATOM     24  H   UNL A   1      41.798  28.505  28.352  1.00  0.00     0.058 H 
BRANCH  22  25
ATOM     25  C   UNL A   1      41.749  27.821  25.750  1.00  0.00    -0.017 C 
ATOM     26  H   UNL A   1      42.026  26.895  25.293  1.00  0.00     0.035 H 
ATOM     27  H   UNL A   1      41.284  28.464  25.031  1.00  0.00     0.035 H 
BRANCH  25  28
ATOM     28  C   UNL A   1      42.981  28.498  26.280  1.00  0.00    -0.084 C 
ATOM     29  C   UNL A   1      43.013  29.766  26.722  1.00  0.00    -0.084 C 
ATOM     30  H   UNL A   1      42.131  30.303  26.714  1.00  0.00     0.058 H 
ATOM     31  H   UNL A   1      43.858  27.955  26.307  1.00  0.00     0.058 H 
BRANCH  29  32
ATOM     32  C   UNL A   1      44.250  30.453  27.225  1.00  0.00    -0.017 C 
ATOM     33  H   UNL A   1      44.369  30.242  28.266  1.00  0.00     0.035 H 
ATOM     34  H   UNL A   1      45.091  30.090  26.672  1.00  0.00     0.035 H 
BRANCH  32  35
ATOM     35  C   UNL A   1      44.151  31.938  27.030  1.00  0.00    -0.085 C 
ATOM     36  C   UNL A   1      44.152  32.543  25.831  1.00  0.00    -0.089 C 
ATOM     37  H   UNL A   1      44.217  31.950  24.989  1.00  0.00     0.057 H 
ATOM     38  H   UNL A   1      44.076  32.533  27.870  1.00  0.00     0.058 H 
BRANCH  36  39
ATOM     39  C   UNL A   1      44.064  34.030  25.642  1.00  0.00    -0.038 C 
ATOM     40  H   UNL A   1      43.220  34.253  25.023  1.00  0.00     0.031 H 
ATOM     41  H   UNL A   1      43.959  34.487  26.604  1.00  0.00     0.031 H 
BRANCH  39  42
ATOM     42  C   UNL A   1      45.321  34.575  24.983  1.00  0.00    -0.062 C 
ATOM     43  H   UNL A   1      45.977  33.765  24.741  1.00  0.00     0.023 H 
ATOM     44  H   UNL A   1      45.814  35.245  25.655  1.00  0.00     0.023 H 
ATOM     45  H   UNL A   1      45.057  35.098  24.087  1.00  0.00     0.023 H 
ENDBRANCH  39  42
ENDBRANCH  36  39
ENDBRANCH  32  35
ENDBRANCH  29  32
ENDBRANCH  25  28
ENDBRANCH  22  25
ENDBRANCH  18  21
ENDBRANCH  15  18
ENDBRANCH  11  14
ENDBRANCH   8  11
ENDBRANCH   5   8
ENDBRANCH   1   4
BRANCH   1  46
ATOM     46  O   UNL A   1      34.960  34.828  28.799  1.00  0.00    -0.368 OA
BRANCH  46  47
ATOM     47  C   UNL A   1      33.833  34.869  29.669  1.00  0.00     0.126 C 
ATOM     48  H   UNL A   1      34.194  34.744  30.668  1.00  0.00     0.067 H 
ATOM     49  H   UNL A   1      33.187  34.092  29.315  1.00  0.00     0.067 H 
BRANCH  47  50
ATOM     50  C   UNL A   1      32.968  36.136  29.647  1.00  0.00     0.246 C 
ATOM     51  O   UNL A   1      32.153  36.360  28.751  1.00  0.00    -0.272 OA
ATOM     52  N   UNL A   1      33.088  37.030  30.671  1.00  0.00    -0.354 N 
ATOM     53  H   UNL A   1      32.458  37.787  30.659  1.00  0.00     0.163 HD
BRANCH  52  54
ATOM     54  C   UNL A   1      34.027  37.003  31.774  1.00  0.00     0.017 C 
ATOM     55  H   UNL A   1      34.251  38.008  32.066  1.00  0.00     0.049 H 
ATOM     56  H   UNL A   1      34.913  36.497  31.452  1.00  0.00     0.049 H 
BRANCH  54  57
ATOM     57  C   UNL A   1      33.450  36.253  32.974  1.00  0.00    -0.036 C 
ATOM     58  H   UNL A   1      32.695  35.583  32.618  1.00  0.00     0.028 H 
ATOM     59  H   UNL A   1      33.067  36.993  33.644  1.00  0.00     0.028 H 
BRANCH  57  60
ATOM     60  C   UNL A   1      34.483  35.437  33.764  1.00  0.00    -0.052 C 
ATOM     61  H   UNL A   1      33.960  34.672  34.299  1.00  0.00     0.027 H 
ATOM     62  H   UNL A   1      34.989  36.133  34.399  1.00  0.00     0.027 H 
BRANCH  60  63
ATOM     63  C   UNL A   1      35.570  34.765  32.918  1.00  0.00    -0.052 C 
ATOM     64  H   UNL A   1      36.518  35.155  33.226  1.00  0.00     0.027 H 
ATOM     65  H   UNL A   1      35.332  34.983  31.898  1.00  0.00     0.027 H 
BRANCH  63  66
ATOM     66  C   UNL A   1      35.626  33.240  33.027  1.00  0.00    -0.036 C 
ATOM     67  H   UNL A   1      34.957  32.828  32.301  1.00  0.00     0.028 H 
ATOM     68  H   UNL A   1      35.355  32.999  34.033  1.00  0.00     0.028 H 
BRANCH  66  69
ATOM     69  C   UNL A   1      37.008  32.635  32.796  1.00  0.00     0.018 C 
ATOM     70  H   UNL A   1      37.746  33.308  33.179  1.00  0.00     0.049 H 
ATOM     71  H   UNL A   1      37.127  32.484  31.743  1.00  0.00     0.049 H 
BRANCH  69  72
ATOM     72  N   UNL A   1      37.164  31.346  33.452  1.00  0.00    -0.352 N 
ATOM     73  C   UNL A   1      38.212  30.462  33.408  1.00  0.00     0.251 C 
ATOM     74  H   UNL A   1      36.403  31.067  34.011  1.00  0.00     0.163 HD
ATOM     75  O   UNL A   1      38.089  29.334  33.878  1.00  0.00    -0.269 OA
BRANCH  73  76
ATOM     76  C   UNL A   1      39.486  30.854  32.767  1.00  0.00     0.039 A 
ATOM     77  C   UNL A   1      39.680  30.553  31.418  1.00  0.00    -0.049 A 
ATOM     78  C   UNL A   1      40.480  31.519  33.489  1.00  0.00    -0.049 A 
ATOM     79  C   UNL A   1      40.836  30.993  30.770  1.00  0.00    -0.053 A 
ATOM     80  H   UNL A   1      38.972  30.008  30.901  1.00  0.00     0.063 H 
ATOM     81  C   UNL A   1      41.599  32.019  32.827  1.00  0.00    -0.053 A 
ATOM     82  H   UNL A   1      40.386  31.641  34.509  1.00  0.00     0.063 H 
ATOM     83  C   UNL A   1      41.783  31.773  31.457  1.00  0.00    -0.014 A 
ATOM     84  H   UNL A   1      40.998  30.744  29.782  1.00  0.00     0.063 H 
ATOM     85  H   UNL A   1      42.298  32.574  33.345  1.00  0.00     0.063 H 
BRANCH  83  86
ATOM     86  C   UNL A   1      42.936  32.380  30.744  1.00  0.00     0.031 A 
ATOM     87  C   UNL A   1      44.269  31.687  30.712  1.00  0.00     0.074 A 
ATOM     88  C   UNL A   1      42.796  33.598  30.185  1.00  0.00     0.049 A 
ATOM     89  N   UNL A   1      45.401  32.097  30.197  1.00  0.00    -0.248 NA
ATOM     90  C   UNL A   1      44.347  30.369  31.361  1.00  0.00    -0.034 C 
ATOM     91  C   UNL A   1      41.566  34.394  30.192  1.00  0.00    -0.036 A 
ATOM     92  N   UNL A   1      43.696  34.389  29.514  1.00  0.00    -0.354 N 
ATOM     93  C   UNL A   1      46.325  31.096  30.466  1.00  0.00     0.074 A 
ATOM     94  C   UNL A   1      45.635  30.079  31.231  1.00  0.00    -0.034 C 
ATOM     95  H   UNL A   1      43.597  29.815  31.801  1.00  0.00     0.065 H 
ATOM     96  C   UNL A   1      41.783  35.548  29.543  1.00  0.00    -0.036 A 
ATOM     97  H   UNL A   1      40.675  34.112  30.629  1.00  0.00     0.065 H 
ATOM     98  C   UNL A   1      43.177  35.596  29.114  1.00  0.00     0.049 A 
ATOM     99  H   UNL A   1      44.625  34.115  29.336  1.00  0.00     0.167 HD
ATOM    100  C   UNL A   1      47.625  31.025  30.092  1.00  0.00     0.037 A 
ATOM    101  H   UNL A   1      46.086  29.239  31.625  1.00  0.00     0.065 H 
ATOM    102  H   UNL A   1      41.078  36.282  29.375  1.00  0.00     0.065 H 
ATOM    103  C   UNL A   1      43.762  36.635  28.487  1.00  0.00     0.037 A 
ATOM    104  C   UNL A   1      48.302  32.032  29.317  1.00  0.00     0.049 A 
ATOM    105  C   UNL A   1      45.215  36.537  28.105  1.00  0.00     0.074 A 
ATOM    106  C   UNL A   1      49.599  32.017  28.830  1.00  0.00    -0.036 A 
ATOM    107  N   UNL A   1      47.743  33.240  28.925  1.00  0.00    -0.354 N 
ATOM    108  N   UNL A   1      46.055  35.550  28.293  1.00  0.00    -0.248 NA
ATOM    109  C   UNL A   1      45.801  37.700  27.423  1.00  0.00    -0.034 C 
ATOM    110  C   UNL A   1      49.844  33.241  28.199  1.00  0.00    -0.036 A 
ATOM    111  H   UNL A   1      50.269  31.238  28.919  1.00  0.00     0.065 H 
ATOM    112  C   UNL A   1      48.681  33.993  28.236  1.00  0.00     0.049 A 
ATOM    113  H   UNL A   1      46.818  33.520  29.110  1.00  0.00     0.167 HD
ATOM    114  C   UNL A   1      47.258  35.959  27.733  1.00  0.00     0.074 A 
ATOM    115  C   UNL A   1      47.032  37.276  27.177  1.00  0.00    -0.034 C 
ATOM    116  H   UNL A   1      45.366  38.608  27.194  1.00  0.00     0.065 H 
ATOM    117  H   UNL A   1      50.739  33.534  27.777  1.00  0.00     0.065 H 
ATOM    118  C   UNL A   1      48.444  35.304  27.687  1.00  0.00     0.037 A 
ATOM    119  H   UNL A   1      47.740  37.816  26.655  1.00  0.00     0.065 H 
BRANCH 100 120
ATOM    120  C   UNL A   1      48.412  29.817  30.514  1.00  0.00     0.064 A 
ATOM    121  C   UNL A   1      48.465  28.659  29.723  1.00  0.00     0.173 A 
ATOM    122  C   UNL A   1      49.175  29.842  31.692  1.00  0.00     0.173 A 
ATOM    123  F   UNL A   1      47.749  28.580  28.593  1.00  0.00    -0.203 F 
ATOM    124  C   UNL A   1      49.237  27.564  30.106  1.00  0.00     0.198 A 
ATOM    125  C   UNL A   1      49.969  28.757  32.055  1.00  0.00     0.198 A 
ATOM    126  F   UNL A   1      49.166  30.926  32.481  1.00  0.00    -0.203 F 
ATOM    127  F   UNL A   1      49.242  26.455  29.355  1.00  0.00    -0.200 F 
ATOM    128  C   UNL A   1      49.995  27.618  31.266  1.00  0.00     0.200 A 
ATOM    129  F   UNL A   1      50.714  28.818  33.167  1.00  0.00    -0.200 F 
ATOM    130  F   UNL A   1      50.749  26.571  31.624  1.00  0.00    -0.200 F 
ENDBRANCH 100 120
BRANCH 103 131
ATOM    131  C   UNL A   1      42.977  37.861  28.181  1.00  0.00     0.064 A 
ATOM    132  C   UNL A   1      42.225  37.963  27.003  1.00  0.00     0.173 A 
ATOM    133  C   UNL A   1      42.981  38.965  29.049  1.00  0.00     0.173 A 
ATOM    134  F   UNL A   1      42.206  36.945  26.131  1.00  0.00    -0.203 F 
ATOM    135  C   UNL A   1      41.529  39.130  26.691  1.00  0.00     0.198 A 
ATOM    136  C   UNL A   1      42.257  40.117  28.752  1.00  0.00     0.198 A 
ATOM    137  F   UNL A   1      43.680  38.917  30.193  1.00  0.00    -0.203 F 
ATOM    138  F   UNL A   1      40.865  39.221  25.531  1.00  0.00    -0.200 F 
ATOM    139  C   UNL A   1      41.541  40.204  27.568  1.00  0.00     0.200 A 
ATOM    140  F   UNL A   1      42.258  41.145  29.612  1.00  0.00    -0.200 F 
ATOM    141  F   UNL A   1      40.872  41.325  27.268  1.00  0.00    -0.200 F 
ENDBRANCH 103 131
BRANCH 118 142
ATOM    142  C   UNL A   1      49.584  35.993  26.991  1.00  0.00     0.064 A 
ATOM    143  C   UNL A   1      50.505  36.784  27.693  1.00  0.00     0.173 A 
ATOM    144  C   UNL A   1      49.778  35.828  25.611  1.00  0.00     0.173 A 
ATOM    145  F   UNL A   1      50.355  36.987  29.011  1.00  0.00    -0.203 F 
ATOM    146  C   UNL A   1      51.561  37.408  27.034  1.00  0.00     0.198 A 
ATOM    147  C   UNL A   1      50.855  36.424  24.962  1.00  0.00     0.198 A 
ATOM    148  F   UNL A   1      48.931  35.076  24.893  1.00  0.00    -0.203 F 
ATOM    149  F   UNL A   1      52.398  38.203  27.717  1.00  0.00    -0.200 F 
ATOM    150  C   UNL A   1      51.741  37.221  25.672  1.00  0.00     0.200 A 
ATOM    151  F   UNL A   1      51.036  36.229  23.648  1.00  0.00    -0.200 F 
ATOM    152  F   UNL A   1      52.763  37.815  25.041  1.00  0.00    -0.200 F 
ENDBRANCH 118 142
ENDBRANCH  83  86
ENDBRANCH  73  76
ENDBRANCH  69  72
ENDBRANCH  66  69
ENDBRANCH  63  66
ENDBRANCH  60  63
ENDBRANCH  57  60
ENDBRANCH  54  57
ENDBRANCH  52  54
ENDBRANCH  47  50
ENDBRANCH  46  47
ENDBRANCH   1  46
TORSDOF 27
ENDMDL
MODEL 8
REMARK VINA RESULT:      -8.3      6.168     10.844
REMARK SMILES CC/C=C/C/C=C/C/C=C/C/C=C/CC/C=C/COCC(=O)NCCCCCCNC(=O)c1ccc(-c2c3nc(c(-c4c(F)c(F)c(F)c(F)c4F)c4ccc([nH]4)c(-c4c(F)c(F)c(F)c(F)c4F)c4nc(c(-c5c(F)c(F)c(F)c(F)c5F)c5ccc2[nH]5)C=C4)C=C3)cc1
REMARK SMILES IDX 18 1 17 4 16 5 15 8 14 11 13 14 12 15 11 18 10 21 9 22 8 25
REMARK SMILES IDX 7 28 6 29 5 32 4 35 3 36 2 39 1 42 19 46 20 47 21 50 22 51
REMARK SMILES IDX 23 52 24 54 25 57 26 60 27 63 28 66 29 69 30 72 31 73 32 75
REMARK SMILES IDX 33 76 34 77 95 78 35 79 94 81 36 83 37 86 38 87 88 88 39 89
REMARK SMILES IDX 93 90 87 91 89 92 40 93 92 94 86 96 85 98 41 100 73 103
REMARK SMILES IDX 53 104 72 105 54 106 57 107 71 108 90 109 55 110 56 112
REMARK SMILES IDX 70 114 91 115 58 118 42 120 43 121 51 122 44 123 45 124
REMARK SMILES IDX 49 125 52 126 46 127 47 128 50 129 48 130 74 131 75 132
REMARK SMILES IDX 83 133 76 134 77 135 81 136 84 137 78 138 79 139 82 140
REMARK SMILES IDX 80 141 59 142 60 143 68 144 61 145 62 146 66 147 69 148
REMARK SMILES IDX 63 149 64 150 67 151 65 152
REMARK H PARENT 18 2 18 3 16 6 17 7 15 9 15 10 14 12 14 13 12 16 13 17 11 19
REMARK H PARENT 11 20 9 23 10 24 8 26 8 27 6 30 7 31 5 33 5 34 3 37 4 38 2 40
REMARK H PARENT 2 41 1 43 1 44 1 45 20 48 20 49 23 53 24 55 24 56 25 58 25 59
REMARK H PARENT 26 61 26 62 27 64 27 65 28 67 28 68 29 70 29 71 30 74 34 80
REMARK H PARENT 95 82 35 84 94 85 93 95 87 97 89 99 92 101 86 102 54 111
REMARK H PARENT 57 113 90 116 55 117 91 119
REMARK Flexibility Score: inf
ROOT
ATOM      1  C   UNL A   1      39.322  30.628  34.251  1.00  0.00     0.065 C 
ATOM      2  H   UNL A   1      40.122  30.494  34.949  1.00  0.00     0.061 H 
ATOM      3  H   UNL A   1      38.924  29.677  33.965  1.00  0.00     0.061 H 
ENDROOT
BRANCH   1   4
ATOM      4  C   UNL A   1      39.841  31.326  33.034  1.00  0.00    -0.063 C 
ATOM      5  C   UNL A   1      39.384  31.068  31.798  1.00  0.00    -0.086 C 
ATOM      6  H   UNL A   1      38.561  30.452  31.710  1.00  0.00     0.057 H 
ATOM      7  H   UNL A   1      40.580  32.036  33.149  1.00  0.00     0.060 H 
BRANCH   5   8
ATOM      8  C   UNL A   1      39.991  31.613  30.536  1.00  0.00    -0.032 C 
ATOM      9  H   UNL A   1      39.568  32.576  30.339  1.00  0.00     0.031 H 
ATOM     10  H   UNL A   1      41.049  31.674  30.681  1.00  0.00     0.031 H 
BRANCH   8  11
ATOM     11  C   UNL A   1      39.734  30.701  29.324  1.00  0.00    -0.032 C 
ATOM     12  H   UNL A   1      38.735  30.868  28.978  1.00  0.00     0.031 H 
ATOM     13  H   UNL A   1      40.461  30.945  28.579  1.00  0.00     0.031 H 
BRANCH  11  14
ATOM     14  C   UNL A   1      39.891  29.238  29.645  1.00  0.00    -0.088 C 
ATOM     15  C   UNL A   1      39.310  28.245  28.956  1.00  0.00    -0.085 C 
ATOM     16  H   UNL A   1      38.748  28.492  28.126  1.00  0.00     0.058 H 
ATOM     17  H   UNL A   1      40.487  28.983  30.448  1.00  0.00     0.057 H 
BRANCH  15  18
ATOM     18  C   UNL A   1      39.431  26.794  29.323  1.00  0.00    -0.017 C 
ATOM     19  H   UNL A   1      39.480  26.702  30.388  1.00  0.00     0.035 H 
ATOM     20  H   UNL A   1      38.578  26.268  28.948  1.00  0.00     0.035 H 
BRANCH  18  21
ATOM     21  C   UNL A   1      40.674  26.205  28.719  1.00  0.00    -0.084 C 
ATOM     22  C   UNL A   1      40.698  25.064  28.011  1.00  0.00    -0.084 C 
ATOM     23  H   UNL A   1      39.802  24.581  27.842  1.00  0.00     0.058 H 
ATOM     24  H   UNL A   1      41.564  26.708  28.857  1.00  0.00     0.058 H 
BRANCH  22  25
ATOM     25  C   UNL A   1      41.946  24.447  27.448  1.00  0.00    -0.017 C 
ATOM     26  H   UNL A   1      41.854  23.382  27.471  1.00  0.00     0.035 H 
ATOM     27  H   UNL A   1      42.074  24.786  26.440  1.00  0.00     0.035 H 
BRANCH  25  28
ATOM     28  C   UNL A   1      43.145  24.859  28.253  1.00  0.00    -0.084 C 
ATOM     29  C   UNL A   1      43.727  24.087  29.186  1.00  0.00    -0.084 C 
ATOM     30  H   UNL A   1      43.337  23.145  29.345  1.00  0.00     0.058 H 
ATOM     31  H   UNL A   1      43.547  25.793  28.080  1.00  0.00     0.058 H 
BRANCH  29  32
ATOM     32  C   UNL A   1      44.907  24.509  30.013  1.00  0.00    -0.017 C 
ATOM     33  H   UNL A   1      44.604  25.280  30.689  1.00  0.00     0.035 H 
ATOM     34  H   UNL A   1      45.267  23.659  30.554  1.00  0.00     0.035 H 
BRANCH  32  35
ATOM     35  C   UNL A   1      46.013  25.026  29.138  1.00  0.00    -0.085 C 
ATOM     36  C   UNL A   1      47.202  25.447  29.597  1.00  0.00    -0.089 C 
ATOM     37  H   UNL A   1      47.372  25.405  30.614  1.00  0.00     0.057 H 
ATOM     38  H   UNL A   1      45.849  25.060  28.120  1.00  0.00     0.058 H 
BRANCH  36  39
ATOM     39  C   UNL A   1      48.300  25.975  28.720  1.00  0.00    -0.038 C 
ATOM     40  H   UNL A   1      48.990  25.184  28.511  1.00  0.00     0.031 H 
ATOM     41  H   UNL A   1      47.862  26.342  27.815  1.00  0.00     0.031 H 
BRANCH  39  42
ATOM     42  C   UNL A   1      49.043  27.117  29.395  1.00  0.00    -0.062 C 
ATOM     43  H   UNL A   1      49.078  27.959  28.735  1.00  0.00     0.023 H 
ATOM     44  H   UNL A   1      50.039  26.806  29.629  1.00  0.00     0.023 H 
ATOM     45  H   UNL A   1      48.534  27.392  30.295  1.00  0.00     0.023 H 
ENDBRANCH  39  42
ENDBRANCH  36  39
ENDBRANCH  32  35
ENDBRANCH  29  32
ENDBRANCH  25  28
ENDBRANCH  22  25
ENDBRANCH  18  21
ENDBRANCH  15  18
ENDBRANCH  11  14
ENDBRANCH   8  11
ENDBRANCH   5   8
ENDBRANCH   1   4
BRANCH   1  46
ATOM     46  O   UNL A   1      38.289  31.403  34.860  1.00  0.00    -0.368 OA
BRANCH  46  47
ATOM     47  C   UNL A   1      38.683  32.054  36.063  1.00  0.00     0.126 C 
ATOM     48  H   UNL A   1      38.439  33.091  35.962  1.00  0.00     0.067 H 
ATOM     49  H   UNL A   1      39.727  31.837  36.161  1.00  0.00     0.067 H 
BRANCH  47  50
ATOM     50  C   UNL A   1      38.057  31.559  37.373  1.00  0.00     0.246 C 
ATOM     51  O   UNL A   1      37.450  30.490  37.449  1.00  0.00    -0.272 OA
ATOM     52  N   UNL A   1      38.204  32.318  38.498  1.00  0.00    -0.354 N 
ATOM     53  H   UNL A   1      37.858  31.924  39.332  1.00  0.00     0.163 HD
BRANCH  52  54
ATOM     54  C   UNL A   1      38.807  33.630  38.618  1.00  0.00     0.017 C 
ATOM     55  H   UNL A   1      38.107  34.294  39.078  1.00  0.00     0.049 H 
ATOM     56  H   UNL A   1      39.067  33.974  37.638  1.00  0.00     0.049 H 
BRANCH  54  57
ATOM     57  C   UNL A   1      40.078  33.579  39.465  1.00  0.00    -0.036 C 
ATOM     58  H   UNL A   1      39.840  33.111  40.398  1.00  0.00     0.028 H 
ATOM     59  H   UNL A   1      40.410  34.590  39.580  1.00  0.00     0.028 H 
BRANCH  57  60
ATOM     60  C   UNL A   1      41.236  32.806  38.820  1.00  0.00    -0.052 C 
ATOM     61  H   UNL A   1      41.356  33.166  37.819  1.00  0.00     0.027 H 
ATOM     62  H   UNL A   1      40.969  31.771  38.872  1.00  0.00     0.027 H 
BRANCH  60  63
ATOM     63  C   UNL A   1      42.585  32.934  39.535  1.00  0.00    -0.052 C 
ATOM     64  H   UNL A   1      43.308  33.270  38.821  1.00  0.00     0.027 H 
ATOM     65  H   UNL A   1      42.802  31.967  39.938  1.00  0.00     0.027 H 
BRANCH  63  66
ATOM     66  C   UNL A   1      42.601  33.904  40.719  1.00  0.00    -0.036 C 
ATOM     67  H   UNL A   1      42.940  33.370  41.583  1.00  0.00     0.028 H 
ATOM     68  H   UNL A   1      41.604  34.276  40.819  1.00  0.00     0.028 H 
BRANCH  66  69
ATOM     69  C   UNL A   1      43.500  35.123  40.531  1.00  0.00     0.018 C 
ATOM     70  H   UNL A   1      44.118  34.965  39.672  1.00  0.00     0.049 H 
ATOM     71  H   UNL A   1      44.087  35.236  41.419  1.00  0.00     0.049 H 
BRANCH  69  72
ATOM     72  N   UNL A   1      42.737  36.347  40.341  1.00  0.00    -0.352 N 
ATOM     73  C   UNL A   1      42.362  36.974  39.180  1.00  0.00     0.251 C 
ATOM     74  H   UNL A   1      42.448  36.792  41.170  1.00  0.00     0.163 HD
ATOM     75  O   UNL A   1      41.880  38.103  39.216  1.00  0.00    -0.269 OA
BRANCH  73  76
ATOM     76  C   UNL A   1      42.564  36.304  37.877  1.00  0.00     0.039 A 
ATOM     77  C   UNL A   1      43.866  36.007  37.468  1.00  0.00    -0.049 A 
ATOM     78  C   UNL A   1      41.478  35.964  37.066  1.00  0.00    -0.049 A 
ATOM     79  C   UNL A   1      44.075  35.295  36.286  1.00  0.00    -0.053 A 
ATOM     80  H   UNL A   1      44.671  36.313  38.038  1.00  0.00     0.063 H 
ATOM     81  C   UNL A   1      41.682  35.192  35.924  1.00  0.00    -0.053 A 
ATOM     82  H   UNL A   1      40.528  36.282  37.312  1.00  0.00     0.063 H 
ATOM     83  C   UNL A   1      42.982  34.839  35.529  1.00  0.00    -0.014 A 
ATOM     84  H   UNL A   1      45.036  35.103  35.964  1.00  0.00     0.063 H 
ATOM     85  H   UNL A   1      40.873  34.879  35.365  1.00  0.00     0.063 H 
BRANCH  83  86
ATOM     86  C   UNL A   1      43.181  33.947  34.357  1.00  0.00     0.031 A 
ATOM     87  C   UNL A   1      43.323  34.519  32.974  1.00  0.00     0.074 A 
ATOM     88  C   UNL A   1      43.162  32.611  34.536  1.00  0.00     0.049 A 
ATOM     89  N   UNL A   1      43.437  33.892  31.829  1.00  0.00    -0.248 NA
ATOM     90  C   UNL A   1      43.315  35.985  32.858  1.00  0.00    -0.034 C 
ATOM     91  C   UNL A   1      42.982  31.935  35.823  1.00  0.00    -0.036 A 
ATOM     92  N   UNL A   1      43.281  31.581  33.635  1.00  0.00    -0.354 N 
ATOM     93  C   UNL A   1      43.505  34.884  30.860  1.00  0.00     0.074 A 
ATOM     94  C   UNL A   1      43.373  36.153  31.544  1.00  0.00    -0.034 C 
ATOM     95  H   UNL A   1      43.276  36.697  33.605  1.00  0.00     0.065 H 
ATOM     96  C   UNL A   1      43.020  30.608  35.632  1.00  0.00    -0.036 A 
ATOM     97  H   UNL A   1      42.847  32.405  36.731  1.00  0.00     0.065 H 
ATOM     98  C   UNL A   1      43.180  30.336  34.207  1.00  0.00     0.049 A 
ATOM     99  H   UNL A   1      43.425  31.723  32.672  1.00  0.00     0.167 HD
ATOM    100  C   UNL A   1      43.681  34.747  29.524  1.00  0.00     0.037 A 
ATOM    101  H   UNL A   1      43.328  37.069  31.071  1.00  0.00     0.065 H 
ATOM    102  H   UNL A   1      42.948  29.894  36.374  1.00  0.00     0.065 H 
ATOM    103  C   UNL A   1      43.195  29.112  33.645  1.00  0.00     0.037 A 
ATOM    104  C   UNL A   1      43.829  33.483  28.851  1.00  0.00     0.049 A 
ATOM    105  C   UNL A   1      43.368  28.992  32.155  1.00  0.00     0.074 A 
ATOM    106  C   UNL A   1      44.081  33.245  27.510  1.00  0.00    -0.036 A 
ATOM    107  N   UNL A   1      43.726  32.242  29.463  1.00  0.00    -0.354 N 
ATOM    108  N   UNL A   1      43.514  29.938  31.260  1.00  0.00    -0.248 NA
ATOM    109  C   UNL A   1      43.378  27.633  31.596  1.00  0.00    -0.034 C 
ATOM    110  C   UNL A   1      44.068  31.863  27.300  1.00  0.00    -0.036 A 
ATOM    111  H   UNL A   1      44.249  33.964  26.790  1.00  0.00     0.065 H 
ATOM    112  C   UNL A   1      43.872  31.236  28.520  1.00  0.00     0.049 A 
ATOM    113  H   UNL A   1      43.572  32.097  30.425  1.00  0.00     0.167 HD
ATOM    114  C   UNL A   1      43.659  29.290  30.040  1.00  0.00     0.074 A 
ATOM    115  C   UNL A   1      43.605  27.870  30.313  1.00  0.00    -0.034 C 
ATOM    116  H   UNL A   1      43.244  26.729  32.078  1.00  0.00     0.065 H 
ATOM    117  H   UNL A   1      44.185  31.389  26.390  1.00  0.00     0.065 H 
ATOM    118  C   UNL A   1      43.817  29.825  28.804  1.00  0.00     0.037 A 
ATOM    119  H   UNL A   1      43.729  27.135  29.598  1.00  0.00     0.065 H 
BRANCH 100 120
ATOM    120  C   UNL A   1      43.725  35.996  28.690  1.00  0.00     0.064 A 
ATOM    121  C   UNL A   1      44.932  36.656  28.414  1.00  0.00     0.173 A 
ATOM    122  C   UNL A   1      42.553  36.501  28.105  1.00  0.00     0.173 A 
ATOM    123  F   UNL A   1      46.079  36.220  28.955  1.00  0.00    -0.203 F 
ATOM    124  C   UNL A   1      44.961  37.787  27.601  1.00  0.00     0.198 A 
ATOM    125  C   UNL A   1      42.591  37.612  27.267  1.00  0.00     0.198 A 
ATOM    126  F   UNL A   1      41.374  35.903  28.330  1.00  0.00    -0.203 F 
ATOM    127  F   UNL A   1      46.120  38.424  27.383  1.00  0.00    -0.200 F 
ATOM    128  C   UNL A   1      43.793  38.257  27.021  1.00  0.00     0.200 A 
ATOM    129  F   UNL A   1      41.464  38.056  26.695  1.00  0.00    -0.200 F 
ATOM    130  F   UNL A   1      43.825  39.335  26.226  1.00  0.00    -0.200 F 
ENDBRANCH 100 120
BRANCH 103 131
ATOM    131  C   UNL A   1      43.040  27.900  34.493  1.00  0.00     0.064 A 
ATOM    132  C   UNL A   1      44.120  27.385  35.223  1.00  0.00     0.173 A 
ATOM    133  C   UNL A   1      41.816  27.217  34.572  1.00  0.00     0.173 A 
ATOM    134  F   UNL A   1      45.316  27.989  35.164  1.00  0.00    -0.203 F 
ATOM    135  C   UNL A   1      43.990  26.220  35.978  1.00  0.00     0.198 A 
ATOM    136  C   UNL A   1      41.679  26.073  35.354  1.00  0.00     0.198 A 
ATOM    137  F   UNL A   1      40.750  27.670  33.896  1.00  0.00    -0.203 F 
ATOM    138  F   UNL A   1      45.054  25.719  36.620  1.00  0.00    -0.200 F 
ATOM    139  C   UNL A   1      42.768  25.568  36.047  1.00  0.00     0.200 A 
ATOM    140  F   UNL A   1      40.491  25.456  35.431  1.00  0.00    -0.200 F 
ATOM    141  F   UNL A   1      42.644  24.449  36.773  1.00  0.00    -0.200 F 
ENDBRANCH 103 131
BRANCH 118 142
ATOM    142  C   UNL A   1      43.967  28.869  27.655  1.00  0.00     0.064 A 
ATOM    143  C   UNL A   1      45.183  28.223  27.389  1.00  0.00     0.173 A 
ATOM    144  C   UNL A   1      42.870  28.568  26.832  1.00  0.00     0.173 A 
ATOM    145  F   UNL A   1      46.266  28.488  28.135  1.00  0.00    -0.203 F 
ATOM    146  C   UNL A   1      45.303  27.332  26.325  1.00  0.00     0.198 A 
ATOM    147  C   UNL A   1      42.985  27.651  25.791  1.00  0.00     0.198 A 
ATOM    148  F   UNL A   1      41.683  29.153  27.046  1.00  0.00    -0.203 F 
ATOM    149  F   UNL A   1      46.489  26.767  26.057  1.00  0.00    -0.200 F 
ATOM    150  C   UNL A   1      44.203  27.041  25.532  1.00  0.00     0.200 A 
ATOM    151  F   UNL A   1      41.916  27.359  25.037  1.00  0.00    -0.200 F 
ATOM    152  F   UNL A   1      44.318  26.177  24.514  1.00  0.00    -0.200 F 
ENDBRANCH 118 142
ENDBRANCH  83  86
ENDBRANCH  73  76
ENDBRANCH  69  72
ENDBRANCH  66  69
ENDBRANCH  63  66
ENDBRANCH  60  63
ENDBRANCH  57  60
ENDBRANCH  54  57
ENDBRANCH  52  54
ENDBRANCH  47  50
ENDBRANCH  46  47
ENDBRANCH   1  46
TORSDOF 27
ENDMDL
MODEL 9
REMARK VINA RESULT:      -8.2      6.418     10.354
REMARK SMILES CC/C=C/C/C=C/C/C=C/C/C=C/CC/C=C/COCC(=O)NCCCCCCNC(=O)c1ccc(-c2c3nc(c(-c4c(F)c(F)c(F)c(F)c4F)c4ccc([nH]4)c(-c4c(F)c(F)c(F)c(F)c4F)c4nc(c(-c5c(F)c(F)c(F)c(F)c5F)c5ccc2[nH]5)C=C4)C=C3)cc1
REMARK SMILES IDX 18 1 17 4 16 5 15 8 14 11 13 14 12 15 11 18 10 21 9 22 8 25
REMARK SMILES IDX 7 28 6 29 5 32 4 35 3 36 2 39 1 42 19 46 20 47 21 50 22 51
REMARK SMILES IDX 23 52 24 54 25 57 26 60 27 63 28 66 29 69 30 72 31 73 32 75
REMARK SMILES IDX 33 76 34 77 95 78 35 79 94 81 36 83 37 86 38 87 88 88 39 89
REMARK SMILES IDX 93 90 87 91 89 92 40 93 92 94 86 96 85 98 41 100 73 103
REMARK SMILES IDX 53 104 72 105 54 106 57 107 71 108 90 109 55 110 56 112
REMARK SMILES IDX 70 114 91 115 58 118 42 120 43 121 51 122 44 123 45 124
REMARK SMILES IDX 49 125 52 126 46 127 47 128 50 129 48 130 74 131 75 132
REMARK SMILES IDX 83 133 76 134 77 135 81 136 84 137 78 138 79 139 82 140
REMARK SMILES IDX 80 141 59 142 60 143 68 144 61 145 62 146 66 147 69 148
REMARK SMILES IDX 63 149 64 150 67 151 65 152
REMARK H PARENT 18 2 18 3 16 6 17 7 15 9 15 10 14 12 14 13 12 16 13 17 11 19
REMARK H PARENT 11 20 9 23 10 24 8 26 8 27 6 30 7 31 5 33 5 34 3 37 4 38 2 40
REMARK H PARENT 2 41 1 43 1 44 1 45 20 48 20 49 23 53 24 55 24 56 25 58 25 59
REMARK H PARENT 26 61 26 62 27 64 27 65 28 67 28 68 29 70 29 71 30 74 34 80
REMARK H PARENT 95 82 35 84 94 85 93 95 87 97 89 99 92 101 86 102 54 111
REMARK H PARENT 57 113 90 116 55 117 91 119
REMARK Flexibility Score: inf
ROOT
ATOM      1  C   UNL A   1      35.501  33.439  28.849  1.00  0.00     0.065 C 
ATOM      2  H   UNL A   1      36.551  33.533  28.666  1.00  0.00     0.061 H 
ATOM      3  H   UNL A   1      35.336  32.949  29.786  1.00  0.00     0.061 H 
ENDROOT
BRANCH   1   4
ATOM      4  C   UNL A   1      34.881  32.625  27.757  1.00  0.00    -0.063 C 
ATOM      5  C   UNL A   1      34.058  31.593  27.999  1.00  0.00    -0.086 C 
ATOM      6  H   UNL A   1      33.752  31.440  28.972  1.00  0.00     0.057 H 
ATOM      7  H   UNL A   1      35.094  32.868  26.778  1.00  0.00     0.060 H 
BRANCH   5   8
ATOM      8  C   UNL A   1      33.553  30.644  26.948  1.00  0.00    -0.032 C 
ATOM      9  H   UNL A   1      32.484  30.687  26.931  1.00  0.00     0.031 H 
ATOM     10  H   UNL A   1      33.970  30.942  26.010  1.00  0.00     0.031 H 
BRANCH   8  11
ATOM     11  C   UNL A   1      33.986  29.193  27.216  1.00  0.00    -0.032 C 
ATOM     12  H   UNL A   1      34.653  28.886  26.437  1.00  0.00     0.031 H 
ATOM     13  H   UNL A   1      34.457  29.170  28.176  1.00  0.00     0.031 H 
BRANCH  11  14
ATOM     14  C   UNL A   1      32.827  28.232  27.260  1.00  0.00    -0.088 C 
ATOM     15  C   UNL A   1      32.208  27.742  26.176  1.00  0.00    -0.085 C 
ATOM     16  H   UNL A   1      32.570  28.008  25.247  1.00  0.00     0.058 H 
ATOM     17  H   UNL A   1      32.488  27.929  28.187  1.00  0.00     0.057 H 
BRANCH  15  18
ATOM     18  C   UNL A   1      31.018  26.829  26.238  1.00  0.00    -0.017 C 
ATOM     19  H   UNL A   1      30.519  26.961  27.176  1.00  0.00     0.035 H 
ATOM     20  H   UNL A   1      30.353  27.067  25.434  1.00  0.00     0.035 H 
BRANCH  18  21
ATOM     21  C   UNL A   1      31.451  25.397  26.106  1.00  0.00    -0.084 C 
ATOM     22  C   UNL A   1      30.644  24.344  26.319  1.00  0.00    -0.084 C 
ATOM     23  H   UNL A   1      29.657  24.531  26.552  1.00  0.00     0.058 H 
ATOM     24  H   UNL A   1      32.429  25.210  25.837  1.00  0.00     0.058 H 
BRANCH  22  25
ATOM     25  C   UNL A   1      31.087  22.912  26.235  1.00  0.00    -0.017 C 
ATOM     26  H   UNL A   1      31.761  22.704  27.039  1.00  0.00     0.035 H 
ATOM     27  H   UNL A   1      30.226  22.280  26.300  1.00  0.00     0.035 H 
BRANCH  25  28
ATOM     28  C   UNL A   1      31.782  22.653  24.928  1.00  0.00    -0.084 C 
ATOM     29  C   UNL A   1      33.102  22.804  24.734  1.00  0.00    -0.084 C 
ATOM     30  H   UNL A   1      33.678  23.098  25.538  1.00  0.00     0.058 H 
ATOM     31  H   UNL A   1      31.209  22.338  24.130  1.00  0.00     0.058 H 
BRANCH  29  32
ATOM     32  C   UNL A   1      33.793  22.573  23.420  1.00  0.00    -0.017 C 
ATOM     33  H   UNL A   1      34.838  22.429  23.595  1.00  0.00     0.035 H 
ATOM     34  H   UNL A   1      33.369  21.706  22.959  1.00  0.00     0.035 H 
BRANCH  32  35
ATOM     35  C   UNL A   1      33.603  23.748  22.505  1.00  0.00    -0.085 C 
ATOM     36  C   UNL A   1      33.485  25.018  22.925  1.00  0.00    -0.089 C 
ATOM     37  H   UNL A   1      33.536  25.201  23.939  1.00  0.00     0.057 H 
ATOM     38  H   UNL A   1      33.561  23.570  21.490  1.00  0.00     0.058 H 
BRANCH  36  39
ATOM     39  C   UNL A   1      33.283  26.189  22.006  1.00  0.00    -0.038 C 
ATOM     40  H   UNL A   1      33.940  26.092  21.168  1.00  0.00     0.031 H 
ATOM     41  H   UNL A   1      32.262  26.195  21.687  1.00  0.00     0.031 H 
BRANCH  39  42
ATOM     42  C   UNL A   1      33.575  27.502  22.716  1.00  0.00    -0.062 C 
ATOM     43  H   UNL A   1      34.108  28.153  22.056  1.00  0.00     0.023 H 
ATOM     44  H   UNL A   1      34.167  27.314  23.586  1.00  0.00     0.023 H 
ATOM     45  H   UNL A   1      32.654  27.964  23.004  1.00  0.00     0.023 H 
ENDBRANCH  39  42
ENDBRANCH  36  39
ENDBRANCH  32  35
ENDBRANCH  29  32
ENDBRANCH  25  28
ENDBRANCH  22  25
ENDBRANCH  18  21
ENDBRANCH  15  18
ENDBRANCH  11  14
ENDBRANCH   8  11
ENDBRANCH   5   8
ENDBRANCH   1   4
BRANCH   1  46
ATOM     46  O   UNL A   1      34.910  34.738  28.891  1.00  0.00    -0.368 OA
BRANCH  46  47
ATOM     47  C   UNL A   1      33.800  34.842  29.777  1.00  0.00     0.126 C 
ATOM     48  H   UNL A   1      34.180  34.788  30.776  1.00  0.00     0.067 H 
ATOM     49  H   UNL A   1      33.147  34.043  29.492  1.00  0.00     0.067 H 
BRANCH  47  50
ATOM     50  C   UNL A   1      32.935  36.105  29.682  1.00  0.00     0.246 C 
ATOM     51  O   UNL A   1      32.153  36.298  28.750  1.00  0.00    -0.272 OA
ATOM     52  N   UNL A   1      33.016  37.032  30.681  1.00  0.00    -0.354 N 
ATOM     53  H   UNL A   1      32.386  37.787  30.620  1.00  0.00     0.163 HD
BRANCH  52  54
ATOM     54  C   UNL A   1      33.914  37.044  31.818  1.00  0.00     0.017 C 
ATOM     55  H   UNL A   1      34.060  38.054  32.136  1.00  0.00     0.049 H 
ATOM     56  H   UNL A   1      34.842  36.604  31.520  1.00  0.00     0.049 H 
BRANCH  54  57
ATOM     57  C   UNL A   1      33.344  36.232  32.980  1.00  0.00    -0.036 C 
ATOM     58  H   UNL A   1      32.731  35.453  32.576  1.00  0.00     0.028 H 
ATOM     59  H   UNL A   1      32.795  36.917  33.592  1.00  0.00     0.028 H 
BRANCH  57  60
ATOM     60  C   UNL A   1      34.407  35.590  33.882  1.00  0.00    -0.052 C 
ATOM     61  H   UNL A   1      33.913  34.903  34.537  1.00  0.00     0.027 H 
ATOM     62  H   UNL A   1      34.889  36.396  34.394  1.00  0.00     0.027 H 
BRANCH  60  63
ATOM     63  C   UNL A   1      35.515  34.830  33.146  1.00  0.00    -0.052 C 
ATOM     64  H   UNL A   1      36.417  34.926  33.714  1.00  0.00     0.027 H 
ATOM     65  H   UNL A   1      35.579  35.266  32.171  1.00  0.00     0.027 H 
BRANCH  63  66
ATOM     66  C   UNL A   1      35.247  33.339  32.931  1.00  0.00    -0.036 C 
ATOM     67  H   UNL A   1      34.427  33.243  32.249  1.00  0.00     0.028 H 
ATOM     68  H   UNL A   1      35.042  32.927  33.896  1.00  0.00     0.028 H 
BRANCH  66  69
ATOM     69  C   UNL A   1      36.428  32.554  32.368  1.00  0.00     0.018 C 
ATOM     70  H   UNL A   1      37.336  33.002  32.715  1.00  0.00     0.049 H 
ATOM     71  H   UNL A   1      36.361  32.583  31.300  1.00  0.00     0.049 H 
BRANCH  69  72
ATOM     72  N   UNL A   1      36.409  31.158  32.777  1.00  0.00    -0.352 N 
ATOM     73  C   UNL A   1      37.305  30.155  32.509  1.00  0.00     0.251 C 
ATOM     74  H   UNL A   1      35.637  30.895  33.328  1.00  0.00     0.163 HD
ATOM     75  O   UNL A   1      37.028  28.989  32.783  1.00  0.00    -0.269 OA
BRANCH  73  76
ATOM     76  C   UNL A   1      38.597  30.468  31.864  1.00  0.00     0.039 A 
ATOM     77  C   UNL A   1      38.650  30.555  30.471  1.00  0.00    -0.049 A 
ATOM     78  C   UNL A   1      39.750  30.682  32.624  1.00  0.00    -0.049 A 
ATOM     79  C   UNL A   1      39.838  30.938  29.845  1.00  0.00    -0.053 A 
ATOM     80  H   UNL A   1      37.814  30.337  29.906  1.00  0.00     0.063 H 
ATOM     81  C   UNL A   1      40.914  31.133  32.006  1.00  0.00    -0.053 A 
ATOM     82  H   UNL A   1      39.739  30.508  33.641  1.00  0.00     0.063 H 
ATOM     83  C   UNL A   1      40.967  31.278  30.611  1.00  0.00    -0.014 A 
ATOM     84  H   UNL A   1      39.889  30.971  28.815  1.00  0.00     0.063 H 
ATOM     85  H   UNL A   1      41.743  31.361  32.577  1.00  0.00     0.063 H 
BRANCH  83  86
ATOM     86  C   UNL A   1      42.185  31.838  29.972  1.00  0.00     0.031 A 
ATOM     87  C   UNL A   1      43.305  30.936  29.534  1.00  0.00     0.074 A 
ATOM     88  C   UNL A   1      42.309  33.175  29.851  1.00  0.00     0.049 A 
ATOM     89  N   UNL A   1      44.468  31.252  29.020  1.00  0.00    -0.248 NA
ATOM     90  C   UNL A   1      43.102  29.491  29.715  1.00  0.00    -0.034 C 
ATOM     91  C   UNL A   1      41.313  34.158  30.283  1.00  0.00    -0.036 A 
ATOM     92  N   UNL A   1      43.330  33.941  29.344  1.00  0.00    -0.354 N 
ATOM     93  C   UNL A   1      45.136  30.051  28.826  1.00  0.00     0.074 A 
ATOM     94  C   UNL A   1      44.269  29.001  29.320  1.00  0.00    -0.034 C 
ATOM     95  H   UNL A   1      42.269  28.989  30.060  1.00  0.00     0.065 H 
ATOM     96  C   UNL A   1      41.762  35.391  30.008  1.00  0.00    -0.036 A 
ATOM     97  H   UNL A   1      40.410  33.936  30.730  1.00  0.00     0.065 H 
ATOM     98  C   UNL A   1      43.096  35.292  29.423  1.00  0.00     0.049 A 
ATOM     99  H   UNL A   1      44.151  33.558  28.960  1.00  0.00     0.167 HD
ATOM    100  C   UNL A   1      46.353  29.843  28.269  1.00  0.00     0.037 A 
ATOM    101  H   UNL A   1      44.527  28.003  29.360  1.00  0.00     0.065 H 
ATOM    102  H   UNL A   1      41.247  36.269  30.181  1.00  0.00     0.065 H 
ATOM    103  C   UNL A   1      43.874  36.337  29.081  1.00  0.00     0.037 A 
ATOM    104  C   UNL A   1      47.203  30.890  27.765  1.00  0.00     0.049 A 
ATOM    105  C   UNL A   1      45.232  36.075  28.487  1.00  0.00     0.074 A 
ATOM    106  C   UNL A   1      48.423  30.772  27.120  1.00  0.00    -0.036 A 
ATOM    107  N   UNL A   1      46.931  32.247  27.857  1.00  0.00    -0.354 N 
ATOM    108  N   UNL A   1      45.818  34.931  28.232  1.00  0.00    -0.248 NA
ATOM    109  C   UNL A   1      46.038  37.251  28.131  1.00  0.00    -0.034 C 
ATOM    110  C   UNL A   1      48.918  32.057  26.880  1.00  0.00    -0.036 A 
ATOM    111  H   UNL A   1      48.888  29.888  26.862  1.00  0.00     0.065 H 
ATOM    112  C   UNL A   1      47.978  32.977  27.316  1.00  0.00     0.049 A 
ATOM    113  H   UNL A   1      46.115  32.633  28.250  1.00  0.00     0.167 HD
ATOM    114  C   UNL A   1      47.045  35.246  27.666  1.00  0.00     0.074 A 
ATOM    115  C   UNL A   1      47.111  36.690  27.592  1.00  0.00    -0.034 C 
ATOM    116  H   UNL A   1      45.824  38.252  28.265  1.00  0.00     0.065 H 
ATOM    117  H   UNL A   1      49.829  32.284  26.450  1.00  0.00     0.065 H 
ATOM    118  C   UNL A   1      48.031  34.415  27.249  1.00  0.00     0.037 A 
ATOM    119  H   UNL A   1      47.894  37.216  27.173  1.00  0.00     0.065 H 
BRANCH 100 120
ATOM    120  C   UNL A   1      46.848  28.428  28.172  1.00  0.00     0.064 A 
ATOM    121  C   UNL A   1      47.561  27.823  29.218  1.00  0.00     0.173 A 
ATOM    122  C   UNL A   1      46.548  27.646  27.046  1.00  0.00     0.173 A 
ATOM    123  F   UNL A   1      47.882  28.528  30.313  1.00  0.00    -0.203 F 
ATOM    124  C   UNL A   1      47.973  26.496  29.132  1.00  0.00     0.198 A 
ATOM    125  C   UNL A   1      46.934  26.310  26.977  1.00  0.00     0.198 A 
ATOM    126  F   UNL A   1      45.862  28.172  26.021  1.00  0.00    -0.203 F 
ATOM    127  F   UNL A   1      48.687  25.951  30.127  1.00  0.00    -0.200 F 
ATOM    128  C   UNL A   1      47.651  25.738  28.016  1.00  0.00     0.200 A 
ATOM    129  F   UNL A   1      46.607  25.575  25.905  1.00  0.00    -0.200 F 
ATOM    130  F   UNL A   1      48.034  24.456  27.941  1.00  0.00    -0.200 F 
ENDBRANCH 100 120
BRANCH 103 131
ATOM    131  C   UNL A   1      43.393  37.728  29.292  1.00  0.00     0.064 A 
ATOM    132  C   UNL A   1      43.768  38.460  30.428  1.00  0.00     0.173 A 
ATOM    133  C   UNL A   1      42.528  38.347  28.376  1.00  0.00     0.173 A 
ATOM    134  F   UNL A   1      44.575  37.905  31.344  1.00  0.00    -0.203 F 
ATOM    135  C   UNL A   1      43.277  39.745  30.652  1.00  0.00     0.198 A 
ATOM    136  C   UNL A   1      42.067  39.645  28.584  1.00  0.00     0.198 A 
ATOM    137  F   UNL A   1      42.142  37.694  27.270  1.00  0.00    -0.203 F 
ATOM    138  F   UNL A   1      43.607  40.398  31.774  1.00  0.00    -0.200 F 
ATOM    139  C   UNL A   1      42.432  40.338  29.727  1.00  0.00     0.200 A 
ATOM    140  F   UNL A   1      41.263  40.220  27.678  1.00  0.00    -0.200 F 
ATOM    141  F   UNL A   1      41.960  41.574  29.943  1.00  0.00    -0.200 F 
ENDBRANCH 103 131
BRANCH 118 142
ATOM    142  C   UNL A   1      49.258  35.046  26.652  1.00  0.00     0.064 A 
ATOM    143  C   UNL A   1      49.285  35.490  25.323  1.00  0.00     0.173 A 
ATOM    144  C   UNL A   1      50.407  35.242  27.434  1.00  0.00     0.173 A 
ATOM    145  F   UNL A   1      48.218  35.312  24.529  1.00  0.00    -0.203 F 
ATOM    146  C   UNL A   1      50.427  36.082  24.788  1.00  0.00     0.198 A 
ATOM    147  C   UNL A   1      51.535  35.866  26.906  1.00  0.00     0.198 A 
ATOM    148  F   UNL A   1      50.433  34.843  28.713  1.00  0.00    -0.203 F 
ATOM    149  F   UNL A   1      50.448  36.450  23.499  1.00  0.00    -0.200 F 
ATOM    150  C   UNL A   1      51.547  36.277  25.582  1.00  0.00     0.200 A 
ATOM    151  F   UNL A   1      52.611  36.068  27.680  1.00  0.00    -0.200 F 
ATOM    152  F   UNL A   1      52.642  36.854  25.069  1.00  0.00    -0.200 F 
ENDBRANCH 118 142
ENDBRANCH  83  86
ENDBRANCH  73  76
ENDBRANCH  69  72
ENDBRANCH  66  69
ENDBRANCH  63  66
ENDBRANCH  60  63
ENDBRANCH  57  60
ENDBRANCH  54  57
ENDBRANCH  52  54
ENDBRANCH  47  50
ENDBRANCH  46  47
ENDBRANCH   1  46
TORSDOF 27
ENDMDL
MODEL 10
REMARK VINA RESULT:      -8.2      4.894     10.473
REMARK SMILES CC/C=C/C/C=C/C/C=C/C/C=C/CC/C=C/COCC(=O)NCCCCCCNC(=O)c1ccc(-c2c3nc(c(-c4c(F)c(F)c(F)c(F)c4F)c4ccc([nH]4)c(-c4c(F)c(F)c(F)c(F)c4F)c4nc(c(-c5c(F)c(F)c(F)c(F)c5F)c5ccc2[nH]5)C=C4)C=C3)cc1
REMARK SMILES IDX 18 1 17 4 16 5 15 8 14 11 13 14 12 15 11 18 10 21 9 22 8 25
REMARK SMILES IDX 7 28 6 29 5 32 4 35 3 36 2 39 1 42 19 46 20 47 21 50 22 51
REMARK SMILES IDX 23 52 24 54 25 57 26 60 27 63 28 66 29 69 30 72 31 73 32 75
REMARK SMILES IDX 33 76 34 77 95 78 35 79 94 81 36 83 37 86 38 87 88 88 39 89
REMARK SMILES IDX 93 90 87 91 89 92 40 93 92 94 86 96 85 98 41 100 73 103
REMARK SMILES IDX 53 104 72 105 54 106 57 107 71 108 90 109 55 110 56 112
REMARK SMILES IDX 70 114 91 115 58 118 42 120 43 121 51 122 44 123 45 124
REMARK SMILES IDX 49 125 52 126 46 127 47 128 50 129 48 130 74 131 75 132
REMARK SMILES IDX 83 133 76 134 77 135 81 136 84 137 78 138 79 139 82 140
REMARK SMILES IDX 80 141 59 142 60 143 68 144 61 145 62 146 66 147 69 148
REMARK SMILES IDX 63 149 64 150 67 151 65 152
REMARK H PARENT 18 2 18 3 16 6 17 7 15 9 15 10 14 12 14 13 12 16 13 17 11 19
REMARK H PARENT 11 20 9 23 10 24 8 26 8 27 6 30 7 31 5 33 5 34 3 37 4 38 2 40
REMARK H PARENT 2 41 1 43 1 44 1 45 20 48 20 49 23 53 24 55 24 56 25 58 25 59
REMARK H PARENT 26 61 26 62 27 64 27 65 28 67 28 68 29 70 29 71 30 74 34 80
REMARK H PARENT 95 82 35 84 94 85 93 95 87 97 89 99 92 101 86 102 54 111
REMARK H PARENT 57 113 90 116 55 117 91 119
REMARK Flexibility Score: inf
ROOT
ATOM      1  C   UNL A   1      40.663  27.006  29.231  1.00  0.00     0.065 C 
ATOM      2  H   UNL A   1      39.715  26.848  28.760  1.00  0.00     0.061 H 
ATOM      3  H   UNL A   1      40.871  26.206  29.911  1.00  0.00     0.061 H 
ENDROOT
BRANCH   1   4
ATOM      4  C   UNL A   1      40.629  28.295  29.989  1.00  0.00    -0.063 C 
ATOM      5  C   UNL A   1      40.169  28.387  31.247  1.00  0.00    -0.086 C 
ATOM      6  H   UNL A   1      39.947  27.509  31.742  1.00  0.00     0.057 H 
ATOM      7  H   UNL A   1      40.974  29.150  29.526  1.00  0.00     0.060 H 
BRANCH   5   8
ATOM      8  C   UNL A   1      39.955  29.680  31.982  1.00  0.00    -0.032 C 
ATOM      9  H   UNL A   1      38.904  29.826  32.121  1.00  0.00     0.031 H 
ATOM     10  H   UNL A   1      40.466  29.613  32.919  1.00  0.00     0.031 H 
BRANCH   8  11
ATOM     11  C   UNL A   1      40.527  30.886  31.219  1.00  0.00    -0.032 C 
ATOM     12  H   UNL A   1      41.270  31.355  31.830  1.00  0.00     0.031 H 
ATOM     13  H   UNL A   1      40.936  30.521  30.301  1.00  0.00     0.031 H 
BRANCH  11  14
ATOM     14  C   UNL A   1      39.480  31.911  30.869  1.00  0.00    -0.088 C 
ATOM     15  C   UNL A   1      39.735  33.074  30.252  1.00  0.00    -0.085 C 
ATOM     16  H   UNL A   1      40.706  33.268  29.961  1.00  0.00     0.058 H 
ATOM     17  H   UNL A   1      38.500  31.703  31.121  1.00  0.00     0.057 H 
BRANCH  15  18
ATOM     18  C   UNL A   1      38.688  34.110  29.961  1.00  0.00    -0.017 C 
ATOM     19  H   UNL A   1      38.591  34.762  30.805  1.00  0.00     0.035 H 
ATOM     20  H   UNL A   1      38.983  34.671  29.099  1.00  0.00     0.035 H 
BRANCH  18  21
ATOM     21  C   UNL A   1      37.365  33.454  29.690  1.00  0.00    -0.084 C 
ATOM     22  C   UNL A   1      36.856  33.266  28.461  1.00  0.00    -0.084 C 
ATOM     23  H   UNL A   1      37.426  33.559  27.652  1.00  0.00     0.058 H 
ATOM     24  H   UNL A   1      36.811  33.128  30.498  1.00  0.00     0.058 H 
BRANCH  22  25
ATOM     25  C   UNL A   1      35.512  32.654  28.190  1.00  0.00    -0.017 C 
ATOM     26  H   UNL A   1      35.367  32.578  27.133  1.00  0.00     0.035 H 
ATOM     27  H   UNL A   1      35.477  31.683  28.639  1.00  0.00     0.035 H 
BRANCH  25  28
ATOM     28  C   UNL A   1      34.420  33.501  28.779  1.00  0.00    -0.084 C 
ATOM     29  C   UNL A   1      34.066  34.708  28.308  1.00  0.00    -0.084 C 
ATOM     30  H   UNL A   1      34.561  35.067  27.477  1.00  0.00     0.058 H 
ATOM     31  H   UNL A   1      33.911  33.133  29.598  1.00  0.00     0.058 H 
BRANCH  29  32
ATOM     32  C   UNL A   1      32.994  35.568  28.914  1.00  0.00    -0.017 C 
ATOM     33  H   UNL A   1      32.783  36.382  28.253  1.00  0.00     0.035 H 
ATOM     34  H   UNL A   1      32.119  34.971  29.062  1.00  0.00     0.035 H 
BRANCH  32  35
ATOM     35  C   UNL A   1      33.436  36.112  30.242  1.00  0.00    -0.085 C 
ATOM     36  C   UNL A   1      32.894  35.760  31.418  1.00  0.00    -0.089 C 
ATOM     37  H   UNL A   1      32.130  35.065  31.412  1.00  0.00     0.057 H 
ATOM     38  H   UNL A   1      34.205  36.800  30.252  1.00  0.00     0.058 H 
BRANCH  36  39
ATOM     39  C   UNL A   1      33.331  36.316  32.743  1.00  0.00    -0.038 C 
ATOM     40  H   UNL A   1      32.485  36.366  33.396  1.00  0.00     0.031 H 
ATOM     41  H   UNL A   1      34.083  35.671  33.148  1.00  0.00     0.031 H 
BRANCH  39  42
ATOM     42  C   UNL A   1      33.922  37.708  32.587  1.00  0.00    -0.062 C 
ATOM     43  H   UNL A   1      34.912  37.633  32.188  1.00  0.00     0.023 H 
ATOM     44  H   UNL A   1      33.958  38.189  33.541  1.00  0.00     0.023 H 
ATOM     45  H   UNL A   1      33.312  38.282  31.920  1.00  0.00     0.023 H 
ENDBRANCH  39  42
ENDBRANCH  36  39
ENDBRANCH  32  35
ENDBRANCH  29  32
ENDBRANCH  25  28
ENDBRANCH  22  25
ENDBRANCH  18  21
ENDBRANCH  15  18
ENDBRANCH  11  14
ENDBRANCH   8  11
ENDBRANCH   5   8
ENDBRANCH   1   4
BRANCH   1  46
ATOM     46  O   UNL A   1      41.684  27.048  28.234  1.00  0.00    -0.368 OA
BRANCH  46  47
ATOM     47  C   UNL A   1      41.207  26.863  26.906  1.00  0.00     0.126 C 
ATOM     48  H   UNL A   1      41.994  27.148  26.239  1.00  0.00     0.067 H 
ATOM     49  H   UNL A   1      40.321  27.461  26.849  1.00  0.00     0.067 H 
BRANCH  47  50
ATOM     50  C   UNL A   1      40.753  25.454  26.507  1.00  0.00     0.246 C 
ATOM     51  O   UNL A   1      39.563  25.142  26.436  1.00  0.00    -0.272 OA
ATOM     52  N   UNL A   1      41.701  24.523  26.193  1.00  0.00    -0.354 N 
ATOM     53  H   UNL A   1      41.364  23.658  25.865  1.00  0.00     0.163 HD
BRANCH  52  54
ATOM     54  C   UNL A   1      43.141  24.651  26.282  1.00  0.00     0.017 C 
ATOM     55  H   UNL A   1      43.522  23.876  26.913  1.00  0.00     0.049 H 
ATOM     56  H   UNL A   1      43.371  25.615  26.686  1.00  0.00     0.049 H 
BRANCH  54  57
ATOM     57  C   UNL A   1      43.792  24.536  24.904  1.00  0.00    -0.036 C 
ATOM     58  H   UNL A   1      44.277  25.465  24.685  1.00  0.00     0.028 H 
ATOM     59  H   UNL A   1      43.009  24.304  24.213  1.00  0.00     0.028 H 
BRANCH  57  60
ATOM     60  C   UNL A   1      44.830  23.412  24.788  1.00  0.00    -0.052 C 
ATOM     61  H   UNL A   1      44.535  22.771  23.983  1.00  0.00     0.027 H 
ATOM     62  H   UNL A   1      44.846  22.922  25.740  1.00  0.00     0.027 H 
BRANCH  60  63
ATOM     63  C   UNL A   1      46.267  23.874  24.524  1.00  0.00    -0.052 C 
ATOM     64  H   UNL A   1      46.266  24.463  23.630  1.00  0.00     0.027 H 
ATOM     65  H   UNL A   1      46.857  22.985  24.447  1.00  0.00     0.027 H 
BRANCH  63  66
ATOM     66  C   UNL A   1      46.896  24.710  25.642  1.00  0.00    -0.036 C 
ATOM     67  H   UNL A   1      47.142  24.053  26.450  1.00  0.00     0.028 H 
ATOM     68  H   UNL A   1      46.173  25.452  25.908  1.00  0.00     0.028 H 
BRANCH  66  69
ATOM     69  C   UNL A   1      48.160  25.463  25.240  1.00  0.00     0.018 C 
ATOM     70  H   UNL A   1      48.878  24.760  24.874  1.00  0.00     0.049 H 
ATOM     71  H   UNL A   1      48.523  25.978  26.105  1.00  0.00     0.049 H 
BRANCH  69  72
ATOM     72  N   UNL A   1      47.907  26.455  24.206  1.00  0.00    -0.352 N 
ATOM     73  C   UNL A   1      47.102  27.565  24.235  1.00  0.00     0.251 C 
ATOM     74  H   UNL A   1      48.384  26.306  23.358  1.00  0.00     0.163 HD
ATOM     75  O   UNL A   1      46.866  28.185  23.201  1.00  0.00    -0.269 OA
BRANCH  73  76
ATOM     76  C   UNL A   1      46.490  28.004  25.508  1.00  0.00     0.039 A 
ATOM     77  C   UNL A   1      47.314  28.537  26.501  1.00  0.00    -0.049 A 
ATOM     78  C   UNL A   1      45.113  27.899  25.720  1.00  0.00    -0.049 A 
ATOM     79  C   UNL A   1      46.748  29.041  27.674  1.00  0.00    -0.053 A 
ATOM     80  H   UNL A   1      48.338  28.558  26.370  1.00  0.00     0.063 H 
ATOM     81  C   UNL A   1      44.542  28.466  26.857  1.00  0.00    -0.053 A 
ATOM     82  H   UNL A   1      44.520  27.404  25.035  1.00  0.00     0.063 H 
ATOM     83  C   UNL A   1      45.353  29.055  27.840  1.00  0.00    -0.014 A 
ATOM     84  H   UNL A   1      47.357  29.405  28.423  1.00  0.00     0.063 H 
ATOM     85  H   UNL A   1      43.517  28.453  26.978  1.00  0.00     0.063 H 
BRANCH  83  86
ATOM     86  C   UNL A   1      44.727  29.729  29.007  1.00  0.00     0.031 A 
ATOM     87  C   UNL A   1      44.450  31.206  28.982  1.00  0.00     0.074 A 
ATOM     88  C   UNL A   1      44.475  29.014  30.122  1.00  0.00     0.049 A 
ATOM     89  N   UNL A   1      43.972  31.972  29.930  1.00  0.00    -0.248 NA
ATOM     90  C   UNL A   1      44.770  31.919  27.737  1.00  0.00    -0.034 C 
ATOM     91  C   UNL A   1      44.746  27.584  30.287  1.00  0.00    -0.036 A 
ATOM     92  N   UNL A   1      43.948  29.392  31.333  1.00  0.00    -0.354 N 
ATOM     93  C   UNL A   1      43.942  33.256  29.401  1.00  0.00     0.074 A 
ATOM     94  C   UNL A   1      44.494  33.174  28.065  1.00  0.00    -0.034 C 
ATOM     95  H   UNL A   1      45.117  31.542  26.841  1.00  0.00     0.065 H 
ATOM     96  C   UNL A   1      44.368  27.203  31.516  1.00  0.00    -0.036 A 
ATOM     97  H   UNL A   1      45.161  26.968  29.571  1.00  0.00     0.065 H 
ATOM     98  C   UNL A   1      43.873  28.367  32.244  1.00  0.00     0.049 A 
ATOM     99  H   UNL A   1      43.653  30.310  31.528  1.00  0.00     0.167 HD
ATOM    100  C   UNL A   1      43.479  34.393  29.972  1.00  0.00     0.037 A 
ATOM    101  H   UNL A   1      44.652  33.987  27.449  1.00  0.00     0.065 H 
ATOM    102  H   UNL A   1      44.420  26.241  31.887  1.00  0.00     0.065 H 
ATOM    103  C   UNL A   1      43.468  28.366  33.528  1.00  0.00     0.037 A 
ATOM    104  C   UNL A   1      42.916  34.465  31.296  1.00  0.00     0.049 A 
ATOM    105  C   UNL A   1      42.981  29.651  34.144  1.00  0.00     0.074 A 
ATOM    106  C   UNL A   1      42.357  35.559  31.935  1.00  0.00    -0.036 A 
ATOM    107  N   UNL A   1      42.851  33.405  32.189  1.00  0.00    -0.354 N 
ATOM    108  N   UNL A   1      42.881  30.841  33.604  1.00  0.00    -0.248 NA
ATOM    109  C   UNL A   1      42.550  29.592  35.547  1.00  0.00    -0.034 C 
ATOM    110  C   UNL A   1      42.012  35.177  33.235  1.00  0.00    -0.036 A 
ATOM    111  H   UNL A   1      42.219  36.495  31.524  1.00  0.00     0.065 H 
ATOM    112  C   UNL A   1      42.296  33.830  33.386  1.00  0.00     0.049 A 
ATOM    113  H   UNL A   1      43.155  32.488  31.999  1.00  0.00     0.167 HD
ATOM    114  C   UNL A   1      42.354  31.664  34.590  1.00  0.00     0.074 A 
ATOM    115  C   UNL A   1      42.134  30.832  35.754  1.00  0.00    -0.034 C 
ATOM    116  H   UNL A   1      42.566  28.792  36.201  1.00  0.00     0.065 H 
ATOM    117  H   UNL A   1      41.612  35.794  33.960  1.00  0.00     0.065 H 
ATOM    118  C   UNL A   1      42.082  32.991  34.538  1.00  0.00     0.037 A 
ATOM    119  H   UNL A   1      41.706  31.164  36.634  1.00  0.00     0.065 H 
BRANCH 100 120
ATOM    120  C   UNL A   1      43.558  35.663  29.173  1.00  0.00     0.064 A 
ATOM    121  C   UNL A   1      44.712  36.460  29.170  1.00  0.00     0.173 A 
ATOM    122  C   UNL A   1      42.491  36.051  28.348  1.00  0.00     0.173 A 
ATOM    123  F   UNL A   1      45.758  36.139  29.945  1.00  0.00    -0.203 F 
ATOM    124  C   UNL A   1      44.787  37.611  28.387  1.00  0.00     0.198 A 
ATOM    125  C   UNL A   1      42.581  37.184  27.544  1.00  0.00     0.198 A 
ATOM    126  F   UNL A   1      41.367  35.320  28.308  1.00  0.00    -0.203 F 
ATOM    127  F   UNL A   1      45.885  38.378  28.430  1.00  0.00    -0.200 F 
ATOM    128  C   UNL A   1      43.726  37.965  27.569  1.00  0.00     0.200 A 
ATOM    129  F   UNL A   1      41.561  37.516  26.742  1.00  0.00    -0.200 F 
ATOM    130  F   UNL A   1      43.805  39.063  26.804  1.00  0.00    -0.200 F 
ENDBRANCH 100 120
BRANCH 103 131
ATOM    131  C   UNL A   1      43.505  27.109  34.323  1.00  0.00     0.064 A 
ATOM    132  C   UNL A   1      44.712  26.611  34.833  1.00  0.00     0.173 A 
ATOM    133  C   UNL A   1      42.339  26.368  34.569  1.00  0.00     0.173 A 
ATOM    134  F   UNL A   1      45.857  27.271  34.607  1.00  0.00    -0.203 F 
ATOM    135  C   UNL A   1      44.755  25.407  35.534  1.00  0.00     0.198 A 
ATOM    136  C   UNL A   1      42.379  25.183  35.300  1.00  0.00     0.198 A 
ATOM    137  F   UNL A   1      41.156  26.802  34.108  1.00  0.00    -0.203 F 
ATOM    138  F   UNL A   1      45.931  24.926  35.960  1.00  0.00    -0.200 F 
ATOM    139  C   UNL A   1      43.589  24.697  35.772  1.00  0.00     0.200 A 
ATOM    140  F   UNL A   1      41.246  24.509  35.542  1.00  0.00    -0.200 F 
ATOM    141  F   UNL A   1      43.631  23.540  36.447  1.00  0.00    -0.200 F 
ENDBRANCH 103 131
BRANCH 118 142
ATOM    142  C   UNL A   1      41.492  33.622  35.768  1.00  0.00     0.064 A 
ATOM    143  C   UNL A   1      40.109  33.649  35.991  1.00  0.00     0.173 A 
ATOM    144  C   UNL A   1      42.327  34.175  36.752  1.00  0.00     0.173 A 
ATOM    145  F   UNL A   1      39.267  33.149  35.073  1.00  0.00    -0.203 F 
ATOM    146  C   UNL A   1      39.579  34.229  37.141  1.00  0.00     0.198 A 
ATOM    147  C   UNL A   1      41.796  34.723  37.917  1.00  0.00     0.198 A 
ATOM    148  F   UNL A   1      43.658  34.170  36.593  1.00  0.00    -0.203 F 
ATOM    149  F   UNL A   1      38.250  34.291  37.307  1.00  0.00    -0.200 F 
ATOM    150  C   UNL A   1      40.423  34.758  38.106  1.00  0.00     0.200 A 
ATOM    151  F   UNL A   1      42.614  35.218  38.856  1.00  0.00    -0.200 F 
ATOM    152  F   UNL A   1      39.913  35.309  39.216  1.00  0.00    -0.200 F 
ENDBRANCH 118 142
ENDBRANCH  83  86
ENDBRANCH  73  76
ENDBRANCH  69  72
ENDBRANCH  66  69
ENDBRANCH  63  66
ENDBRANCH  60  63
ENDBRANCH  57  60
ENDBRANCH  54  57
ENDBRANCH  52  54
ENDBRANCH  47  50
ENDBRANCH  46  47
ENDBRANCH   1  46
TORSDOF 27
ENDMDL
