MODEL 1
REMARK VINA RESULT:      -9.8      0.000      0.000
REMARK SMILES COc1ccc([C@H]2CC(c3ccc(S(C)(=O)=O)cc3)=NN2c2ccc(C(=O)NCCCCCCNC(=O)c3ccc(-c4c5nc(c(-c6c(F)c(F)c(F)c(F)c6F)c6ccc([nH]6)c(-c6c(F)c(F)c(F)c(F)c6F)c6nc(c(-c7c(F)c(F)c(F)c(F)c7F)c7ccc4[nH]7)C=C6)C=C5)cc3)cc2)cc1OC
REMARK SMILES IDX 30 1 29 4 28 7 26 8 27 9 25 11 22 12 23 13 102 14 24 15
REMARK SMILES IDX 101 17 21 21 7 22 8 23 9 25 20 28 6 29 3 30 4 31 104 32 5 33
REMARK SMILES IDX 103 35 2 38 1 39 105 43 106 44 10 48 11 49 19 50 12 51 18 53
REMARK SMILES IDX 13 55 14 58 16 59 17 60 15 61 31 65 32 68 33 71 34 74 35 77
REMARK SMILES IDX 36 78 37 80 38 81 39 82 100 83 40 84 99 86 41 88 42 91 43 92
REMARK SMILES IDX 93 93 44 94 98 95 92 96 94 97 45 98 97 99 91 101 90 103
REMARK SMILES IDX 46 105 78 108 58 109 77 110 59 111 62 112 76 113 95 114
REMARK SMILES IDX 60 115 61 117 75 119 96 120 63 123 47 125 48 126 56 127
REMARK SMILES IDX 49 128 50 129 54 130 57 131 51 132 52 133 55 134 53 135
REMARK SMILES IDX 79 136 80 137 88 138 81 139 82 140 86 141 89 142 83 143
REMARK SMILES IDX 84 144 87 145 85 146 64 147 65 148 73 149 66 150 67 151
REMARK SMILES IDX 71 152 74 153 68 154 69 155 72 156 70 157
REMARK H PARENT 30 2 30 3 29 5 29 6 28 10 23 16 102 18 24 19 101 20 7 24 8 26
REMARK H PARENT 8 27 4 34 5 36 103 37 1 40 1 41 1 42 106 45 106 46 106 47
REMARK H PARENT 11 52 19 54 12 56 18 57 15 62 15 63 15 64 31 66 31 67 32 69
REMARK H PARENT 32 70 33 72 33 73 34 75 34 76 35 79 39 85 100 87 40 89 99 90
REMARK H PARENT 98 100 92 102 94 104 97 106 91 107 59 116 62 118 95 121 60 122
REMARK H PARENT 96 124
REMARK Flexibility Score: inf
ROOT
ATOM      1  C   UNL A   1      43.071  23.658  28.620  1.00  0.00    -0.036 C 
ATOM      2  H   UNL A   1      42.917  23.129  27.703  1.00  0.00     0.028 H 
ATOM      3  H   UNL A   1      42.406  23.325  29.388  1.00  0.00     0.028 H 
ENDROOT
BRANCH   1   4
ATOM      4  C   UNL A   1      42.786  25.143  28.379  1.00  0.00     0.018 C 
ATOM      5  H   UNL A   1      42.084  25.493  29.107  1.00  0.00     0.049 H 
ATOM      6  H   UNL A   1      43.697  25.697  28.462  1.00  0.00     0.049 H 
BRANCH   4   7
ATOM      7  N   UNL A   1      42.234  25.325  27.053  1.00  0.00    -0.352 N 
ATOM      8  C   UNL A   1      41.184  26.069  26.582  1.00  0.00     0.251 C 
ATOM      9  O   UNL A   1      40.928  25.995  25.380  1.00  0.00    -0.269 OA
ATOM     10  H   UNL A   1      42.704  24.815  26.353  1.00  0.00     0.163 HD
BRANCH   8  11
ATOM     11  C   UNL A   1      40.399  27.001  27.437  1.00  0.00     0.039 A 
ATOM     12  C   UNL A   1      39.097  28.926  29.044  1.00  0.00     0.060 A 
ATOM     13  C   UNL A   1      39.902  29.317  27.970  1.00  0.00    -0.036 A 
ATOM     14  C   UNL A   1      38.896  27.563  29.261  1.00  0.00    -0.036 A 
ATOM     15  C   UNL A   1      40.562  28.369  27.187  1.00  0.00    -0.047 A 
ATOM     16  H   UNL A   1      40.012  30.321  27.755  1.00  0.00     0.065 H 
ATOM     17  C   UNL A   1      39.507  26.607  28.438  1.00  0.00    -0.047 A 
ATOM     18  H   UNL A   1      38.289  27.254  30.037  1.00  0.00     0.065 H 
ATOM     19  H   UNL A   1      41.175  28.678  26.417  1.00  0.00     0.063 H 
ATOM     20  H   UNL A   1      39.297  25.606  28.573  1.00  0.00     0.063 H 
BRANCH  12  21
ATOM     21  N   UNL A   1      38.497  29.884  29.841  1.00  0.00    -0.257 N 
ATOM     22  C   UNL A   1      37.858  31.101  29.345  1.00  0.00     0.083 C 
ATOM     23  C   UNL A   1      37.552  31.866  30.641  1.00  0.00     0.019 C 
ATOM     24  H   UNL A   1      38.467  31.655  28.663  1.00  0.00     0.061 H 
ATOM     25  C   UNL A   1      38.140  30.921  31.650  1.00  0.00     0.071 C 
ATOM     26  H   UNL A   1      36.500  31.998  30.786  1.00  0.00     0.036 H 
ATOM     27  H   UNL A   1      37.943  32.863  30.677  1.00  0.00     0.036 H 
ATOM     28  N   UNL A   1      38.676  29.839  31.182  1.00  0.00    -0.176 NA
BRANCH  22  29
ATOM     29  C   UNL A   1      36.601  30.796  28.545  1.00  0.00    -0.019 A 
ATOM     30  C   UNL A   1      34.255  30.252  27.075  1.00  0.00     0.160 A 
ATOM     31  C   UNL A   1      35.255  29.279  27.211  1.00  0.00    -0.016 A 
ATOM     32  C   UNL A   1      34.405  31.499  27.689  1.00  0.00     0.161 A 
ATOM     33  C   UNL A   1      36.423  29.550  27.932  1.00  0.00    -0.053 A 
ATOM     34  H   UNL A   1      35.129  28.352  26.773  1.00  0.00     0.066 H 
ATOM     35  C   UNL A   1      35.579  31.753  28.412  1.00  0.00    -0.011 A 
ATOM     36  H   UNL A   1      37.156  28.828  28.014  1.00  0.00     0.063 H 
ATOM     37  H   UNL A   1      35.697  32.674  28.862  1.00  0.00     0.067 H 
BRANCH  30  38
ATOM     38  O   UNL A   1      33.103  29.907  26.423  1.00  0.00    -0.493 OA
BRANCH  38  39
ATOM     39  C   UNL A   1      33.337  28.921  25.416  1.00  0.00     0.078 C 
ATOM     40  H   UNL A   1      34.173  28.315  25.697  1.00  0.00     0.067 H 
ATOM     41  H   UNL A   1      33.545  29.406  24.485  1.00  0.00     0.067 H 
ATOM     42  H   UNL A   1      32.469  28.305  25.311  1.00  0.00     0.067 H 
ENDBRANCH  38  39
ENDBRANCH  30  38
BRANCH  32  43
ATOM     43  O   UNL A   1      33.539  32.557  27.709  1.00  0.00    -0.493 OA
BRANCH  43  44
ATOM     44  C   UNL A   1      33.871  33.695  28.486  1.00  0.00     0.078 C 
ATOM     45  H   UNL A   1      33.770  33.461  29.524  1.00  0.00     0.067 H 
ATOM     46  H   UNL A   1      33.211  34.501  28.238  1.00  0.00     0.067 H 
ATOM     47  H   UNL A   1      34.880  33.985  28.280  1.00  0.00     0.067 H 
ENDBRANCH  43  44
ENDBRANCH  32  43
ENDBRANCH  22  29
BRANCH  25  48
ATOM     48  C   UNL A   1      38.146  31.241  33.080  1.00  0.00    -0.002 A 
ATOM     49  C   UNL A   1      38.954  30.481  33.930  1.00  0.00    -0.052 A 
ATOM     50  C   UNL A   1      37.324  32.255  33.577  1.00  0.00    -0.052 A 
ATOM     51  C   UNL A   1      38.959  30.750  35.298  1.00  0.00    -0.043 A 
ATOM     52  H   UNL A   1      39.544  29.726  33.548  1.00  0.00     0.063 H 
ATOM     53  C   UNL A   1      37.308  32.508  34.950  1.00  0.00    -0.043 A 
ATOM     54  H   UNL A   1      36.736  32.810  32.937  1.00  0.00     0.063 H 
ATOM     55  C   UNL A   1      38.124  31.754  35.802  1.00  0.00     0.067 A 
ATOM     56  H   UNL A   1      39.574  30.216  35.932  1.00  0.00     0.064 H 
ATOM     57  H   UNL A   1      36.699  33.247  35.335  1.00  0.00     0.064 H 
BRANCH  55  58
ATOM     58  S   UNL A   1      38.125  32.078  37.549  1.00  0.00     0.175 S 
ATOM     59  O   UNL A   1      37.351  31.020  38.169  1.00  0.00    -0.224 OA
ATOM     60  O   UNL A   1      39.497  32.334  37.947  1.00  0.00    -0.224 OA
BRANCH  58  61
ATOM     61  C   UNL A   1      37.228  33.601  37.710  1.00  0.00     0.043 C 
ATOM     62  H   UNL A   1      36.932  33.944  36.741  1.00  0.00     0.040 H 
ATOM     63  H   UNL A   1      37.854  34.336  38.173  1.00  0.00     0.040 H 
ATOM     64  H   UNL A   1      36.359  33.441  38.314  1.00  0.00     0.040 H 
ENDBRANCH  58  61
ENDBRANCH  55  58
ENDBRANCH  25  48
ENDBRANCH  12  21
ENDBRANCH   8  11
ENDBRANCH   4   7
ENDBRANCH   1   4
BRANCH   1  65
ATOM     65  C   UNL A   1      44.503  23.393  29.102  1.00  0.00    -0.052 C 
ATOM     66  H   UNL A   1      44.719  22.356  28.955  1.00  0.00     0.027 H 
ATOM     67  H   UNL A   1      44.534  23.687  30.131  1.00  0.00     0.027 H 
BRANCH  65  68
ATOM     68  C   UNL A   1      45.583  24.213  28.384  1.00  0.00    -0.052 C 
ATOM     69  H   UNL A   1      46.424  24.299  29.037  1.00  0.00     0.027 H 
ATOM     70  H   UNL A   1      45.134  25.154  28.143  1.00  0.00     0.027 H 
BRANCH  68  71
ATOM     71  C   UNL A   1      46.068  23.618  27.059  1.00  0.00    -0.036 C 
ATOM     72  H   UNL A   1      45.929  22.558  27.097  1.00  0.00     0.028 H 
ATOM     73  H   UNL A   1      47.095  23.900  26.954  1.00  0.00     0.028 H 
BRANCH  71  74
ATOM     74  C   UNL A   1      45.341  24.152  25.828  1.00  0.00     0.018 C 
ATOM     75  H   UNL A   1      44.598  24.856  26.143  1.00  0.00     0.049 H 
ATOM     76  H   UNL A   1      44.893  23.324  25.320  1.00  0.00     0.049 H 
BRANCH  74  77
ATOM     77  N   UNL A   1      46.253  24.810  24.908  1.00  0.00    -0.352 N 
ATOM     78  C   UNL A   1      46.571  26.141  24.805  1.00  0.00     0.251 C 
ATOM     79  H   UNL A   1      46.707  24.217  24.267  1.00  0.00     0.163 HD
ATOM     80  O   UNL A   1      47.187  26.558  23.830  1.00  0.00    -0.269 OA
BRANCH  78  81
ATOM     81  C   UNL A   1      46.158  27.079  25.869  1.00  0.00     0.039 A 
ATOM     82  C   UNL A   1      44.825  27.491  25.929  1.00  0.00    -0.049 A 
ATOM     83  C   UNL A   1      47.090  27.568  26.791  1.00  0.00    -0.049 A 
ATOM     84  C   UNL A   1      44.413  28.355  26.946  1.00  0.00    -0.053 A 
ATOM     85  H   UNL A   1      44.148  27.158  25.225  1.00  0.00     0.063 H 
ATOM     86  C   UNL A   1      46.665  28.377  27.842  1.00  0.00    -0.053 A 
ATOM     87  H   UNL A   1      48.089  27.330  26.693  1.00  0.00     0.063 H 
ATOM     88  C   UNL A   1      45.323  28.781  27.926  1.00  0.00    -0.014 A 
ATOM     89  H   UNL A   1      43.434  28.679  26.978  1.00  0.00     0.063 H 
ATOM     90  H   UNL A   1      47.339  28.679  28.561  1.00  0.00     0.063 H 
BRANCH  88  91
ATOM     91  C   UNL A   1      44.894  29.659  29.044  1.00  0.00     0.031 A 
ATOM     92  C   UNL A   1      44.522  29.061  30.371  1.00  0.00     0.074 A 
ATOM     93  C   UNL A   1      44.777  30.985  28.840  1.00  0.00     0.049 A 
ATOM     94  N   UNL A   1      44.051  29.650  31.441  1.00  0.00    -0.248 NA
ATOM     95  C   UNL A   1      44.676  27.604  30.506  1.00  0.00    -0.034 C 
ATOM     96  C   UNL A   1      45.065  31.676  27.582  1.00  0.00    -0.036 A 
ATOM     97  N   UNL A   1      44.372  31.988  29.684  1.00  0.00    -0.354 N 
ATOM     98  C   UNL A   1      43.836  28.637  32.367  1.00  0.00     0.074 A 
ATOM     99  C   UNL A   1      44.184  27.391  31.719  1.00  0.00    -0.034 C 
ATOM    100  H   UNL A   1      45.065  26.925  29.834  1.00  0.00     0.065 H 
ATOM    101  C   UNL A   1      44.843  32.990  27.742  1.00  0.00    -0.036 A 
ATOM    102  H   UNL A   1      45.387  31.225  26.712  1.00  0.00     0.065 H 
ATOM    103  C   UNL A   1      44.364  33.230  29.100  1.00  0.00     0.049 A 
ATOM    104  H   UNL A   1      44.112  31.831  30.621  1.00  0.00     0.167 HD
ATOM    105  C   UNL A   1      43.409  28.740  33.647  1.00  0.00     0.037 A 
ATOM    106  H   UNL A   1      44.065  26.458  32.144  1.00  0.00     0.065 H 
ATOM    107  H   UNL A   1      44.987  33.714  27.020  1.00  0.00     0.065 H 
ATOM    108  C   UNL A   1      44.002  34.426  29.601  1.00  0.00     0.037 A 
ATOM    109  C   UNL A   1      43.096  29.985  34.298  1.00  0.00     0.049 A 
ATOM    110  C   UNL A   1      43.537  34.513  31.030  1.00  0.00     0.074 A 
ATOM    111  C   UNL A   1      42.715  30.201  35.611  1.00  0.00    -0.036 A 
ATOM    112  N   UNL A   1      43.127  31.227  33.681  1.00  0.00    -0.354 N 
ATOM    113  N   UNL A   1      43.402  33.556  31.915  1.00  0.00    -0.248 NA
ATOM    114  C   UNL A   1      43.181  35.848  31.531  1.00  0.00    -0.034 C 
ATOM    115  C   UNL A   1      42.476  31.569  35.778  1.00  0.00    -0.036 A 
ATOM    116  H   UNL A   1      42.623  29.477  36.340  1.00  0.00     0.065 H 
ATOM    117  C   UNL A   1      42.754  32.210  34.582  1.00  0.00     0.049 A 
ATOM    118  H   UNL A   1      43.377  31.386  32.742  1.00  0.00     0.167 HD
ATOM    119  C   UNL A   1      42.975  34.174  33.083  1.00  0.00     0.074 A 
ATOM    120  C   UNL A   1      42.887  35.591  32.797  1.00  0.00    -0.034 C 
ATOM    121  H   UNL A   1      43.164  36.749  31.028  1.00  0.00     0.065 H 
ATOM    122  H   UNL A   1      42.147  32.022  36.645  1.00  0.00     0.065 H 
ATOM    123  C   UNL A   1      42.683  33.619  34.284  1.00  0.00     0.037 A 
ATOM    124  H   UNL A   1      42.629  36.309  33.491  1.00  0.00     0.065 H 
BRANCH 105 125
ATOM    125  C   UNL A   1      43.262  27.473  34.438  1.00  0.00     0.064 A 
ATOM    126  C   UNL A   1      44.353  26.886  35.097  1.00  0.00     0.173 A 
ATOM    127  C   UNL A   1      42.006  26.863  34.578  1.00  0.00     0.173 A 
ATOM    128  F   UNL A   1      45.577  27.423  34.984  1.00  0.00    -0.203 F 
ATOM    129  C   UNL A   1      44.197  25.725  35.847  1.00  0.00     0.198 A 
ATOM    130  C   UNL A   1      41.848  25.717  35.354  1.00  0.00     0.198 A 
ATOM    131  F   UNL A   1      40.928  27.385  33.974  1.00  0.00    -0.203 F 
ATOM    132  F   UNL A   1      45.261  25.159  36.433  1.00  0.00    -0.200 F 
ATOM    133  C   UNL A   1      42.944  25.145  35.982  1.00  0.00     0.200 A 
ATOM    134  F   UNL A   1      40.634  25.167  35.494  1.00  0.00    -0.200 F 
ATOM    135  F   UNL A   1      42.793  24.034  36.714  1.00  0.00    -0.200 F 
ENDBRANCH 105 125
BRANCH 108 136
ATOM    136  C   UNL A   1      44.085  35.645  28.754  1.00  0.00     0.064 A 
ATOM    137  C   UNL A   1      42.988  36.065  27.989  1.00  0.00     0.173 A 
ATOM    138  C   UNL A   1      45.260  36.407  28.684  1.00  0.00     0.173 A 
ATOM    139  F   UNL A   1      41.850  35.356  28.008  1.00  0.00    -0.203 F 
ATOM    140  C   UNL A   1      43.071  37.186  27.166  1.00  0.00     0.198 A 
ATOM    141  C   UNL A   1      45.334  37.544  27.883  1.00  0.00     0.198 A 
ATOM    142  F   UNL A   1      46.336  36.051  29.401  1.00  0.00    -0.203 F 
ATOM    143  F   UNL A   1      42.024  37.537  26.408  1.00  0.00    -0.200 F 
ATOM    144  C   UNL A   1      44.242  37.928  27.118  1.00  0.00     0.200 A 
ATOM    145  F   UNL A   1      46.462  38.266  27.850  1.00  0.00    -0.200 F 
ATOM    146  F   UNL A   1      44.322  39.007  26.328  1.00  0.00    -0.200 F 
ENDBRANCH 108 136
BRANCH 123 147
ATOM    147  C   UNL A   1      42.277  34.547  35.391  1.00  0.00     0.064 A 
ATOM    148  C   UNL A   1      43.225  35.145  36.233  1.00  0.00     0.173 A 
ATOM    149  C   UNL A   1      40.926  34.872  35.583  1.00  0.00     0.173 A 
ATOM    150  F   UNL A   1      44.528  34.854  36.099  1.00  0.00    -0.203 F 
ATOM    151  C   UNL A   1      42.832  36.018  37.244  1.00  0.00     0.198 A 
ATOM    152  C   UNL A   1      40.540  35.766  36.577  1.00  0.00     0.198 A 
ATOM    153  F   UNL A   1      39.982  34.329  34.800  1.00  0.00    -0.203 F 
ATOM    154  F   UNL A   1      43.750  36.544  38.067  1.00  0.00    -0.200 F 
ATOM    155  C   UNL A   1      41.492  36.334  37.410  1.00  0.00     0.200 A 
ATOM    156  F   UNL A   1      39.246  36.080  36.727  1.00  0.00    -0.200 F 
ATOM    157  F   UNL A   1      41.116  37.180  38.379  1.00  0.00    -0.200 F 
ENDBRANCH 123 147
ENDBRANCH  88  91
ENDBRANCH  78  81
ENDBRANCH  74  77
ENDBRANCH  71  74
ENDBRANCH  68  71
ENDBRANCH  65  68
ENDBRANCH   1  65
TORSDOF 22
ENDMDL
MODEL 2
REMARK VINA RESULT:      -9.8      0.363      6.704
REMARK SMILES COc1ccc([C@H]2CC(c3ccc(S(C)(=O)=O)cc3)=NN2c2ccc(C(=O)NCCCCCCNC(=O)c3ccc(-c4c5nc(c(-c6c(F)c(F)c(F)c(F)c6F)c6ccc([nH]6)c(-c6c(F)c(F)c(F)c(F)c6F)c6nc(c(-c7c(F)c(F)c(F)c(F)c7F)c7ccc4[nH]7)C=C6)C=C5)cc3)cc2)cc1OC
REMARK SMILES IDX 30 1 29 4 28 7 26 8 27 9 25 11 22 12 23 13 102 14 24 15
REMARK SMILES IDX 101 17 21 21 7 22 8 23 9 25 20 28 6 29 3 30 4 31 104 32 5 33
REMARK SMILES IDX 103 35 2 38 1 39 105 43 106 44 10 48 11 49 19 50 12 51 18 53
REMARK SMILES IDX 13 55 14 58 16 59 17 60 15 61 31 65 32 68 33 71 34 74 35 77
REMARK SMILES IDX 36 78 37 80 38 81 39 82 100 83 40 84 99 86 41 88 42 91 43 92
REMARK SMILES IDX 93 93 44 94 98 95 92 96 94 97 45 98 97 99 91 101 90 103
REMARK SMILES IDX 46 105 78 108 58 109 77 110 59 111 62 112 76 113 95 114
REMARK SMILES IDX 60 115 61 117 75 119 96 120 63 123 47 125 48 126 56 127
REMARK SMILES IDX 49 128 50 129 54 130 57 131 51 132 52 133 55 134 53 135
REMARK SMILES IDX 79 136 80 137 88 138 81 139 82 140 86 141 89 142 83 143
REMARK SMILES IDX 84 144 87 145 85 146 64 147 65 148 73 149 66 150 67 151
REMARK SMILES IDX 71 152 74 153 68 154 69 155 72 156 70 157
REMARK H PARENT 30 2 30 3 29 5 29 6 28 10 23 16 102 18 24 19 101 20 7 24 8 26
REMARK H PARENT 8 27 4 34 5 36 103 37 1 40 1 41 1 42 106 45 106 46 106 47
REMARK H PARENT 11 52 19 54 12 56 18 57 15 62 15 63 15 64 31 66 31 67 32 69
REMARK H PARENT 32 70 33 72 33 73 34 75 34 76 35 79 39 85 100 87 40 89 99 90
REMARK H PARENT 98 100 92 102 94 104 97 106 91 107 59 116 62 118 95 121 60 122
REMARK H PARENT 96 124
REMARK Flexibility Score: inf
ROOT
ATOM      1  C   UNL A   1      43.039  23.629  28.609  1.00  0.00    -0.036 C 
ATOM      2  H   UNL A   1      42.916  23.123  27.675  1.00  0.00     0.028 H 
ATOM      3  H   UNL A   1      42.378  23.248  29.359  1.00  0.00     0.028 H 
ENDROOT
BRANCH   1   4
ATOM      4  C   UNL A   1      42.703  25.109  28.411  1.00  0.00     0.018 C 
ATOM      5  H   UNL A   1      41.983  25.411  29.142  1.00  0.00     0.049 H 
ATOM      6  H   UNL A   1      43.592  25.692  28.519  1.00  0.00     0.049 H 
BRANCH   4   7
ATOM      7  N   UNL A   1      42.155  25.311  27.085  1.00  0.00    -0.352 N 
ATOM      8  C   UNL A   1      41.114  26.071  26.621  1.00  0.00     0.251 C 
ATOM      9  O   UNL A   1      40.860  26.013  25.418  1.00  0.00    -0.269 OA
ATOM     10  H   UNL A   1      42.622  24.805  26.381  1.00  0.00     0.163 HD
BRANCH   8  11
ATOM     11  C   UNL A   1      40.337  27.002  27.484  1.00  0.00     0.039 A 
ATOM     12  C   UNL A   1      39.047  28.927  29.100  1.00  0.00     0.060 A 
ATOM     13  C   UNL A   1      39.818  29.317  28.001  1.00  0.00    -0.036 A 
ATOM     14  C   UNL A   1      38.873  27.564  29.339  1.00  0.00    -0.036 A 
ATOM     15  C   UNL A   1      40.473  28.369  27.212  1.00  0.00    -0.047 A 
ATOM     16  H   UNL A   1      39.906  30.319  27.771  1.00  0.00     0.065 H 
ATOM     17  C   UNL A   1      39.478  26.607  28.513  1.00  0.00    -0.047 A 
ATOM     18  H   UNL A   1      38.292  27.255  30.134  1.00  0.00     0.065 H 
ATOM     19  H   UNL A   1      41.060  28.678  26.423  1.00  0.00     0.063 H 
ATOM     20  H   UNL A   1      39.288  25.605  28.666  1.00  0.00     0.063 H 
BRANCH  12  21
ATOM     21  N   UNL A   1      38.453  29.885  29.900  1.00  0.00    -0.257 N 
ATOM     22  C   UNL A   1      37.818  31.106  29.409  1.00  0.00     0.083 C 
ATOM     23  C   UNL A   1      37.518  31.870  30.707  1.00  0.00     0.019 C 
ATOM     24  H   UNL A   1      38.428  31.659  28.726  1.00  0.00     0.061 H 
ATOM     25  C   UNL A   1      38.104  30.920  31.713  1.00  0.00     0.071 C 
ATOM     26  H   UNL A   1      36.467  32.006  30.855  1.00  0.00     0.036 H 
ATOM     27  H   UNL A   1      37.913  32.865  30.744  1.00  0.00     0.036 H 
ATOM     28  N   UNL A   1      38.635  29.837  31.241  1.00  0.00    -0.176 NA
BRANCH  22  29
ATOM     29  C   UNL A   1      36.558  30.808  28.610  1.00  0.00    -0.019 A 
ATOM     30  C   UNL A   1      34.207  30.278  27.145  1.00  0.00     0.160 A 
ATOM     31  C   UNL A   1      35.204  29.301  27.273  1.00  0.00    -0.016 A 
ATOM     32  C   UNL A   1      34.362  31.521  27.764  1.00  0.00     0.161 A 
ATOM     33  C   UNL A   1      36.375  29.565  27.993  1.00  0.00    -0.053 A 
ATOM     34  H   UNL A   1      35.074  28.377  26.832  1.00  0.00     0.066 H 
ATOM     35  C   UNL A   1      35.538  31.769  28.485  1.00  0.00    -0.011 A 
ATOM     36  H   UNL A   1      37.106  28.841  28.070  1.00  0.00     0.063 H 
ATOM     37  H   UNL A   1      35.660  32.688  28.939  1.00  0.00     0.067 H 
BRANCH  30  38
ATOM     38  O   UNL A   1      33.051  29.938  26.494  1.00  0.00    -0.493 OA
BRANCH  38  39
ATOM     39  C   UNL A   1      32.395  28.834  27.118  1.00  0.00     0.078 C 
ATOM     40  H   UNL A   1      32.487  27.967  26.499  1.00  0.00     0.067 H 
ATOM     41  H   UNL A   1      31.358  29.067  27.254  1.00  0.00     0.067 H 
ATOM     42  H   UNL A   1      32.845  28.643  28.069  1.00  0.00     0.067 H 
ENDBRANCH  38  39
ENDBRANCH  30  38
BRANCH  32  43
ATOM     43  O   UNL A   1      33.498  32.581  27.791  1.00  0.00    -0.493 OA
BRANCH  43  44
ATOM     44  C   UNL A   1      34.007  33.867  28.103  1.00  0.00     0.078 C 
ATOM     45  H   UNL A   1      33.530  34.235  28.987  1.00  0.00     0.067 H 
ATOM     46  H   UNL A   1      33.813  34.535  27.289  1.00  0.00     0.067 H 
ATOM     47  H   UNL A   1      35.062  33.803  28.267  1.00  0.00     0.067 H 
ENDBRANCH  43  44
ENDBRANCH  32  43
ENDBRANCH  22  29
BRANCH  25  48
ATOM     48  C   UNL A   1      38.114  31.237  33.143  1.00  0.00    -0.002 A 
ATOM     49  C   UNL A   1      38.899  30.454  33.994  1.00  0.00    -0.052 A 
ATOM     50  C   UNL A   1      37.318  32.271  33.641  1.00  0.00    -0.052 A 
ATOM     51  C   UNL A   1      38.908  30.720  35.362  1.00  0.00    -0.043 A 
ATOM     52  H   UNL A   1      39.470  29.684  33.612  1.00  0.00     0.063 H 
ATOM     53  C   UNL A   1      37.306  32.523  35.013  1.00  0.00    -0.043 A 
ATOM     54  H   UNL A   1      36.748  32.844  33.000  1.00  0.00     0.063 H 
ATOM     55  C   UNL A   1      38.099  31.745  35.866  1.00  0.00     0.067 A 
ATOM     56  H   UNL A   1      39.506  30.168  35.997  1.00  0.00     0.064 H 
ATOM     57  H   UNL A   1      36.716  33.277  35.398  1.00  0.00     0.064 H 
BRANCH  55  58
ATOM     58  S   UNL A   1      38.103  32.066  37.614  1.00  0.00     0.175 S 
ATOM     59  O   UNL A   1      37.373  30.979  38.238  1.00  0.00    -0.224 OA
ATOM     60  O   UNL A   1      39.469  32.368  38.001  1.00  0.00    -0.224 OA
BRANCH  58  61
ATOM     61  C   UNL A   1      37.155  33.555  37.786  1.00  0.00     0.043 C 
ATOM     62  H   UNL A   1      37.814  34.379  37.962  1.00  0.00     0.040 H 
ATOM     63  H   UNL A   1      36.481  33.455  38.612  1.00  0.00     0.040 H 
ATOM     64  H   UNL A   1      36.597  33.730  36.890  1.00  0.00     0.040 H 
ENDBRANCH  58  61
ENDBRANCH  55  58
ENDBRANCH  25  48
ENDBRANCH  12  21
ENDBRANCH   8  11
ENDBRANCH   4   7
ENDBRANCH   1   4
BRANCH   1  65
ATOM     65  C   UNL A   1      44.474  23.401  29.102  1.00  0.00    -0.052 C 
ATOM     66  H   UNL A   1      44.730  22.377  28.927  1.00  0.00     0.027 H 
ATOM     67  H   UNL A   1      44.483  23.665  30.139  1.00  0.00     0.027 H 
BRANCH  65  68
ATOM     68  C   UNL A   1      45.532  24.281  28.422  1.00  0.00    -0.052 C 
ATOM     69  H   UNL A   1      46.349  24.402  29.101  1.00  0.00     0.027 H 
ATOM     70  H   UNL A   1      45.043  25.201  28.177  1.00  0.00     0.027 H 
BRANCH  68  71
ATOM     71  C   UNL A   1      46.084  23.724  27.107  1.00  0.00    -0.036 C 
ATOM     72  H   UNL A   1      46.036  22.656  27.148  1.00  0.00     0.028 H 
ATOM     73  H   UNL A   1      47.084  24.092  27.014  1.00  0.00     0.028 H 
BRANCH  71  74
ATOM     74  C   UNL A   1      45.331  24.189  25.864  1.00  0.00     0.018 C 
ATOM     75  H   UNL A   1      44.534  24.839  26.164  1.00  0.00     0.049 H 
ATOM     76  H   UNL A   1      44.950  23.324  25.362  1.00  0.00     0.049 H 
BRANCH  74  77
ATOM     77  N   UNL A   1      46.200  24.904  24.944  1.00  0.00    -0.352 N 
ATOM     78  C   UNL A   1      46.447  26.250  24.853  1.00  0.00     0.251 C 
ATOM     79  H   UNL A   1      46.679  24.342  24.293  1.00  0.00     0.163 HD
ATOM     80  O   UNL A   1      47.032  26.709  23.878  1.00  0.00    -0.269 OA
BRANCH  78  81
ATOM     81  C   UNL A   1      45.995  27.154  25.931  1.00  0.00     0.039 A 
ATOM     82  C   UNL A   1      44.651  27.532  25.978  1.00  0.00    -0.049 A 
ATOM     83  C   UNL A   1      46.899  27.645  26.879  1.00  0.00    -0.049 A 
ATOM     84  C   UNL A   1      44.202  28.363  27.007  1.00  0.00    -0.053 A 
ATOM     85  H   UNL A   1      43.994  27.199  25.256  1.00  0.00     0.063 H 
ATOM     86  C   UNL A   1      46.438  28.419  27.940  1.00  0.00    -0.053 A 
ATOM     87  H   UNL A   1      47.905  27.433  26.792  1.00  0.00     0.063 H 
ATOM     88  C   UNL A   1      45.086  28.789  28.011  1.00  0.00    -0.014 A 
ATOM     89  H   UNL A   1      43.215  28.663  27.030  1.00  0.00     0.063 H 
ATOM     90  H   UNL A   1      47.094  28.722  28.677  1.00  0.00     0.063 H 
BRANCH  88  91
ATOM     91  C   UNL A   1      44.618  29.631  29.140  1.00  0.00     0.031 A 
ATOM     92  C   UNL A   1      44.565  31.126  28.995  1.00  0.00     0.074 A 
ATOM     93  C   UNL A   1      44.306  29.052  30.315  1.00  0.00     0.049 A 
ATOM     94  N   UNL A   1      44.261  32.034  29.888  1.00  0.00    -0.248 NA
ATOM     95  C   UNL A   1      44.927  31.675  27.679  1.00  0.00    -0.034 C 
ATOM     96  C   UNL A   1      44.364  27.616  30.592  1.00  0.00    -0.036 A 
ATOM     97  N   UNL A   1      43.891  29.602  31.502  1.00  0.00    -0.354 N 
ATOM     98  C   UNL A   1      44.410  33.258  29.248  1.00  0.00     0.074 A 
ATOM     99  C   UNL A   1      44.878  32.980  27.907  1.00  0.00    -0.034 C 
ATOM    100  H   UNL A   1      45.158  31.176  26.806  1.00  0.00     0.065 H 
ATOM    101  C   UNL A   1      43.982  27.398  31.861  1.00  0.00    -0.036 A 
ATOM    102  H   UNL A   1      44.650  26.888  29.920  1.00  0.00     0.065 H 
ATOM    103  C   UNL A   1      43.688  28.678  32.497  1.00  0.00     0.049 A 
ATOM    104  H   UNL A   1      43.753  30.569  31.628  1.00  0.00     0.167 HD
ATOM    105  C   UNL A   1      44.160  34.498  29.729  1.00  0.00     0.037 A 
ATOM    106  H   UNL A   1      45.138  33.703  27.218  1.00  0.00     0.065 H 
ATOM    107  H   UNL A   1      43.909  26.472  32.313  1.00  0.00     0.065 H 
ATOM    108  C   UNL A   1      43.316  28.846  33.780  1.00  0.00     0.037 A 
ATOM    109  C   UNL A   1      43.665  34.767  31.054  1.00  0.00     0.049 A 
ATOM    110  C   UNL A   1      43.038  30.236  34.287  1.00  0.00     0.074 A 
ATOM    111  C   UNL A   1      43.320  35.984  31.616  1.00  0.00    -0.036 A 
ATOM    112  N   UNL A   1      43.444  33.802  32.024  1.00  0.00    -0.354 N 
ATOM    113  N   UNL A   1      43.119  31.380  33.652  1.00  0.00    -0.248 NA
ATOM    114  C   UNL A   1      42.609  30.356  35.687  1.00  0.00    -0.034 C 
ATOM    115  C   UNL A   1      42.929  35.760  32.940  1.00  0.00    -0.036 A 
ATOM    116  H   UNL A   1      43.346  36.899  31.139  1.00  0.00     0.065 H 
ATOM    117  C   UNL A   1      42.985  34.398  33.187  1.00  0.00     0.049 A 
ATOM    118  H   UNL A   1      43.591  32.835  31.905  1.00  0.00     0.167 HD
ATOM    119  C   UNL A   1      42.725  32.351  34.563  1.00  0.00     0.074 A 
ATOM    120  C   UNL A   1      42.391  31.659  35.791  1.00  0.00    -0.034 C 
ATOM    121  H   UNL A   1      42.505  29.619  36.402  1.00  0.00     0.065 H 
ATOM    122  H   UNL A   1      42.648  36.486  33.617  1.00  0.00     0.065 H 
ATOM    123  C   UNL A   1      42.646  33.693  34.398  1.00  0.00     0.037 A 
ATOM    124  H   UNL A   1      42.028  32.122  36.639  1.00  0.00     0.065 H 
BRANCH 105 125
ATOM    125  C   UNL A   1      44.409  35.664  28.818  1.00  0.00     0.064 A 
ATOM    126  C   UNL A   1      45.687  36.227  28.678  1.00  0.00     0.173 A 
ATOM    127  C   UNL A   1      43.370  36.194  28.039  1.00  0.00     0.173 A 
ATOM    128  F   UNL A   1      46.712  35.765  29.410  1.00  0.00    -0.203 F 
ATOM    129  C   UNL A   1      45.909  37.292  27.810  1.00  0.00     0.198 A 
ATOM    130  C   UNL A   1      43.603  37.241  27.149  1.00  0.00     0.198 A 
ATOM    131  F   UNL A   1      42.131  35.689  28.129  1.00  0.00    -0.203 F 
ATOM    132  F   UNL A   1      47.129  37.842  27.725  1.00  0.00    -0.200 F 
ATOM    133  C   UNL A   1      44.870  37.793  27.041  1.00  0.00     0.200 A 
ATOM    134  F   UNL A   1      42.600  37.714  26.397  1.00  0.00    -0.200 F 
ATOM    135  F   UNL A   1      45.088  38.811  26.198  1.00  0.00    -0.200 F 
ENDBRANCH 105 125
BRANCH 108 136
ATOM    136  C   UNL A   1      43.163  27.667  34.671  1.00  0.00     0.064 A 
ATOM    137  C   UNL A   1      44.230  27.221  35.463  1.00  0.00     0.173 A 
ATOM    138  C   UNL A   1      41.955  26.960  34.744  1.00  0.00     0.173 A 
ATOM    139  F   UNL A   1      45.411  27.854  35.412  1.00  0.00    -0.203 F 
ATOM    140  C   UNL A   1      44.102  26.095  36.275  1.00  0.00     0.198 A 
ATOM    141  C   UNL A   1      41.819  25.851  35.578  1.00  0.00     0.198 A 
ATOM    142  F   UNL A   1      40.901  27.349  34.011  1.00  0.00    -0.203 F 
ATOM    143  F   UNL A   1      45.153  25.661  36.983  1.00  0.00    -0.200 F 
ATOM    144  C   UNL A   1      42.896  25.415  36.335  1.00  0.00     0.200 A 
ATOM    145  F   UNL A   1      40.647  25.205  35.644  1.00  0.00    -0.200 F 
ATOM    146  F   UNL A   1      42.772  24.333  37.116  1.00  0.00    -0.200 F 
ENDBRANCH 108 136
BRANCH 123 147
ATOM    147  C   UNL A   1      42.144  34.501  35.558  1.00  0.00     0.064 A 
ATOM    148  C   UNL A   1      43.010  34.967  36.558  1.00  0.00     0.173 A 
ATOM    149  C   UNL A   1      40.788  34.847  35.648  1.00  0.00     0.173 A 
ATOM    150  F   UNL A   1      44.314  34.650  36.525  1.00  0.00    -0.203 F 
ATOM    151  C   UNL A   1      42.531  35.730  37.619  1.00  0.00     0.198 A 
ATOM    152  C   UNL A   1      40.317  35.634  36.695  1.00  0.00     0.198 A 
ATOM    153  F   UNL A   1      39.921  34.430  34.713  1.00  0.00    -0.203 F 
ATOM    154  F   UNL A   1      43.367  36.127  38.588  1.00  0.00    -0.200 F 
ATOM    155  C   UNL A   1      41.188  36.070  37.682  1.00  0.00     0.200 A 
ATOM    156  F   UNL A   1      39.022  35.971  36.747  1.00  0.00    -0.200 F 
ATOM    157  F   UNL A   1      40.729  36.811  38.700  1.00  0.00    -0.200 F 
ENDBRANCH 123 147
ENDBRANCH  88  91
ENDBRANCH  78  81
ENDBRANCH  74  77
ENDBRANCH  71  74
ENDBRANCH  68  71
ENDBRANCH  65  68
ENDBRANCH   1  65
TORSDOF 22
ENDMDL
MODEL 3
REMARK VINA RESULT:      -9.6      4.759      8.032
REMARK SMILES COc1ccc([C@H]2CC(c3ccc(S(C)(=O)=O)cc3)=NN2c2ccc(C(=O)NCCCCCCNC(=O)c3ccc(-c4c5nc(c(-c6c(F)c(F)c(F)c(F)c6F)c6ccc([nH]6)c(-c6c(F)c(F)c(F)c(F)c6F)c6nc(c(-c7c(F)c(F)c(F)c(F)c7F)c7ccc4[nH]7)C=C6)C=C5)cc3)cc2)cc1OC
REMARK SMILES IDX 30 1 29 4 28 7 26 8 27 9 25 11 22 12 23 13 102 14 24 15
REMARK SMILES IDX 101 17 21 21 7 22 8 23 9 25 20 28 6 29 3 30 4 31 104 32 5 33
REMARK SMILES IDX 103 35 2 38 1 39 105 43 106 44 10 48 11 49 19 50 12 51 18 53
REMARK SMILES IDX 13 55 14 58 16 59 17 60 15 61 31 65 32 68 33 71 34 74 35 77
REMARK SMILES IDX 36 78 37 80 38 81 39 82 100 83 40 84 99 86 41 88 42 91 43 92
REMARK SMILES IDX 93 93 44 94 98 95 92 96 94 97 45 98 97 99 91 101 90 103
REMARK SMILES IDX 46 105 78 108 58 109 77 110 59 111 62 112 76 113 95 114
REMARK SMILES IDX 60 115 61 117 75 119 96 120 63 123 47 125 48 126 56 127
REMARK SMILES IDX 49 128 50 129 54 130 57 131 51 132 52 133 55 134 53 135
REMARK SMILES IDX 79 136 80 137 88 138 81 139 82 140 86 141 89 142 83 143
REMARK SMILES IDX 84 144 87 145 85 146 64 147 65 148 73 149 66 150 67 151
REMARK SMILES IDX 71 152 74 153 68 154 69 155 72 156 70 157
REMARK H PARENT 30 2 30 3 29 5 29 6 28 10 23 16 102 18 24 19 101 20 7 24 8 26
REMARK H PARENT 8 27 4 34 5 36 103 37 1 40 1 41 1 42 106 45 106 46 106 47
REMARK H PARENT 11 52 19 54 12 56 18 57 15 62 15 63 15 64 31 66 31 67 32 69
REMARK H PARENT 32 70 33 72 33 73 34 75 34 76 35 79 39 85 100 87 40 89 99 90
REMARK H PARENT 98 100 92 102 94 104 97 106 91 107 59 116 62 118 95 121 60 122
REMARK H PARENT 96 124
REMARK Flexibility Score: inf
ROOT
ATOM      1  C   UNL A   1      40.863  25.941  27.206  1.00  0.00    -0.036 C 
ATOM      2  H   UNL A   1      41.673  25.518  27.763  1.00  0.00     0.028 H 
ATOM      3  H   UNL A   1      40.664  26.950  27.496  1.00  0.00     0.028 H 
ENDROOT
BRANCH   1   4
ATOM      4  C   UNL A   1      39.599  25.125  27.488  1.00  0.00     0.018 C 
ATOM      5  H   UNL A   1      39.328  25.234  28.517  1.00  0.00     0.049 H 
ATOM      6  H   UNL A   1      38.803  25.478  26.867  1.00  0.00     0.049 H 
BRANCH   4   7
ATOM      7  N   UNL A   1      39.846  23.727  27.201  1.00  0.00    -0.352 N 
ATOM      8  C   UNL A   1      39.140  22.789  26.494  1.00  0.00     0.251 C 
ATOM      9  O   UNL A   1      39.597  21.647  26.451  1.00  0.00    -0.269 OA
ATOM     10  H   UNL A   1      40.683  23.384  27.590  1.00  0.00     0.163 HD
BRANCH   8  11
ATOM     11  C   UNL A   1      37.904  23.107  25.730  1.00  0.00     0.039 A 
ATOM     12  C   UNL A   1      35.431  23.677  24.487  1.00  0.00     0.060 A 
ATOM     13  C   UNL A   1      35.679  24.078  25.803  1.00  0.00    -0.036 A 
ATOM     14  C   UNL A   1      36.457  23.051  23.779  1.00  0.00    -0.036 A 
ATOM     15  C   UNL A   1      36.893  23.780  26.426  1.00  0.00    -0.047 A 
ATOM     16  H   UNL A   1      34.955  24.599  26.322  1.00  0.00     0.065 H 
ATOM     17  C   UNL A   1      37.699  22.806  24.380  1.00  0.00    -0.047 A 
ATOM     18  H   UNL A   1      36.301  22.765  22.799  1.00  0.00     0.065 H 
ATOM     19  H   UNL A   1      37.046  24.059  27.407  1.00  0.00     0.063 H 
ATOM     20  H   UNL A   1      38.466  22.400  23.824  1.00  0.00     0.063 H 
BRANCH  12  21
ATOM     21  N   UNL A   1      34.202  23.933  23.908  1.00  0.00    -0.257 N 
ATOM     22  C   UNL A   1      33.542  23.067  22.934  1.00  0.00     0.083 C 
ATOM     23  C   UNL A   1      32.339  23.915  22.496  1.00  0.00     0.019 C 
ATOM     24  H   UNL A   1      34.174  22.782  22.119  1.00  0.00     0.061 H 
ATOM     25  C   UNL A   1      32.586  25.159  23.303  1.00  0.00     0.071 C 
ATOM     26  H   UNL A   1      31.410  23.452  22.756  1.00  0.00     0.036 H 
ATOM     27  H   UNL A   1      32.260  24.073  21.440  1.00  0.00     0.036 H 
ATOM     28  N   UNL A   1      33.635  25.153  24.062  1.00  0.00    -0.176 NA
BRANCH  22  29
ATOM     29  C   UNL A   1      33.121  21.740  23.547  1.00  0.00    -0.019 A 
ATOM     30  C   UNL A   1      32.359  19.284  24.706  1.00  0.00     0.160 A 
ATOM     31  C   UNL A   1      32.160  19.521  23.339  1.00  0.00    -0.016 A 
ATOM     32  C   UNL A   1      32.959  20.262  25.505  1.00  0.00     0.161 A 
ATOM     33  C   UNL A   1      32.531  20.741  22.764  1.00  0.00    -0.053 A 
ATOM     34  H   UNL A   1      31.737  18.786  22.750  1.00  0.00     0.066 H 
ATOM     35  C   UNL A   1      33.328  21.478  24.913  1.00  0.00    -0.011 A 
ATOM     36  H   UNL A   1      32.368  20.906  21.758  1.00  0.00     0.063 H 
ATOM     37  H   UNL A   1      33.766  22.205  25.500  1.00  0.00     0.067 H 
BRANCH  30  38
ATOM     38  O   UNL A   1      32.048  18.046  25.199  1.00  0.00    -0.493 OA
BRANCH  38  39
ATOM     39  C   UNL A   1      32.918  17.036  24.687  1.00  0.00     0.078 C 
ATOM     40  H   UNL A   1      33.935  17.307  24.885  1.00  0.00     0.067 H 
ATOM     41  H   UNL A   1      32.773  16.943  23.631  1.00  0.00     0.067 H 
ATOM     42  H   UNL A   1      32.699  16.103  25.161  1.00  0.00     0.067 H 
ENDBRANCH  38  39
ENDBRANCH  30  38
BRANCH  32  43
ATOM     43  O   UNL A   1      33.272  20.212  26.836  1.00  0.00    -0.493 OA
BRANCH  43  44
ATOM     44  C   UNL A   1      33.693  21.401  27.482  1.00  0.00     0.078 C 
ATOM     45  H   UNL A   1      33.506  22.239  26.845  1.00  0.00     0.067 H 
ATOM     46  H   UNL A   1      34.741  21.341  27.692  1.00  0.00     0.067 H 
ATOM     47  H   UNL A   1      33.153  21.519  28.398  1.00  0.00     0.067 H 
ENDBRANCH  43  44
ENDBRANCH  32  43
ENDBRANCH  22  29
BRANCH  25  48
ATOM     48  C   UNL A   1      31.709  26.326  23.191  1.00  0.00    -0.002 A 
ATOM     49  C   UNL A   1      30.358  26.179  23.515  1.00  0.00    -0.052 A 
ATOM     50  C   UNL A   1      32.213  27.544  22.727  1.00  0.00    -0.052 A 
ATOM     51  C   UNL A   1      29.497  27.269  23.394  1.00  0.00    -0.043 A 
ATOM     52  H   UNL A   1      29.999  25.269  23.842  1.00  0.00     0.063 H 
ATOM     53  C   UNL A   1      31.348  28.629  22.580  1.00  0.00    -0.043 A 
ATOM     54  H   UNL A   1      33.214  27.639  22.496  1.00  0.00     0.063 H 
ATOM     55  C   UNL A   1      29.996  28.485  22.913  1.00  0.00     0.067 A 
ATOM     56  H   UNL A   1      28.503  27.181  23.658  1.00  0.00     0.064 H 
ATOM     57  H   UNL A   1      31.703  29.532  22.229  1.00  0.00     0.064 H 
BRANCH  55  58
ATOM     58  S   UNL A   1      28.888  29.864  22.746  1.00  0.00     0.175 S 
ATOM     59  O   UNL A   1      29.246  30.813  23.782  1.00  0.00    -0.224 OA
ATOM     60  O   UNL A   1      28.877  30.252  21.347  1.00  0.00    -0.224 OA
BRANCH  58  61
ATOM     61  C   UNL A   1      27.292  29.189  23.127  1.00  0.00     0.043 C 
ATOM     62  H   UNL A   1      27.009  29.480  24.117  1.00  0.00     0.040 H 
ATOM     63  H   UNL A   1      27.332  28.122  23.066  1.00  0.00     0.040 H 
ATOM     64  H   UNL A   1      26.571  29.559  22.428  1.00  0.00     0.040 H 
ENDBRANCH  58  61
ENDBRANCH  55  58
ENDBRANCH  25  48
ENDBRANCH  12  21
ENDBRANCH   8  11
ENDBRANCH   4   7
ENDBRANCH   1   4
BRANCH   1  65
ATOM     65  C   UNL A   1      41.247  25.956  25.720  1.00  0.00    -0.052 C 
ATOM     66  H   UNL A   1      40.819  26.830  25.273  1.00  0.00     0.027 H 
ATOM     67  H   UNL A   1      40.873  25.045  25.302  1.00  0.00     0.027 H 
BRANCH  65  68
ATOM     68  C   UNL A   1      42.757  25.971  25.449  1.00  0.00    -0.052 C 
ATOM     69  H   UNL A   1      43.258  26.167  26.373  1.00  0.00     0.027 H 
ATOM     70  H   UNL A   1      42.921  26.725  24.708  1.00  0.00     0.027 H 
BRANCH  68  71
ATOM     71  C   UNL A   1      43.320  24.671  24.869  1.00  0.00    -0.036 C 
ATOM     72  H   UNL A   1      44.306  24.866  24.503  1.00  0.00     0.028 H 
ATOM     73  H   UNL A   1      42.644  24.360  24.100  1.00  0.00     0.028 H 
BRANCH  71  74
ATOM     74  C   UNL A   1      43.400  23.521  25.869  1.00  0.00     0.018 C 
ATOM     75  H   UNL A   1      42.995  22.639  25.417  1.00  0.00     0.049 H 
ATOM     76  H   UNL A   1      42.842  23.796  26.740  1.00  0.00     0.049 H 
BRANCH  74  77
ATOM     77  N   UNL A   1      44.771  23.254  26.274  1.00  0.00    -0.352 N 
ATOM     78  C   UNL A   1      45.548  23.914  27.193  1.00  0.00     0.251 C 
ATOM     79  H   UNL A   1      45.204  22.494  25.824  1.00  0.00     0.163 HD
ATOM     80  O   UNL A   1      46.755  23.701  27.251  1.00  0.00    -0.269 OA
BRANCH  78  81
ATOM     81  C   UNL A   1      44.929  24.894  28.108  1.00  0.00     0.039 A 
ATOM     82  C   UNL A   1      44.001  24.447  29.051  1.00  0.00    -0.049 A 
ATOM     83  C   UNL A   1      45.248  26.253  28.022  1.00  0.00    -0.049 A 
ATOM     84  C   UNL A   1      43.428  25.356  29.943  1.00  0.00    -0.053 A 
ATOM     85  H   UNL A   1      43.739  23.450  29.088  1.00  0.00     0.063 H 
ATOM     86  C   UNL A   1      44.726  27.148  28.952  1.00  0.00    -0.053 A 
ATOM     87  H   UNL A   1      45.868  26.592  27.270  1.00  0.00     0.063 H 
ATOM     88  C   UNL A   1      43.807  26.708  29.918  1.00  0.00    -0.014 A 
ATOM     89  H   UNL A   1      42.723  25.033  30.624  1.00  0.00     0.063 H 
ATOM     90  H   UNL A   1      45.016  28.137  28.931  1.00  0.00     0.063 H 
BRANCH  88  91
ATOM     91  C   UNL A   1      43.248  27.681  30.890  1.00  0.00     0.031 A 
ATOM     92  C   UNL A   1      43.881  27.842  32.244  1.00  0.00     0.074 A 
ATOM     93  C   UNL A   1      42.134  28.368  30.576  1.00  0.00     0.049 A 
ATOM     94  N   UNL A   1      43.495  28.579  33.255  1.00  0.00    -0.248 NA
ATOM     95  C   UNL A   1      45.093  27.050  32.506  1.00  0.00    -0.034 C 
ATOM     96  C   UNL A   1      41.404  28.263  29.311  1.00  0.00    -0.036 A 
ATOM     97  N   UNL A   1      41.412  29.283  31.301  1.00  0.00    -0.354 N 
ATOM     98  C   UNL A   1      44.404  28.327  34.274  1.00  0.00     0.074 A 
ATOM     99  C   UNL A   1      45.333  27.335  33.778  1.00  0.00    -0.034 C 
ATOM    100  H   UNL A   1      45.619  26.434  31.866  1.00  0.00     0.065 H 
ATOM    101  C   UNL A   1      40.348  29.091  29.344  1.00  0.00    -0.036 A 
ATOM    102  H   UNL A   1      41.660  27.650  28.522  1.00  0.00     0.065 H 
ATOM    103  C   UNL A   1      40.306  29.759  30.641  1.00  0.00     0.049 A 
ATOM    104  H   UNL A   1      41.663  29.569  32.208  1.00  0.00     0.167 HD
ATOM    105  C   UNL A   1      44.470  28.889  35.504  1.00  0.00     0.037 A 
ATOM    106  H   UNL A   1      46.085  26.905  34.340  1.00  0.00     0.065 H 
ATOM    107  H   UNL A   1      39.674  29.233  28.574  1.00  0.00     0.065 H 
ATOM    108  C   UNL A   1      39.360  30.629  31.041  1.00  0.00     0.037 A 
ATOM    109  C   UNL A   1      43.563  29.899  35.982  1.00  0.00     0.049 A 
ATOM    110  C   UNL A   1      39.461  31.243  32.412  1.00  0.00     0.074 A 
ATOM    111  C   UNL A   1      43.583  30.576  37.189  1.00  0.00    -0.036 A 
ATOM    112  N   UNL A   1      42.471  30.378  35.274  1.00  0.00    -0.354 N 
ATOM    113  N   UNL A   1      40.363  31.046  33.342  1.00  0.00    -0.248 NA
ATOM    114  C   UNL A   1      38.416  32.207  32.785  1.00  0.00    -0.034 C 
ATOM    115  C   UNL A   1      42.480  31.435  37.228  1.00  0.00    -0.036 A 
ATOM    116  H   UNL A   1      44.291  30.466  37.932  1.00  0.00     0.065 H 
ATOM    117  C   UNL A   1      41.800  31.328  36.026  1.00  0.00     0.049 A 
ATOM    118  H   UNL A   1      42.211  30.086  34.370  1.00  0.00     0.167 HD
ATOM    119  C   UNL A   1      40.014  31.880  34.396  1.00  0.00     0.074 A 
ATOM    120  C   UNL A   1      38.824  32.595  33.984  1.00  0.00    -0.034 C 
ATOM    121  H   UNL A   1      37.583  32.502  32.252  1.00  0.00     0.065 H 
ATOM    122  H   UNL A   1      42.217  32.044  38.018  1.00  0.00     0.065 H 
ATOM    123  C   UNL A   1      40.623  32.039  35.596  1.00  0.00     0.037 A 
ATOM    124  H   UNL A   1      38.353  33.317  34.553  1.00  0.00     0.065 H 
BRANCH 105 125
ATOM    125  C   UNL A   1      45.565  28.431  36.423  1.00  0.00     0.064 A 
ATOM    126  C   UNL A   1      46.822  29.054  36.435  1.00  0.00     0.173 A 
ATOM    127  C   UNL A   1      45.341  27.389  37.335  1.00  0.00     0.173 A 
ATOM    128  F   UNL A   1      47.092  30.047  35.574  1.00  0.00    -0.203 F 
ATOM    129  C   UNL A   1      47.821  28.635  37.310  1.00  0.00     0.198 A 
ATOM    130  C   UNL A   1      46.332  26.992  38.229  1.00  0.00     0.198 A 
ATOM    131  F   UNL A   1      44.155  26.763  37.369  1.00  0.00    -0.203 F 
ATOM    132  F   UNL A   1      49.028  29.216  37.274  1.00  0.00    -0.200 F 
ATOM    133  C   UNL A   1      47.573  27.611  38.211  1.00  0.00     0.200 A 
ATOM    134  F   UNL A   1      46.087  26.011  39.108  1.00  0.00    -0.200 F 
ATOM    135  F   UNL A   1      48.532  27.217  39.060  1.00  0.00    -0.200 F 
ENDBRANCH 105 125
BRANCH 108 136
ATOM    136  C   UNL A   1      38.245  30.990  30.128  1.00  0.00     0.064 A 
ATOM    137  C   UNL A   1      38.203  32.245  29.504  1.00  0.00     0.173 A 
ATOM    138  C   UNL A   1      37.197  30.096  29.867  1.00  0.00     0.173 A 
ATOM    139  F   UNL A   1      39.174  33.140  29.739  1.00  0.00    -0.203 F 
ATOM    140  C   UNL A   1      37.143  32.602  28.674  1.00  0.00     0.198 A 
ATOM    141  C   UNL A   1      36.150  30.443  29.014  1.00  0.00     0.198 A 
ATOM    142  F   UNL A   1      37.192  28.881  30.434  1.00  0.00    -0.203 F 
ATOM    143  F   UNL A   1      37.103  33.826  28.130  1.00  0.00    -0.200 F 
ATOM    144  C   UNL A   1      36.120  31.699  28.426  1.00  0.00     0.200 A 
ATOM    145  F   UNL A   1      35.171  29.563  28.766  1.00  0.00    -0.200 F 
ATOM    146  F   UNL A   1      35.100  32.041  27.627  1.00  0.00    -0.200 F 
ENDBRANCH 108 136
BRANCH 123 147
ATOM    147  C   UNL A   1      40.037  33.051  36.536  1.00  0.00     0.064 A 
ATOM    148  C   UNL A   1      38.973  32.730  37.391  1.00  0.00     0.173 A 
ATOM    149  C   UNL A   1      40.575  34.344  36.610  1.00  0.00     0.173 A 
ATOM    150  F   UNL A   1      38.415  31.511  37.347  1.00  0.00    -0.203 F 
ATOM    151  C   UNL A   1      38.453  33.676  38.270  1.00  0.00     0.198 A 
ATOM    152  C   UNL A   1      40.071  35.279  37.510  1.00  0.00     0.198 A 
ATOM    153  F   UNL A   1      41.597  34.698  35.817  1.00  0.00    -0.203 F 
ATOM    154  F   UNL A   1      37.406  33.363  39.046  1.00  0.00    -0.200 F 
ATOM    155  C   UNL A   1      39.007  34.946  38.335  1.00  0.00     0.200 A 
ATOM    156  F   UNL A   1      40.615  36.501  37.580  1.00  0.00    -0.200 F 
ATOM    157  F   UNL A   1      38.510  35.853  39.186  1.00  0.00    -0.200 F 
ENDBRANCH 123 147
ENDBRANCH  88  91
ENDBRANCH  78  81
ENDBRANCH  74  77
ENDBRANCH  71  74
ENDBRANCH  68  71
ENDBRANCH  65  68
ENDBRANCH   1  65
TORSDOF 22
ENDMDL
MODEL 4
REMARK VINA RESULT:      -9.5      5.356     10.853
REMARK SMILES COc1ccc([C@H]2CC(c3ccc(S(C)(=O)=O)cc3)=NN2c2ccc(C(=O)NCCCCCCNC(=O)c3ccc(-c4c5nc(c(-c6c(F)c(F)c(F)c(F)c6F)c6ccc([nH]6)c(-c6c(F)c(F)c(F)c(F)c6F)c6nc(c(-c7c(F)c(F)c(F)c(F)c7F)c7ccc4[nH]7)C=C6)C=C5)cc3)cc2)cc1OC
REMARK SMILES IDX 30 1 29 4 28 7 26 8 27 9 25 11 22 12 23 13 102 14 24 15
REMARK SMILES IDX 101 17 21 21 7 22 8 23 9 25 20 28 6 29 3 30 4 31 104 32 5 33
REMARK SMILES IDX 103 35 2 38 1 39 105 43 106 44 10 48 11 49 19 50 12 51 18 53
REMARK SMILES IDX 13 55 14 58 16 59 17 60 15 61 31 65 32 68 33 71 34 74 35 77
REMARK SMILES IDX 36 78 37 80 38 81 39 82 100 83 40 84 99 86 41 88 42 91 43 92
REMARK SMILES IDX 93 93 44 94 98 95 92 96 94 97 45 98 97 99 91 101 90 103
REMARK SMILES IDX 46 105 78 108 58 109 77 110 59 111 62 112 76 113 95 114
REMARK SMILES IDX 60 115 61 117 75 119 96 120 63 123 47 125 48 126 56 127
REMARK SMILES IDX 49 128 50 129 54 130 57 131 51 132 52 133 55 134 53 135
REMARK SMILES IDX 79 136 80 137 88 138 81 139 82 140 86 141 89 142 83 143
REMARK SMILES IDX 84 144 87 145 85 146 64 147 65 148 73 149 66 150 67 151
REMARK SMILES IDX 71 152 74 153 68 154 69 155 72 156 70 157
REMARK H PARENT 30 2 30 3 29 5 29 6 28 10 23 16 102 18 24 19 101 20 7 24 8 26
REMARK H PARENT 8 27 4 34 5 36 103 37 1 40 1 41 1 42 106 45 106 46 106 47
REMARK H PARENT 11 52 19 54 12 56 18 57 15 62 15 63 15 64 31 66 31 67 32 69
REMARK H PARENT 32 70 33 72 33 73 34 75 34 76 35 79 39 85 100 87 40 89 99 90
REMARK H PARENT 98 100 92 102 94 104 97 106 91 107 59 116 62 118 95 121 60 122
REMARK H PARENT 96 124
REMARK Flexibility Score: inf
ROOT
ATOM      1  C   UNL A   1      36.890  29.940  30.812  1.00  0.00    -0.036 C 
ATOM      2  H   UNL A   1      37.954  29.839  30.836  1.00  0.00     0.028 H 
ATOM      3  H   UNL A   1      36.413  29.315  31.538  1.00  0.00     0.028 H 
ENDROOT
BRANCH   1   4
ATOM      4  C   UNL A   1      36.390  29.504  29.433  1.00  0.00     0.018 C 
ATOM      5  H   UNL A   1      37.223  29.218  28.826  1.00  0.00     0.049 H 
ATOM      6  H   UNL A   1      35.724  28.675  29.543  1.00  0.00     0.049 H 
BRANCH   4   7
ATOM      7  N   UNL A   1      35.688  30.601  28.799  1.00  0.00    -0.352 N 
ATOM      8  C   UNL A   1      34.660  30.641  27.893  1.00  0.00     0.251 C 
ATOM      9  O   UNL A   1      34.288  31.748  27.504  1.00  0.00    -0.269 OA
ATOM     10  H   UNL A   1      36.011  31.490  29.072  1.00  0.00     0.163 HD
BRANCH   8  11
ATOM     11  C   UNL A   1      33.942  29.425  27.423  1.00  0.00     0.039 A 
ATOM     12  C   UNL A   1      32.695  27.144  26.316  1.00  0.00     0.060 A 
ATOM     13  C   UNL A   1      34.022  27.456  26.005  1.00  0.00    -0.036 A 
ATOM     14  C   UNL A   1      32.024  27.946  27.240  1.00  0.00    -0.036 A 
ATOM     15  C   UNL A   1      34.634  28.593  26.535  1.00  0.00    -0.047 A 
ATOM     16  H   UNL A   1      34.555  26.838  25.373  1.00  0.00     0.065 H 
ATOM     17  C   UNL A   1      32.655  29.053  27.822  1.00  0.00    -0.047 A 
ATOM     18  H   UNL A   1      31.050  27.721  27.498  1.00  0.00     0.065 H 
ATOM     19  H   UNL A   1      35.604  28.822  26.270  1.00  0.00     0.063 H 
ATOM     20  H   UNL A   1      32.167  29.598  28.549  1.00  0.00     0.063 H 
BRANCH  12  21
ATOM     21  N   UNL A   1      32.091  26.044  25.737  1.00  0.00    -0.257 N 
ATOM     22  C   UNL A   1      30.665  25.940  25.431  1.00  0.00     0.083 C 
ATOM     23  C   UNL A   1      30.525  24.473  24.998  1.00  0.00     0.019 C 
ATOM     24  H   UNL A   1      30.033  26.198  26.254  1.00  0.00     0.061 H 
ATOM     25  C   UNL A   1      31.940  24.004  25.194  1.00  0.00     0.071 C 
ATOM     26  H   UNL A   1      30.216  24.387  23.977  1.00  0.00     0.036 H 
ATOM     27  H   UNL A   1      29.788  23.914  25.537  1.00  0.00     0.036 H 
ATOM     28  N   UNL A   1      32.785  24.887  25.623  1.00  0.00    -0.176 NA
BRANCH  22  29
ATOM     29  C   UNL A   1      30.248  26.907  24.335  1.00  0.00    -0.019 A 
ATOM     30  C   UNL A   1      29.498  28.718  22.306  1.00  0.00     0.160 A 
ATOM     31  C   UNL A   1      28.529  27.971  22.990  1.00  0.00    -0.016 A 
ATOM     32  C   UNL A   1      30.849  28.586  22.641  1.00  0.00     0.161 A 
ATOM     33  C   UNL A   1      28.900  27.067  23.992  1.00  0.00    -0.053 A 
ATOM     34  H   UNL A   1      27.531  28.090  22.754  1.00  0.00     0.066 H 
ATOM     35  C   UNL A   1      31.204  27.679  23.648  1.00  0.00    -0.011 A 
ATOM     36  H   UNL A   1      28.177  26.516  24.480  1.00  0.00     0.063 H 
ATOM     37  H   UNL A   1      32.200  27.573  23.896  1.00  0.00     0.067 H 
BRANCH  30  38
ATOM     38  O   UNL A   1      29.072  29.641  21.389  1.00  0.00    -0.493 OA
BRANCH  38  39
ATOM     39  C   UNL A   1      27.907  30.336  21.836  1.00  0.00     0.078 C 
ATOM     40  H   UNL A   1      27.607  29.953  22.789  1.00  0.00     0.067 H 
ATOM     41  H   UNL A   1      27.116  30.195  21.130  1.00  0.00     0.067 H 
ATOM     42  H   UNL A   1      28.127  31.379  21.924  1.00  0.00     0.067 H 
ENDBRANCH  38  39
ENDBRANCH  30  38
BRANCH  32  43
ATOM     43  O   UNL A   1      31.931  29.244  22.125  1.00  0.00    -0.493 OA
BRANCH  43  44
ATOM     44  C   UNL A   1      33.221  28.923  22.615  1.00  0.00     0.078 C 
ATOM     45  H   UNL A   1      33.957  29.486  22.080  1.00  0.00     0.067 H 
ATOM     46  H   UNL A   1      33.405  27.877  22.480  1.00  0.00     0.067 H 
ATOM     47  H   UNL A   1      33.276  29.162  23.657  1.00  0.00     0.067 H 
ENDBRANCH  43  44
ENDBRANCH  32  43
ENDBRANCH  22  29
BRANCH  25  48
ATOM     48  C   UNL A   1      32.320  22.610  24.957  1.00  0.00    -0.002 A 
ATOM     49  C   UNL A   1      32.082  22.059  23.694  1.00  0.00    -0.052 A 
ATOM     50  C   UNL A   1      32.865  21.843  25.989  1.00  0.00    -0.052 A 
ATOM     51  C   UNL A   1      32.413  20.728  23.450  1.00  0.00    -0.043 A 
ATOM     52  H   UNL A   1      31.664  22.635  22.947  1.00  0.00     0.063 H 
ATOM     53  C   UNL A   1      33.173  20.502  25.754  1.00  0.00    -0.043 A 
ATOM     54  H   UNL A   1      33.040  22.264  26.914  1.00  0.00     0.063 H 
ATOM     55  C   UNL A   1      32.944  19.952  24.487  1.00  0.00     0.067 A 
ATOM     56  H   UNL A   1      32.269  20.318  22.513  1.00  0.00     0.064 H 
ATOM     57  H   UNL A   1      33.568  19.920  26.509  1.00  0.00     0.064 H 
BRANCH  55  58
ATOM     58  S   UNL A   1      33.347  18.250  24.171  1.00  0.00     0.175 S 
ATOM     59  O   UNL A   1      32.677  17.887  22.937  1.00  0.00    -0.224 OA
ATOM     60  O   UNL A   1      34.784  18.105  24.313  1.00  0.00    -0.224 OA
BRANCH  58  61
ATOM     61  C   UNL A   1      32.585  17.366  25.507  1.00  0.00     0.043 C 
ATOM     62  H   UNL A   1      33.197  16.532  25.778  1.00  0.00     0.040 H 
ATOM     63  H   UNL A   1      31.621  17.017  25.200  1.00  0.00     0.040 H 
ATOM     64  H   UNL A   1      32.475  18.017  26.350  1.00  0.00     0.040 H 
ENDBRANCH  58  61
ENDBRANCH  55  58
ENDBRANCH  25  48
ENDBRANCH  12  21
ENDBRANCH   8  11
ENDBRANCH   4   7
ENDBRANCH   1   4
BRANCH   1  65
ATOM     65  C   UNL A   1      36.529  31.393  31.149  1.00  0.00    -0.052 C 
ATOM     66  H   UNL A   1      35.941  31.786  30.345  1.00  0.00     0.027 H 
ATOM     67  H   UNL A   1      37.455  31.911  31.284  1.00  0.00     0.027 H 
BRANCH  65  68
ATOM     68  C   UNL A   1      35.737  31.571  32.451  1.00  0.00    -0.052 C 
ATOM     69  H   UNL A   1      35.994  30.769  33.108  1.00  0.00     0.027 H 
ATOM     70  H   UNL A   1      34.703  31.579  32.174  1.00  0.00     0.027 H 
BRANCH  68  71
ATOM     71  C   UNL A   1      35.994  32.889  33.186  1.00  0.00    -0.036 C 
ATOM     72  H   UNL A   1      35.298  32.963  33.995  1.00  0.00     0.028 H 
ATOM     73  H   UNL A   1      35.877  33.671  32.464  1.00  0.00     0.028 H 
BRANCH  71  74
ATOM     74  C   UNL A   1      37.404  33.027  33.753  1.00  0.00     0.018 C 
ATOM     75  H   UNL A   1      37.570  34.049  34.024  1.00  0.00     0.049 H 
ATOM     76  H   UNL A   1      38.098  32.711  33.003  1.00  0.00     0.049 H 
BRANCH  74  77
ATOM     77  N   UNL A   1      37.595  32.192  34.928  1.00  0.00    -0.352 N 
ATOM     78  C   UNL A   1      38.404  31.097  35.092  1.00  0.00     0.251 C 
ATOM     79  H   UNL A   1      37.067  32.448  35.718  1.00  0.00     0.163 HD
ATOM     80  O   UNL A   1      38.279  30.374  36.075  1.00  0.00    -0.269 OA
BRANCH  78  81
ATOM     81  C   UNL A   1      39.425  30.780  34.072  1.00  0.00     0.039 A 
ATOM     82  C   UNL A   1      40.327  29.742  34.317  1.00  0.00    -0.049 A 
ATOM     83  C   UNL A   1      39.507  31.520  32.888  1.00  0.00    -0.049 A 
ATOM     84  C   UNL A   1      41.281  29.411  33.352  1.00  0.00    -0.053 A 
ATOM     85  H   UNL A   1      40.290  29.223  35.208  1.00  0.00     0.063 H 
ATOM     86  C   UNL A   1      40.414  31.147  31.900  1.00  0.00    -0.053 A 
ATOM     87  H   UNL A   1      38.895  32.339  32.747  1.00  0.00     0.063 H 
ATOM     88  C   UNL A   1      41.313  30.093  32.124  1.00  0.00    -0.014 A 
ATOM     89  H   UNL A   1      41.964  28.661  33.541  1.00  0.00     0.063 H 
ATOM     90  H   UNL A   1      40.425  31.649  30.998  1.00  0.00     0.063 H 
BRANCH  88  91
ATOM     91  C   UNL A   1      42.285  29.724  31.065  1.00  0.00     0.031 A 
ATOM     92  C   UNL A   1      42.023  28.535  30.184  1.00  0.00     0.074 A 
ATOM     93  C   UNL A   1      43.431  30.420  30.943  1.00  0.00     0.049 A 
ATOM     94  N   UNL A   1      42.785  28.008  29.259  1.00  0.00    -0.248 NA
ATOM     95  C   UNL A   1      40.749  27.829  30.387  1.00  0.00    -0.034 C 
ATOM     96  C   UNL A   1      43.817  31.564  31.771  1.00  0.00    -0.036 A 
ATOM     97  N   UNL A   1      44.489  30.259  30.085  1.00  0.00    -0.354 N 
ATOM     98  C   UNL A   1      42.091  26.902  28.783  1.00  0.00     0.074 A 
ATOM     99  C   UNL A   1      40.870  26.805  29.553  1.00  0.00    -0.034 C 
ATOM    100  H   UNL A   1      39.965  28.067  31.015  1.00  0.00     0.065 H 
ATOM    101  C   UNL A   1      45.018  32.010  31.369  1.00  0.00    -0.036 A 
ATOM    102  H   UNL A   1      43.256  31.963  32.539  1.00  0.00     0.065 H 
ATOM    103  C   UNL A   1      45.501  31.165  30.282  1.00  0.00     0.049 A 
ATOM    104  H   UNL A   1      44.519  29.559  29.393  1.00  0.00     0.167 HD
ATOM    105  C   UNL A   1      42.432  26.058  27.781  1.00  0.00     0.037 A 
ATOM    106  H   UNL A   1      40.182  26.041  29.464  1.00  0.00     0.065 H 
ATOM    107  H   UNL A   1      45.518  32.822  31.765  1.00  0.00     0.065 H 
ATOM    108  C   UNL A   1      46.689  31.293  29.661  1.00  0.00     0.037 A 
ATOM    109  C   UNL A   1      43.633  26.177  26.997  1.00  0.00     0.049 A 
ATOM    110  C   UNL A   1      47.041  30.345  28.546  1.00  0.00     0.074 A 
ATOM    111  C   UNL A   1      44.040  25.411  25.919  1.00  0.00    -0.036 A 
ATOM    112  N   UNL A   1      44.622  27.127  27.207  1.00  0.00    -0.354 N 
ATOM    113  N   UNL A   1      46.346  29.344  28.062  1.00  0.00    -0.248 NA
ATOM    114  C   UNL A   1      48.338  30.549  27.887  1.00  0.00    -0.034 C 
ATOM    115  C   UNL A   1      45.294  25.869  25.503  1.00  0.00    -0.036 A 
ATOM    116  H   UNL A   1      43.509  24.634  25.495  1.00  0.00     0.065 H 
ATOM    117  C   UNL A   1      45.646  26.952  26.291  1.00  0.00     0.049 A 
ATOM    118  H   UNL A   1      44.599  27.821  27.905  1.00  0.00     0.167 HD
ATOM    119  C   UNL A   1      47.105  28.819  27.025  1.00  0.00     0.074 A 
ATOM    120  C   UNL A   1      48.308  29.621  26.941  1.00  0.00    -0.034 C 
ATOM    121  H   UNL A   1      49.078  31.235  28.104  1.00  0.00     0.065 H 
ATOM    122  H   UNL A   1      45.860  25.468  24.739  1.00  0.00     0.065 H 
ATOM    123  C   UNL A   1      46.832  27.768  26.214  1.00  0.00     0.037 A 
ATOM    124  H   UNL A   1      49.049  29.488  26.235  1.00  0.00     0.065 H 
BRANCH 105 125
ATOM    125  C   UNL A   1      41.492  24.932  27.467  1.00  0.00     0.064 A 
ATOM    126  C   UNL A   1      41.676  23.649  28.004  1.00  0.00     0.173 A 
ATOM    127  C   UNL A   1      40.366  25.148  26.658  1.00  0.00     0.173 A 
ATOM    128  F   UNL A   1      42.743  23.387  28.774  1.00  0.00    -0.203 F 
ATOM    129  C   UNL A   1      40.782  22.619  27.725  1.00  0.00     0.198 A 
ATOM    130  C   UNL A   1      39.458  24.123  26.404  1.00  0.00     0.198 A 
ATOM    131  F   UNL A   1      40.139  26.357  26.123  1.00  0.00    -0.203 F 
ATOM    132  F   UNL A   1      41.002  21.391  28.214  1.00  0.00    -0.200 F 
ATOM    133  C   UNL A   1      39.670  22.859  26.932  1.00  0.00     0.200 A 
ATOM    134  F   UNL A   1      38.377  24.360  25.649  1.00  0.00    -0.200 F 
ATOM    135  F   UNL A   1      38.805  21.869  26.673  1.00  0.00    -0.200 F 
ENDBRANCH 105 125
BRANCH 108 136
ATOM    136  C   UNL A   1      47.627  32.374  30.063  1.00  0.00     0.064 A 
ATOM    137  C   UNL A   1      47.599  33.623  29.428  1.00  0.00     0.173 A 
ATOM    138  C   UNL A   1      48.573  32.178  31.079  1.00  0.00     0.173 A 
ATOM    139  F   UNL A   1      46.725  33.850  28.436  1.00  0.00    -0.203 F 
ATOM    140  C   UNL A   1      48.499  34.628  29.777  1.00  0.00     0.198 A 
ATOM    141  C   UNL A   1      49.454  33.193  31.447  1.00  0.00     0.198 A 
ATOM    142  F   UNL A   1      48.637  31.003  31.722  1.00  0.00    -0.203 F 
ATOM    143  F   UNL A   1      48.484  35.796  29.120  1.00  0.00    -0.200 F 
ATOM    144  C   UNL A   1      49.422  34.414  30.789  1.00  0.00     0.200 A 
ATOM    145  F   UNL A   1      50.334  32.987  32.436  1.00  0.00    -0.200 F 
ATOM    146  F   UNL A   1      50.287  35.380  31.126  1.00  0.00    -0.200 F 
ENDBRANCH 108 136
BRANCH 123 147
ATOM    147  C   UNL A   1      47.831  27.447  25.143  1.00  0.00     0.064 A 
ATOM    148  C   UNL A   1      47.616  27.807  23.805  1.00  0.00     0.173 A 
ATOM    149  C   UNL A   1      49.037  26.807  25.467  1.00  0.00     0.173 A 
ATOM    150  F   UNL A   1      46.472  28.406  23.442  1.00  0.00    -0.203 F 
ATOM    151  C   UNL A   1      48.563  27.516  22.826  1.00  0.00     0.198 A 
ATOM    152  C   UNL A   1      49.993  26.544  24.491  1.00  0.00     0.198 A 
ATOM    153  F   UNL A   1      49.292  26.448  26.734  1.00  0.00    -0.203 F 
ATOM    154  F   UNL A   1      48.317  27.828  21.546  1.00  0.00    -0.200 F 
ATOM    155  C   UNL A   1      49.752  26.893  23.170  1.00  0.00     0.200 A 
ATOM    156  F   UNL A   1      51.148  25.953  24.828  1.00  0.00    -0.200 F 
ATOM    157  F   UNL A   1      50.665  26.621  22.228  1.00  0.00    -0.200 F 
ENDBRANCH 123 147
ENDBRANCH  88  91
ENDBRANCH  78  81
ENDBRANCH  74  77
ENDBRANCH  71  74
ENDBRANCH  68  71
ENDBRANCH  65  68
ENDBRANCH   1  65
TORSDOF 22
ENDMDL
MODEL 5
REMARK VINA RESULT:      -9.4      5.233     11.798
REMARK SMILES COc1ccc([C@H]2CC(c3ccc(S(C)(=O)=O)cc3)=NN2c2ccc(C(=O)NCCCCCCNC(=O)c3ccc(-c4c5nc(c(-c6c(F)c(F)c(F)c(F)c6F)c6ccc([nH]6)c(-c6c(F)c(F)c(F)c(F)c6F)c6nc(c(-c7c(F)c(F)c(F)c(F)c7F)c7ccc4[nH]7)C=C6)C=C5)cc3)cc2)cc1OC
REMARK SMILES IDX 30 1 29 4 28 7 26 8 27 9 25 11 22 12 23 13 102 14 24 15
REMARK SMILES IDX 101 17 21 21 7 22 8 23 9 25 20 28 6 29 3 30 4 31 104 32 5 33
REMARK SMILES IDX 103 35 2 38 1 39 105 43 106 44 10 48 11 49 19 50 12 51 18 53
REMARK SMILES IDX 13 55 14 58 16 59 17 60 15 61 31 65 32 68 33 71 34 74 35 77
REMARK SMILES IDX 36 78 37 80 38 81 39 82 100 83 40 84 99 86 41 88 42 91 43 92
REMARK SMILES IDX 93 93 44 94 98 95 92 96 94 97 45 98 97 99 91 101 90 103
REMARK SMILES IDX 46 105 78 108 58 109 77 110 59 111 62 112 76 113 95 114
REMARK SMILES IDX 60 115 61 117 75 119 96 120 63 123 47 125 48 126 56 127
REMARK SMILES IDX 49 128 50 129 54 130 57 131 51 132 52 133 55 134 53 135
REMARK SMILES IDX 79 136 80 137 88 138 81 139 82 140 86 141 89 142 83 143
REMARK SMILES IDX 84 144 87 145 85 146 64 147 65 148 73 149 66 150 67 151
REMARK SMILES IDX 71 152 74 153 68 154 69 155 72 156 70 157
REMARK H PARENT 30 2 30 3 29 5 29 6 28 10 23 16 102 18 24 19 101 20 7 24 8 26
REMARK H PARENT 8 27 4 34 5 36 103 37 1 40 1 41 1 42 106 45 106 46 106 47
REMARK H PARENT 11 52 19 54 12 56 18 57 15 62 15 63 15 64 31 66 31 67 32 69
REMARK H PARENT 32 70 33 72 33 73 34 75 34 76 35 79 39 85 100 87 40 89 99 90
REMARK H PARENT 98 100 92 102 94 104 97 106 91 107 59 116 62 118 95 121 60 122
REMARK H PARENT 96 124
REMARK Flexibility Score: inf
ROOT
ATOM      1  C   UNL A   1      37.160  29.896  30.620  1.00  0.00    -0.036 C 
ATOM      2  H   UNL A   1      37.784  30.689  30.265  1.00  0.00     0.028 H 
ATOM      3  H   UNL A   1      37.733  29.087  31.022  1.00  0.00     0.028 H 
ENDROOT
BRANCH   1   4
ATOM      4  C   UNL A   1      36.355  29.345  29.441  1.00  0.00     0.018 C 
ATOM      5  H   UNL A   1      37.007  28.809  28.784  1.00  0.00     0.049 H 
ATOM      6  H   UNL A   1      35.595  28.688  29.807  1.00  0.00     0.049 H 
BRANCH   4   7
ATOM      7  N   UNL A   1      35.736  30.438  28.719  1.00  0.00    -0.352 N 
ATOM      8  C   UNL A   1      34.755  30.476  27.763  1.00  0.00     0.251 C 
ATOM      9  O   UNL A   1      34.455  31.577  27.301  1.00  0.00    -0.269 OA
ATOM     10  H   UNL A   1      36.088  31.324  28.962  1.00  0.00     0.163 HD
BRANCH   8  11
ATOM     11  C   UNL A   1      34.002  29.271  27.320  1.00  0.00     0.039 A 
ATOM     12  C   UNL A   1      32.677  27.013  26.259  1.00  0.00     0.060 A 
ATOM     13  C   UNL A   1      33.984  27.322  25.872  1.00  0.00    -0.036 A 
ATOM     14  C   UNL A   1      32.067  27.805  27.233  1.00  0.00    -0.036 A 
ATOM     15  C   UNL A   1      34.634  28.448  26.380  1.00  0.00    -0.047 A 
ATOM     16  H   UNL A   1      34.474  26.711  25.201  1.00  0.00     0.065 H 
ATOM     17  C   UNL A   1      32.740  28.901  27.791  1.00  0.00    -0.047 A 
ATOM     18  H   UNL A   1      31.109  27.582  27.546  1.00  0.00     0.065 H 
ATOM     19  H   UNL A   1      35.588  28.676  26.060  1.00  0.00     0.063 H 
ATOM     20  H   UNL A   1      32.299  29.437  28.554  1.00  0.00     0.063 H 
BRANCH  12  21
ATOM     21  N   UNL A   1      32.031  25.925  25.701  1.00  0.00    -0.257 N 
ATOM     22  C   UNL A   1      30.591  25.839  25.468  1.00  0.00     0.083 C 
ATOM     23  C   UNL A   1      30.413  24.377  25.030  1.00  0.00     0.019 C 
ATOM     24  H   UNL A   1      30.004  26.096  26.324  1.00  0.00     0.061 H 
ATOM     25  C   UNL A   1      31.831  23.892  25.150  1.00  0.00     0.071 C 
ATOM     26  H   UNL A   1      30.052  24.304  24.026  1.00  0.00     0.036 H 
ATOM     27  H   UNL A   1      29.698  23.821  25.601  1.00  0.00     0.036 H 
ATOM     28  N   UNL A   1      32.706  24.762  25.543  1.00  0.00    -0.176 NA
BRANCH  22  29
ATOM     29  C   UNL A   1      30.129  26.820  24.403  1.00  0.00    -0.019 A 
ATOM     30  C   UNL A   1      29.297  28.658  22.431  1.00  0.00     0.160 A 
ATOM     31  C   UNL A   1      28.359  27.875  23.119  1.00  0.00    -0.016 A 
ATOM     32  C   UNL A   1      30.657  28.548  22.734  1.00  0.00     0.161 A 
ATOM     33  C   UNL A   1      28.771  26.958  24.092  1.00  0.00    -0.053 A 
ATOM     34  H   UNL A   1      27.354  27.977  22.907  1.00  0.00     0.066 H 
ATOM     35  C   UNL A   1      31.053  27.627  23.713  1.00  0.00    -0.011 A 
ATOM     36  H   UNL A   1      28.071  26.380  24.583  1.00  0.00     0.063 H 
ATOM     37  H   UNL A   1      32.056  27.538  23.937  1.00  0.00     0.067 H 
BRANCH  30  38
ATOM     38  O   UNL A   1      28.831  29.591  21.544  1.00  0.00    -0.493 OA
BRANCH  38  39
ATOM     39  C   UNL A   1      27.749  30.348  22.089  1.00  0.00     0.078 C 
ATOM     40  H   UNL A   1      27.528  29.997  23.075  1.00  0.00     0.067 H 
ATOM     41  H   UNL A   1      26.886  30.233  21.467  1.00  0.00     0.067 H 
ATOM     42  H   UNL A   1      28.023  31.381  22.131  1.00  0.00     0.067 H 
ENDBRANCH  38  39
ENDBRANCH  30  38
BRANCH  32  43
ATOM     43  O   UNL A   1      31.713  29.241  22.209  1.00  0.00    -0.493 OA
BRANCH  43  44
ATOM     44  C   UNL A   1      33.024  28.912  22.637  1.00  0.00     0.078 C 
ATOM     45  H   UNL A   1      33.090  29.019  23.699  1.00  0.00     0.067 H 
ATOM     46  H   UNL A   1      33.727  29.568  22.168  1.00  0.00     0.067 H 
ATOM     47  H   UNL A   1      33.244  27.901  22.366  1.00  0.00     0.067 H 
ENDBRANCH  43  44
ENDBRANCH  32  43
ENDBRANCH  22  29
BRANCH  25  48
ATOM     48  C   UNL A   1      32.182  22.495  24.881  1.00  0.00    -0.002 A 
ATOM     49  C   UNL A   1      32.616  21.701  25.946  1.00  0.00    -0.052 A 
ATOM     50  C   UNL A   1      32.124  21.992  23.580  1.00  0.00    -0.052 A 
ATOM     51  C   UNL A   1      32.979  20.375  25.713  1.00  0.00    -0.043 A 
ATOM     52  H   UNL A   1      32.668  22.093  26.899  1.00  0.00     0.063 H 
ATOM     53  C   UNL A   1      32.512  20.673  23.340  1.00  0.00    -0.043 A 
ATOM     54  H   UNL A   1      31.798  22.589  22.805  1.00  0.00     0.063 H 
ATOM     55  C   UNL A   1      32.938  19.873  24.407  1.00  0.00     0.067 A 
ATOM     56  H   UNL A   1      33.273  19.770  26.496  1.00  0.00     0.064 H 
ATOM     57  H   UNL A   1      32.484  20.289  22.383  1.00  0.00     0.064 H 
BRANCH  55  58
ATOM     58  S   UNL A   1      33.419  18.187  24.117  1.00  0.00     0.175 S 
ATOM     59  O   UNL A   1      32.828  17.798  22.852  1.00  0.00    -0.224 OA
ATOM     60  O   UNL A   1      34.851  18.095  24.334  1.00  0.00    -0.224 OA
BRANCH  58  61
ATOM     61  C   UNL A   1      32.621  17.277  25.415  1.00  0.00     0.043 C 
ATOM     62  H   UNL A   1      33.045  16.297  25.476  1.00  0.00     0.040 H 
ATOM     63  H   UNL A   1      31.574  17.201  25.206  1.00  0.00     0.040 H 
ATOM     64  H   UNL A   1      32.762  17.786  26.347  1.00  0.00     0.040 H 
ENDBRANCH  58  61
ENDBRANCH  55  58
ENDBRANCH  25  48
ENDBRANCH  12  21
ENDBRANCH   8  11
ENDBRANCH   4   7
ENDBRANCH   1   4
BRANCH   1  65
ATOM     65  C   UNL A   1      36.274  30.439  31.749  1.00  0.00    -0.052 C 
ATOM     66  H   UNL A   1      36.875  30.531  32.630  1.00  0.00     0.027 H 
ATOM     67  H   UNL A   1      35.468  29.745  31.861  1.00  0.00     0.027 H 
BRANCH  65  68
ATOM     68  C   UNL A   1      35.635  31.804  31.461  1.00  0.00    -0.052 C 
ATOM     69  H   UNL A   1      34.708  31.636  30.955  1.00  0.00     0.027 H 
ATOM     70  H   UNL A   1      36.346  32.350  30.877  1.00  0.00     0.027 H 
BRANCH  68  71
ATOM     71  C   UNL A   1      35.353  32.657  32.700  1.00  0.00    -0.036 C 
ATOM     72  H   UNL A   1      34.901  32.033  33.443  1.00  0.00     0.028 H 
ATOM     73  H   UNL A   1      34.715  33.455  32.384  1.00  0.00     0.028 H 
BRANCH  71  74
ATOM     74  C   UNL A   1      36.592  33.305  33.311  1.00  0.00     0.018 C 
ATOM     75  H   UNL A   1      36.438  34.364  33.367  1.00  0.00     0.049 H 
ATOM     76  H   UNL A   1      37.431  33.073  32.689  1.00  0.00     0.049 H 
BRANCH  74  77
ATOM     77  N   UNL A   1      36.862  32.798  34.646  1.00  0.00    -0.352 N 
ATOM     78  C   UNL A   1      37.795  31.877  35.052  1.00  0.00     0.251 C 
ATOM     79  H   UNL A   1      36.295  33.166  35.361  1.00  0.00     0.163 HD
ATOM     80  O   UNL A   1      37.742  31.395  36.178  1.00  0.00    -0.269 OA
BRANCH  78  81
ATOM     81  C   UNL A   1      38.864  31.457  34.122  1.00  0.00     0.039 A 
ATOM     82  C   UNL A   1      39.625  30.327  34.433  1.00  0.00    -0.049 A 
ATOM     83  C   UNL A   1      39.129  32.189  32.960  1.00  0.00    -0.049 A 
ATOM     84  C   UNL A   1      40.620  29.900  33.551  1.00  0.00    -0.053 A 
ATOM     85  H   UNL A   1      39.453  29.812  35.309  1.00  0.00     0.063 H 
ATOM     86  C   UNL A   1      40.076  31.725  32.051  1.00  0.00    -0.053 A 
ATOM     87  H   UNL A   1      38.624  33.069  32.776  1.00  0.00     0.063 H 
ATOM     88  C   UNL A   1      40.834  30.579  32.341  1.00  0.00    -0.014 A 
ATOM     89  H   UNL A   1      41.200  29.081  33.789  1.00  0.00     0.063 H 
ATOM     90  H   UNL A   1      40.221  32.226  31.161  1.00  0.00     0.063 H 
BRANCH  88  91
ATOM     91  C   UNL A   1      41.852  30.112  31.367  1.00  0.00     0.031 A 
ATOM     92  C   UNL A   1      43.095  30.923  31.128  1.00  0.00     0.074 A 
ATOM     93  C   UNL A   1      41.623  28.994  30.652  1.00  0.00     0.049 A 
ATOM     94  N   UNL A   1      44.060  30.723  30.266  1.00  0.00    -0.248 NA
ATOM     95  C   UNL A   1      43.263  32.132  31.949  1.00  0.00    -0.034 C 
ATOM     96  C   UNL A   1      40.433  28.149  30.761  1.00  0.00    -0.036 A 
ATOM     97  N   UNL A   1      42.376  28.383  29.681  1.00  0.00    -0.354 N 
ATOM     98  C   UNL A   1      44.938  31.787  30.429  1.00  0.00     0.074 A 
ATOM     99  C   UNL A   1      44.369  32.654  31.439  1.00  0.00    -0.034 C 
ATOM    100  H   UNL A   1      42.675  32.482  32.722  1.00  0.00     0.065 H 
ATOM    101  C   UNL A   1      40.544  27.122  29.904  1.00  0.00    -0.036 A 
ATOM    102  H   UNL A   1      39.637  28.316  31.396  1.00  0.00     0.065 H 
ATOM    103  C   UNL A   1      41.792  27.255  29.160  1.00  0.00     0.049 A 
ATOM    104  H   UNL A   1      43.251  28.723  29.385  1.00  0.00     0.167 HD
ATOM    105  C   UNL A   1      46.121  32.008  29.809  1.00  0.00     0.037 A 
ATOM    106  H   UNL A   1      44.772  33.561  31.724  1.00  0.00     0.065 H 
ATOM    107  H   UNL A   1      39.855  26.361  29.789  1.00  0.00     0.065 H 
ATOM    108  C   UNL A   1      42.214  26.426  28.186  1.00  0.00     0.037 A 
ATOM    109  C   UNL A   1      46.698  31.126  28.829  1.00  0.00     0.049 A 
ATOM    110  C   UNL A   1      43.536  26.692  27.517  1.00  0.00     0.074 A 
ATOM    111  C   UNL A   1      47.920  31.229  28.189  1.00  0.00    -0.036 A 
ATOM    112  N   UNL A   1      46.090  29.976  28.348  1.00  0.00    -0.354 N 
ATOM    113  N   UNL A   1      44.389  27.665  27.728  1.00  0.00    -0.248 NA
ATOM    114  C   UNL A   1      43.958  25.739  26.481  1.00  0.00    -0.034 C 
ATOM    115  C   UNL A   1      48.035  30.164  27.289  1.00  0.00    -0.036 A 
ATOM    116  H   UNL A   1      48.626  31.965  28.347  1.00  0.00     0.065 H 
ATOM    117  C   UNL A   1      46.904  29.372  27.405  1.00  0.00     0.049 A 
ATOM    118  H   UNL A   1      45.210  29.640  28.634  1.00  0.00     0.167 HD
ATOM    119  C   UNL A   1      45.458  27.428  26.875  1.00  0.00     0.074 A 
ATOM    120  C   UNL A   1      45.153  26.210  26.154  1.00  0.00    -0.034 C 
ATOM    121  H   UNL A   1      43.455  24.919  26.107  1.00  0.00     0.065 H 
ATOM    122  H   UNL A   1      48.826  29.998  26.649  1.00  0.00     0.065 H 
ATOM    123  C   UNL A   1      46.590  28.152  26.704  1.00  0.00     0.037 A 
ATOM    124  H   UNL A   1      45.786  25.764  25.471  1.00  0.00     0.065 H 
BRANCH 105 125
ATOM    125  C   UNL A   1      46.879  33.251  30.175  1.00  0.00     0.064 A 
ATOM    126  C   UNL A   1      46.696  34.455  29.479  1.00  0.00     0.173 A 
ATOM    127  C   UNL A   1      47.763  33.250  31.264  1.00  0.00     0.173 A 
ATOM    128  F   UNL A   1      45.871  34.505  28.423  1.00  0.00    -0.203 F 
ATOM    129  C   UNL A   1      47.387  35.607  29.846  1.00  0.00     0.198 A 
ATOM    130  C   UNL A   1      48.432  34.411  31.646  1.00  0.00     0.198 A 
ATOM    131  F   UNL A   1      47.972  32.127  31.968  1.00  0.00    -0.203 F 
ATOM    132  F   UNL A   1      47.229  36.734  29.140  1.00  0.00    -0.200 F 
ATOM    133  C   UNL A   1      48.248  35.586  30.933  1.00  0.00     0.200 A 
ATOM    134  F   UNL A   1      49.252  34.393  32.705  1.00  0.00    -0.200 F 
ATOM    135  F   UNL A   1      48.904  36.698  31.290  1.00  0.00    -0.200 F 
ENDBRANCH 105 125
BRANCH 108 136
ATOM    136  C   UNL A   1      41.389  25.253  27.798  1.00  0.00     0.064 A 
ATOM    137  C   UNL A   1      40.304  25.395  26.921  1.00  0.00     0.173 A 
ATOM    138  C   UNL A   1      41.659  23.972  28.299  1.00  0.00     0.173 A 
ATOM    139  F   UNL A   1      39.995  26.605  26.431  1.00  0.00    -0.203 F 
ATOM    140  C   UNL A   1      39.506  24.305  26.580  1.00  0.00     0.198 A 
ATOM    141  C   UNL A   1      40.878  22.877  27.936  1.00  0.00     0.198 A 
ATOM    142  F   UNL A   1      42.689  23.781  29.137  1.00  0.00    -0.203 F 
ATOM    143  F   UNL A   1      38.446  24.478  25.779  1.00  0.00    -0.200 F 
ATOM    144  C   UNL A   1      39.796  23.046  27.083  1.00  0.00     0.200 A 
ATOM    145  F   UNL A   1      41.170  21.659  28.413  1.00  0.00    -0.200 F 
ATOM    146  F   UNL A   1      39.030  21.997  26.756  1.00  0.00    -0.200 F 
ENDBRANCH 108 136
BRANCH 123 147
ATOM    147  C   UNL A   1      47.601  27.628  25.728  1.00  0.00     0.064 A 
ATOM    148  C   UNL A   1      47.495  27.882  24.352  1.00  0.00     0.173 A 
ATOM    149  C   UNL A   1      48.711  26.899  26.179  1.00  0.00     0.173 A 
ATOM    150  F   UNL A   1      46.443  28.562  23.870  1.00  0.00    -0.203 F 
ATOM    151  C   UNL A   1      48.452  27.403  23.462  1.00  0.00     0.198 A 
ATOM    152  C   UNL A   1      49.681  26.446  25.289  1.00  0.00     0.198 A 
ATOM    153  F   UNL A   1      48.861  26.635  27.486  1.00  0.00    -0.203 F 
ATOM    154  F   UNL A   1      48.307  27.618  22.147  1.00  0.00    -0.200 F 
ATOM    155  C   UNL A   1      49.547  26.693  23.931  1.00  0.00     0.200 A 
ATOM    156  F   UNL A   1      50.745  25.772  25.745  1.00  0.00    -0.200 F 
ATOM    157  F   UNL A   1      50.471  26.240  23.073  1.00  0.00    -0.200 F 
ENDBRANCH 123 147
ENDBRANCH  88  91
ENDBRANCH  78  81
ENDBRANCH  74  77
ENDBRANCH  71  74
ENDBRANCH  68  71
ENDBRANCH  65  68
ENDBRANCH   1  65
TORSDOF 22
ENDMDL
MODEL 6
REMARK VINA RESULT:      -9.3      4.661      8.007
REMARK SMILES COc1ccc([C@H]2CC(c3ccc(S(C)(=O)=O)cc3)=NN2c2ccc(C(=O)NCCCCCCNC(=O)c3ccc(-c4c5nc(c(-c6c(F)c(F)c(F)c(F)c6F)c6ccc([nH]6)c(-c6c(F)c(F)c(F)c(F)c6F)c6nc(c(-c7c(F)c(F)c(F)c(F)c7F)c7ccc4[nH]7)C=C6)C=C5)cc3)cc2)cc1OC
REMARK SMILES IDX 30 1 29 4 28 7 26 8 27 9 25 11 22 12 23 13 102 14 24 15
REMARK SMILES IDX 101 17 21 21 7 22 8 23 9 25 20 28 6 29 3 30 4 31 104 32 5 33
REMARK SMILES IDX 103 35 2 38 1 39 105 43 106 44 10 48 11 49 19 50 12 51 18 53
REMARK SMILES IDX 13 55 14 58 16 59 17 60 15 61 31 65 32 68 33 71 34 74 35 77
REMARK SMILES IDX 36 78 37 80 38 81 39 82 100 83 40 84 99 86 41 88 42 91 43 92
REMARK SMILES IDX 93 93 44 94 98 95 92 96 94 97 45 98 97 99 91 101 90 103
REMARK SMILES IDX 46 105 78 108 58 109 77 110 59 111 62 112 76 113 95 114
REMARK SMILES IDX 60 115 61 117 75 119 96 120 63 123 47 125 48 126 56 127
REMARK SMILES IDX 49 128 50 129 54 130 57 131 51 132 52 133 55 134 53 135
REMARK SMILES IDX 79 136 80 137 88 138 81 139 82 140 86 141 89 142 83 143
REMARK SMILES IDX 84 144 87 145 85 146 64 147 65 148 73 149 66 150 67 151
REMARK SMILES IDX 71 152 74 153 68 154 69 155 72 156 70 157
REMARK H PARENT 30 2 30 3 29 5 29 6 28 10 23 16 102 18 24 19 101 20 7 24 8 26
REMARK H PARENT 8 27 4 34 5 36 103 37 1 40 1 41 1 42 106 45 106 46 106 47
REMARK H PARENT 11 52 19 54 12 56 18 57 15 62 15 63 15 64 31 66 31 67 32 69
REMARK H PARENT 32 70 33 72 33 73 34 75 34 76 35 79 39 85 100 87 40 89 99 90
REMARK H PARENT 98 100 92 102 94 104 97 106 91 107 59 116 62 118 95 121 60 122
REMARK H PARENT 96 124
REMARK Flexibility Score: inf
ROOT
ATOM      1  C   UNL A   1      41.328  25.873  26.478  1.00  0.00    -0.036 C 
ATOM      2  H   UNL A   1      41.787  25.625  27.412  1.00  0.00     0.028 H 
ATOM      3  H   UNL A   1      41.299  26.930  26.317  1.00  0.00     0.028 H 
ENDROOT
BRANCH   1   4
ATOM      4  C   UNL A   1      39.881  25.374  26.499  1.00  0.00     0.018 C 
ATOM      5  H   UNL A   1      39.387  25.749  27.371  1.00  0.00     0.049 H 
ATOM      6  H   UNL A   1      39.375  25.718  25.622  1.00  0.00     0.049 H 
BRANCH   4   7
ATOM      7  N   UNL A   1      39.865  23.926  26.523  1.00  0.00    -0.352 N 
ATOM      8  C   UNL A   1      38.893  23.007  26.229  1.00  0.00     0.251 C 
ATOM      9  O   UNL A   1      39.171  21.817  26.378  1.00  0.00    -0.269 OA
ATOM     10  H   UNL A   1      40.719  23.524  26.806  1.00  0.00     0.163 HD
BRANCH   8  11
ATOM     11  C   UNL A   1      37.561  23.379  25.678  1.00  0.00     0.039 A 
ATOM     12  C   UNL A   1      35.146  24.134  24.420  1.00  0.00     0.060 A 
ATOM     13  C   UNL A   1      36.143  23.460  23.708  1.00  0.00    -0.036 A 
ATOM     14  C   UNL A   1      35.343  24.364  25.782  1.00  0.00    -0.036 A 
ATOM     15  C   UNL A   1      37.345  23.102  24.322  1.00  0.00    -0.047 A 
ATOM     16  H   UNL A   1      35.988  23.224  22.716  1.00  0.00     0.065 H 
ATOM     17  C   UNL A   1      36.523  23.952  26.417  1.00  0.00    -0.047 A 
ATOM     18  H   UNL A   1      34.611  24.844  26.330  1.00  0.00     0.065 H 
ATOM     19  H   UNL A   1      38.079  22.631  23.773  1.00  0.00     0.063 H 
ATOM     20  H   UNL A   1      36.625  24.073  27.436  1.00  0.00     0.063 H 
BRANCH  12  21
ATOM     21  N   UNL A   1      33.987  24.528  23.778  1.00  0.00    -0.257 N 
ATOM     22  C   UNL A   1      33.461  23.919  22.558  1.00  0.00     0.083 C 
ATOM     23  C   UNL A   1      32.299  24.856  22.195  1.00  0.00     0.019 C 
ATOM     24  H   UNL A   1      34.188  23.829  21.779  1.00  0.00     0.061 H 
ATOM     25  C   UNL A   1      32.428  25.874  23.293  1.00  0.00     0.071 C 
ATOM     26  H   UNL A   1      31.356  24.351  22.229  1.00  0.00     0.036 H 
ATOM     27  H   UNL A   1      32.339  25.257  21.203  1.00  0.00     0.036 H 
ATOM     28  N   UNL A   1      33.382  25.682  24.146  1.00  0.00    -0.176 NA
BRANCH  22  29
ATOM     29  C   UNL A   1      32.998  22.489  22.791  1.00  0.00    -0.019 A 
ATOM     30  C   UNL A   1      32.161  19.834  23.245  1.00  0.00     0.160 A 
ATOM     31  C   UNL A   1      31.892  20.469  22.024  1.00  0.00    -0.016 A 
ATOM     32  C   UNL A   1      32.869  20.509  24.243  1.00  0.00     0.161 A 
ATOM     33  C   UNL A   1      32.300  21.789  21.801  1.00  0.00    -0.053 A 
ATOM     34  H   UNL A   1      31.388  19.958  21.283  1.00  0.00     0.066 H 
ATOM     35  C   UNL A   1      33.274  21.829  24.003  1.00  0.00    -0.011 A 
ATOM     36  H   UNL A   1      32.085  22.248  20.902  1.00  0.00     0.063 H 
ATOM     37  H   UNL A   1      33.792  22.334  24.739  1.00  0.00     0.067 H 
BRANCH  30  38
ATOM     38  O   UNL A   1      31.806  18.519  23.380  1.00  0.00    -0.493 OA
BRANCH  38  39
ATOM     39  C   UNL A   1      32.891  17.641  23.075  1.00  0.00     0.078 C 
ATOM     40  H   UNL A   1      32.938  17.487  22.017  1.00  0.00     0.067 H 
ATOM     41  H   UNL A   1      32.738  16.702  23.565  1.00  0.00     0.067 H 
ATOM     42  H   UNL A   1      33.807  18.076  23.414  1.00  0.00     0.067 H 
ENDBRANCH  38  39
ENDBRANCH  30  38
BRANCH  32  43
ATOM     43  O   UNL A   1      33.261  20.058  25.474  1.00  0.00    -0.493 OA
BRANCH  43  44
ATOM     44  C   UNL A   1      33.620  21.005  26.465  1.00  0.00     0.078 C 
ATOM     45  H   UNL A   1      34.302  21.717  26.049  1.00  0.00     0.067 H 
ATOM     46  H   UNL A   1      34.087  20.503  27.286  1.00  0.00     0.067 H 
ATOM     47  H   UNL A   1      32.742  21.510  26.809  1.00  0.00     0.067 H 
ENDBRANCH  43  44
ENDBRANCH  32  43
ENDBRANCH  22  29
BRANCH  25  48
ATOM     48  C   UNL A   1      31.546  27.042  23.355  1.00  0.00    -0.002 A 
ATOM     49  C   UNL A   1      30.280  26.954  22.770  1.00  0.00    -0.052 A 
ATOM     50  C   UNL A   1      31.988  28.227  23.949  1.00  0.00    -0.052 A 
ATOM     51  C   UNL A   1      29.431  28.059  22.795  1.00  0.00    -0.043 A 
ATOM     52  H   UNL A   1      29.975  26.076  22.322  1.00  0.00     0.063 H 
ATOM     53  C   UNL A   1      31.150  29.342  23.952  1.00  0.00    -0.043 A 
ATOM     54  H   UNL A   1      32.923  28.275  24.381  1.00  0.00     0.063 H 
ATOM     55  C   UNL A   1      29.878  29.253  23.374  1.00  0.00     0.067 A 
ATOM     56  H   UNL A   1      28.483  27.998  22.392  1.00  0.00     0.064 H 
ATOM     57  H   UNL A   1      31.465  30.228  24.378  1.00  0.00     0.064 H 
BRANCH  55  58
ATOM     58  S   UNL A   1      28.795  30.662  23.386  1.00  0.00     0.175 S 
ATOM     59  O   UNL A   1      27.449  30.151  23.567  1.00  0.00    -0.224 OA
ATOM     60  O   UNL A   1      29.353  31.638  24.304  1.00  0.00    -0.224 OA
BRANCH  58  61
ATOM     61  C   UNL A   1      28.929  31.329  21.748  1.00  0.00     0.043 C 
ATOM     62  H   UNL A   1      29.571  30.706  21.160  1.00  0.00     0.040 H 
ATOM     63  H   UNL A   1      29.338  32.317  21.797  1.00  0.00     0.040 H 
ATOM     64  H   UNL A   1      27.959  31.368  21.297  1.00  0.00     0.040 H 
ENDBRANCH  58  61
ENDBRANCH  55  58
ENDBRANCH  25  48
ENDBRANCH  12  21
ENDBRANCH   8  11
ENDBRANCH   4   7
ENDBRANCH   1   4
BRANCH   1  65
ATOM     65  C   UNL A   1      42.159  25.257  25.345  1.00  0.00    -0.052 C 
ATOM     66  H   UNL A   1      42.948  25.937  25.101  1.00  0.00     0.027 H 
ATOM     67  H   UNL A   1      41.483  25.087  24.533  1.00  0.00     0.027 H 
BRANCH  65  68
ATOM     68  C   UNL A   1      42.787  23.897  25.679  1.00  0.00    -0.052 C 
ATOM     69  H   UNL A   1      42.079  23.135  25.431  1.00  0.00     0.027 H 
ATOM     70  H   UNL A   1      43.031  23.927  26.720  1.00  0.00     0.027 H 
BRANCH  68  71
ATOM     71  C   UNL A   1      44.092  23.592  24.941  1.00  0.00    -0.036 C 
ATOM     72  H   UNL A   1      44.074  24.103  24.001  1.00  0.00     0.028 H 
ATOM     73  H   UNL A   1      44.144  22.528  24.835  1.00  0.00     0.028 H 
BRANCH  71  74
ATOM     74  C   UNL A   1      45.351  24.017  25.691  1.00  0.00     0.018 C 
ATOM     75  H   UNL A   1      45.967  23.156  25.851  1.00  0.00     0.049 H 
ATOM     76  H   UNL A   1      45.054  24.453  26.622  1.00  0.00     0.049 H 
BRANCH  74  77
ATOM     77  N   UNL A   1      46.112  25.008  24.948  1.00  0.00    -0.352 N 
ATOM     78  C   UNL A   1      46.115  26.374  25.076  1.00  0.00     0.251 C 
ATOM     79  H   UNL A   1      46.709  24.648  24.253  1.00  0.00     0.163 HD
ATOM     80  O   UNL A   1      46.645  27.076  24.222  1.00  0.00    -0.269 OA
BRANCH  78  81
ATOM     81  C   UNL A   1      45.467  27.003  26.245  1.00  0.00     0.039 A 
ATOM     82  C   UNL A   1      45.301  28.390  26.262  1.00  0.00    -0.049 A 
ATOM     83  C   UNL A   1      45.045  26.229  27.331  1.00  0.00    -0.049 A 
ATOM     84  C   UNL A   1      44.665  28.997  27.347  1.00  0.00    -0.053 A 
ATOM     85  H   UNL A   1      45.647  28.963  25.477  1.00  0.00     0.063 H 
ATOM     86  C   UNL A   1      44.354  26.827  28.381  1.00  0.00    -0.053 A 
ATOM     87  H   UNL A   1      45.245  25.217  27.354  1.00  0.00     0.063 H 
ATOM     88  C   UNL A   1      44.161  28.218  28.401  1.00  0.00    -0.014 A 
ATOM     89  H   UNL A   1      44.562  30.024  27.373  1.00  0.00     0.063 H 
ATOM     90  H   UNL A   1      43.981  26.246  29.147  1.00  0.00     0.063 H 
BRANCH  88  91
ATOM     91  C   UNL A   1      43.438  28.838  29.539  1.00  0.00     0.031 A 
ATOM     92  C   UNL A   1      44.089  28.923  30.890  1.00  0.00     0.074 A 
ATOM     93  C   UNL A   1      42.172  29.263  29.368  1.00  0.00     0.049 A 
ATOM     94  N   UNL A   1      43.593  29.356  32.022  1.00  0.00    -0.248 NA
ATOM     95  C   UNL A   1      45.472  28.432  30.989  1.00  0.00    -0.034 C 
ATOM     96  C   UNL A   1      41.417  29.191  28.116  1.00  0.00    -0.036 A 
ATOM     97  N   UNL A   1      41.290  29.829  30.254  1.00  0.00    -0.354 N 
ATOM     98  C   UNL A   1      44.595  29.175  32.967  1.00  0.00     0.074 A 
ATOM     99  C   UNL A   1      45.709  28.549  32.289  1.00  0.00    -0.034 C 
ATOM    100  H   UNL A   1      46.096  28.086  30.243  1.00  0.00     0.065 H 
ATOM    101  C   UNL A   1      40.193  29.708  28.310  1.00  0.00    -0.036 A 
ATOM    102  H   UNL A   1      41.770  28.807  27.226  1.00  0.00     0.065 H 
ATOM    103  C   UNL A   1      40.064  30.113  29.706  1.00  0.00     0.049 A 
ATOM    104  H   UNL A   1      41.515  30.012  31.195  1.00  0.00     0.167 HD
ATOM    105  C   UNL A   1      44.593  29.519  34.276  1.00  0.00     0.037 A 
ATOM    106  H   UNL A   1      46.576  28.235  32.754  1.00  0.00     0.065 H 
ATOM    107  H   UNL A   1      39.461  29.802  27.588  1.00  0.00     0.065 H 
ATOM    108  C   UNL A   1      38.957  30.635  30.269  1.00  0.00     0.037 A 
ATOM    109  C   UNL A   1      43.493  30.170  34.940  1.00  0.00     0.049 A 
ATOM    110  C   UNL A   1      38.984  31.014  31.726  1.00  0.00     0.074 A 
ATOM    111  C   UNL A   1      43.417  30.616  36.247  1.00  0.00    -0.036 A 
ATOM    112  N   UNL A   1      42.278  30.469  34.344  1.00  0.00    -0.354 N 
ATOM    113  N   UNL A   1      39.960  30.898  32.593  1.00  0.00    -0.248 NA
ATOM    114  C   UNL A   1      37.757  31.604  32.279  1.00  0.00    -0.034 C 
ATOM    115  C   UNL A   1      42.140  31.148  36.455  1.00  0.00    -0.036 A 
ATOM    116  H   UNL A   1      44.172  30.565  36.949  1.00  0.00     0.065 H 
ATOM    117  C   UNL A   1      41.438  31.076  35.263  1.00  0.00     0.049 A 
ATOM    118  H   UNL A   1      42.045  30.277  33.406  1.00  0.00     0.167 HD
ATOM    119  C   UNL A   1      39.479  31.425  33.783  1.00  0.00     0.074 A 
ATOM    120  C   UNL A   1      38.126  31.874  33.523  1.00  0.00    -0.034 C 
ATOM    121  H   UNL A   1      36.847  31.764  31.820  1.00  0.00     0.065 H 
ATOM    122  H   UNL A   1      41.782  31.528  37.345  1.00  0.00     0.065 H 
ATOM    123  C   UNL A   1      40.099  31.528  34.983  1.00  0.00     0.037 A 
ATOM    124  H   UNL A   1      37.526  32.346  34.218  1.00  0.00     0.065 H 
BRANCH 105 125
ATOM    125  C   UNL A   1      45.819  29.205  35.083  1.00  0.00     0.064 A 
ATOM    126  C   UNL A   1      45.950  27.994  35.779  1.00  0.00     0.173 A 
ATOM    127  C   UNL A   1      46.895  30.104  35.122  1.00  0.00     0.173 A 
ATOM    128  F   UNL A   1      44.945  27.105  35.784  1.00  0.00    -0.203 F 
ATOM    129  C   UNL A   1      47.104  27.705  36.503  1.00  0.00     0.198 A 
ATOM    130  C   UNL A   1      48.060  29.799  35.823  1.00  0.00     0.198 A 
ATOM    131  F   UNL A   1      46.824  31.274  34.469  1.00  0.00    -0.203 F 
ATOM    132  F   UNL A   1      47.190  26.560  37.195  1.00  0.00    -0.200 F 
ATOM    133  C   UNL A   1      48.160  28.603  36.517  1.00  0.00     0.200 A 
ATOM    134  F   UNL A   1      49.084  30.662  35.825  1.00  0.00    -0.200 F 
ATOM    135  F   UNL A   1      49.274  28.319  37.205  1.00  0.00    -0.200 F 
ENDBRANCH 105 125
BRANCH 108 136
ATOM    136  C   UNL A   1      37.736  30.850  29.451  1.00  0.00     0.064 A 
ATOM    137  C   UNL A   1      36.836  29.802  29.211  1.00  0.00     0.173 A 
ATOM    138  C   UNL A   1      37.448  32.101  28.885  1.00  0.00     0.173 A 
ATOM    139  F   UNL A   1      37.080  28.584  29.715  1.00  0.00    -0.203 F 
ATOM    140  C   UNL A   1      35.708  29.990  28.416  1.00  0.00     0.198 A 
ATOM    141  C   UNL A   1      36.304  32.295  28.113  1.00  0.00     0.198 A 
ATOM    142  F   UNL A   1      38.274  33.137  29.089  1.00  0.00    -0.203 F 
ATOM    143  F   UNL A   1      34.891  28.959  28.162  1.00  0.00    -0.200 F 
ATOM    144  C   UNL A   1      35.440  31.237  27.872  1.00  0.00     0.200 A 
ATOM    145  F   UNL A   1      36.041  33.505  27.601  1.00  0.00    -0.200 F 
ATOM    146  F   UNL A   1      34.354  31.419  27.107  1.00  0.00    -0.200 F 
ENDBRANCH 108 136
BRANCH 123 147
ATOM    147  C   UNL A   1      39.337  32.184  36.097  1.00  0.00     0.064 A 
ATOM    148  C   UNL A   1      38.420  31.470  36.882  1.00  0.00     0.173 A 
ATOM    149  C   UNL A   1      39.560  33.534  36.409  1.00  0.00     0.173 A 
ATOM    150  F   UNL A   1      38.162  30.181  36.613  1.00  0.00    -0.203 F 
ATOM    151  C   UNL A   1      37.735  32.091  37.923  1.00  0.00     0.198 A 
ATOM    152  C   UNL A   1      38.894  34.143  37.468  1.00  0.00     0.198 A 
ATOM    153  F   UNL A   1      40.432  34.258  35.692  1.00  0.00    -0.203 F 
ATOM    154  F   UNL A   1      36.830  31.401  38.631  1.00  0.00    -0.200 F 
ATOM    155  C   UNL A   1      37.978  33.423  38.220  1.00  0.00     0.200 A 
ATOM    156  F   UNL A   1      39.140  35.427  37.763  1.00  0.00    -0.200 F 
ATOM    157  F   UNL A   1      37.324  34.016  39.228  1.00  0.00    -0.200 F 
ENDBRANCH 123 147
ENDBRANCH  88  91
ENDBRANCH  78  81
ENDBRANCH  74  77
ENDBRANCH  71  74
ENDBRANCH  68  71
ENDBRANCH  65  68
ENDBRANCH   1  65
TORSDOF 22
ENDMDL
MODEL 7
REMARK VINA RESULT:      -9.3      5.177      8.984
REMARK SMILES COc1ccc([C@H]2CC(c3ccc(S(C)(=O)=O)cc3)=NN2c2ccc(C(=O)NCCCCCCNC(=O)c3ccc(-c4c5nc(c(-c6c(F)c(F)c(F)c(F)c6F)c6ccc([nH]6)c(-c6c(F)c(F)c(F)c(F)c6F)c6nc(c(-c7c(F)c(F)c(F)c(F)c7F)c7ccc4[nH]7)C=C6)C=C5)cc3)cc2)cc1OC
REMARK SMILES IDX 30 1 29 4 28 7 26 8 27 9 25 11 22 12 23 13 102 14 24 15
REMARK SMILES IDX 101 17 21 21 7 22 8 23 9 25 20 28 6 29 3 30 4 31 104 32 5 33
REMARK SMILES IDX 103 35 2 38 1 39 105 43 106 44 10 48 11 49 19 50 12 51 18 53
REMARK SMILES IDX 13 55 14 58 16 59 17 60 15 61 31 65 32 68 33 71 34 74 35 77
REMARK SMILES IDX 36 78 37 80 38 81 39 82 100 83 40 84 99 86 41 88 42 91 43 92
REMARK SMILES IDX 93 93 44 94 98 95 92 96 94 97 45 98 97 99 91 101 90 103
REMARK SMILES IDX 46 105 78 108 58 109 77 110 59 111 62 112 76 113 95 114
REMARK SMILES IDX 60 115 61 117 75 119 96 120 63 123 47 125 48 126 56 127
REMARK SMILES IDX 49 128 50 129 54 130 57 131 51 132 52 133 55 134 53 135
REMARK SMILES IDX 79 136 80 137 88 138 81 139 82 140 86 141 89 142 83 143
REMARK SMILES IDX 84 144 87 145 85 146 64 147 65 148 73 149 66 150 67 151
REMARK SMILES IDX 71 152 74 153 68 154 69 155 72 156 70 157
REMARK H PARENT 30 2 30 3 29 5 29 6 28 10 23 16 102 18 24 19 101 20 7 24 8 26
REMARK H PARENT 8 27 4 34 5 36 103 37 1 40 1 41 1 42 106 45 106 46 106 47
REMARK H PARENT 11 52 19 54 12 56 18 57 15 62 15 63 15 64 31 66 31 67 32 69
REMARK H PARENT 32 70 33 72 33 73 34 75 34 76 35 79 39 85 100 87 40 89 99 90
REMARK H PARENT 98 100 92 102 94 104 97 106 91 107 59 116 62 118 95 121 60 122
REMARK H PARENT 96 124
REMARK Flexibility Score: inf
ROOT
ATOM      1  C   UNL A   1      36.327  21.806  25.886  1.00  0.00    -0.036 C 
ATOM      2  H   UNL A   1      36.371  21.136  26.719  1.00  0.00     0.028 H 
ATOM      3  H   UNL A   1      35.580  22.560  26.020  1.00  0.00     0.028 H 
ENDROOT
BRANCH   1   4
ATOM      4  C   UNL A   1      35.951  21.005  24.637  1.00  0.00     0.018 C 
ATOM      5  H   UNL A   1      36.221  21.560  23.764  1.00  0.00     0.049 H 
ATOM      6  H   UNL A   1      36.472  20.071  24.645  1.00  0.00     0.049 H 
BRANCH   4   7
ATOM      7  N   UNL A   1      34.524  20.758  24.627  1.00  0.00    -0.352 N 
ATOM      8  C   UNL A   1      33.442  21.586  24.768  1.00  0.00     0.251 C 
ATOM      9  O   UNL A   1      32.324  21.070  24.748  1.00  0.00    -0.269 OA
ATOM     10  H   UNL A   1      34.285  19.812  24.494  1.00  0.00     0.163 HD
BRANCH   8  11
ATOM     11  C   UNL A   1      33.557  23.067  24.869  1.00  0.00     0.039 A 
ATOM     12  C   UNL A   1      33.579  25.872  25.207  1.00  0.00     0.060 A 
ATOM     13  C   UNL A   1      33.208  25.027  26.258  1.00  0.00    -0.036 A 
ATOM     14  C   UNL A   1      34.004  25.294  24.010  1.00  0.00    -0.036 A 
ATOM     15  C   UNL A   1      33.178  23.642  26.088  1.00  0.00    -0.047 A 
ATOM     16  H   UNL A   1      32.952  25.434  27.171  1.00  0.00     0.065 H 
ATOM     17  C   UNL A   1      34.034  23.902  23.856  1.00  0.00    -0.047 A 
ATOM     18  H   UNL A   1      34.300  25.900  23.229  1.00  0.00     0.065 H 
ATOM     19  H   UNL A   1      32.874  23.038  26.866  1.00  0.00     0.063 H 
ATOM     20  H   UNL A   1      34.411  23.491  22.988  1.00  0.00     0.063 H 
BRANCH  12  21
ATOM     21  N   UNL A   1      33.548  27.243  25.381  1.00  0.00    -0.257 N 
ATOM     22  C   UNL A   1      33.213  28.208  24.336  1.00  0.00     0.083 C 
ATOM     23  C   UNL A   1      33.525  29.551  25.013  1.00  0.00     0.019 C 
ATOM     24  H   UNL A   1      33.757  28.059  23.427  1.00  0.00     0.061 H 
ATOM     25  C   UNL A   1      34.037  29.065  26.340  1.00  0.00     0.071 C 
ATOM     26  H   UNL A   1      32.648  30.154  25.123  1.00  0.00     0.036 H 
ATOM     27  H   UNL A   1      34.202  30.180  24.473  1.00  0.00     0.036 H 
ATOM     28  N   UNL A   1      34.060  27.782  26.512  1.00  0.00    -0.176 NA
BRANCH  22  29
ATOM     29  C   UNL A   1      31.757  28.101  23.910  1.00  0.00    -0.019 A 
ATOM     30  C   UNL A   1      29.058  27.930  23.107  1.00  0.00     0.160 A 
ATOM     31  C   UNL A   1      29.541  27.145  24.164  1.00  0.00    -0.016 A 
ATOM     32  C   UNL A   1      29.911  28.824  22.454  1.00  0.00     0.161 A 
ATOM     33  C   UNL A   1      30.881  27.223  24.558  1.00  0.00    -0.053 A 
ATOM     34  H   UNL A   1      28.900  26.503  24.657  1.00  0.00     0.066 H 
ATOM     35  C   UNL A   1      31.250  28.893  22.863  1.00  0.00    -0.011 A 
ATOM     36  H   UNL A   1      31.225  26.631  25.330  1.00  0.00     0.063 H 
ATOM     37  H   UNL A   1      31.886  29.547  22.380  1.00  0.00     0.067 H 
BRANCH  30  38
ATOM     38  O   UNL A   1      27.723  27.868  22.814  1.00  0.00    -0.493 OA
BRANCH  38  39
ATOM     39  C   UNL A   1      26.986  28.898  23.474  1.00  0.00     0.078 C 
ATOM     40  H   UNL A   1      27.298  29.853  23.106  1.00  0.00     0.067 H 
ATOM     41  H   UNL A   1      27.167  28.846  24.528  1.00  0.00     0.067 H 
ATOM     42  H   UNL A   1      25.941  28.766  23.285  1.00  0.00     0.067 H 
ENDBRANCH  38  39
ENDBRANCH  30  38
BRANCH  32  43
ATOM     43  O   UNL A   1      29.629  29.695  21.438  1.00  0.00    -0.493 OA
BRANCH  43  44
ATOM     44  C   UNL A   1      29.248  31.021  21.763  1.00  0.00     0.078 C 
ATOM     45  H   UNL A   1      30.005  31.472  22.370  1.00  0.00     0.067 H 
ATOM     46  H   UNL A   1      28.323  31.005  22.301  1.00  0.00     0.067 H 
ATOM     47  H   UNL A   1      29.126  31.587  20.863  1.00  0.00     0.067 H 
ENDBRANCH  43  44
ENDBRANCH  32  43
ENDBRANCH  22  29
BRANCH  25  48
ATOM     48  C   UNL A   1      34.528  29.999  27.355  1.00  0.00    -0.002 A 
ATOM     49  C   UNL A   1      35.668  29.652  28.085  1.00  0.00    -0.052 A 
ATOM     50  C   UNL A   1      33.839  31.187  27.611  1.00  0.00    -0.052 A 
ATOM     51  C   UNL A   1      36.143  30.513  29.073  1.00  0.00    -0.043 A 
ATOM     52  H   UNL A   1      36.157  28.763  27.894  1.00  0.00     0.063 H 
ATOM     53  C   UNL A   1      34.297  32.038  28.617  1.00  0.00    -0.043 A 
ATOM     54  H   UNL A   1      33.002  31.432  27.061  1.00  0.00     0.063 H 
ATOM     55  C   UNL A   1      35.445  31.696  29.343  1.00  0.00     0.067 A 
ATOM     56  H   UNL A   1      37.000  30.282  29.599  1.00  0.00     0.064 H 
ATOM     57  H   UNL A   1      33.794  32.915  28.825  1.00  0.00     0.064 H 
BRANCH  55  58
ATOM     58  S   UNL A   1      36.047  32.780  30.616  1.00  0.00     0.175 S 
ATOM     59  O   UNL A   1      37.378  32.317  30.960  1.00  0.00    -0.224 OA
ATOM     60  O   UNL A   1      35.820  34.144  30.176  1.00  0.00    -0.224 OA
BRANCH  58  61
ATOM     61  C   UNL A   1      34.971  32.475  31.994  1.00  0.00     0.043 C 
ATOM     62  H   UNL A   1      35.542  32.097  32.816  1.00  0.00     0.040 H 
ATOM     63  H   UNL A   1      34.229  31.756  31.714  1.00  0.00     0.040 H 
ATOM     64  H   UNL A   1      34.492  33.387  32.282  1.00  0.00     0.040 H 
ENDBRANCH  58  61
ENDBRANCH  55  58
ENDBRANCH  25  48
ENDBRANCH  12  21
ENDBRANCH   8  11
ENDBRANCH   4   7
ENDBRANCH   1   4
BRANCH   1  65
ATOM     65  C   UNL A   1      37.681  22.516  25.758  1.00  0.00    -0.052 C 
ATOM     66  H   UNL A   1      38.013  22.423  24.744  1.00  0.00     0.027 H 
ATOM     67  H   UNL A   1      38.338  22.044  26.459  1.00  0.00     0.027 H 
BRANCH  65  68
ATOM     68  C   UNL A   1      37.659  24.007  26.118  1.00  0.00    -0.052 C 
ATOM     69  H   UNL A   1      36.701  24.233  26.535  1.00  0.00     0.027 H 
ATOM     70  H   UNL A   1      37.864  24.537  25.212  1.00  0.00     0.027 H 
BRANCH  68  71
ATOM     71  C   UNL A   1      38.729  24.443  27.122  1.00  0.00    -0.036 C 
ATOM     72  H   UNL A   1      38.856  23.660  27.839  1.00  0.00     0.028 H 
ATOM     73  H   UNL A   1      38.385  25.357  27.559  1.00  0.00     0.028 H 
BRANCH  71  74
ATOM     74  C   UNL A   1      40.089  24.744  26.497  1.00  0.00     0.018 C 
ATOM     75  H   UNL A   1      40.599  25.462  27.106  1.00  0.00     0.049 H 
ATOM     76  H   UNL A   1      39.926  25.125  25.511  1.00  0.00     0.049 H 
BRANCH  74  77
ATOM     77  N   UNL A   1      40.910  23.548  26.393  1.00  0.00    -0.352 N 
ATOM     78  C   UNL A   1      42.256  23.439  26.153  1.00  0.00     0.251 C 
ATOM     79  H   UNL A   1      40.431  22.697  26.510  1.00  0.00     0.163 HD
ATOM     80  O   UNL A   1      42.750  22.352  25.873  1.00  0.00    -0.269 OA
BRANCH  78  81
ATOM     81  C   UNL A   1      43.114  24.640  26.220  1.00  0.00     0.039 A 
ATOM     82  C   UNL A   1      43.673  25.004  27.448  1.00  0.00    -0.049 A 
ATOM     83  C   UNL A   1      43.347  25.417  25.081  1.00  0.00    -0.049 A 
ATOM     84  C   UNL A   1      44.508  26.121  27.523  1.00  0.00    -0.053 A 
ATOM     85  H   UNL A   1      43.468  24.452  28.294  1.00  0.00     0.063 H 
ATOM     86  C   UNL A   1      44.231  26.491  25.144  1.00  0.00    -0.053 A 
ATOM     87  H   UNL A   1      42.865  25.195  24.196  1.00  0.00     0.063 H 
ATOM     88  C   UNL A   1      44.816  26.855  26.366  1.00  0.00    -0.014 A 
ATOM     89  H   UNL A   1      44.903  26.406  28.433  1.00  0.00     0.063 H 
ATOM     90  H   UNL A   1      44.457  27.020  24.288  1.00  0.00     0.063 H 
BRANCH  88  91
ATOM     91  C   UNL A   1      45.742  28.014  26.416  1.00  0.00     0.031 A 
ATOM     92  C   UNL A   1      47.219  27.807  26.231  1.00  0.00     0.074 A 
ATOM     93  C   UNL A   1      45.258  29.240  26.693  1.00  0.00     0.049 A 
ATOM     94  N   UNL A   1      48.193  28.678  26.316  1.00  0.00    -0.248 NA
ATOM     95  C   UNL A   1      47.662  26.436  25.935  1.00  0.00    -0.034 C 
ATOM     96  C   UNL A   1      43.850  29.557  26.938  1.00  0.00    -0.036 A 
ATOM     97  N   UNL A   1      45.898  30.446  26.830  1.00  0.00    -0.354 N 
ATOM     98  C   UNL A   1      49.362  27.958  26.103  1.00  0.00     0.074 A 
ATOM     99  C   UNL A   1      48.981  26.573  25.931  1.00  0.00    -0.034 C 
ATOM    100  H   UNL A   1      47.096  25.589  25.773  1.00  0.00     0.065 H 
ATOM    101  C   UNL A   1      43.732  30.873  27.178  1.00  0.00    -0.036 A 
ATOM    102  H   UNL A   1      43.073  28.879  26.927  1.00  0.00     0.065 H 
ATOM    103  C   UNL A   1      45.057  31.485  27.140  1.00  0.00     0.049 A 
ATOM    104  H   UNL A   1      46.870  30.555  26.716  1.00  0.00     0.167 HD
ATOM    105  C   UNL A   1      50.635  28.415  26.036  1.00  0.00     0.037 A 
ATOM    106  H   UNL A   1      49.648  25.793  25.819  1.00  0.00     0.065 H 
ATOM    107  H   UNL A   1      42.846  31.371  27.361  1.00  0.00     0.065 H 
ATOM    108  C   UNL A   1      45.325  32.783  27.376  1.00  0.00     0.037 A 
ATOM    109  C   UNL A   1      51.005  29.799  26.176  1.00  0.00     0.049 A 
ATOM    110  C   UNL A   1      46.748  33.266  27.289  1.00  0.00     0.074 A 
ATOM    111  C   UNL A   1      52.260  30.372  26.062  1.00  0.00    -0.036 A 
ATOM    112  N   UNL A   1      50.121  30.828  26.462  1.00  0.00    -0.354 N 
ATOM    113  N   UNL A   1      47.837  32.587  27.021  1.00  0.00    -0.248 NA
ATOM    114  C   UNL A   1      46.978  34.697  27.530  1.00  0.00    -0.034 C 
ATOM    115  C   UNL A   1      52.141  31.742  26.319  1.00  0.00    -0.036 A 
ATOM    116  H   UNL A   1      53.133  29.874  25.828  1.00  0.00     0.065 H 
ATOM    117  C   UNL A   1      50.805  32.029  26.547  1.00  0.00     0.049 A 
ATOM    118  H   UNL A   1      49.150  30.721  26.587  1.00  0.00     0.167 HD
ATOM    119  C   UNL A   1      48.875  33.509  27.031  1.00  0.00     0.074 A 
ATOM    120  C   UNL A   1      48.282  34.799  27.319  1.00  0.00    -0.034 C 
ATOM    121  H   UNL A   1      46.301  35.430  27.794  1.00  0.00     0.065 H 
ATOM    122  H   UNL A   1      52.917  32.422  26.338  1.00  0.00     0.065 H 
ATOM    123  C   UNL A   1      50.198  33.307  26.822  1.00  0.00     0.037 A 
ATOM    124  H   UNL A   1      48.809  35.686  27.354  1.00  0.00     0.065 H 
BRANCH 105 125
ATOM    125  C   UNL A   1      51.724  27.413  25.793  1.00  0.00     0.064 A 
ATOM    126  C   UNL A   1      52.417  26.809  26.853  1.00  0.00     0.173 A 
ATOM    127  C   UNL A   1      52.048  27.015  24.487  1.00  0.00     0.173 A 
ATOM    128  F   UNL A   1      52.154  27.163  28.120  1.00  0.00    -0.203 F 
ATOM    129  C   UNL A   1      53.409  25.861  26.614  1.00  0.00     0.198 A 
ATOM    130  C   UNL A   1      53.020  26.046  24.252  1.00  0.00     0.198 A 
ATOM    131  F   UNL A   1      51.413  27.557  23.437  1.00  0.00    -0.203 F 
ATOM    132  F   UNL A   1      54.087  25.329  27.640  1.00  0.00    -0.200 F 
ATOM    133  C   UNL A   1      53.704  25.475  25.315  1.00  0.00     0.200 A 
ATOM    134  F   UNL A   1      53.295  25.664  22.998  1.00  0.00    -0.200 F 
ATOM    135  F   UNL A   1      54.651  24.555  25.087  1.00  0.00    -0.200 F 
ENDBRANCH 105 125
BRANCH 108 136
ATOM    136  C   UNL A   1      44.222  33.725  27.697  1.00  0.00     0.064 A 
ATOM    137  C   UNL A   1      43.695  34.577  26.716  1.00  0.00     0.173 A 
ATOM    138  C   UNL A   1      43.679  33.801  28.988  1.00  0.00     0.173 A 
ATOM    139  F   UNL A   1      44.195  34.554  25.472  1.00  0.00    -0.203 F 
ATOM    140  C   UNL A   1      42.684  35.486  27.020  1.00  0.00     0.198 A 
ATOM    141  C   UNL A   1      42.649  34.692  29.284  1.00  0.00     0.198 A 
ATOM    142  F   UNL A   1      44.144  33.005  29.961  1.00  0.00    -0.203 F 
ATOM    143  F   UNL A   1      42.233  36.323  26.075  1.00  0.00    -0.200 F 
ATOM    144  C   UNL A   1      42.159  35.540  28.302  1.00  0.00     0.200 A 
ATOM    145  F   UNL A   1      42.135  34.730  30.521  1.00  0.00    -0.200 F 
ATOM    146  F   UNL A   1      41.187  36.414  28.595  1.00  0.00    -0.200 F 
ENDBRANCH 108 136
BRANCH 123 147
ATOM    147  C   UNL A   1      51.092  34.511  26.857  1.00  0.00     0.064 A 
ATOM    148  C   UNL A   1      51.307  35.301  25.719  1.00  0.00     0.173 A 
ATOM    149  C   UNL A   1      51.708  34.901  28.056  1.00  0.00     0.173 A 
ATOM    150  F   UNL A   1      50.753  34.960  24.545  1.00  0.00    -0.203 F 
ATOM    151  C   UNL A   1      52.127  36.425  25.774  1.00  0.00     0.198 A 
ATOM    152  C   UNL A   1      52.503  36.042  28.114  1.00  0.00     0.198 A 
ATOM    153  F   UNL A   1      51.528  34.182  29.173  1.00  0.00    -0.203 F 
ATOM    154  F   UNL A   1      52.356  37.140  24.664  1.00  0.00    -0.200 F 
ATOM    155  C   UNL A   1      52.717  36.799  26.972  1.00  0.00     0.200 A 
ATOM    156  F   UNL A   1      53.062  36.409  29.275  1.00  0.00    -0.200 F 
ATOM    157  F   UNL A   1      53.499  37.886  27.025  1.00  0.00    -0.200 F 
ENDBRANCH 123 147
ENDBRANCH  88  91
ENDBRANCH  78  81
ENDBRANCH  74  77
ENDBRANCH  71  74
ENDBRANCH  68  71
ENDBRANCH  65  68
ENDBRANCH   1  65
TORSDOF 22
ENDMDL
MODEL 8
REMARK VINA RESULT:      -9.2      4.839      9.163
REMARK SMILES COc1ccc([C@H]2CC(c3ccc(S(C)(=O)=O)cc3)=NN2c2ccc(C(=O)NCCCCCCNC(=O)c3ccc(-c4c5nc(c(-c6c(F)c(F)c(F)c(F)c6F)c6ccc([nH]6)c(-c6c(F)c(F)c(F)c(F)c6F)c6nc(c(-c7c(F)c(F)c(F)c(F)c7F)c7ccc4[nH]7)C=C6)C=C5)cc3)cc2)cc1OC
REMARK SMILES IDX 30 1 29 4 28 7 26 8 27 9 25 11 22 12 23 13 102 14 24 15
REMARK SMILES IDX 101 17 21 21 7 22 8 23 9 25 20 28 6 29 3 30 4 31 104 32 5 33
REMARK SMILES IDX 103 35 2 38 1 39 105 43 106 44 10 48 11 49 19 50 12 51 18 53
REMARK SMILES IDX 13 55 14 58 16 59 17 60 15 61 31 65 32 68 33 71 34 74 35 77
REMARK SMILES IDX 36 78 37 80 38 81 39 82 100 83 40 84 99 86 41 88 42 91 43 92
REMARK SMILES IDX 93 93 44 94 98 95 92 96 94 97 45 98 97 99 91 101 90 103
REMARK SMILES IDX 46 105 78 108 58 109 77 110 59 111 62 112 76 113 95 114
REMARK SMILES IDX 60 115 61 117 75 119 96 120 63 123 47 125 48 126 56 127
REMARK SMILES IDX 49 128 50 129 54 130 57 131 51 132 52 133 55 134 53 135
REMARK SMILES IDX 79 136 80 137 88 138 81 139 82 140 86 141 89 142 83 143
REMARK SMILES IDX 84 144 87 145 85 146 64 147 65 148 73 149 66 150 67 151
REMARK SMILES IDX 71 152 74 153 68 154 69 155 72 156 70 157
REMARK H PARENT 30 2 30 3 29 5 29 6 28 10 23 16 102 18 24 19 101 20 7 24 8 26
REMARK H PARENT 8 27 4 34 5 36 103 37 1 40 1 41 1 42 106 45 106 46 106 47
REMARK H PARENT 11 52 19 54 12 56 18 57 15 62 15 63 15 64 31 66 31 67 32 69
REMARK H PARENT 32 70 33 72 33 73 34 75 34 76 35 79 39 85 100 87 40 89 99 90
REMARK H PARENT 98 100 92 102 94 104 97 106 91 107 59 116 62 118 95 121 60 122
REMARK H PARENT 96 124
REMARK Flexibility Score: inf
ROOT
ATOM      1  C   UNL A   1      40.501  26.416  26.806  1.00  0.00    -0.036 C 
ATOM      2  H   UNL A   1      41.153  26.499  27.650  1.00  0.00     0.028 H 
ATOM      3  H   UNL A   1      40.139  27.371  26.487  1.00  0.00     0.028 H 
ENDROOT
BRANCH   1   4
ATOM      4  C   UNL A   1      39.286  25.577  27.208  1.00  0.00     0.018 C 
ATOM      5  H   UNL A   1      39.098  25.702  28.254  1.00  0.00     0.049 H 
ATOM      6  H   UNL A   1      38.433  25.897  26.649  1.00  0.00     0.049 H 
BRANCH   4   7
ATOM      7  N   UNL A   1      39.545  24.179  26.930  1.00  0.00    -0.352 N 
ATOM      8  C   UNL A   1      38.788  23.197  26.346  1.00  0.00     0.251 C 
ATOM      9  O   UNL A   1      39.277  22.070  26.275  1.00  0.00    -0.269 OA
ATOM     10  H   UNL A   1      40.437  23.876  27.214  1.00  0.00     0.163 HD
BRANCH   8  11
ATOM     11  C   UNL A   1      37.452  23.451  25.742  1.00  0.00     0.039 A 
ATOM     12  C   UNL A   1      35.032  24.009  24.394  1.00  0.00     0.060 A 
ATOM     13  C   UNL A   1      36.138  23.510  23.701  1.00  0.00    -0.036 A 
ATOM     14  C   UNL A   1      35.129  24.160  25.778  1.00  0.00    -0.036 A 
ATOM     15  C   UNL A   1      37.341  23.251  24.361  1.00  0.00    -0.047 A 
ATOM     16  H   UNL A   1      36.065  23.331  22.687  1.00  0.00     0.065 H 
ATOM     17  C   UNL A   1      36.315  23.843  26.454  1.00  0.00    -0.047 A 
ATOM     18  H   UNL A   1      34.317  24.509  26.311  1.00  0.00     0.065 H 
ATOM     19  H   UNL A   1      38.154  22.910  23.826  1.00  0.00     0.063 H 
ATOM     20  H   UNL A   1      36.349  23.900  27.483  1.00  0.00     0.063 H 
BRANCH  12  21
ATOM     21  N   UNL A   1      33.868  24.310  23.711  1.00  0.00    -0.257 N 
ATOM     22  C   UNL A   1      33.365  23.573  22.555  1.00  0.00     0.083 C 
ATOM     23  C   UNL A   1      32.185  24.441  22.095  1.00  0.00     0.019 C 
ATOM     24  H   UNL A   1      34.099  23.424  21.792  1.00  0.00     0.061 H 
ATOM     25  C   UNL A   1      32.282  25.565  23.089  1.00  0.00     0.071 C 
ATOM     26  H   UNL A   1      31.253  23.921  22.175  1.00  0.00     0.036 H 
ATOM     27  H   UNL A   1      32.222  24.744  21.069  1.00  0.00     0.036 H 
ATOM     28  N   UNL A   1      33.235  25.480  23.962  1.00  0.00    -0.176 NA
BRANCH  22  29
ATOM     29  C   UNL A   1      32.934  22.162  22.924  1.00  0.00    -0.019 A 
ATOM     30  C   UNL A   1      32.157  19.544  23.631  1.00  0.00     0.160 A 
ATOM     31  C   UNL A   1      31.820  20.076  22.377  1.00  0.00    -0.016 A 
ATOM     32  C   UNL A   1      32.903  20.304  24.535  1.00  0.00     0.161 A 
ATOM     33  C   UNL A   1      32.198  21.377  22.029  1.00  0.00    -0.053 A 
ATOM     34  H   UNL A   1      31.288  19.501  21.705  1.00  0.00     0.066 H 
ATOM     35  C   UNL A   1      33.277  21.605  24.170  1.00  0.00    -0.011 A 
ATOM     36  H   UNL A   1      31.934  21.759  21.108  1.00  0.00     0.063 H 
ATOM     37  H   UNL A   1      33.823  22.172  24.837  1.00  0.00     0.067 H 
BRANCH  30  38
ATOM     38  O   UNL A   1      31.826  18.241  23.888  1.00  0.00    -0.493 OA
BRANCH  38  39
ATOM     39  C   UNL A   1      32.901  17.350  23.585  1.00  0.00     0.078 C 
ATOM     40  H   UNL A   1      32.866  17.087  22.549  1.00  0.00     0.067 H 
ATOM     41  H   UNL A   1      32.809  16.466  24.181  1.00  0.00     0.067 H 
ATOM     42  H   UNL A   1      33.833  17.830  23.801  1.00  0.00     0.067 H 
ENDBRANCH  38  39
ENDBRANCH  30  38
BRANCH  32  43
ATOM     43  O   UNL A   1      33.360  19.958  25.777  1.00  0.00    -0.493 OA
BRANCH  43  44
ATOM     44  C   UNL A   1      33.450  20.961  26.774  1.00  0.00     0.078 C 
ATOM     45  H   UNL A   1      34.431  21.387  26.766  1.00  0.00     0.067 H 
ATOM     46  H   UNL A   1      33.258  20.529  27.735  1.00  0.00     0.067 H 
ATOM     47  H   UNL A   1      32.726  21.725  26.578  1.00  0.00     0.067 H 
ENDBRANCH  43  44
ENDBRANCH  32  43
ENDBRANCH  22  29
BRANCH  25  48
ATOM     48  C   UNL A   1      31.373  26.712  23.032  1.00  0.00    -0.002 A 
ATOM     49  C   UNL A   1      30.069  26.554  23.508  1.00  0.00    -0.052 A 
ATOM     50  C   UNL A   1      31.798  27.919  22.472  1.00  0.00    -0.052 A 
ATOM     51  C   UNL A   1      29.178  27.624  23.445  1.00  0.00    -0.043 A 
ATOM     52  H   UNL A   1      29.767  25.651  23.906  1.00  0.00     0.063 H 
ATOM     53  C   UNL A   1      30.899  28.983  22.383  1.00  0.00    -0.043 A 
ATOM     54  H   UNL A   1      32.765  28.022  22.129  1.00  0.00     0.063 H 
ATOM     55  C   UNL A   1      29.595  28.829  22.868  1.00  0.00     0.067 A 
ATOM     56  H   UNL A   1      28.220  27.529  23.819  1.00  0.00     0.064 H 
ATOM     57  H   UNL A   1      31.194  29.879  21.963  1.00  0.00     0.064 H 
BRANCH  55  58
ATOM     58  S   UNL A   1      28.446  30.182  22.775  1.00  0.00     0.175 S 
ATOM     59  O   UNL A   1      28.521  30.699  21.422  1.00  0.00    -0.224 OA
ATOM     60  O   UNL A   1      27.186  29.728  23.334  1.00  0.00    -0.224 OA
BRANCH  58  61
ATOM     61  C   UNL A   1      29.115  31.398  23.881  1.00  0.00     0.043 C 
ATOM     62  H   UNL A   1      29.430  30.922  24.786  1.00  0.00     0.040 H 
ATOM     63  H   UNL A   1      28.365  32.128  24.104  1.00  0.00     0.040 H 
ATOM     64  H   UNL A   1      29.953  31.878  23.419  1.00  0.00     0.040 H 
ENDBRANCH  58  61
ENDBRANCH  55  58
ENDBRANCH  25  48
ENDBRANCH  12  21
ENDBRANCH   8  11
ENDBRANCH   4   7
ENDBRANCH   1   4
BRANCH   1  65
ATOM     65  C   UNL A   1      41.290  25.808  25.638  1.00  0.00    -0.052 C 
ATOM     66  H   UNL A   1      41.623  26.607  25.008  1.00  0.00     0.027 H 
ATOM     67  H   UNL A   1      40.624  25.133  25.143  1.00  0.00     0.027 H 
BRANCH  65  68
ATOM     68  C   UNL A   1      42.515  24.984  26.054  1.00  0.00    -0.052 C 
ATOM     69  H   UNL A   1      42.188  23.989  26.269  1.00  0.00     0.027 H 
ATOM     70  H   UNL A   1      42.940  25.484  26.899  1.00  0.00     0.027 H 
BRANCH  68  71
ATOM     71  C   UNL A   1      43.624  24.903  25.001  1.00  0.00    -0.036 C 
ATOM     72  H   UNL A   1      43.506  25.723  24.325  1.00  0.00     0.028 H 
ATOM     73  H   UNL A   1      43.523  23.951  24.522  1.00  0.00     0.028 H 
BRANCH  71  74
ATOM     74  C   UNL A   1      45.037  24.955  25.574  1.00  0.00     0.018 C 
ATOM     75  H   UNL A   1      45.520  24.017  25.392  1.00  0.00     0.049 H 
ATOM     76  H   UNL A   1      44.965  25.150  26.624  1.00  0.00     0.049 H 
BRANCH  74  77
ATOM     77  N   UNL A   1      45.825  26.016  24.968  1.00  0.00    -0.352 N 
ATOM     78  C   UNL A   1      45.838  27.358  25.253  1.00  0.00     0.251 C 
ATOM     79  H   UNL A   1      46.434  25.731  24.250  1.00  0.00     0.163 HD
ATOM     80  O   UNL A   1      46.394  28.147  24.498  1.00  0.00    -0.269 OA
BRANCH  78  81
ATOM     81  C   UNL A   1      45.167  27.855  26.472  1.00  0.00     0.039 A 
ATOM     82  C   UNL A   1      44.819  29.206  26.549  1.00  0.00    -0.049 A 
ATOM     83  C   UNL A   1      44.905  26.997  27.545  1.00  0.00    -0.049 A 
ATOM     84  C   UNL A   1      44.160  29.687  27.682  1.00  0.00    -0.053 A 
ATOM     85  H   UNL A   1      45.048  29.845  25.772  1.00  0.00     0.063 H 
ATOM     86  C   UNL A   1      44.191  27.463  28.645  1.00  0.00    -0.053 A 
ATOM     87  H   UNL A   1      45.239  26.021  27.520  1.00  0.00     0.063 H 
ATOM     88  C   UNL A   1      43.816  28.813  28.727  1.00  0.00    -0.014 A 
ATOM     89  H   UNL A   1      43.923  30.689  27.752  1.00  0.00     0.063 H 
ATOM     90  H   UNL A   1      43.936  26.812  29.404  1.00  0.00     0.063 H 
BRANCH  88  91
ATOM     91  C   UNL A   1      43.070  29.293  29.917  1.00  0.00     0.031 A 
ATOM     92  C   UNL A   1      41.630  29.703  29.789  1.00  0.00     0.074 A 
ATOM     93  C   UNL A   1      43.711  29.423  31.094  1.00  0.00     0.049 A 
ATOM     94  N   UNL A   1      40.834  30.220  30.691  1.00  0.00    -0.248 NA
ATOM     95  C   UNL A   1      41.009  29.533  28.467  1.00  0.00    -0.034 C 
ATOM     96  C   UNL A   1      45.120  29.102  31.330  1.00  0.00    -0.036 A 
ATOM     97  N   UNL A   1      43.265  29.871  32.312  1.00  0.00    -0.354 N 
ATOM     98  C   UNL A   1      39.628  30.452  30.042  1.00  0.00     0.074 A 
ATOM     99  C   UNL A   1      39.810  30.064  28.660  1.00  0.00    -0.034 C 
ATOM    100  H   UNL A   1      41.403  29.111  27.611  1.00  0.00     0.065 H 
ATOM    101  C   UNL A   1      45.417  29.348  32.616  1.00  0.00    -0.036 A 
ATOM    102  H   UNL A   1      45.778  28.742  30.622  1.00  0.00     0.065 H 
ATOM    103  C   UNL A   1      44.233  29.877  33.285  1.00  0.00     0.049 A 
ATOM    104  H   UNL A   1      42.338  30.162  32.471  1.00  0.00     0.167 HD
ATOM    105  C   UNL A   1      38.469  30.925  30.558  1.00  0.00     0.037 A 
ATOM    106  H   UNL A   1      39.099  30.184  27.921  1.00  0.00     0.065 H 
ATOM    107  H   UNL A   1      46.336  29.189  33.059  1.00  0.00     0.065 H 
ATOM    108  C   UNL A   1      44.174  30.274  34.570  1.00  0.00     0.037 A 
ATOM    109  C   UNL A   1      38.284  31.279  31.941  1.00  0.00     0.049 A 
ATOM    110  C   UNL A   1      42.871  30.790  35.120  1.00  0.00     0.074 A 
ATOM    111  C   UNL A   1      37.132  31.708  32.575  1.00  0.00    -0.036 A 
ATOM    112  N   UNL A   1      39.281  31.244  32.904  1.00  0.00    -0.354 N 
ATOM    113  N   UNL A   1      41.719  30.942  34.512  1.00  0.00    -0.248 NA
ATOM    114  C   UNL A   1      42.858  31.182  36.536  1.00  0.00    -0.034 C 
ATOM    115  C   UNL A   1      37.440  31.973  33.913  1.00  0.00    -0.036 A 
ATOM    116  H   UNL A   1      36.204  31.815  32.136  1.00  0.00     0.065 H 
ATOM    117  C   UNL A   1      38.774  31.663  34.123  1.00  0.00     0.049 A 
ATOM    118  H   UNL A   1      40.212  30.965  32.745  1.00  0.00     0.167 HD
ATOM    119  C   UNL A   1      40.839  31.418  35.475  1.00  0.00     0.074 A 
ATOM    120  C   UNL A   1      41.587  31.517  36.711  1.00  0.00    -0.034 C 
ATOM    121  H   UNL A   1      43.634  31.195  37.215  1.00  0.00     0.065 H 
ATOM    122  H   UNL A   1      36.786  32.338  34.623  1.00  0.00     0.065 H 
ATOM    123  C   UNL A   1      39.530  31.744  35.347  1.00  0.00     0.037 A 
ATOM    124  H   UNL A   1      41.182  31.809  37.614  1.00  0.00     0.065 H 
BRANCH 105 125
ATOM    125  C   UNL A   1      37.303  31.081  29.626  1.00  0.00     0.064 A 
ATOM    126  C   UNL A   1      36.488  29.993  29.280  1.00  0.00     0.173 A 
ATOM    127  C   UNL A   1      36.968  32.342  29.111  1.00  0.00     0.173 A 
ATOM    128  F   UNL A   1      36.773  28.764  29.736  1.00  0.00    -0.203 F 
ATOM    129  C   UNL A   1      35.394  30.157  28.434  1.00  0.00     0.198 A 
ATOM    130  C   UNL A   1      35.856  32.509  28.289  1.00  0.00     0.198 A 
ATOM    131  F   UNL A   1      37.710  33.417  29.415  1.00  0.00    -0.203 F 
ATOM    132  F   UNL A   1      34.656  29.096  28.083  1.00  0.00    -0.200 F 
ATOM    133  C   UNL A   1      35.075  31.415  27.946  1.00  0.00     0.200 A 
ATOM    134  F   UNL A   1      35.540  33.727  27.829  1.00  0.00    -0.200 F 
ATOM    135  F   UNL A   1      34.016  31.574  27.141  1.00  0.00    -0.200 F 
ENDBRANCH 105 125
BRANCH 108 136
ATOM    136  C   UNL A   1      45.378  30.179  35.436  1.00  0.00     0.064 A 
ATOM    137  C   UNL A   1      46.290  31.241  35.517  1.00  0.00     0.173 A 
ATOM    138  C   UNL A   1      45.647  29.028  36.189  1.00  0.00     0.173 A 
ATOM    139  F   UNL A   1      46.085  32.355  34.800  1.00  0.00    -0.203 F 
ATOM    140  C   UNL A   1      47.439  31.144  36.300  1.00  0.00     0.198 A 
ATOM    141  C   UNL A   1      46.782  28.943  36.993  1.00  0.00     0.198 A 
ATOM    142  F   UNL A   1      44.803  27.986  36.150  1.00  0.00    -0.203 F 
ATOM    143  F   UNL A   1      48.319  32.154  36.321  1.00  0.00    -0.200 F 
ATOM    144  C   UNL A   1      47.681  29.998  37.041  1.00  0.00     0.200 A 
ATOM    145  F   UNL A   1      47.005  27.838  37.719  1.00  0.00    -0.200 F 
ATOM    146  F   UNL A   1      48.785  29.904  37.794  1.00  0.00    -0.200 F 
ENDBRANCH 108 136
BRANCH 123 147
ATOM    147  C   UNL A   1      38.812  32.202  36.582  1.00  0.00     0.064 A 
ATOM    148  C   UNL A   1      37.987  31.337  37.316  1.00  0.00     0.173 A 
ATOM    149  C   UNL A   1      38.984  33.510  37.058  1.00  0.00     0.173 A 
ATOM    150  F   UNL A   1      37.778  30.081  36.893  1.00  0.00    -0.203 F 
ATOM    151  C   UNL A   1      37.341  31.774  38.470  1.00  0.00     0.198 A 
ATOM    152  C   UNL A   1      38.360  33.934  38.228  1.00  0.00     0.198 A 
ATOM    153  F   UNL A   1      39.768  34.373  36.395  1.00  0.00    -0.203 F 
ATOM    154  F   UNL A   1      36.521  30.945  39.131  1.00  0.00    -0.200 F 
ATOM    155  C   UNL A   1      37.534  33.068  38.929  1.00  0.00     0.200 A 
ATOM    156  F   UNL A   1      38.557  35.181  38.677  1.00  0.00    -0.200 F 
ATOM    157  F   UNL A   1      36.918  33.484  40.043  1.00  0.00    -0.200 F 
ENDBRANCH 123 147
ENDBRANCH  88  91
ENDBRANCH  78  81
ENDBRANCH  74  77
ENDBRANCH  71  74
ENDBRANCH  68  71
ENDBRANCH  65  68
ENDBRANCH   1  65
TORSDOF 22
ENDMDL
MODEL 9
REMARK VINA RESULT:      -9.1      5.011     10.713
REMARK SMILES COc1ccc([C@H]2CC(c3ccc(S(C)(=O)=O)cc3)=NN2c2ccc(C(=O)NCCCCCCNC(=O)c3ccc(-c4c5nc(c(-c6c(F)c(F)c(F)c(F)c6F)c6ccc([nH]6)c(-c6c(F)c(F)c(F)c(F)c6F)c6nc(c(-c7c(F)c(F)c(F)c(F)c7F)c7ccc4[nH]7)C=C6)C=C5)cc3)cc2)cc1OC
REMARK SMILES IDX 30 1 29 4 28 7 26 8 27 9 25 11 22 12 23 13 102 14 24 15
REMARK SMILES IDX 101 17 21 21 7 22 8 23 9 25 20 28 6 29 3 30 4 31 104 32 5 33
REMARK SMILES IDX 103 35 2 38 1 39 105 43 106 44 10 48 11 49 19 50 12 51 18 53
REMARK SMILES IDX 13 55 14 58 16 59 17 60 15 61 31 65 32 68 33 71 34 74 35 77
REMARK SMILES IDX 36 78 37 80 38 81 39 82 100 83 40 84 99 86 41 88 42 91 43 92
REMARK SMILES IDX 93 93 44 94 98 95 92 96 94 97 45 98 97 99 91 101 90 103
REMARK SMILES IDX 46 105 78 108 58 109 77 110 59 111 62 112 76 113 95 114
REMARK SMILES IDX 60 115 61 117 75 119 96 120 63 123 47 125 48 126 56 127
REMARK SMILES IDX 49 128 50 129 54 130 57 131 51 132 52 133 55 134 53 135
REMARK SMILES IDX 79 136 80 137 88 138 81 139 82 140 86 141 89 142 83 143
REMARK SMILES IDX 84 144 87 145 85 146 64 147 65 148 73 149 66 150 67 151
REMARK SMILES IDX 71 152 74 153 68 154 69 155 72 156 70 157
REMARK H PARENT 30 2 30 3 29 5 29 6 28 10 23 16 102 18 24 19 101 20 7 24 8 26
REMARK H PARENT 8 27 4 34 5 36 103 37 1 40 1 41 1 42 106 45 106 46 106 47
REMARK H PARENT 11 52 19 54 12 56 18 57 15 62 15 63 15 64 31 66 31 67 32 69
REMARK H PARENT 32 70 33 72 33 73 34 75 34 76 35 79 39 85 100 87 40 89 99 90
REMARK H PARENT 98 100 92 102 94 104 97 106 91 107 59 116 62 118 95 121 60 122
REMARK H PARENT 96 124
REMARK Flexibility Score: inf
ROOT
ATOM      1  C   UNL A   1      51.601  23.466  33.566  1.00  0.00    -0.036 C 
ATOM      2  H   UNL A   1      51.896  24.071  34.398  1.00  0.00     0.028 H 
ATOM      3  H   UNL A   1      52.031  22.487  33.613  1.00  0.00     0.028 H 
ENDROOT
BRANCH   1   4
ATOM      4  C   UNL A   1      52.106  24.126  32.280  1.00  0.00     0.018 C 
ATOM      5  H   UNL A   1      53.102  23.794  32.077  1.00  0.00     0.049 H 
ATOM      6  H   UNL A   1      51.465  23.856  31.468  1.00  0.00     0.049 H 
BRANCH   4   7
ATOM      7  N   UNL A   1      52.101  25.566  32.437  1.00  0.00    -0.352 N 
ATOM      8  C   UNL A   1      51.335  26.554  31.877  1.00  0.00     0.251 C 
ATOM      9  O   UNL A   1      51.592  27.717  32.186  1.00  0.00    -0.269 OA
ATOM     10  H   UNL A   1      52.779  25.899  33.068  1.00  0.00     0.163 HD
BRANCH   8  11
ATOM     11  C   UNL A   1      50.179  26.278  30.980  1.00  0.00     0.039 A 
ATOM     12  C   UNL A   1      48.139  25.774  29.091  1.00  0.00     0.060 A 
ATOM     13  C   UNL A   1      49.436  25.291  28.890  1.00  0.00    -0.036 A 
ATOM     14  C   UNL A   1      47.860  26.451  30.279  1.00  0.00    -0.036 A 
ATOM     15  C   UNL A   1      50.450  25.555  29.813  1.00  0.00    -0.047 A 
ATOM     16  H   UNL A   1      49.646  24.733  28.048  1.00  0.00     0.065 H 
ATOM     17  C   UNL A   1      48.860  26.665  31.236  1.00  0.00    -0.047 A 
ATOM     18  H   UNL A   1      46.904  26.800  30.455  1.00  0.00     0.065 H 
ATOM     19  H   UNL A   1      51.406  25.214  29.633  1.00  0.00     0.063 H 
ATOM     20  H   UNL A   1      48.622  27.112  32.135  1.00  0.00     0.063 H 
BRANCH  12  21
ATOM     21  N   UNL A   1      47.164  25.549  28.138  1.00  0.00    -0.257 N 
ATOM     22  C   UNL A   1      46.747  26.517  27.125  1.00  0.00     0.083 C 
ATOM     23  C   UNL A   1      45.533  25.827  26.487  1.00  0.00     0.019 C 
ATOM     24  H   UNL A   1      46.520  27.482  27.527  1.00  0.00     0.061 H 
ATOM     25  C   UNL A   1      45.469  24.579  27.323  1.00  0.00     0.071 C 
ATOM     26  H   UNL A   1      45.699  25.605  25.454  1.00  0.00     0.036 H 
ATOM     27  H   UNL A   1      44.635  26.411  26.482  1.00  0.00     0.036 H 
ATOM     28  N   UNL A   1      46.370  24.457  28.244  1.00  0.00    -0.176 NA
BRANCH  22  29
ATOM     29  C   UNL A   1      47.850  26.794  26.116  1.00  0.00    -0.019 A 
ATOM     30  C   UNL A   1      49.900  27.335  24.255  1.00  0.00     0.160 A 
ATOM     31  C   UNL A   1      48.950  26.335  24.001  1.00  0.00    -0.016 A 
ATOM     32  C   UNL A   1      49.824  28.089  25.429  1.00  0.00     0.161 A 
ATOM     33  C   UNL A   1      47.937  26.061  24.927  1.00  0.00    -0.053 A 
ATOM     34  H   UNL A   1      48.997  25.797  23.122  1.00  0.00     0.066 H 
ATOM     35  C   UNL A   1      48.802  27.804  26.345  1.00  0.00    -0.011 A 
ATOM     36  H   UNL A   1      47.252  25.314  24.732  1.00  0.00     0.063 H 
ATOM     37  H   UNL A   1      48.746  28.354  27.216  1.00  0.00     0.067 H 
BRANCH  30  38
ATOM     38  O   UNL A   1      50.821  27.612  23.281  1.00  0.00    -0.493 OA
BRANCH  38  39
ATOM     39  C   UNL A   1      52.056  26.930  23.509  1.00  0.00     0.078 C 
ATOM     40  H   UNL A   1      51.858  25.918  23.794  1.00  0.00     0.067 H 
ATOM     41  H   UNL A   1      52.594  27.423  24.293  1.00  0.00     0.067 H 
ATOM     42  H   UNL A   1      52.640  26.942  22.613  1.00  0.00     0.067 H 
ENDBRANCH  38  39
ENDBRANCH  30  38
BRANCH  32  43
ATOM     43  O   UNL A   1      50.622  29.122  25.840  1.00  0.00    -0.493 OA
BRANCH  43  44
ATOM     44  C   UNL A   1      50.120  30.027  26.809  1.00  0.00     0.078 C 
ATOM     45  H   UNL A   1      50.479  29.749  27.777  1.00  0.00     0.067 H 
ATOM     46  H   UNL A   1      49.050  29.997  26.805  1.00  0.00     0.067 H 
ATOM     47  H   UNL A   1      50.449  31.017  26.576  1.00  0.00     0.067 H 
ENDBRANCH  43  44
ENDBRANCH  32  43
ENDBRANCH  22  29
BRANCH  25  48
ATOM     48  C   UNL A   1      44.409  23.587  27.129  1.00  0.00    -0.002 A 
ATOM     49  C   UNL A   1      43.628  23.222  28.229  1.00  0.00    -0.052 A 
ATOM     50  C   UNL A   1      44.222  22.992  25.879  1.00  0.00    -0.052 A 
ATOM     51  C   UNL A   1      42.628  22.263  28.076  1.00  0.00    -0.043 A 
ATOM     52  H   UNL A   1      43.789  23.661  29.149  1.00  0.00     0.063 H 
ATOM     53  C   UNL A   1      43.239  22.012  25.730  1.00  0.00    -0.043 A 
ATOM     54  H   UNL A   1      44.803  23.274  25.075  1.00  0.00     0.063 H 
ATOM     55  C   UNL A   1      42.450  21.652  26.829  1.00  0.00     0.067 A 
ATOM     56  H   UNL A   1      42.025  22.006  28.874  1.00  0.00     0.064 H 
ATOM     57  H   UNL A   1      43.094  21.556  24.816  1.00  0.00     0.064 H 
BRANCH  55  58
ATOM     58  S   UNL A   1      41.184  20.418  26.648  1.00  0.00     0.175 S 
ATOM     59  O   UNL A   1      41.601  19.550  25.564  1.00  0.00    -0.224 OA
ATOM     60  O   UNL A   1      40.900  19.883  27.968  1.00  0.00    -0.224 OA
BRANCH  58  61
ATOM     61  C   UNL A   1      39.757  21.331  26.122  1.00  0.00     0.043 C 
ATOM     62  H   UNL A   1      39.347  20.878  25.244  1.00  0.00     0.040 H 
ATOM     63  H   UNL A   1      40.039  22.340  25.905  1.00  0.00     0.040 H 
ATOM     64  H   UNL A   1      39.023  21.327  26.901  1.00  0.00     0.040 H 
ENDBRANCH  58  61
ENDBRANCH  55  58
ENDBRANCH  25  48
ENDBRANCH  12  21
ENDBRANCH   8  11
ENDBRANCH   4   7
ENDBRANCH   1   4
BRANCH   1  65
ATOM     65  C   UNL A   1      50.076  23.301  33.597  1.00  0.00    -0.052 C 
ATOM     66  H   UNL A   1      49.851  22.353  34.037  1.00  0.00     0.027 H 
ATOM     67  H   UNL A   1      49.743  23.383  32.583  1.00  0.00     0.027 H 
BRANCH  65  68
ATOM     68  C   UNL A   1      49.331  24.385  34.387  1.00  0.00    -0.052 C 
ATOM     69  H   UNL A   1      49.720  25.337  34.093  1.00  0.00     0.027 H 
ATOM     70  H   UNL A   1      49.490  24.163  35.422  1.00  0.00     0.027 H 
BRANCH  68  71
ATOM     71  C   UNL A   1      47.815  24.405  34.181  1.00  0.00    -0.036 C 
ATOM     72  H   UNL A   1      47.578  23.756  33.364  1.00  0.00     0.028 H 
ATOM     73  H   UNL A   1      47.544  25.424  33.995  1.00  0.00     0.028 H 
BRANCH  71  74
ATOM     74  C   UNL A   1      47.010  23.956  35.397  1.00  0.00     0.018 C 
ATOM     75  H   UNL A   1      47.279  22.947  35.637  1.00  0.00     0.049 H 
ATOM     76  H   UNL A   1      45.971  24.027  35.154  1.00  0.00     0.049 H 
BRANCH  74  77
ATOM     77  N   UNL A   1      47.266  24.799  36.554  1.00  0.00    -0.352 N 
ATOM     78  C   UNL A   1      46.815  26.068  36.818  1.00  0.00     0.251 C 
ATOM     79  H   UNL A   1      47.845  24.405  37.244  1.00  0.00     0.163 HD
ATOM     80  O   UNL A   1      47.305  26.722  37.732  1.00  0.00    -0.269 OA
BRANCH  78  81
ATOM     81  C   UNL A   1      45.741  26.653  35.989  1.00  0.00     0.039 A 
ATOM     82  C   UNL A   1      44.465  26.087  36.037  1.00  0.00    -0.049 A 
ATOM     83  C   UNL A   1      45.999  27.742  35.151  1.00  0.00    -0.049 A 
ATOM     84  C   UNL A   1      43.432  26.645  35.281  1.00  0.00    -0.053 A 
ATOM     85  H   UNL A   1      44.287  25.259  36.627  1.00  0.00     0.063 H 
ATOM     86  C   UNL A   1      44.954  28.338  34.449  1.00  0.00    -0.053 A 
ATOM     87  H   UNL A   1      46.960  28.104  35.053  1.00  0.00     0.063 H 
ATOM     88  C   UNL A   1      43.662  27.792  34.503  1.00  0.00    -0.014 A 
ATOM     89  H   UNL A   1      42.495  26.214  35.295  1.00  0.00     0.063 H 
ATOM     90  H   UNL A   1      45.132  29.184  33.886  1.00  0.00     0.063 H 
BRANCH  88  91
ATOM     91  C   UNL A   1      42.567  28.431  33.733  1.00  0.00     0.031 A 
ATOM     92  C   UNL A   1      41.594  29.345  34.423  1.00  0.00     0.074 A 
ATOM     93  C   UNL A   1      42.411  28.134  32.429  1.00  0.00     0.049 A 
ATOM     94  N   UNL A   1      40.528  29.934  33.941  1.00  0.00    -0.248 NA
ATOM     95  C   UNL A   1      41.835  29.612  35.849  1.00  0.00    -0.034 C 
ATOM     96  C   UNL A   1      43.263  27.225  31.661  1.00  0.00    -0.036 A 
ATOM     97  N   UNL A   1      41.472  28.555  31.520  1.00  0.00    -0.354 N 
ATOM     98  C   UNL A   1      39.965  30.625  35.007  1.00  0.00     0.074 A 
ATOM     99  C   UNL A   1      40.778  30.345  36.170  1.00  0.00    -0.034 C 
ATOM    100  H   UNL A   1      42.621  29.308  36.445  1.00  0.00     0.065 H 
ATOM    101  C   UNL A   1      42.818  27.170  30.395  1.00  0.00    -0.036 A 
ATOM    102  H   UNL A   1      44.077  26.710  32.032  1.00  0.00     0.065 H 
ATOM    103  C   UNL A   1      41.631  28.009  30.271  1.00  0.00     0.049 A 
ATOM    104  H   UNL A   1      40.752  29.188  31.745  1.00  0.00     0.167 HD
ATOM    105  C   UNL A   1      38.881  31.436  35.008  1.00  0.00     0.037 A 
ATOM    106  H   UNL A   1      40.565  30.673  37.125  1.00  0.00     0.065 H 
ATOM    107  H   UNL A   1      43.248  26.621  29.633  1.00  0.00     0.065 H 
ATOM    108  C   UNL A   1      40.896  28.162  29.153  1.00  0.00     0.037 A 
ATOM    109  C   UNL A   1      38.094  31.737  33.841  1.00  0.00     0.049 A 
ATOM    110  C   UNL A   1      39.699  29.075  29.181  1.00  0.00     0.074 A 
ATOM    111  C   UNL A   1      37.015  32.596  33.726  1.00  0.00    -0.036 A 
ATOM    112  N   UNL A   1      38.303  31.187  32.586  1.00  0.00    -0.354 N 
ATOM    113  N   UNL A   1      39.216  29.774  30.179  1.00  0.00    -0.248 NA
ATOM    114  C   UNL A   1      38.950  29.224  27.926  1.00  0.00    -0.034 C 
ATOM    115  C   UNL A   1      36.545  32.535  32.410  1.00  0.00    -0.036 A 
ATOM    116  H   UNL A   1      36.624  33.181  34.481  1.00  0.00     0.065 H 
ATOM    117  C   UNL A   1      37.361  31.674  31.695  1.00  0.00     0.049 A 
ATOM    118  H   UNL A   1      39.015  30.545  32.361  1.00  0.00     0.167 HD
ATOM    119  C   UNL A   1      38.128  30.469  29.667  1.00  0.00     0.074 A 
ATOM    120  C   UNL A   1      38.030  30.116  28.266  1.00  0.00    -0.034 C 
ATOM    121  H   UNL A   1      39.101  28.757  27.018  1.00  0.00     0.065 H 
ATOM    122  H   UNL A   1      35.728  33.043  32.037  1.00  0.00     0.065 H 
ATOM    123  C   UNL A   1      37.286  31.321  30.299  1.00  0.00     0.037 A 
ATOM    124  H   UNL A   1      37.333  30.509  27.614  1.00  0.00     0.065 H 
BRANCH 105 125
ATOM    125  C   UNL A   1      38.482  32.065  36.311  1.00  0.00     0.064 A 
ATOM    126  C   UNL A   1      37.783  31.345  37.291  1.00  0.00     0.173 A 
ATOM    127  C   UNL A   1      38.845  33.388  36.604  1.00  0.00     0.173 A 
ATOM    128  F   UNL A   1      37.402  30.080  37.056  1.00  0.00    -0.203 F 
ATOM    129  C   UNL A   1      37.441  31.933  38.506  1.00  0.00     0.198 A 
ATOM    130  C   UNL A   1      38.527  33.965  37.831  1.00  0.00     0.198 A 
ATOM    131  F   UNL A   1      39.519  34.121  35.704  1.00  0.00    -0.203 F 
ATOM    132  F   UNL A   1      36.735  31.240  39.410  1.00  0.00    -0.200 F 
ATOM    133  C   UNL A   1      37.820  33.239  38.778  1.00  0.00     0.200 A 
ATOM    134  F   UNL A   1      38.906  35.222  38.098  1.00  0.00    -0.200 F 
ATOM    135  F   UNL A   1      37.500  33.800  39.952  1.00  0.00    -0.200 F 
ENDBRANCH 105 125
BRANCH 108 136
ATOM    136  C   UNL A   1      41.280  27.452  27.906  1.00  0.00     0.064 A 
ATOM    137  C   UNL A   1      40.711  26.213  27.579  1.00  0.00     0.173 A 
ATOM    138  C   UNL A   1      42.226  27.990  27.022  1.00  0.00     0.173 A 
ATOM    139  F   UNL A   1      39.816  25.650  28.403  1.00  0.00    -0.203 F 
ATOM    140  C   UNL A   1      41.093  25.527  26.428  1.00  0.00     0.198 A 
ATOM    141  C   UNL A   1      42.587  27.316  25.857  1.00  0.00     0.198 A 
ATOM    142  F   UNL A   1      42.796  29.175  27.286  1.00  0.00    -0.203 F 
ATOM    143  F   UNL A   1      40.570  24.321  26.165  1.00  0.00    -0.200 F 
ATOM    144  C   UNL A   1      42.027  26.081  25.565  1.00  0.00     0.200 A 
ATOM    145  F   UNL A   1      43.479  27.862  25.019  1.00  0.00    -0.200 F 
ATOM    146  F   UNL A   1      42.394  25.422  24.458  1.00  0.00    -0.200 F 
ENDBRANCH 108 136
BRANCH 123 147
ATOM    147  C   UNL A   1      36.208  31.962  29.475  1.00  0.00     0.064 A 
ATOM    148  C   UNL A   1      35.155  31.212  28.932  1.00  0.00     0.173 A 
ATOM    149  C   UNL A   1      36.209  33.348  29.262  1.00  0.00     0.173 A 
ATOM    150  F   UNL A   1      35.118  29.881  29.095  1.00  0.00    -0.203 F 
ATOM    151  C   UNL A   1      34.154  31.826  28.184  1.00  0.00     0.198 A 
ATOM    152  C   UNL A   1      35.191  33.962  28.538  1.00  0.00     0.198 A 
ATOM    153  F   UNL A   1      37.192  34.109  29.766  1.00  0.00    -0.203 F 
ATOM    154  F   UNL A   1      33.181  31.085  27.635  1.00  0.00    -0.200 F 
ATOM    155  C   UNL A   1      34.168  33.200  27.994  1.00  0.00     0.200 A 
ATOM    156  F   UNL A   1      35.200  35.291  28.366  1.00  0.00    -0.200 F 
ATOM    157  F   UNL A   1      33.199  33.789  27.280  1.00  0.00    -0.200 F 
ENDBRANCH 123 147
ENDBRANCH  88  91
ENDBRANCH  78  81
ENDBRANCH  74  77
ENDBRANCH  71  74
ENDBRANCH  68  71
ENDBRANCH  65  68
ENDBRANCH   1  65
TORSDOF 22
ENDMDL
MODEL 10
REMARK VINA RESULT:      -9.1      4.291      9.828
REMARK SMILES COc1ccc([C@H]2CC(c3ccc(S(C)(=O)=O)cc3)=NN2c2ccc(C(=O)NCCCCCCNC(=O)c3ccc(-c4c5nc(c(-c6c(F)c(F)c(F)c(F)c6F)c6ccc([nH]6)c(-c6c(F)c(F)c(F)c(F)c6F)c6nc(c(-c7c(F)c(F)c(F)c(F)c7F)c7ccc4[nH]7)C=C6)C=C5)cc3)cc2)cc1OC
REMARK SMILES IDX 30 1 29 4 28 7 26 8 27 9 25 11 22 12 23 13 102 14 24 15
REMARK SMILES IDX 101 17 21 21 7 22 8 23 9 25 20 28 6 29 3 30 4 31 104 32 5 33
REMARK SMILES IDX 103 35 2 38 1 39 105 43 106 44 10 48 11 49 19 50 12 51 18 53
REMARK SMILES IDX 13 55 14 58 16 59 17 60 15 61 31 65 32 68 33 71 34 74 35 77
REMARK SMILES IDX 36 78 37 80 38 81 39 82 100 83 40 84 99 86 41 88 42 91 43 92
REMARK SMILES IDX 93 93 44 94 98 95 92 96 94 97 45 98 97 99 91 101 90 103
REMARK SMILES IDX 46 105 78 108 58 109 77 110 59 111 62 112 76 113 95 114
REMARK SMILES IDX 60 115 61 117 75 119 96 120 63 123 47 125 48 126 56 127
REMARK SMILES IDX 49 128 50 129 54 130 57 131 51 132 52 133 55 134 53 135
REMARK SMILES IDX 79 136 80 137 88 138 81 139 82 140 86 141 89 142 83 143
REMARK SMILES IDX 84 144 87 145 85 146 64 147 65 148 73 149 66 150 67 151
REMARK SMILES IDX 71 152 74 153 68 154 69 155 72 156 70 157
REMARK H PARENT 30 2 30 3 29 5 29 6 28 10 23 16 102 18 24 19 101 20 7 24 8 26
REMARK H PARENT 8 27 4 34 5 36 103 37 1 40 1 41 1 42 106 45 106 46 106 47
REMARK H PARENT 11 52 19 54 12 56 18 57 15 62 15 63 15 64 31 66 31 67 32 69
REMARK H PARENT 32 70 33 72 33 73 34 75 34 76 35 79 39 85 100 87 40 89 99 90
REMARK H PARENT 98 100 92 102 94 104 97 106 91 107 59 116 62 118 95 121 60 122
REMARK H PARENT 96 124
REMARK Flexibility Score: inf
ROOT
ATOM      1  C   UNL A   1      52.208  26.904  34.427  1.00  0.00    -0.036 C 
ATOM      2  H   UNL A   1      53.106  27.195  34.930  1.00  0.00     0.028 H 
ATOM      3  H   UNL A   1      51.755  26.049  34.883  1.00  0.00     0.028 H 
ENDROOT
BRANCH   1   4
ATOM      4  C   UNL A   1      52.558  26.522  32.986  1.00  0.00     0.018 C 
ATOM      5  H   UNL A   1      51.960  27.097  32.311  1.00  0.00     0.049 H 
ATOM      6  H   UNL A   1      53.593  26.721  32.809  1.00  0.00     0.049 H 
BRANCH   4   7
ATOM      7  N   UNL A   1      52.298  25.113  32.778  1.00  0.00    -0.352 N 
ATOM      8  C   UNL A   1      51.256  24.441  32.195  1.00  0.00     0.251 C 
ATOM      9  O   UNL A   1      51.301  23.211  32.196  1.00  0.00    -0.269 OA
ATOM     10  H   UNL A   1      53.008  24.523  33.122  1.00  0.00     0.163 HD
BRANCH   8  11
ATOM     11  C   UNL A   1      50.126  25.127  31.511  1.00  0.00     0.039 A 
ATOM     12  C   UNL A   1      48.148  26.566  30.097  1.00  0.00     0.060 A 
ATOM     13  C   UNL A   1      49.369  26.247  29.495  1.00  0.00    -0.036 A 
ATOM     14  C   UNL A   1      47.903  26.097  31.388  1.00  0.00    -0.036 A 
ATOM     15  C   UNL A   1      50.355  25.553  30.198  1.00  0.00    -0.047 A 
ATOM     16  H   UNL A   1      49.543  26.530  28.517  1.00  0.00     0.065 H 
ATOM     17  C   UNL A   1      48.866  25.347  32.075  1.00  0.00    -0.047 A 
ATOM     18  H   UNL A   1      47.000  26.306  31.844  1.00  0.00     0.065 H 
ATOM     19  H   UNL A   1      51.260  25.352  29.745  1.00  0.00     0.063 H 
ATOM     20  H   UNL A   1      48.644  24.955  33.003  1.00  0.00     0.063 H 
BRANCH  12  21
ATOM     21  N   UNL A   1      47.207  27.302  29.401  1.00  0.00    -0.257 N 
ATOM     22  C   UNL A   1      47.052  27.297  27.948  1.00  0.00     0.083 C 
ATOM     23  C   UNL A   1      46.022  28.414  27.721  1.00  0.00     0.019 C 
ATOM     24  H   UNL A   1      47.969  27.457  27.421  1.00  0.00     0.061 H 
ATOM     25  C   UNL A   1      45.823  28.880  29.136  1.00  0.00     0.071 C 
ATOM     26  H   UNL A   1      45.115  28.038  27.295  1.00  0.00     0.036 H 
ATOM     27  H   UNL A   1      46.330  29.176  27.035  1.00  0.00     0.036 H 
ATOM     28  N   UNL A   1      46.505  28.263  30.047  1.00  0.00    -0.176 NA
BRANCH  22  29
ATOM     29  C   UNL A   1      46.567  25.951  27.433  1.00  0.00    -0.019 A 
ATOM     30  C   UNL A   1      45.655  23.448  26.506  1.00  0.00     0.160 A 
ATOM     31  C   UNL A   1      46.706  24.111  25.856  1.00  0.00    -0.016 A 
ATOM     32  C   UNL A   1      45.063  24.016  27.637  1.00  0.00     0.161 A 
ATOM     33  C   UNL A   1      47.154  25.356  26.310  1.00  0.00    -0.053 A 
ATOM     34  H   UNL A   1      47.154  23.676  25.034  1.00  0.00     0.066 H 
ATOM     35  C   UNL A   1      45.525  25.262  28.082  1.00  0.00    -0.011 A 
ATOM     36  H   UNL A   1      47.921  25.838  25.816  1.00  0.00     0.063 H 
ATOM     37  H   UNL A   1      45.088  25.688  28.913  1.00  0.00     0.067 H 
BRANCH  30  38
ATOM     38  O   UNL A   1      45.309  22.199  26.064  1.00  0.00    -0.493 OA
BRANCH  38  39
ATOM     39  C   UNL A   1      45.798  21.948  24.746  1.00  0.00     0.078 C 
ATOM     40  H   UNL A   1      46.866  22.024  24.740  1.00  0.00     0.067 H 
ATOM     41  H   UNL A   1      45.386  22.668  24.070  1.00  0.00     0.067 H 
ATOM     42  H   UNL A   1      45.509  20.964  24.440  1.00  0.00     0.067 H 
ENDBRANCH  38  39
ENDBRANCH  30  38
BRANCH  32  43
ATOM     43  O   UNL A   1      44.064  23.517  28.426  1.00  0.00    -0.493 OA
BRANCH  43  44
ATOM     44  C   UNL A   1      44.388  23.053  29.726  1.00  0.00     0.078 C 
ATOM     45  H   UNL A   1      44.043  22.048  29.843  1.00  0.00     0.067 H 
ATOM     46  H   UNL A   1      43.917  23.679  30.456  1.00  0.00     0.067 H 
ATOM     47  H   UNL A   1      45.449  23.086  29.861  1.00  0.00     0.067 H 
ENDBRANCH  43  44
ENDBRANCH  32  43
ENDBRANCH  22  29
BRANCH  25  48
ATOM     48  C   UNL A   1      44.939  30.006  29.449  1.00  0.00    -0.002 A 
ATOM     49  C   UNL A   1      44.741  30.345  30.790  1.00  0.00    -0.052 A 
ATOM     50  C   UNL A   1      44.281  30.690  28.425  1.00  0.00    -0.052 A 
ATOM     51  C   UNL A   1      43.887  31.397  31.116  1.00  0.00    -0.043 A 
ATOM     52  H   UNL A   1      45.223  29.819  31.535  1.00  0.00     0.063 H 
ATOM     53  C   UNL A   1      43.406  31.727  28.750  1.00  0.00    -0.043 A 
ATOM     54  H   UNL A   1      44.441  30.432  27.439  1.00  0.00     0.063 H 
ATOM     55  C   UNL A   1      43.212  32.073  30.092  1.00  0.00     0.067 A 
ATOM     56  H   UNL A   1      43.754  31.676  32.101  1.00  0.00     0.064 H 
ATOM     57  H   UNL A   1      42.904  32.237  28.005  1.00  0.00     0.064 H 
BRANCH  55  58
ATOM     58  S   UNL A   1      42.113  33.403  30.518  1.00  0.00     0.175 S 
ATOM     59  O   UNL A   1      42.758  34.630  30.090  1.00  0.00    -0.224 OA
ATOM     60  O   UNL A   1      40.789  33.048  30.041  1.00  0.00    -0.224 OA
BRANCH  58  61
ATOM     61  C   UNL A   1      42.067  33.380  32.292  1.00  0.00     0.043 C 
ATOM     62  H   UNL A   1      42.807  32.700  32.659  1.00  0.00     0.040 H 
ATOM     63  H   UNL A   1      41.098  33.063  32.620  1.00  0.00     0.040 H 
ATOM     64  H   UNL A   1      42.267  34.362  32.668  1.00  0.00     0.040 H 
ENDBRANCH  58  61
ENDBRANCH  55  58
ENDBRANCH  25  48
ENDBRANCH  12  21
ENDBRANCH   8  11
ENDBRANCH   4   7
ENDBRANCH   1   4
BRANCH   1  65
ATOM     65  C   UNL A   1      51.202  28.059  34.513  1.00  0.00    -0.052 C 
ATOM     66  H   UNL A   1      50.220  27.660  34.365  1.00  0.00     0.027 H 
ATOM     67  H   UNL A   1      51.486  28.764  33.760  1.00  0.00     0.027 H 
BRANCH  65  68
ATOM     68  C   UNL A   1      51.213  28.819  35.846  1.00  0.00    -0.052 C 
ATOM     69  H   UNL A   1      51.178  29.866  35.631  1.00  0.00     0.027 H 
ATOM     70  H   UNL A   1      52.106  28.520  36.354  1.00  0.00     0.027 H 
BRANCH  68  71
ATOM     71  C   UNL A   1      50.052  28.487  36.787  1.00  0.00    -0.036 C 
ATOM     72  H   UNL A   1      49.788  29.376  37.320  1.00  0.00     0.028 H 
ATOM     73  H   UNL A   1      50.393  27.703  37.429  1.00  0.00     0.028 H 
BRANCH  71  74
ATOM     74  C   UNL A   1      48.804  27.963  36.082  1.00  0.00     0.018 C 
ATOM     75  H   UNL A   1      48.932  28.071  35.025  1.00  0.00     0.049 H 
ATOM     76  H   UNL A   1      47.964  28.529  36.427  1.00  0.00     0.049 H 
BRANCH  74  77
ATOM     77  N   UNL A   1      48.563  26.562  36.386  1.00  0.00    -0.352 N 
ATOM     78  C   UNL A   1      47.413  25.829  36.242  1.00  0.00     0.251 C 
ATOM     79  H   UNL A   1      49.335  26.070  36.748  1.00  0.00     0.163 HD
ATOM     80  O   UNL A   1      47.316  24.719  36.755  1.00  0.00    -0.269 OA
BRANCH  78  81
ATOM     81  C   UNL A   1      46.279  26.384  35.475  1.00  0.00     0.039 A 
ATOM     82  C   UNL A   1      45.001  25.858  35.678  1.00  0.00    -0.049 A 
ATOM     83  C   UNL A   1      46.481  27.405  34.540  1.00  0.00    -0.049 A 
ATOM     84  C   UNL A   1      43.915  26.392  34.981  1.00  0.00    -0.053 A 
ATOM     85  H   UNL A   1      44.861  25.080  36.340  1.00  0.00     0.063 H 
ATOM     86  C   UNL A   1      45.389  27.979  33.895  1.00  0.00    -0.053 A 
ATOM     87  H   UNL A   1      47.437  27.733  34.330  1.00  0.00     0.063 H 
ATOM     88  C   UNL A   1      44.097  27.474  34.105  1.00  0.00    -0.014 A 
ATOM     89  H   UNL A   1      42.974  25.989  35.112  1.00  0.00     0.063 H 
ATOM     90  H   UNL A   1      45.532  28.779  33.259  1.00  0.00     0.063 H 
BRANCH  88  91
ATOM     91  C   UNL A   1      42.948  28.088  33.393  1.00  0.00     0.031 A 
ATOM     92  C   UNL A   1      42.695  27.761  31.949  1.00  0.00     0.074 A 
ATOM     93  C   UNL A   1      42.176  28.988  34.031  1.00  0.00     0.049 A 
ATOM     94  N   UNL A   1      41.794  28.251  31.135  1.00  0.00    -0.248 NA
ATOM     95  C   UNL A   1      43.588  26.770  31.329  1.00  0.00    -0.034 C 
ATOM     96  C   UNL A   1      42.352  29.422  35.418  1.00  0.00    -0.036 A 
ATOM     97  N   UNL A   1      41.096  29.713  33.591  1.00  0.00    -0.354 N 
ATOM     98  C   UNL A   1      42.023  27.643  29.907  1.00  0.00     0.074 A 
ATOM     99  C   UNL A   1      43.176  26.783  30.069  1.00  0.00    -0.034 C 
ATOM    100  H   UNL A   1      44.340  26.210  31.761  1.00  0.00     0.065 H 
ATOM    101  C   UNL A   1      41.403  30.323  35.719  1.00  0.00    -0.036 A 
ATOM    102  H   UNL A   1      43.086  29.087  36.061  1.00  0.00     0.065 H 
ATOM    103  C   UNL A   1      40.577  30.558  34.540  1.00  0.00     0.049 A 
ATOM    104  H   UNL A   1      40.730  29.633  32.681  1.00  0.00     0.167 HD
ATOM    105  C   UNL A   1      41.323  27.774  28.756  1.00  0.00     0.037 A 
ATOM    106  H   UNL A   1      43.619  26.250  29.304  1.00  0.00     0.065 H 
ATOM    107  H   UNL A   1      41.280  30.777  36.639  1.00  0.00     0.065 H 
ATOM    108  C   UNL A   1      39.555  31.431  34.463  1.00  0.00     0.037 A 
ATOM    109  C   UNL A   1      40.157  28.606  28.609  1.00  0.00     0.049 A 
ATOM    110  C   UNL A   1      38.789  31.552  33.173  1.00  0.00     0.074 A 
ATOM    111  C   UNL A   1      39.340  28.759  27.503  1.00  0.00    -0.036 A 
ATOM    112  N   UNL A   1      39.643  29.427  29.602  1.00  0.00    -0.354 N 
ATOM    113  N   UNL A   1      38.974  30.922  32.038  1.00  0.00    -0.248 NA
ATOM    114  C   UNL A   1      37.666  32.500  33.155  1.00  0.00    -0.034 C 
ATOM    115  C   UNL A   1      38.356  29.703  27.812  1.00  0.00    -0.036 A 
ATOM    116  H   UNL A   1      39.440  28.262  26.604  1.00  0.00     0.065 H 
ATOM    117  C   UNL A   1      38.532  30.103  29.126  1.00  0.00     0.049 A 
ATOM    118  H   UNL A   1      40.014  29.517  30.510  1.00  0.00     0.167 HD
ATOM    119  C   UNL A   1      37.978  31.373  31.183  1.00  0.00     0.074 A 
ATOM    120  C   UNL A   1      37.181  32.321  31.935  1.00  0.00    -0.034 C 
ATOM    121  H   UNL A   1      37.341  33.138  33.898  1.00  0.00     0.065 H 
ATOM    122  H   UNL A   1      37.624  30.045  27.169  1.00  0.00     0.065 H 
ATOM    123  C   UNL A   1      37.743  31.034  29.893  1.00  0.00     0.037 A 
ATOM    124  H   UNL A   1      36.342  32.796  31.568  1.00  0.00     0.065 H 
BRANCH 105 125
ATOM    125  C   UNL A   1      41.790  26.995  27.562  1.00  0.00     0.064 A 
ATOM    126  C   UNL A   1      42.657  27.555  26.612  1.00  0.00     0.173 A 
ATOM    127  C   UNL A   1      41.405  25.657  27.390  1.00  0.00     0.173 A 
ATOM    128  F   UNL A   1      43.045  28.835  26.724  1.00  0.00    -0.203 F 
ATOM    129  C   UNL A   1      43.103  26.813  25.522  1.00  0.00     0.198 A 
ATOM    130  C   UNL A   1      41.877  24.907  26.314  1.00  0.00     0.198 A 
ATOM    131  F   UNL A   1      40.582  25.070  28.272  1.00  0.00    -0.203 F 
ATOM    132  F   UNL A   1      43.896  27.382  24.605  1.00  0.00    -0.200 F 
ATOM    133  C   UNL A   1      42.719  25.488  25.378  1.00  0.00     0.200 A 
ATOM    134  F   UNL A   1      41.516  23.624  26.184  1.00  0.00    -0.200 F 
ATOM    135  F   UNL A   1      43.158  24.772  24.335  1.00  0.00    -0.200 F 
ENDBRANCH 105 125
BRANCH 108 136
ATOM    136  C   UNL A   1      39.180  32.245  35.648  1.00  0.00     0.064 A 
ATOM    137  C   UNL A   1      38.317  31.734  36.628  1.00  0.00     0.173 A 
ATOM    138  C   UNL A   1      39.665  33.549  35.821  1.00  0.00     0.173 A 
ATOM    139  F   UNL A   1      37.812  30.499  36.496  1.00  0.00    -0.203 F 
ATOM    140  C   UNL A   1      37.935  32.505  37.724  1.00  0.00     0.198 A 
ATOM    141  C   UNL A   1      39.305  34.310  36.931  1.00  0.00     0.198 A 
ATOM    142  F   UNL A   1      40.498  34.082  34.915  1.00  0.00    -0.203 F 
ATOM    143  F   UNL A   1      37.071  32.010  38.620  1.00  0.00    -0.200 F 
ATOM    144  C   UNL A   1      38.433  33.791  37.877  1.00  0.00     0.200 A 
ATOM    145  F   UNL A   1      39.799  35.546  37.083  1.00  0.00    -0.200 F 
ATOM    146  F   UNL A   1      38.066  34.533  38.930  1.00  0.00    -0.200 F 
ENDBRANCH 108 136
BRANCH 123 147
ATOM    147  C   UNL A   1      36.557  31.661  29.221  1.00  0.00     0.064 A 
ATOM    148  C   UNL A   1      35.414  30.914  28.901  1.00  0.00     0.173 A 
ATOM    149  C   UNL A   1      36.549  33.034  28.933  1.00  0.00     0.173 A 
ATOM    150  F   UNL A   1      35.378  29.595  29.142  1.00  0.00    -0.203 F 
ATOM    151  C   UNL A   1      34.315  31.517  28.293  1.00  0.00     0.198 A 
ATOM    152  C   UNL A   1      35.438  33.638  28.352  1.00  0.00     0.198 A 
ATOM    153  F   UNL A   1      37.616  33.792  29.226  1.00  0.00    -0.203 F 
ATOM    154  F   UNL A   1      33.251  30.776  27.954  1.00  0.00    -0.200 F 
ATOM    155  C   UNL A   1      34.324  32.877  28.027  1.00  0.00     0.200 A 
ATOM    156  F   UNL A   1      35.444  34.955  28.108  1.00  0.00    -0.200 F 
ATOM    157  F   UNL A   1      33.263  33.456  27.450  1.00  0.00    -0.200 F 
ENDBRANCH 123 147
ENDBRANCH  88  91
ENDBRANCH  78  81
ENDBRANCH  74  77
ENDBRANCH  71  74
ENDBRANCH  68  71
ENDBRANCH  65  68
ENDBRANCH   1  65
TORSDOF 22
ENDMDL
