MODEL 1
REMARK VINA RESULT:     -12.3      0.000      0.000
REMARK SMILES O=C(NCCCCCCNC(=O)c1ccc(-c2c3nc(c(-c4c(F)c(F)c(F)c(F)c4F)c4ccc([nH]4)c(-c4c(F)c(F)c(F)c(F)c4F)c4nc(c(-c5c(F)c(F)c(F)c(F)c5F)c5ccc2[nH]5)C=C4)C=C3)cc1)C1=Cc2c(ccc(Cl)c2-c2ccccc2)O[C@H]1C(F)(F)F
REMARK SMILES IDX 7 1 6 4 5 7 4 10 3 13 1 14 2 15 76 17 77 18 92 19 78 20
REMARK SMILES IDX 91 22 79 24 84 25 80 26 82 27 81 28 83 30 93 32 94 33 95 34
REMARK SMILES IDX 96 35 85 36 86 37 90 38 87 39 89 41 88 43 8 47 9 50 10 53
REMARK SMILES IDX 11 54 12 56 13 57 14 58 75 59 15 60 74 62 16 64 17 67 18 68
REMARK SMILES IDX 68 69 19 70 73 71 67 72 69 73 20 74 72 75 66 77 65 79 21 81
REMARK SMILES IDX 53 84 33 85 52 86 34 87 37 88 51 89 70 90 35 91 36 93 50 95
REMARK SMILES IDX 71 96 38 99 22 101 23 102 31 103 24 104 25 105 29 106 32 107
REMARK SMILES IDX 26 108 27 109 30 110 28 111 54 112 55 113 63 114 56 115
REMARK SMILES IDX 57 116 61 117 64 118 58 119 59 120 62 121 60 122 39 123
REMARK SMILES IDX 40 124 48 125 41 126 42 127 46 128 49 129 43 130 44 131
REMARK SMILES IDX 47 132 45 133
REMARK H PARENT 7 2 7 3 6 5 6 6 5 8 5 9 4 11 4 12 3 16 77 21 92 23 80 29 81 31
REMARK H PARENT 86 40 90 42 87 44 89 45 88 46 8 48 8 49 9 51 9 52 10 55 14 61
REMARK H PARENT 75 63 15 65 74 66 73 76 67 78 69 80 72 82 66 83 34 92 37 94
REMARK H PARENT 70 97 35 98 71 100
REMARK Flexibility Score: inf
ROOT
ATOM      1  C   UNL A   1      34.504  23.843  24.205  1.00  0.00    -0.052 C 
ATOM      2  H   UNL A   1      34.113  23.000  23.675  1.00  0.00     0.027 H 
ATOM      3  H   UNL A   1      34.117  23.974  25.195  1.00  0.00     0.027 H 
ENDROOT
BRANCH   1   4
ATOM      4  C   UNL A   1      34.078  25.104  23.444  1.00  0.00    -0.052 C 
ATOM      5  H   UNL A   1      33.548  25.731  24.130  1.00  0.00     0.027 H 
ATOM      6  H   UNL A   1      34.990  25.516  23.063  1.00  0.00     0.027 H 
BRANCH   4   7
ATOM      7  C   UNL A   1      33.188  24.916  22.212  1.00  0.00    -0.036 C 
ATOM      8  H   UNL A   1      33.755  24.381  21.479  1.00  0.00     0.028 H 
ATOM      9  H   UNL A   1      32.320  24.398  22.566  1.00  0.00     0.028 H 
BRANCH   7  10
ATOM     10  C   UNL A   1      32.658  26.187  21.554  1.00  0.00     0.018 C 
ATOM     11  H   UNL A   1      32.677  26.043  20.494  1.00  0.00     0.049 H 
ATOM     12  H   UNL A   1      31.676  26.337  21.951  1.00  0.00     0.049 H 
BRANCH  10  13
ATOM     13  N   UNL A   1      33.396  27.399  21.852  1.00  0.00    -0.352 N 
ATOM     14  O   UNL A   1      33.750  29.477  22.632  1.00  0.00    -0.270 OA
ATOM     15  C   UNL A   1      32.981  28.526  22.509  1.00  0.00     0.251 C 
ATOM     16  H   UNL A   1      34.329  27.414  21.536  1.00  0.00     0.163 HD
BRANCH  15  17
ATOM     17  C   UNL A   1      31.629  28.619  23.103  1.00  0.00     0.067 C 
ATOM     18  C   UNL A   1      31.527  28.531  24.434  1.00  0.00    -0.038 C 
ATOM     19  C   UNL A   1      30.390  28.368  22.305  1.00  0.00     0.224 C 
ATOM     20  C   UNL A   1      31.053  27.159  24.774  1.00  0.00     0.027 A 
ATOM     21  H   UNL A   1      31.738  29.283  25.108  1.00  0.00     0.064 H 
ATOM     22  O   UNL A   1      29.706  27.135  22.739  1.00  0.00    -0.475 OA
ATOM     23  H   UNL A   1      30.695  28.233  21.289  1.00  0.00     0.090 H 
ATOM     24  C   UNL A   1      30.170  26.527  23.886  1.00  0.00     0.128 A 
ATOM     25  C   UNL A   1      31.653  26.481  25.869  1.00  0.00     0.011 A 
ATOM     26  C   UNL A   1      29.867  25.185  24.075  1.00  0.00    -0.018 A 
ATOM     27  C   UNL A   1      31.361  25.122  26.015  1.00  0.00     0.049 A 
ATOM     28  C   UNL A   1      30.476  24.483  25.126  1.00  0.00    -0.039 A 
ATOM     29  H   UNL A   1      29.198  24.709  23.450  1.00  0.00     0.066 H 
ATOM     30  Cl  UNL A   1      32.131  24.156  27.220  1.00  0.00    -0.084 Cl
ATOM     31  H   UNL A   1      30.270  23.479  25.249  1.00  0.00     0.064 H 
BRANCH  19  32
ATOM     32  C   UNL A   1      29.425  29.580  22.348  1.00  0.00     0.429 C 
ATOM     33  F   UNL A   1      29.184  30.030  23.604  1.00  0.00    -0.167 F 
ATOM     34  F   UNL A   1      29.926  30.624  21.646  1.00  0.00    -0.167 F 
ATOM     35  F   UNL A   1      28.216  29.284  21.813  1.00  0.00    -0.167 F 
ENDBRANCH  19  32
BRANCH  25  36
ATOM     36  C   UNL A   1      32.635  27.263  26.653  1.00  0.00    -0.016 A 
ATOM     37  C   UNL A   1      33.966  27.330  26.205  1.00  0.00    -0.054 A 
ATOM     38  C   UNL A   1      32.159  28.278  27.505  1.00  0.00    -0.054 A 
ATOM     39  C   UNL A   1      34.735  28.469  26.451  1.00  0.00    -0.062 A 
ATOM     40  H   UNL A   1      34.375  26.535  25.692  1.00  0.00     0.063 H 
ATOM     41  C   UNL A   1      32.928  29.420  27.736  1.00  0.00    -0.062 A 
ATOM     42  H   UNL A   1      31.239  28.178  27.959  1.00  0.00     0.063 H 
ATOM     43  C   UNL A   1      34.200  29.529  27.178  1.00  0.00    -0.062 A 
ATOM     44  H   UNL A   1      35.702  28.524  26.094  1.00  0.00     0.062 H 
ATOM     45  H   UNL A   1      32.554  30.183  28.321  1.00  0.00     0.062 H 
ATOM     46  H   UNL A   1      34.745  30.397  27.303  1.00  0.00     0.062 H 
ENDBRANCH  25  36
ENDBRANCH  15  17
ENDBRANCH  10  13
ENDBRANCH   7  10
ENDBRANCH   4   7
ENDBRANCH   1   4
BRANCH   1  47
ATOM     47  C   UNL A   1      36.004  23.612  24.395  1.00  0.00    -0.036 C 
ATOM     48  H   UNL A   1      36.516  24.470  24.009  1.00  0.00     0.028 H 
ATOM     49  H   UNL A   1      36.218  22.699  23.880  1.00  0.00     0.028 H 
BRANCH  47  50
ATOM     50  C   UNL A   1      36.481  23.392  25.826  1.00  0.00     0.018 C 
ATOM     51  H   UNL A   1      35.681  22.959  26.388  1.00  0.00     0.049 H 
ATOM     52  H   UNL A   1      36.775  24.346  26.212  1.00  0.00     0.049 H 
BRANCH  50  53
ATOM     53  N   UNL A   1      37.637  22.516  25.919  1.00  0.00    -0.352 N 
ATOM     54  C   UNL A   1      38.928  22.781  26.298  1.00  0.00     0.251 C 
ATOM     55  H   UNL A   1      37.465  21.580  25.668  1.00  0.00     0.163 HD
ATOM     56  O   UNL A   1      39.785  21.900  26.182  1.00  0.00    -0.269 OA
BRANCH  54  57
ATOM     57  C   UNL A   1      39.327  24.109  26.822  1.00  0.00     0.039 A 
ATOM     58  C   UNL A   1      39.004  24.430  28.146  1.00  0.00    -0.049 A 
ATOM     59  C   UNL A   1      39.973  25.057  26.024  1.00  0.00    -0.049 A 
ATOM     60  C   UNL A   1      39.378  25.667  28.681  1.00  0.00    -0.053 A 
ATOM     61  H   UNL A   1      38.488  23.753  28.729  1.00  0.00     0.063 H 
ATOM     62  C   UNL A   1      40.420  26.255  26.582  1.00  0.00    -0.053 A 
ATOM     63  H   UNL A   1      40.120  24.869  25.021  1.00  0.00     0.063 H 
ATOM     64  C   UNL A   1      40.121  26.579  27.915  1.00  0.00    -0.014 A 
ATOM     65  H   UNL A   1      39.106  25.911  29.646  1.00  0.00     0.063 H 
ATOM     66  H   UNL A   1      40.974  26.911  26.010  1.00  0.00     0.063 H 
BRANCH  64  67
ATOM     67  C   UNL A   1      40.577  27.875  28.488  1.00  0.00     0.031 A 
ATOM     68  C   UNL A   1      42.026  28.082  28.843  1.00  0.00     0.074 A 
ATOM     69  C   UNL A   1      39.681  28.852  28.732  1.00  0.00     0.049 A 
ATOM     70  N   UNL A   1      42.604  29.115  29.405  1.00  0.00    -0.248 NA
ATOM     71  C   UNL A   1      42.945  26.971  28.550  1.00  0.00    -0.034 C 
ATOM     72  C   UNL A   1      38.243  28.764  28.473  1.00  0.00    -0.036 A 
ATOM     73  N   UNL A   1      39.844  30.108  29.263  1.00  0.00    -0.354 N 
ATOM     74  C   UNL A   1      43.943  28.775  29.540  1.00  0.00     0.074 A 
ATOM     75  C   UNL A   1      44.085  27.418  29.057  1.00  0.00    -0.034 C 
ATOM     76  H   UNL A   1      42.753  26.077  28.073  1.00  0.00     0.065 H 
ATOM     77  C   UNL A   1      37.661  29.921  28.821  1.00  0.00    -0.036 A 
ATOM     78  H   UNL A   1      37.756  27.942  28.083  1.00  0.00     0.065 H 
ATOM     79  C   UNL A   1      38.673  30.819  29.371  1.00  0.00     0.049 A 
ATOM     80  H   UNL A   1      40.719  30.466  29.541  1.00  0.00     0.167 HD
ATOM     81  C   UNL A   1      44.968  29.533  29.998  1.00  0.00     0.037 A 
ATOM     82  H   UNL A   1      44.958  26.871  29.103  1.00  0.00     0.065 H 
ATOM     83  H   UNL A   1      36.658  30.142  28.718  1.00  0.00     0.065 H 
ATOM     84  C   UNL A   1      38.438  32.049  29.866  1.00  0.00     0.037 A 
ATOM     85  C   UNL A   1      44.830  30.890  30.459  1.00  0.00     0.049 A 
ATOM     86  C   UNL A   1      39.593  32.863  30.390  1.00  0.00     0.074 A 
ATOM     87  C   UNL A   1      45.816  31.757  30.898  1.00  0.00    -0.036 A 
ATOM     88  N   UNL A   1      43.628  31.578  30.542  1.00  0.00    -0.354 N 
ATOM     89  N   UNL A   1      40.865  32.551  30.452  1.00  0.00    -0.248 NA
ATOM     90  C   UNL A   1      39.280  34.202  30.907  1.00  0.00    -0.034 C 
ATOM     91  C   UNL A   1      45.205  32.949  31.298  1.00  0.00    -0.036 A 
ATOM     92  H   UNL A   1      46.828  31.558  30.924  1.00  0.00     0.065 H 
ATOM     93  C   UNL A   1      43.846  32.850  31.049  1.00  0.00     0.049 A 
ATOM     94  H   UNL A   1      42.751  31.216  30.280  1.00  0.00     0.167 HD
ATOM     95  C   UNL A   1      41.505  33.664  30.982  1.00  0.00     0.074 A 
ATOM     96  C   UNL A   1      40.485  34.665  31.208  1.00  0.00    -0.034 C 
ATOM     97  H   UNL A   1      38.362  34.662  31.010  1.00  0.00     0.065 H 
ATOM     98  H   UNL A   1      45.685  33.765  31.710  1.00  0.00     0.065 H 
ATOM     99  C   UNL A   1      42.821  33.840  31.257  1.00  0.00     0.037 A 
ATOM    100  H   UNL A   1      40.671  35.618  31.558  1.00  0.00     0.065 H 
BRANCH  81 101
ATOM    101  C   UNL A   1      46.338  28.914  30.024  1.00  0.00     0.064 A 
ATOM    102  C   UNL A   1      46.805  28.205  31.141  1.00  0.00     0.173 A 
ATOM    103  C   UNL A   1      47.174  28.986  28.899  1.00  0.00     0.173 A 
ATOM    104  F   UNL A   1      46.050  28.113  32.246  1.00  0.00    -0.203 F 
ATOM    105  C   UNL A   1      48.067  27.616  31.142  1.00  0.00     0.198 A 
ATOM    106  C   UNL A   1      48.422  28.368  28.890  1.00  0.00     0.198 A 
ATOM    107  F   UNL A   1      46.776  29.646  27.801  1.00  0.00    -0.203 F 
ATOM    108  F   UNL A   1      48.510  26.986  32.239  1.00  0.00    -0.200 F 
ATOM    109  C   UNL A   1      48.871  27.690  30.015  1.00  0.00     0.200 A 
ATOM    110  F   UNL A   1      49.190  28.427  27.794  1.00  0.00    -0.200 F 
ATOM    111  F   UNL A   1      50.079  27.113  30.012  1.00  0.00    -0.200 F 
ENDBRANCH  81 101
BRANCH  84 112
ATOM    112  C   UNL A   1      37.055  32.598  29.883  1.00  0.00     0.064 A 
ATOM    113  C   UNL A   1      36.546  33.312  28.791  1.00  0.00     0.173 A 
ATOM    114  C   UNL A   1      36.224  32.442  31.002  1.00  0.00     0.173 A 
ATOM    115  F   UNL A   1      37.308  33.508  27.704  1.00  0.00    -0.203 F 
ATOM    116  C   UNL A   1      35.271  33.875  28.827  1.00  0.00     0.198 A 
ATOM    117  C   UNL A   1      34.937  32.976  31.024  1.00  0.00     0.198 A 
ATOM    118  F   UNL A   1      36.659  31.764  32.075  1.00  0.00    -0.203 F 
ATOM    119  F   UNL A   1      34.833  34.604  27.791  1.00  0.00    -0.200 F 
ATOM    120  C   UNL A   1      34.466  33.701  29.941  1.00  0.00     0.200 A 
ATOM    121  F   UNL A   1      34.156  32.792  32.098  1.00  0.00    -0.200 F 
ATOM    122  F   UNL A   1      33.240  34.243  29.977  1.00  0.00    -0.200 F 
ENDBRANCH  84 112
BRANCH  99 123
ATOM    123  C   UNL A   1      43.243  35.180  31.793  1.00  0.00     0.064 A 
ATOM    124  C   UNL A   1      43.679  36.211  30.948  1.00  0.00     0.173 A 
ATOM    125  C   UNL A   1      43.171  35.447  33.169  1.00  0.00     0.173 A 
ATOM    126  F   UNL A   1      43.780  36.004  29.626  1.00  0.00    -0.203 F 
ATOM    127  C   UNL A   1      44.056  37.448  31.464  1.00  0.00     0.198 A 
ATOM    128  C   UNL A   1      43.514  36.696  33.677  1.00  0.00     0.198 A 
ATOM    129  F   UNL A   1      42.752  34.499  34.021  1.00  0.00    -0.203 F 
ATOM    130  F   UNL A   1      44.521  38.400  30.643  1.00  0.00    -0.200 F 
ATOM    131  C   UNL A   1      43.965  37.692  32.826  1.00  0.00     0.200 A 
ATOM    132  F   UNL A   1      43.409  36.936  34.992  1.00  0.00    -0.200 F 
ATOM    133  F   UNL A   1      44.319  38.887  33.319  1.00  0.00    -0.200 F 
ENDBRANCH  99 123
ENDBRANCH  64  67
ENDBRANCH  54  57
ENDBRANCH  50  53
ENDBRANCH  47  50
ENDBRANCH   1  47
TORSDOF 15
ENDMDL
MODEL 2
REMARK VINA RESULT:     -12.2      3.890      8.916
REMARK SMILES O=C(NCCCCCCNC(=O)c1ccc(-c2c3nc(c(-c4c(F)c(F)c(F)c(F)c4F)c4ccc([nH]4)c(-c4c(F)c(F)c(F)c(F)c4F)c4nc(c(-c5c(F)c(F)c(F)c(F)c5F)c5ccc2[nH]5)C=C4)C=C3)cc1)C1=Cc2c(ccc(Cl)c2-c2ccccc2)O[C@H]1C(F)(F)F
REMARK SMILES IDX 7 1 6 4 5 7 4 10 3 13 1 14 2 15 76 17 77 18 92 19 78 20
REMARK SMILES IDX 91 22 79 24 84 25 80 26 82 27 81 28 83 30 93 32 94 33 95 34
REMARK SMILES IDX 96 35 85 36 86 37 90 38 87 39 89 41 88 43 8 47 9 50 10 53
REMARK SMILES IDX 11 54 12 56 13 57 14 58 75 59 15 60 74 62 16 64 17 67 18 68
REMARK SMILES IDX 68 69 19 70 73 71 67 72 69 73 20 74 72 75 66 77 65 79 21 81
REMARK SMILES IDX 53 84 33 85 52 86 34 87 37 88 51 89 70 90 35 91 36 93 50 95
REMARK SMILES IDX 71 96 38 99 22 101 23 102 31 103 24 104 25 105 29 106 32 107
REMARK SMILES IDX 26 108 27 109 30 110 28 111 54 112 55 113 63 114 56 115
REMARK SMILES IDX 57 116 61 117 64 118 58 119 59 120 62 121 60 122 39 123
REMARK SMILES IDX 40 124 48 125 41 126 42 127 46 128 49 129 43 130 44 131
REMARK SMILES IDX 47 132 45 133
REMARK H PARENT 7 2 7 3 6 5 6 6 5 8 5 9 4 11 4 12 3 16 77 21 92 23 80 29 81 31
REMARK H PARENT 86 40 90 42 87 44 89 45 88 46 8 48 8 49 9 51 9 52 10 55 14 61
REMARK H PARENT 75 63 15 65 74 66 73 76 67 78 69 80 72 82 66 83 34 92 37 94
REMARK H PARENT 70 97 35 98 71 100
REMARK Flexibility Score: inf
ROOT
ATOM      1  C   UNL A   1      32.299  26.345  25.892  1.00  0.00    -0.052 C 
ATOM      2  H   UNL A   1      31.420  26.505  25.303  1.00  0.00     0.027 H 
ATOM      3  H   UNL A   1      33.218  26.349  25.343  1.00  0.00     0.027 H 
ENDROOT
BRANCH   1   4
ATOM      4  C   UNL A   1      32.203  24.938  26.492  1.00  0.00    -0.052 C 
ATOM      5  H   UNL A   1      33.131  24.441  26.299  1.00  0.00     0.027 H 
ATOM      6  H   UNL A   1      31.978  25.095  27.527  1.00  0.00     0.027 H 
BRANCH   4   7
ATOM      7  C   UNL A   1      31.080  24.029  25.981  1.00  0.00    -0.036 C 
ATOM      8  H   UNL A   1      30.148  24.471  26.264  1.00  0.00     0.028 H 
ATOM      9  H   UNL A   1      31.234  23.957  24.924  1.00  0.00     0.028 H 
BRANCH   7  10
ATOM     10  C   UNL A   1      31.085  22.590  26.488  1.00  0.00     0.018 C 
ATOM     11  H   UNL A   1      30.213  22.449  27.092  1.00  0.00     0.049 H 
ATOM     12  H   UNL A   1      31.110  21.971  25.616  1.00  0.00     0.049 H 
BRANCH  10  13
ATOM     13  N   UNL A   1      32.239  22.208  27.278  1.00  0.00    -0.352 N 
ATOM     14  O   UNL A   1      34.178  21.179  27.761  1.00  0.00    -0.270 OA
ATOM     15  C   UNL A   1      33.305  21.423  26.931  1.00  0.00     0.251 C 
ATOM     16  H   UNL A   1      32.260  22.566  28.196  1.00  0.00     0.163 HD
BRANCH  15  17
ATOM     17  C   UNL A   1      33.447  20.875  25.563  1.00  0.00     0.067 C 
ATOM     18  C   UNL A   1      34.374  21.422  24.768  1.00  0.00    -0.038 C 
ATOM     19  C   UNL A   1      32.362  20.086  24.905  1.00  0.00     0.224 C 
ATOM     20  C   UNL A   1      33.685  22.332  23.809  1.00  0.00     0.027 A 
ATOM     21  H   UNL A   1      35.389  21.243  24.810  1.00  0.00     0.064 H 
ATOM     22  O   UNL A   1      31.771  20.818  23.770  1.00  0.00    -0.475 OA
ATOM     23  H   UNL A   1      31.595  19.940  25.637  1.00  0.00     0.090 H 
ATOM     24  C   UNL A   1      32.399  21.979  23.373  1.00  0.00     0.128 A 
ATOM     25  C   UNL A   1      34.268  23.596  23.527  1.00  0.00     0.011 A 
ATOM     26  C   UNL A   1      31.660  22.896  22.638  1.00  0.00    -0.018 A 
ATOM     27  C   UNL A   1      33.489  24.515  22.819  1.00  0.00     0.049 A 
ATOM     28  C   UNL A   1      32.198  24.166  22.379  1.00  0.00    -0.039 A 
ATOM     29  H   UNL A   1      30.724  22.646  22.283  1.00  0.00     0.066 H 
ATOM     30  Cl  UNL A   1      34.030  26.129  22.533  1.00  0.00    -0.084 Cl
ATOM     31  H   UNL A   1      31.636  24.856  21.856  1.00  0.00     0.064 H 
BRANCH  19  32
ATOM     32  C   UNL A   1      32.859  18.686  24.463  1.00  0.00     0.429 C 
ATOM     33  F   UNL A   1      34.164  18.464  24.755  1.00  0.00    -0.167 F 
ATOM     34  F   UNL A   1      32.149  17.704  25.066  1.00  0.00    -0.167 F 
ATOM     35  F   UNL A   1      32.734  18.504  23.126  1.00  0.00    -0.167 F 
ENDBRANCH  19  32
BRANCH  25  36
ATOM     36  C   UNL A   1      35.592  23.848  24.141  1.00  0.00    -0.016 A 
ATOM     37  C   UNL A   1      35.649  24.406  25.431  1.00  0.00    -0.054 A 
ATOM     38  C   UNL A   1      36.699  23.114  23.676  1.00  0.00    -0.054 A 
ATOM     39  C   UNL A   1      36.701  24.085  26.291  1.00  0.00    -0.062 A 
ATOM     40  H   UNL A   1      34.911  25.055  25.742  1.00  0.00     0.063 H 
ATOM     41  C   UNL A   1      37.741  22.785  24.544  1.00  0.00    -0.062 A 
ATOM     42  H   UNL A   1      36.740  22.817  22.689  1.00  0.00     0.063 H 
ATOM     43  C   UNL A   1      37.721  23.240  25.861  1.00  0.00    -0.062 A 
ATOM     44  H   UNL A   1      36.722  24.475  27.247  1.00  0.00     0.062 H 
ATOM     45  H   UNL A   1      38.526  22.204  24.211  1.00  0.00     0.062 H 
ATOM     46  H   UNL A   1      38.463  22.950  26.518  1.00  0.00     0.062 H 
ENDBRANCH  25  36
ENDBRANCH  15  17
ENDBRANCH  10  13
ENDBRANCH   7  10
ENDBRANCH   4   7
ENDBRANCH   1   4
BRANCH   1  47
ATOM     47  C   UNL A   1      32.417  27.517  26.869  1.00  0.00    -0.036 C 
ATOM     48  H   UNL A   1      32.247  27.136  27.855  1.00  0.00     0.028 H 
ATOM     49  H   UNL A   1      31.695  28.234  26.540  1.00  0.00     0.028 H 
BRANCH  47  50
ATOM     50  C   UNL A   1      33.749  28.257  26.882  1.00  0.00     0.018 C 
ATOM     51  H   UNL A   1      34.154  28.247  25.891  1.00  0.00     0.049 H 
ATOM     52  H   UNL A   1      34.385  27.755  27.581  1.00  0.00     0.049 H 
BRANCH  50  53
ATOM     53  N   UNL A   1      33.636  29.639  27.318  1.00  0.00    -0.352 N 
ATOM     54  C   UNL A   1      34.524  30.436  27.994  1.00  0.00     0.251 C 
ATOM     55  H   UNL A   1      32.782  30.073  27.092  1.00  0.00     0.163 HD
ATOM     56  O   UNL A   1      34.165  31.554  28.375  1.00  0.00    -0.269 OA
BRANCH  54  57
ATOM     57  C   UNL A   1      35.900  29.979  28.302  1.00  0.00     0.039 A 
ATOM     58  C   UNL A   1      36.883  30.105  27.314  1.00  0.00    -0.049 A 
ATOM     59  C   UNL A   1      36.229  29.391  29.526  1.00  0.00    -0.049 A 
ATOM     60  C   UNL A   1      38.196  29.700  27.572  1.00  0.00    -0.053 A 
ATOM     61  H   UNL A   1      36.638  30.498  26.392  1.00  0.00     0.063 H 
ATOM     62  C   UNL A   1      37.555  29.065  29.813  1.00  0.00    -0.053 A 
ATOM     63  H   UNL A   1      35.490  29.198  30.219  1.00  0.00     0.063 H 
ATOM     64  C   UNL A   1      38.554  29.208  28.837  1.00  0.00    -0.014 A 
ATOM     65  H   UNL A   1      38.908  29.763  26.827  1.00  0.00     0.063 H 
ATOM     66  H   UNL A   1      37.805  28.715  30.751  1.00  0.00     0.063 H 
BRANCH  64  67
ATOM     67  C   UNL A   1      39.960  28.827  29.147  1.00  0.00     0.031 A 
ATOM     68  C   UNL A   1      40.853  29.771  29.907  1.00  0.00     0.074 A 
ATOM     69  C   UNL A   1      40.447  27.651  28.705  1.00  0.00     0.049 A 
ATOM     70  N   UNL A   1      42.120  29.644  30.220  1.00  0.00    -0.248 NA
ATOM     71  C   UNL A   1      40.253  31.037  30.354  1.00  0.00    -0.034 C 
ATOM     72  C   UNL A   1      39.699  26.665  27.924  1.00  0.00    -0.036 A 
ATOM     73  N   UNL A   1      41.693  27.087  28.841  1.00  0.00    -0.354 N 
ATOM     74  C   UNL A   1      42.464  30.811  30.888  1.00  0.00     0.074 A 
ATOM     75  C   UNL A   1      41.294  31.662  30.884  1.00  0.00    -0.034 C 
ATOM     76  H   UNL A   1      39.274  31.355  30.276  1.00  0.00     0.065 H 
ATOM     77  C   UNL A   1      40.490  25.611  27.671  1.00  0.00    -0.036 A 
ATOM     78  H   UNL A   1      38.719  26.765  27.617  1.00  0.00     0.065 H 
ATOM     79  C   UNL A   1      41.815  25.862  28.232  1.00  0.00     0.049 A 
ATOM     80  H   UNL A   1      42.430  27.521  29.330  1.00  0.00     0.167 HD
ATOM     81  C   UNL A   1      43.641  31.136  31.476  1.00  0.00     0.037 A 
ATOM     82  H   UNL A   1      41.273  32.628  31.246  1.00  0.00     0.065 H 
ATOM     83  H   UNL A   1      40.207  24.759  27.162  1.00  0.00     0.065 H 
ATOM     84  C   UNL A   1      42.875  25.038  28.127  1.00  0.00     0.037 A 
ATOM     85  C   UNL A   1      44.800  30.280  31.497  1.00  0.00     0.049 A 
ATOM     86  C   UNL A   1      44.179  25.433  28.771  1.00  0.00     0.074 A 
ATOM     87  C   UNL A   1      46.022  30.499  32.108  1.00  0.00    -0.036 A 
ATOM     88  N   UNL A   1      44.878  29.042  30.877  1.00  0.00    -0.354 N 
ATOM     89  N   UNL A   1      44.471  26.512  29.455  1.00  0.00    -0.248 NA
ATOM     90  C   UNL A   1      45.298  24.490  28.634  1.00  0.00    -0.034 C 
ATOM     91  C   UNL A   1      46.859  29.419  31.812  1.00  0.00    -0.036 A 
ATOM     92  H   UNL A   1      46.273  31.318  32.683  1.00  0.00     0.065 H 
ATOM     93  C   UNL A   1      46.139  28.497  31.070  1.00  0.00     0.049 A 
ATOM     94  H   UNL A   1      44.148  28.614  30.376  1.00  0.00     0.167 HD
ATOM     95  C   UNL A   1      45.793  26.363  29.856  1.00  0.00     0.074 A 
ATOM     96  C   UNL A   1      46.239  25.082  29.354  1.00  0.00    -0.034 C 
ATOM     97  H   UNL A   1      45.339  23.600  28.113  1.00  0.00     0.065 H 
ATOM     98  H   UNL A   1      47.847  29.324  32.097  1.00  0.00     0.065 H 
ATOM     99  C   UNL A   1      46.566  27.213  30.575  1.00  0.00     0.037 A 
ATOM    100  H   UNL A   1      47.173  24.679  29.534  1.00  0.00     0.065 H 
BRANCH  81 101
ATOM    101  C   UNL A   1      43.740  32.475  32.152  1.00  0.00     0.064 A 
ATOM    102  C   UNL A   1      44.142  33.624  31.453  1.00  0.00     0.173 A 
ATOM    103  C   UNL A   1      43.378  32.622  33.500  1.00  0.00     0.173 A 
ATOM    104  F   UNL A   1      44.508  33.538  30.165  1.00  0.00    -0.203 F 
ATOM    105  C   UNL A   1      44.206  34.864  32.086  1.00  0.00     0.198 A 
ATOM    106  C   UNL A   1      43.410  33.869  34.119  1.00  0.00     0.198 A 
ATOM    107  F   UNL A   1      42.980  31.559  34.213  1.00  0.00    -0.203 F 
ATOM    108  F   UNL A   1      44.640  35.937  31.410  1.00  0.00    -0.200 F 
ATOM    109  C   UNL A   1      43.832  34.987  33.415  1.00  0.00     0.200 A 
ATOM    110  F   UNL A   1      43.033  33.989  35.400  1.00  0.00    -0.200 F 
ATOM    111  F   UNL A   1      43.882  36.182  34.018  1.00  0.00    -0.200 F 
ENDBRANCH  81 101
BRANCH  84 112
ATOM    112  C   UNL A   1      42.753  23.750  27.391  1.00  0.00     0.064 A 
ATOM    113  C   UNL A   1      42.269  22.598  28.024  1.00  0.00     0.173 A 
ATOM    114  C   UNL A   1      43.140  23.639  26.047  1.00  0.00     0.173 A 
ATOM    115  F   UNL A   1      41.905  22.645  29.315  1.00  0.00    -0.203 F 
ATOM    116  C   UNL A   1      42.206  21.377  27.353  1.00  0.00     0.198 A 
ATOM    117  C   UNL A   1      43.045  22.427  25.367  1.00  0.00     0.198 A 
ATOM    118  F   UNL A   1      43.605  24.712  25.391  1.00  0.00    -0.203 F 
ATOM    119  F   UNL A   1      41.797  20.279  28.002  1.00  0.00    -0.200 F 
ATOM    120  C   UNL A   1      42.588  21.295  26.023  1.00  0.00     0.200 A 
ATOM    121  F   UNL A   1      43.401  22.356  24.077  1.00  0.00    -0.200 F 
ATOM    122  F   UNL A   1      42.530  20.122  25.378  1.00  0.00    -0.200 F 
ENDBRANCH  84 112
BRANCH  99 123
ATOM    123  C   UNL A   1      47.964  26.768  30.902  1.00  0.00     0.064 A 
ATOM    124  C   UNL A   1      48.245  25.977  32.026  1.00  0.00     0.173 A 
ATOM    125  C   UNL A   1      49.031  27.107  30.055  1.00  0.00     0.173 A 
ATOM    126  F   UNL A   1      47.264  25.638  32.876  1.00  0.00    -0.203 F 
ATOM    127  C   UNL A   1      49.546  25.567  32.306  1.00  0.00     0.198 A 
ATOM    128  C   UNL A   1      50.324  26.665  30.318  1.00  0.00     0.198 A 
ATOM    129  F   UNL A   1      48.817  27.854  28.962  1.00  0.00    -0.203 F 
ATOM    130  F   UNL A   1      49.798  24.858  33.414  1.00  0.00    -0.200 F 
ATOM    131  C   UNL A   1      50.582  25.904  31.448  1.00  0.00     0.200 A 
ATOM    132  F   UNL A   1      51.322  26.977  29.479  1.00  0.00    -0.200 F 
ATOM    133  F   UNL A   1      51.832  25.500  31.714  1.00  0.00    -0.200 F 
ENDBRANCH  99 123
ENDBRANCH  64  67
ENDBRANCH  54  57
ENDBRANCH  50  53
ENDBRANCH  47  50
ENDBRANCH   1  47
TORSDOF 15
ENDMDL
MODEL 3
REMARK VINA RESULT:     -12.1      3.406      8.495
REMARK SMILES O=C(NCCCCCCNC(=O)c1ccc(-c2c3nc(c(-c4c(F)c(F)c(F)c(F)c4F)c4ccc([nH]4)c(-c4c(F)c(F)c(F)c(F)c4F)c4nc(c(-c5c(F)c(F)c(F)c(F)c5F)c5ccc2[nH]5)C=C4)C=C3)cc1)C1=Cc2c(ccc(Cl)c2-c2ccccc2)O[C@H]1C(F)(F)F
REMARK SMILES IDX 7 1 6 4 5 7 4 10 3 13 1 14 2 15 76 17 77 18 92 19 78 20
REMARK SMILES IDX 91 22 79 24 84 25 80 26 82 27 81 28 83 30 93 32 94 33 95 34
REMARK SMILES IDX 96 35 85 36 86 37 90 38 87 39 89 41 88 43 8 47 9 50 10 53
REMARK SMILES IDX 11 54 12 56 13 57 14 58 75 59 15 60 74 62 16 64 17 67 18 68
REMARK SMILES IDX 68 69 19 70 73 71 67 72 69 73 20 74 72 75 66 77 65 79 21 81
REMARK SMILES IDX 53 84 33 85 52 86 34 87 37 88 51 89 70 90 35 91 36 93 50 95
REMARK SMILES IDX 71 96 38 99 22 101 23 102 31 103 24 104 25 105 29 106 32 107
REMARK SMILES IDX 26 108 27 109 30 110 28 111 54 112 55 113 63 114 56 115
REMARK SMILES IDX 57 116 61 117 64 118 58 119 59 120 62 121 60 122 39 123
REMARK SMILES IDX 40 124 48 125 41 126 42 127 46 128 49 129 43 130 44 131
REMARK SMILES IDX 47 132 45 133
REMARK H PARENT 7 2 7 3 6 5 6 6 5 8 5 9 4 11 4 12 3 16 77 21 92 23 80 29 81 31
REMARK H PARENT 86 40 90 42 87 44 89 45 88 46 8 48 8 49 9 51 9 52 10 55 14 61
REMARK H PARENT 75 63 15 65 74 66 73 76 67 78 69 80 72 82 66 83 34 92 37 94
REMARK H PARENT 70 97 35 98 71 100
REMARK Flexibility Score: inf
ROOT
ATOM      1  C   UNL A   1      36.748  19.168  24.975  1.00  0.00    -0.052 C 
ATOM      2  H   UNL A   1      36.448  18.572  24.138  1.00  0.00     0.027 H 
ATOM      3  H   UNL A   1      36.910  18.625  25.883  1.00  0.00     0.027 H 
ENDROOT
BRANCH   1   4
ATOM      4  C   UNL A   1      35.598  20.132  25.290  1.00  0.00    -0.052 C 
ATOM      5  H   UNL A   1      35.492  20.171  26.354  1.00  0.00     0.027 H 
ATOM      6  H   UNL A   1      35.878  21.055  24.826  1.00  0.00     0.027 H 
BRANCH   4   7
ATOM      7  C   UNL A   1      34.221  19.801  24.704  1.00  0.00    -0.036 C 
ATOM      8  H   UNL A   1      34.376  19.265  23.791  1.00  0.00     0.028 H 
ATOM      9  H   UNL A   1      33.716  19.243  25.466  1.00  0.00     0.028 H 
BRANCH   7  10
ATOM     10  C   UNL A   1      33.308  20.985  24.399  1.00  0.00     0.018 C 
ATOM     11  H   UNL A   1      33.771  21.571  23.633  1.00  0.00     0.049 H 
ATOM     12  H   UNL A   1      32.367  20.565  24.112  1.00  0.00     0.049 H 
BRANCH  10  13
ATOM     13  N   UNL A   1      33.025  21.861  25.519  1.00  0.00    -0.352 N 
ATOM     14  O   UNL A   1      33.184  23.686  26.823  1.00  0.00    -0.270 OA
ATOM     15  C   UNL A   1      33.518  23.109  25.790  1.00  0.00     0.251 C 
ATOM     16  H   UNL A   1      32.386  21.508  26.181  1.00  0.00     0.163 HD
BRANCH  15  17
ATOM     17  C   UNL A   1      34.430  23.798  24.850  1.00  0.00     0.067 C 
ATOM     18  C   UNL A   1      34.512  25.132  24.928  1.00  0.00    -0.038 C 
ATOM     19  C   UNL A   1      34.903  23.158  23.585  1.00  0.00     0.224 C 
ATOM     20  C   UNL A   1      33.710  25.712  23.813  1.00  0.00     0.027 A 
ATOM     21  H   UNL A   1      35.039  25.666  25.636  1.00  0.00     0.064 H 
ATOM     22  O   UNL A   1      34.343  23.828  22.396  1.00  0.00    -0.475 OA
ATOM     23  H   UNL A   1      34.544  22.150  23.593  1.00  0.00     0.090 H 
ATOM     24  C   UNL A   1      33.659  25.007  22.601  1.00  0.00     0.128 A 
ATOM     25  C   UNL A   1      32.886  26.838  24.078  1.00  0.00     0.011 A 
ATOM     26  C   UNL A   1      32.771  25.420  21.617  1.00  0.00    -0.018 A 
ATOM     27  C   UNL A   1      31.974  27.210  23.086  1.00  0.00     0.049 A 
ATOM     28  C   UNL A   1      31.919  26.505  21.868  1.00  0.00    -0.039 A 
ATOM     29  H   UNL A   1      32.739  24.933  20.707  1.00  0.00     0.066 H 
ATOM     30  Cl  UNL A   1      30.826  28.473  23.340  1.00  0.00    -0.084 Cl
ATOM     31  H   UNL A   1      31.241  26.793  21.145  1.00  0.00     0.064 H 
BRANCH  19  32
ATOM     32  C   UNL A   1      36.450  23.104  23.513  1.00  0.00     0.429 C 
ATOM     33  F   UNL A   1      37.042  23.036  24.731  1.00  0.00    -0.167 F 
ATOM     34  F   UNL A   1      36.867  22.023  22.813  1.00  0.00    -0.167 F 
ATOM     35  F   UNL A   1      36.967  24.198  22.903  1.00  0.00    -0.167 F 
ENDBRANCH  19  32
BRANCH  25  36
ATOM     36  C   UNL A   1      32.991  27.409  25.440  1.00  0.00    -0.016 A 
ATOM     37  C   UNL A   1      33.777  28.558  25.638  1.00  0.00    -0.054 A 
ATOM     38  C   UNL A   1      31.974  27.121  26.369  1.00  0.00    -0.054 A 
ATOM     39  C   UNL A   1      33.436  29.483  26.627  1.00  0.00    -0.062 A 
ATOM     40  H   UNL A   1      34.609  28.719  25.050  1.00  0.00     0.063 H 
ATOM     41  C   UNL A   1      31.629  28.055  27.348  1.00  0.00    -0.062 A 
ATOM     42  H   UNL A   1      31.481  26.216  26.327  1.00  0.00     0.063 H 
ATOM     43  C   UNL A   1      32.337  29.251  27.450  1.00  0.00    -0.062 A 
ATOM     44  H   UNL A   1      34.001  30.339  26.748  1.00  0.00     0.062 H 
ATOM     45  H   UNL A   1      30.850  27.860  27.994  1.00  0.00     0.062 H 
ATOM     46  H   UNL A   1      32.046  29.965  28.137  1.00  0.00     0.062 H 
ENDBRANCH  25  36
ENDBRANCH  15  17
ENDBRANCH  10  13
ENDBRANCH   7  10
ENDBRANCH   4   7
ENDBRANCH   1   4
BRANCH   1  47
ATOM     47  C   UNL A   1      38.106  19.786  24.637  1.00  0.00    -0.036 C 
ATOM     48  H   UNL A   1      37.926  20.728  24.164  1.00  0.00     0.028 H 
ATOM     49  H   UNL A   1      38.599  19.065  24.018  1.00  0.00     0.028 H 
BRANCH  47  50
ATOM     50  C   UNL A   1      39.051  20.028  25.809  1.00  0.00     0.018 C 
ATOM     51  H   UNL A   1      38.494  19.939  26.718  1.00  0.00     0.049 H 
ATOM     52  H   UNL A   1      39.466  21.006  25.684  1.00  0.00     0.049 H 
BRANCH  50  53
ATOM     53  N   UNL A   1      40.161  19.091  25.856  1.00  0.00    -0.352 N 
ATOM     54  C   UNL A   1      41.490  19.298  26.124  1.00  0.00     0.251 C 
ATOM     55  H   UNL A   1      39.920  18.157  25.662  1.00  0.00     0.163 HD
ATOM     56  O   UNL A   1      42.287  18.365  25.986  1.00  0.00    -0.269 OA
BRANCH  54  57
ATOM     57  C   UNL A   1      41.999  20.621  26.556  1.00  0.00     0.039 A 
ATOM     58  C   UNL A   1      42.386  21.542  25.575  1.00  0.00    -0.049 A 
ATOM     59  C   UNL A   1      42.143  20.956  27.905  1.00  0.00    -0.049 A 
ATOM     60  C   UNL A   1      42.855  22.806  25.943  1.00  0.00    -0.053 A 
ATOM     61  H   UNL A   1      42.324  21.286  24.577  1.00  0.00     0.063 H 
ATOM     62  C   UNL A   1      42.531  22.245  28.270  1.00  0.00    -0.053 A 
ATOM     63  H   UNL A   1      41.960  20.248  28.633  1.00  0.00     0.063 H 
ATOM     64  C   UNL A   1      42.900  23.184  27.294  1.00  0.00    -0.014 A 
ATOM     65  H   UNL A   1      43.171  23.467  25.215  1.00  0.00     0.063 H 
ATOM     66  H   UNL A   1      42.548  22.512  29.267  1.00  0.00     0.063 H 
BRANCH  64  67
ATOM     67  C   UNL A   1      43.342  24.547  27.699  1.00  0.00     0.031 A 
ATOM     68  C   UNL A   1      42.327  25.610  28.027  1.00  0.00     0.074 A 
ATOM     69  C   UNL A   1      44.656  24.843  27.728  1.00  0.00     0.049 A 
ATOM     70  N   UNL A   1      42.514  26.868  28.342  1.00  0.00    -0.248 NA
ATOM     71  C   UNL A   1      40.911  25.214  27.972  1.00  0.00    -0.034 C 
ATOM     72  C   UNL A   1      45.740  23.918  27.393  1.00  0.00    -0.036 A 
ATOM     73  N   UNL A   1      45.307  26.011  28.045  1.00  0.00    -0.354 N 
ATOM     74  C   UNL A   1      41.247  27.410  28.510  1.00  0.00     0.074 A 
ATOM     75  C   UNL A   1      40.296  26.364  28.206  1.00  0.00    -0.034 C 
ATOM     76  H   UNL A   1      40.503  24.282  27.797  1.00  0.00     0.065 H 
ATOM     77  C   UNL A   1      46.917  24.543  27.545  1.00  0.00    -0.036 A 
ATOM     78  H   UNL A   1      45.616  22.939  27.089  1.00  0.00     0.065 H 
ATOM     79  C   UNL A   1      46.675  25.927  27.944  1.00  0.00     0.049 A 
ATOM     80  H   UNL A   1      44.837  26.833  28.318  1.00  0.00     0.167 HD
ATOM     81  C   UNL A   1      40.906  28.659  28.909  1.00  0.00     0.037 A 
ATOM     82  H   UNL A   1      39.273  26.495  28.174  1.00  0.00     0.065 H 
ATOM     83  H   UNL A   1      47.845  24.115  27.402  1.00  0.00     0.065 H 
ATOM     84  C   UNL A   1      47.626  26.860  28.140  1.00  0.00     0.037 A 
ATOM     85  C   UNL A   1      41.854  29.695  29.232  1.00  0.00     0.049 A 
ATOM     86  C   UNL A   1      47.218  28.248  28.561  1.00  0.00     0.074 A 
ATOM     87  C   UNL A   1      41.607  30.977  29.691  1.00  0.00    -0.036 A 
ATOM     88  N   UNL A   1      43.231  29.565  29.127  1.00  0.00    -0.354 N 
ATOM     89  N   UNL A   1      46.018  28.728  28.779  1.00  0.00    -0.248 NA
ATOM     90  C   UNL A   1      48.299  29.221  28.772  1.00  0.00    -0.034 C 
ATOM     91  C   UNL A   1      42.832  31.642  29.812  1.00  0.00    -0.036 A 
ATOM     92  H   UNL A   1      40.680  31.374  29.908  1.00  0.00     0.065 H 
ATOM     93  C   UNL A   1      43.845  30.754  29.489  1.00  0.00     0.049 A 
ATOM     94  H   UNL A   1      43.702  28.751  28.839  1.00  0.00     0.167 HD
ATOM     95  C   UNL A   1      46.201  30.045  29.182  1.00  0.00     0.074 A 
ATOM     96  C   UNL A   1      47.628  30.282  29.196  1.00  0.00    -0.034 C 
ATOM     97  H   UNL A   1      49.315  29.108  28.627  1.00  0.00     0.065 H 
ATOM     98  H   UNL A   1      42.959  32.626  30.093  1.00  0.00     0.065 H 
ATOM     99  C   UNL A   1      45.269  30.973  29.510  1.00  0.00     0.037 A 
ATOM    100  H   UNL A   1      48.068  31.165  29.498  1.00  0.00     0.065 H 
BRANCH  81 101
ATOM    101  C   UNL A   1      39.442  28.981  29.024  1.00  0.00     0.064 A 
ATOM    102  C   UNL A   1      38.773  28.935  30.257  1.00  0.00     0.173 A 
ATOM    103  C   UNL A   1      38.711  29.392  27.898  1.00  0.00     0.173 A 
ATOM    104  F   UNL A   1      39.422  28.541  31.363  1.00  0.00    -0.203 F 
ATOM    105  C   UNL A   1      37.422  29.259  30.354  1.00  0.00     0.198 A 
ATOM    106  C   UNL A   1      37.369  29.748  28.004  1.00  0.00     0.198 A 
ATOM    107  F   UNL A   1      39.302  29.460  26.696  1.00  0.00    -0.203 F 
ATOM    108  F   UNL A   1      36.794  29.160  31.533  1.00  0.00    -0.200 F 
ATOM    109  C   UNL A   1      36.723  29.673  29.230  1.00  0.00     0.200 A 
ATOM    110  F   UNL A   1      36.700  30.164  26.920  1.00  0.00    -0.200 F 
ATOM    111  F   UNL A   1      35.427  29.997  29.327  1.00  0.00    -0.200 F 
ENDBRANCH  81 101
BRANCH  84 112
ATOM    112  C   UNL A   1      49.062  26.517  27.950  1.00  0.00     0.064 A 
ATOM    113  C   UNL A   1      49.900  26.279  29.047  1.00  0.00     0.173 A 
ATOM    114  C   UNL A   1      49.630  26.445  26.670  1.00  0.00     0.173 A 
ATOM    115  F   UNL A   1      49.410  26.356  30.293  1.00  0.00    -0.203 F 
ATOM    116  C   UNL A   1      51.258  26.012  28.874  1.00  0.00     0.198 A 
ATOM    117  C   UNL A   1      50.980  26.145  26.496  1.00  0.00     0.198 A 
ATOM    118  F   UNL A   1      48.873  26.659  25.584  1.00  0.00    -0.203 F 
ATOM    119  F   UNL A   1      52.048  25.848  29.944  1.00  0.00    -0.200 F 
ATOM    120  C   UNL A   1      51.795  25.940  27.598  1.00  0.00     0.200 A 
ATOM    121  F   UNL A   1      51.491  26.060  25.260  1.00  0.00    -0.200 F 
ATOM    122  F   UNL A   1      53.100  25.685  27.431  1.00  0.00    -0.200 F 
ENDBRANCH  84 112
BRANCH  99 123
ATOM    123  C   UNL A   1      45.763  32.321  29.956  1.00  0.00     0.064 A 
ATOM    124  C   UNL A   1      45.946  33.378  29.052  1.00  0.00     0.173 A 
ATOM    125  C   UNL A   1      46.019  32.567  31.314  1.00  0.00     0.173 A 
ATOM    126  F   UNL A   1      45.729  33.191  27.741  1.00  0.00    -0.203 F 
ATOM    127  C   UNL A   1      46.395  34.622  29.488  1.00  0.00     0.198 A 
ATOM    128  C   UNL A   1      46.433  33.822  31.750  1.00  0.00     0.198 A 
ATOM    129  F   UNL A   1      45.852  31.594  32.222  1.00  0.00    -0.203 F 
ATOM    130  F   UNL A   1      46.615  35.601  28.599  1.00  0.00    -0.200 F 
ATOM    131  C   UNL A   1      46.630  34.846  30.836  1.00  0.00     0.200 A 
ATOM    132  F   UNL A   1      46.643  34.041  33.056  1.00  0.00    -0.200 F 
ATOM    133  F   UNL A   1      47.053  36.047  31.254  1.00  0.00    -0.200 F 
ENDBRANCH  99 123
ENDBRANCH  64  67
ENDBRANCH  54  57
ENDBRANCH  50  53
ENDBRANCH  47  50
ENDBRANCH   1  47
TORSDOF 15
ENDMDL
MODEL 4
REMARK VINA RESULT:     -12.1      4.116      8.953
REMARK SMILES O=C(NCCCCCCNC(=O)c1ccc(-c2c3nc(c(-c4c(F)c(F)c(F)c(F)c4F)c4ccc([nH]4)c(-c4c(F)c(F)c(F)c(F)c4F)c4nc(c(-c5c(F)c(F)c(F)c(F)c5F)c5ccc2[nH]5)C=C4)C=C3)cc1)C1=Cc2c(ccc(Cl)c2-c2ccccc2)O[C@H]1C(F)(F)F
REMARK SMILES IDX 7 1 6 4 5 7 4 10 3 13 1 14 2 15 76 17 77 18 92 19 78 20
REMARK SMILES IDX 91 22 79 24 84 25 80 26 82 27 81 28 83 30 93 32 94 33 95 34
REMARK SMILES IDX 96 35 85 36 86 37 90 38 87 39 89 41 88 43 8 47 9 50 10 53
REMARK SMILES IDX 11 54 12 56 13 57 14 58 75 59 15 60 74 62 16 64 17 67 18 68
REMARK SMILES IDX 68 69 19 70 73 71 67 72 69 73 20 74 72 75 66 77 65 79 21 81
REMARK SMILES IDX 53 84 33 85 52 86 34 87 37 88 51 89 70 90 35 91 36 93 50 95
REMARK SMILES IDX 71 96 38 99 22 101 23 102 31 103 24 104 25 105 29 106 32 107
REMARK SMILES IDX 26 108 27 109 30 110 28 111 54 112 55 113 63 114 56 115
REMARK SMILES IDX 57 116 61 117 64 118 58 119 59 120 62 121 60 122 39 123
REMARK SMILES IDX 40 124 48 125 41 126 42 127 46 128 49 129 43 130 44 131
REMARK SMILES IDX 47 132 45 133
REMARK H PARENT 7 2 7 3 6 5 6 6 5 8 5 9 4 11 4 12 3 16 77 21 92 23 80 29 81 31
REMARK H PARENT 86 40 90 42 87 44 89 45 88 46 8 48 8 49 9 51 9 52 10 55 14 61
REMARK H PARENT 75 63 15 65 74 66 73 76 67 78 69 80 72 82 66 83 34 92 37 94
REMARK H PARENT 70 97 35 98 71 100
REMARK Flexibility Score: inf
ROOT
ATOM      1  C   UNL A   1      31.516  28.336  27.045  1.00  0.00    -0.052 C 
ATOM      2  H   UNL A   1      32.286  28.620  27.732  1.00  0.00     0.027 H 
ATOM      3  H   UNL A   1      30.519  28.557  27.366  1.00  0.00     0.027 H 
ENDROOT
BRANCH   1   4
ATOM      4  C   UNL A   1      31.558  26.809  26.909  1.00  0.00    -0.052 C 
ATOM      5  H   UNL A   1      32.497  26.552  26.464  1.00  0.00     0.027 H 
ATOM      6  H   UNL A   1      31.410  26.440  27.903  1.00  0.00     0.027 H 
BRANCH   4   7
ATOM      7  C   UNL A   1      30.457  26.146  26.076  1.00  0.00    -0.036 C 
ATOM      8  H   UNL A   1      29.520  26.553  26.391  1.00  0.00     0.028 H 
ATOM      9  H   UNL A   1      30.711  26.353  25.056  1.00  0.00     0.028 H 
BRANCH   7  10
ATOM     10  C   UNL A   1      30.357  24.626  26.166  1.00  0.00     0.018 C 
ATOM     11  H   UNL A   1      29.393  24.381  26.559  1.00  0.00     0.049 H 
ATOM     12  H   UNL A   1      30.525  24.261  25.174  1.00  0.00     0.049 H 
BRANCH  10  13
ATOM     13  N   UNL A   1      31.354  23.982  26.998  1.00  0.00    -0.352 N 
ATOM     14  O   UNL A   1      33.287  22.952  27.506  1.00  0.00    -0.270 OA
ATOM     15  C   UNL A   1      32.593  23.508  26.658  1.00  0.00     0.251 C 
ATOM     16  H   UNL A   1      31.106  23.869  27.945  1.00  0.00     0.163 HD
BRANCH  15  17
ATOM     17  C   UNL A   1      33.132  23.672  25.289  1.00  0.00     0.067 C 
ATOM     18  C   UNL A   1      33.179  22.588  24.506  1.00  0.00    -0.038 C 
ATOM     19  C   UNL A   1      33.998  24.829  24.908  1.00  0.00     0.224 C 
ATOM     20  C   UNL A   1      34.586  22.097  24.479  1.00  0.00     0.027 A 
ATOM     21  H   UNL A   1      32.382  22.167  24.007  1.00  0.00     0.064 H 
ATOM     22  O   UNL A   1      35.380  24.401  24.621  1.00  0.00    -0.475 OA
ATOM     23  H   UNL A   1      34.027  25.488  25.750  1.00  0.00     0.090 H 
ATOM     24  C   UNL A   1      35.618  23.044  24.555  1.00  0.00     0.128 A 
ATOM     25  C   UNL A   1      34.824  20.699  24.569  1.00  0.00     0.011 A 
ATOM     26  C   UNL A   1      36.925  22.608  24.727  1.00  0.00    -0.018 A 
ATOM     27  C   UNL A   1      36.143  20.287  24.780  1.00  0.00     0.049 A 
ATOM     28  C   UNL A   1      37.182  21.235  24.857  1.00  0.00    -0.039 A 
ATOM     29  H   UNL A   1      37.701  23.287  24.756  1.00  0.00     0.066 H 
ATOM     30  Cl  UNL A   1      36.542  18.629  25.042  1.00  0.00    -0.084 Cl
ATOM     31  H   UNL A   1      38.151  20.915  25.011  1.00  0.00     0.064 H 
BRANCH  19  32
ATOM     32  C   UNL A   1      33.404  25.620  23.715  1.00  0.00     0.429 C 
ATOM     33  F   UNL A   1      32.119  25.291  23.440  1.00  0.00    -0.167 F 
ATOM     34  F   UNL A   1      33.426  26.952  23.956  1.00  0.00    -0.167 F 
ATOM     35  F   UNL A   1      34.102  25.412  22.572  1.00  0.00    -0.167 F 
ENDBRANCH  19  32
BRANCH  25  36
ATOM     36  C   UNL A   1      33.619  19.838  24.568  1.00  0.00    -0.016 A 
ATOM     37  C   UNL A   1      33.228  19.215  23.371  1.00  0.00    -0.054 A 
ATOM     38  C   UNL A   1      33.192  19.281  25.788  1.00  0.00    -0.054 A 
ATOM     39  C   UNL A   1      32.588  17.975  23.398  1.00  0.00    -0.062 A 
ATOM     40  H   UNL A   1      33.416  19.675  22.467  1.00  0.00     0.063 H 
ATOM     41  C   UNL A   1      32.564  18.034  25.811  1.00  0.00    -0.062 A 
ATOM     42  H   UNL A   1      33.344  19.795  26.669  1.00  0.00     0.063 H 
ATOM     43  C   UNL A   1      32.297  17.366  24.617  1.00  0.00    -0.062 A 
ATOM     44  H   UNL A   1      32.329  17.508  22.514  1.00  0.00     0.062 H 
ATOM     45  H   UNL A   1      32.298  17.608  26.711  1.00  0.00     0.062 H 
ATOM     46  H   UNL A   1      31.883  16.421  24.637  1.00  0.00     0.062 H 
ENDBRANCH  25  36
ENDBRANCH  15  17
ENDBRANCH  10  13
ENDBRANCH   7  10
ENDBRANCH   4   7
ENDBRANCH   1   4
BRANCH   1  47
ATOM     47  C   UNL A   1      31.712  29.158  25.770  1.00  0.00    -0.036 C 
ATOM     48  H   UNL A   1      30.853  29.787  25.654  1.00  0.00     0.028 H 
ATOM     49  H   UNL A   1      31.845  28.441  24.988  1.00  0.00     0.028 H 
BRANCH  47  50
ATOM     50  C   UNL A   1      32.949  30.047  25.719  1.00  0.00     0.018 C 
ATOM     51  H   UNL A   1      33.278  30.116  24.703  1.00  0.00     0.049 H 
ATOM     52  H   UNL A   1      33.687  29.600  26.352  1.00  0.00     0.049 H 
BRANCH  50  53
ATOM     53  N   UNL A   1      32.713  31.392  26.219  1.00  0.00    -0.352 N 
ATOM     54  C   UNL A   1      33.347  32.100  27.207  1.00  0.00     0.251 C 
ATOM     55  H   UNL A   1      31.976  31.872  25.776  1.00  0.00     0.163 HD
ATOM     56  O   UNL A   1      32.894  33.194  27.553  1.00  0.00    -0.269 OA
BRANCH  54  57
ATOM     57  C   UNL A   1      34.553  31.572  27.889  1.00  0.00     0.039 A 
ATOM     58  C   UNL A   1      35.655  32.420  28.051  1.00  0.00    -0.049 A 
ATOM     59  C   UNL A   1      34.635  30.250  28.332  1.00  0.00    -0.049 A 
ATOM     60  C   UNL A   1      36.804  31.964  28.703  1.00  0.00    -0.053 A 
ATOM     61  H   UNL A   1      35.619  33.385  27.687  1.00  0.00     0.063 H 
ATOM     62  C   UNL A   1      35.747  29.821  29.057  1.00  0.00    -0.053 A 
ATOM     63  H   UNL A   1      33.869  29.590  28.124  1.00  0.00     0.063 H 
ATOM     64  C   UNL A   1      36.849  30.669  29.244  1.00  0.00    -0.014 A 
ATOM     65  H   UNL A   1      37.625  32.583  28.788  1.00  0.00     0.063 H 
ATOM     66  H   UNL A   1      35.760  28.870  29.458  1.00  0.00     0.063 H 
BRANCH  64  67
ATOM     67  C   UNL A   1      38.042  30.187  29.992  1.00  0.00     0.031 A 
ATOM     68  C   UNL A   1      38.296  30.654  31.402  1.00  0.00     0.074 A 
ATOM     69  C   UNL A   1      38.924  29.365  29.390  1.00  0.00     0.049 A 
ATOM     70  N   UNL A   1      39.308  30.394  32.193  1.00  0.00    -0.248 NA
ATOM     71  C   UNL A   1      37.292  31.552  31.993  1.00  0.00    -0.034 C 
ATOM     72  C   UNL A   1      38.817  28.872  28.016  1.00  0.00    -0.036 A 
ATOM     73  N   UNL A   1      40.091  28.806  29.851  1.00  0.00    -0.354 N 
ATOM     74  C   UNL A   1      39.066  31.100  33.363  1.00  0.00     0.074 A 
ATOM     75  C   UNL A   1      37.844  31.848  33.161  1.00  0.00    -0.034 C 
ATOM     76  H   UNL A   1      36.392  31.868  31.601  1.00  0.00     0.065 H 
ATOM     77  C   UNL A   1      39.858  28.067  27.754  1.00  0.00    -0.036 A 
ATOM     78  H   UNL A   1      38.060  29.106  27.354  1.00  0.00     0.065 H 
ATOM     79  C   UNL A   1      40.732  28.021  28.923  1.00  0.00     0.049 A 
ATOM     80  H   UNL A   1      40.437  28.954  30.761  1.00  0.00     0.167 HD
ATOM     81  C   UNL A   1      39.781  31.105  34.514  1.00  0.00     0.037 A 
ATOM     82  H   UNL A   1      37.454  32.524  33.836  1.00  0.00     0.065 H 
ATOM     83  H   UNL A   1      40.017  27.562  26.868  1.00  0.00     0.065 H 
ATOM     84  C   UNL A   1      41.896  27.348  29.000  1.00  0.00     0.037 A 
ATOM     85  C   UNL A   1      40.987  30.344  34.722  1.00  0.00     0.049 A 
ATOM     86  C   UNL A   1      42.684  27.388  30.284  1.00  0.00     0.074 A 
ATOM     87  C   UNL A   1      41.756  30.245  35.868  1.00  0.00    -0.036 A 
ATOM     88  N   UNL A   1      41.596  29.552  33.761  1.00  0.00    -0.354 N 
ATOM     89  N   UNL A   1      42.409  28.009  31.405  1.00  0.00    -0.248 NA
ATOM     90  C   UNL A   1      43.940  26.626  30.315  1.00  0.00    -0.034 C 
ATOM     91  C   UNL A   1      42.863  29.438  35.584  1.00  0.00    -0.036 A 
ATOM     92  H   UNL A   1      41.550  30.690  36.776  1.00  0.00     0.065 H 
ATOM     93  C   UNL A   1      42.749  28.982  34.281  1.00  0.00     0.049 A 
ATOM     94  H   UNL A   1      41.262  29.415  32.846  1.00  0.00     0.167 HD
ATOM     95  C   UNL A   1      43.438  27.688  32.282  1.00  0.00     0.074 A 
ATOM     96  C   UNL A   1      44.332  26.802  31.569  1.00  0.00    -0.034 C 
ATOM     97  H   UNL A   1      44.397  26.093  29.558  1.00  0.00     0.065 H 
ATOM     98  H   UNL A   1      43.633  29.219  36.234  1.00  0.00     0.065 H 
ATOM     99  C   UNL A   1      43.624  28.091  33.563  1.00  0.00     0.037 A 
ATOM    100  H   UNL A   1      45.170  26.363  31.983  1.00  0.00     0.065 H 
BRANCH  81 101
ATOM    101  C   UNL A   1      39.281  31.958  35.646  1.00  0.00     0.064 A 
ATOM    102  C   UNL A   1      38.404  31.452  36.618  1.00  0.00     0.173 A 
ATOM    103  C   UNL A   1      39.722  33.283  35.790  1.00  0.00     0.173 A 
ATOM    104  F   UNL A   1      37.945  30.195  36.524  1.00  0.00    -0.203 F 
ATOM    105  C   UNL A   1      37.967  32.246  37.675  1.00  0.00     0.198 A 
ATOM    106  C   UNL A   1      39.310  34.064  36.866  1.00  0.00     0.198 A 
ATOM    107  F   UNL A   1      40.565  33.817  34.893  1.00  0.00    -0.203 F 
ATOM    108  F   UNL A   1      37.093  31.754  38.564  1.00  0.00    -0.200 F 
ATOM    109  C   UNL A   1      38.426  33.548  37.804  1.00  0.00     0.200 A 
ATOM    110  F   UNL A   1      39.767  35.317  36.998  1.00  0.00    -0.200 F 
ATOM    111  F   UNL A   1      38.015  34.307  38.828  1.00  0.00    -0.200 F 
ENDBRANCH  81 101
BRANCH  84 112
ATOM    112  C   UNL A   1      42.389  26.568  27.833  1.00  0.00     0.064 A 
ATOM    113  C   UNL A   1      43.275  27.134  26.907  1.00  0.00     0.173 A 
ATOM    114  C   UNL A   1      41.966  25.250  27.606  1.00  0.00     0.173 A 
ATOM    115  F   UNL A   1      43.694  28.399  27.066  1.00  0.00    -0.203 F 
ATOM    116  C   UNL A   1      43.695  26.425  25.782  1.00  0.00     0.198 A 
ATOM    117  C   UNL A   1      42.413  24.530  26.500  1.00  0.00     0.198 A 
ATOM    118  F   UNL A   1      41.122  24.657  28.463  1.00  0.00    -0.203 F 
ATOM    119  F   UNL A   1      44.495  27.012  24.882  1.00  0.00    -0.200 F 
ATOM    120  C   UNL A   1      43.268  25.121  25.584  1.00  0.00     0.200 A 
ATOM    121  F   UNL A   1      42.010  23.264  26.320  1.00  0.00    -0.200 F 
ATOM    122  F   UNL A   1      43.670  24.439  24.502  1.00  0.00    -0.200 F 
ENDBRANCH  84 112
BRANCH  99 123
ATOM    123  C   UNL A   1      44.818  27.545  34.294  1.00  0.00     0.064 A 
ATOM    124  C   UNL A   1      44.764  26.333  34.998  1.00  0.00     0.173 A 
ATOM    125  C   UNL A   1      46.045  28.226  34.255  1.00  0.00     0.173 A 
ATOM    126  F   UNL A   1      43.612  25.649  35.079  1.00  0.00    -0.203 F 
ATOM    127  C   UNL A   1      45.885  25.839  35.660  1.00  0.00     0.198 A 
ATOM    128  C   UNL A   1      47.172  27.712  34.888  1.00  0.00     0.198 A 
ATOM    129  F   UNL A   1      46.154  29.385  33.588  1.00  0.00    -0.203 F 
ATOM    130  F   UNL A   1      45.794  24.707  36.372  1.00  0.00    -0.200 F 
ATOM    131  C   UNL A   1      47.089  26.524  35.598  1.00  0.00     0.200 A 
ATOM    132  F   UNL A   1      48.339  28.366  34.812  1.00  0.00    -0.200 F 
ATOM    133  F   UNL A   1      48.169  26.042  36.228  1.00  0.00    -0.200 F 
ENDBRANCH  99 123
ENDBRANCH  64  67
ENDBRANCH  54  57
ENDBRANCH  50  53
ENDBRANCH  47  50
ENDBRANCH   1  47
TORSDOF 15
ENDMDL
MODEL 5
REMARK VINA RESULT:     -12.0      3.643      8.809
REMARK SMILES O=C(NCCCCCCNC(=O)c1ccc(-c2c3nc(c(-c4c(F)c(F)c(F)c(F)c4F)c4ccc([nH]4)c(-c4c(F)c(F)c(F)c(F)c4F)c4nc(c(-c5c(F)c(F)c(F)c(F)c5F)c5ccc2[nH]5)C=C4)C=C3)cc1)C1=Cc2c(ccc(Cl)c2-c2ccccc2)O[C@H]1C(F)(F)F
REMARK SMILES IDX 7 1 6 4 5 7 4 10 3 13 1 14 2 15 76 17 77 18 92 19 78 20
REMARK SMILES IDX 91 22 79 24 84 25 80 26 82 27 81 28 83 30 93 32 94 33 95 34
REMARK SMILES IDX 96 35 85 36 86 37 90 38 87 39 89 41 88 43 8 47 9 50 10 53
REMARK SMILES IDX 11 54 12 56 13 57 14 58 75 59 15 60 74 62 16 64 17 67 18 68
REMARK SMILES IDX 68 69 19 70 73 71 67 72 69 73 20 74 72 75 66 77 65 79 21 81
REMARK SMILES IDX 53 84 33 85 52 86 34 87 37 88 51 89 70 90 35 91 36 93 50 95
REMARK SMILES IDX 71 96 38 99 22 101 23 102 31 103 24 104 25 105 29 106 32 107
REMARK SMILES IDX 26 108 27 109 30 110 28 111 54 112 55 113 63 114 56 115
REMARK SMILES IDX 57 116 61 117 64 118 58 119 59 120 62 121 60 122 39 123
REMARK SMILES IDX 40 124 48 125 41 126 42 127 46 128 49 129 43 130 44 131
REMARK SMILES IDX 47 132 45 133
REMARK H PARENT 7 2 7 3 6 5 6 6 5 8 5 9 4 11 4 12 3 16 77 21 92 23 80 29 81 31
REMARK H PARENT 86 40 90 42 87 44 89 45 88 46 8 48 8 49 9 51 9 52 10 55 14 61
REMARK H PARENT 75 63 15 65 74 66 73 76 67 78 69 80 72 82 66 83 34 92 37 94
REMARK H PARENT 70 97 35 98 71 100
REMARK Flexibility Score: inf
ROOT
ATOM      1  C   UNL A   1      31.716  27.937  25.648  1.00  0.00    -0.052 C 
ATOM      2  H   UNL A   1      31.195  28.851  25.839  1.00  0.00     0.027 H 
ATOM      3  H   UNL A   1      31.626  27.564  24.648  1.00  0.00     0.027 H 
ENDROOT
BRANCH   1   4
ATOM      4  C   UNL A   1      31.089  26.854  26.533  1.00  0.00    -0.052 C 
ATOM      5  H   UNL A   1      31.878  26.210  26.862  1.00  0.00     0.027 H 
ATOM      6  H   UNL A   1      30.586  27.392  27.311  1.00  0.00     0.027 H 
BRANCH   4   7
ATOM      7  C   UNL A   1      30.007  25.970  25.905  1.00  0.00    -0.036 C 
ATOM      8  H   UNL A   1      29.101  26.125  26.452  1.00  0.00     0.028 H 
ATOM      9  H   UNL A   1      29.961  26.267  24.877  1.00  0.00     0.028 H 
BRANCH   7  10
ATOM     10  C   UNL A   1      30.283  24.469  25.880  1.00  0.00     0.018 C 
ATOM     11  H   UNL A   1      29.391  23.964  26.185  1.00  0.00     0.049 H 
ATOM     12  H   UNL A   1      30.586  24.243  24.878  1.00  0.00     0.049 H 
BRANCH  10  13
ATOM     13  N   UNL A   1      31.365  24.018  26.733  1.00  0.00    -0.352 N 
ATOM     14  O   UNL A   1      33.402  23.229  27.264  1.00  0.00    -0.270 OA
ATOM     15  C   UNL A   1      32.629  23.619  26.391  1.00  0.00     0.251 C 
ATOM     16  H   UNL A   1      31.162  23.996  27.696  1.00  0.00     0.163 HD
BRANCH  15  17
ATOM     17  C   UNL A   1      33.101  23.667  24.989  1.00  0.00     0.067 C 
ATOM     18  C   UNL A   1      33.144  22.517  24.307  1.00  0.00    -0.038 C 
ATOM     19  C   UNL A   1      33.915  24.805  24.462  1.00  0.00     0.224 C 
ATOM     20  C   UNL A   1      34.562  22.060  24.259  1.00  0.00     0.027 A 
ATOM     21  H   UNL A   1      32.338  22.031  23.887  1.00  0.00     0.064 H 
ATOM     22  O   UNL A   1      35.294  24.386  24.150  1.00  0.00    -0.475 OA
ATOM     23  H   UNL A   1      33.963  25.540  25.237  1.00  0.00     0.090 H 
ATOM     24  C   UNL A   1      35.569  23.036  24.198  1.00  0.00     0.128 A 
ATOM     25  C   UNL A   1      34.844  20.683  24.465  1.00  0.00     0.011 A 
ATOM     26  C   UNL A   1      36.894  22.649  24.347  1.00  0.00    -0.018 A 
ATOM     27  C   UNL A   1      36.183  20.325  24.650  1.00  0.00     0.049 A 
ATOM     28  C   UNL A   1      37.196  21.302  24.590  1.00  0.00    -0.039 A 
ATOM     29  H   UNL A   1      37.651  23.348  24.277  1.00  0.00     0.066 H 
ATOM     30  Cl  UNL A   1      36.642  18.709  25.045  1.00  0.00    -0.084 Cl
ATOM     31  H   UNL A   1      38.180  21.021  24.727  1.00  0.00     0.064 H 
BRANCH  19  32
ATOM     32  C   UNL A   1      33.245  25.466  23.231  1.00  0.00     0.429 C 
ATOM     33  F   UNL A   1      33.443  24.779  22.079  1.00  0.00    -0.167 F 
ATOM     34  F   UNL A   1      31.906  25.569  23.402  1.00  0.00    -0.167 F 
ATOM     35  F   UNL A   1      33.715  26.718  23.010  1.00  0.00    -0.167 F 
ENDBRANCH  19  32
BRANCH  25  36
ATOM     36  C   UNL A   1      33.667  19.796  24.602  1.00  0.00    -0.016 A 
ATOM     37  C   UNL A   1      33.280  19.004  23.506  1.00  0.00    -0.054 A 
ATOM     38  C   UNL A   1      33.272  19.398  25.893  1.00  0.00    -0.054 A 
ATOM     39  C   UNL A   1      32.678  17.762  23.713  1.00  0.00    -0.062 A 
ATOM     40  H   UNL A   1      33.442  19.342  22.546  1.00  0.00     0.063 H 
ATOM     41  C   UNL A   1      32.681  18.149  26.095  1.00  0.00    -0.062 A 
ATOM     42  H   UNL A   1      33.418  20.032  26.693  1.00  0.00     0.063 H 
ATOM     43  C   UNL A   1      32.420  17.318  25.008  1.00  0.00    -0.062 A 
ATOM     44  H   UNL A   1      32.422  17.172  22.905  1.00  0.00     0.062 H 
ATOM     45  H   UNL A   1      32.440  17.842  27.049  1.00  0.00     0.062 H 
ATOM     46  H   UNL A   1      32.036  16.372  25.163  1.00  0.00     0.062 H 
ENDBRANCH  25  36
ENDBRANCH  15  17
ENDBRANCH  10  13
ENDBRANCH   7  10
ENDBRANCH   4   7
ENDBRANCH   1   4
BRANCH   1  47
ATOM     47  C   UNL A   1      33.210  28.213  25.831  1.00  0.00    -0.036 C 
ATOM     48  H   UNL A   1      33.464  29.052  25.217  1.00  0.00     0.028 H 
ATOM     49  H   UNL A   1      33.702  27.301  25.563  1.00  0.00     0.028 H 
BRANCH  47  50
ATOM     50  C   UNL A   1      33.673  28.520  27.251  1.00  0.00     0.018 C 
ATOM     51  H   UNL A   1      34.677  28.166  27.366  1.00  0.00     0.049 H 
ATOM     52  H   UNL A   1      32.995  28.031  27.918  1.00  0.00     0.049 H 
BRANCH  50  53
ATOM     53  N   UNL A   1      33.645  29.937  27.572  1.00  0.00    -0.352 N 
ATOM     54  C   UNL A   1      34.592  30.737  28.158  1.00  0.00     0.251 C 
ATOM     55  H   UNL A   1      32.809  30.397  27.330  1.00  0.00     0.163 HD
ATOM     56  O   UNL A   1      34.304  31.901  28.451  1.00  0.00    -0.269 OA
BRANCH  54  57
ATOM     57  C   UNL A   1      35.950  30.231  28.472  1.00  0.00     0.039 A 
ATOM     58  C   UNL A   1      36.948  30.345  27.498  1.00  0.00    -0.049 A 
ATOM     59  C   UNL A   1      36.247  29.611  29.688  1.00  0.00    -0.049 A 
ATOM     60  C   UNL A   1      38.245  29.895  27.762  1.00  0.00    -0.053 A 
ATOM     61  H   UNL A   1      36.726  30.763  26.580  1.00  0.00     0.063 H 
ATOM     62  C   UNL A   1      37.558  29.239  29.984  1.00  0.00    -0.053 A 
ATOM     63  H   UNL A   1      35.494  29.428  30.370  1.00  0.00     0.063 H 
ATOM     64  C   UNL A   1      38.572  29.368  29.022  1.00  0.00    -0.014 A 
ATOM     65  H   UNL A   1      38.967  29.950  27.027  1.00  0.00     0.063 H 
ATOM     66  H   UNL A   1      37.786  28.864  30.918  1.00  0.00     0.063 H 
BRANCH  64  67
ATOM     67  C   UNL A   1      39.962  28.938  29.340  1.00  0.00     0.031 A 
ATOM     68  C   UNL A   1      40.873  29.836  30.135  1.00  0.00     0.074 A 
ATOM     69  C   UNL A   1      40.421  27.759  28.875  1.00  0.00     0.049 A 
ATOM     70  N   UNL A   1      42.130  29.663  30.461  1.00  0.00    -0.248 NA
ATOM     71  C   UNL A   1      40.304  31.107  30.607  1.00  0.00    -0.034 C 
ATOM     72  C   UNL A   1      39.654  26.816  28.059  1.00  0.00    -0.036 A 
ATOM     73  N   UNL A   1      41.647  27.155  29.013  1.00  0.00    -0.354 N 
ATOM     74  C   UNL A   1      42.500  30.803  31.163  1.00  0.00     0.074 A 
ATOM     75  C   UNL A   1      41.356  31.687  31.166  1.00  0.00    -0.034 C 
ATOM     76  H   UNL A   1      39.336  31.457  30.525  1.00  0.00     0.065 H 
ATOM     77  C   UNL A   1      40.417  25.745  27.790  1.00  0.00    -0.036 A 
ATOM     78  H   UNL A   1      38.682  26.953  27.743  1.00  0.00     0.065 H 
ATOM     79  C   UNL A   1      41.741  25.942  28.374  1.00  0.00     0.049 A 
ATOM     80  H   UNL A   1      42.390  27.555  29.521  1.00  0.00     0.167 HD
ATOM     81  C   UNL A   1      43.678  31.077  31.774  1.00  0.00     0.037 A 
ATOM     82  H   UNL A   1      41.358  32.644  31.551  1.00  0.00     0.065 H 
ATOM     83  H   UNL A   1      40.116  24.915  27.255  1.00  0.00     0.065 H 
ATOM     84  C   UNL A   1      42.777  25.090  28.261  1.00  0.00     0.037 A 
ATOM     85  C   UNL A   1      44.811  30.187  31.788  1.00  0.00     0.049 A 
ATOM     86  C   UNL A   1      44.084  25.430  28.932  1.00  0.00     0.074 A 
ATOM     87  C   UNL A   1      46.031  30.354  32.420  1.00  0.00    -0.036 A 
ATOM     88  N   UNL A   1      44.861  28.962  31.138  1.00  0.00    -0.354 N 
ATOM     89  N   UNL A   1      44.399  26.482  29.647  1.00  0.00    -0.248 NA
ATOM     90  C   UNL A   1      45.176  24.458  28.785  1.00  0.00    -0.034 C 
ATOM     91  C   UNL A   1      46.839  29.257  32.107  1.00  0.00    -0.036 A 
ATOM     92  H   UNL A   1      46.298  31.150  33.019  1.00  0.00     0.065 H 
ATOM     93  C   UNL A   1      46.102  28.375  31.334  1.00  0.00     0.049 A 
ATOM     94  H   UNL A   1      44.125  28.569  30.617  1.00  0.00     0.167 HD
ATOM     95  C   UNL A   1      45.710  26.284  30.061  1.00  0.00     0.074 A 
ATOM     96  C   UNL A   1      46.125  25.003  29.533  1.00  0.00    -0.034 C 
ATOM     97  H   UNL A   1      45.198  23.580  28.243  1.00  0.00     0.065 H 
ATOM     98  H   UNL A   1      47.820  29.126  32.402  1.00  0.00     0.065 H 
ATOM     99  C   UNL A   1      46.498  27.093  30.811  1.00  0.00     0.037 A 
ATOM    100  H   UNL A   1      47.043  24.568  29.714  1.00  0.00     0.065 H 
BRANCH  81 101
ATOM    101  C   UNL A   1      43.807  32.395  32.485  1.00  0.00     0.064 A 
ATOM    102  C   UNL A   1      43.469  32.537  33.840  1.00  0.00     0.173 A 
ATOM    103  C   UNL A   1      44.324  33.517  31.818  1.00  0.00     0.173 A 
ATOM    104  F   UNL A   1      42.962  31.499  34.521  1.00  0.00    -0.203 F 
ATOM    105  C   UNL A   1      43.616  33.759  34.492  1.00  0.00     0.198 A 
ATOM    106  C   UNL A   1      44.502  34.728  32.483  1.00  0.00     0.198 A 
ATOM    107  F   UNL A   1      44.670  33.437  30.525  1.00  0.00    -0.203 F 
ATOM    108  F   UNL A   1      43.240  33.881  35.773  1.00  0.00    -0.200 F 
ATOM    109  C   UNL A   1      44.140  34.850  33.817  1.00  0.00     0.200 A 
ATOM    110  F   UNL A   1      45.024  35.778  31.834  1.00  0.00    -0.200 F 
ATOM    111  F   UNL A   1      44.293  36.021  34.450  1.00  0.00    -0.200 F 
ENDBRANCH  81 101
BRANCH  84 112
ATOM    112  C   UNL A   1      42.627  23.825  27.492  1.00  0.00     0.064 A 
ATOM    113  C   UNL A   1      42.223  22.640  28.119  1.00  0.00     0.173 A 
ATOM    114  C   UNL A   1      42.909  23.771  26.119  1.00  0.00     0.173 A 
ATOM    115  F   UNL A   1      41.962  22.634  29.435  1.00  0.00    -0.203 F 
ATOM    116  C   UNL A   1      42.135  21.441  27.411  1.00  0.00     0.198 A 
ATOM    117  C   UNL A   1      42.788  22.580  25.405  1.00  0.00     0.198 A 
ATOM    118  F   UNL A   1      43.296  24.877  25.466  1.00  0.00    -0.203 F 
ATOM    119  F   UNL A   1      41.804  20.311  28.051  1.00  0.00    -0.200 F 
ATOM    120  C   UNL A   1      42.412  21.415  26.053  1.00  0.00     0.200 A 
ATOM    121  F   UNL A   1      43.043  22.562  24.089  1.00  0.00    -0.200 F 
ATOM    122  F   UNL A   1      42.330  20.263  25.373  1.00  0.00    -0.200 F 
ENDBRANCH  84 112
BRANCH  99 123
ATOM    123  C   UNL A   1      47.877  26.598  31.145  1.00  0.00     0.064 A 
ATOM    124  C   UNL A   1      48.124  25.793  32.267  1.00  0.00     0.173 A 
ATOM    125  C   UNL A   1      48.961  26.903  30.306  1.00  0.00     0.173 A 
ATOM    126  F   UNL A   1      47.126  25.485  33.110  1.00  0.00    -0.203 F 
ATOM    127  C   UNL A   1      49.408  25.337  32.553  1.00  0.00     0.198 A 
ATOM    128  C   UNL A   1      50.236  26.415  30.575  1.00  0.00     0.198 A 
ATOM    129  F   UNL A   1      48.779  27.661  29.215  1.00  0.00    -0.203 F 
ATOM    130  F   UNL A   1      49.629  24.615  33.660  1.00  0.00    -0.200 F 
ATOM    131  C   UNL A   1      50.461  25.641  31.703  1.00  0.00     0.200 A 
ATOM    132  F   UNL A   1      51.249  26.695  29.743  1.00  0.00    -0.200 F 
ATOM    133  F   UNL A   1      51.694  25.193  31.974  1.00  0.00    -0.200 F 
ENDBRANCH  99 123
ENDBRANCH  64  67
ENDBRANCH  54  57
ENDBRANCH  50  53
ENDBRANCH  47  50
ENDBRANCH   1  47
TORSDOF 15
ENDMDL
MODEL 6
REMARK VINA RESULT:     -11.9      4.345      6.812
REMARK SMILES O=C(NCCCCCCNC(=O)c1ccc(-c2c3nc(c(-c4c(F)c(F)c(F)c(F)c4F)c4ccc([nH]4)c(-c4c(F)c(F)c(F)c(F)c4F)c4nc(c(-c5c(F)c(F)c(F)c(F)c5F)c5ccc2[nH]5)C=C4)C=C3)cc1)C1=Cc2c(ccc(Cl)c2-c2ccccc2)O[C@H]1C(F)(F)F
REMARK SMILES IDX 7 1 6 4 5 7 4 10 3 13 1 14 2 15 76 17 77 18 92 19 78 20
REMARK SMILES IDX 91 22 79 24 84 25 80 26 82 27 81 28 83 30 93 32 94 33 95 34
REMARK SMILES IDX 96 35 85 36 86 37 90 38 87 39 89 41 88 43 8 47 9 50 10 53
REMARK SMILES IDX 11 54 12 56 13 57 14 58 75 59 15 60 74 62 16 64 17 67 18 68
REMARK SMILES IDX 68 69 19 70 73 71 67 72 69 73 20 74 72 75 66 77 65 79 21 81
REMARK SMILES IDX 53 84 33 85 52 86 34 87 37 88 51 89 70 90 35 91 36 93 50 95
REMARK SMILES IDX 71 96 38 99 22 101 23 102 31 103 24 104 25 105 29 106 32 107
REMARK SMILES IDX 26 108 27 109 30 110 28 111 54 112 55 113 63 114 56 115
REMARK SMILES IDX 57 116 61 117 64 118 58 119 59 120 62 121 60 122 39 123
REMARK SMILES IDX 40 124 48 125 41 126 42 127 46 128 49 129 43 130 44 131
REMARK SMILES IDX 47 132 45 133
REMARK H PARENT 7 2 7 3 6 5 6 6 5 8 5 9 4 11 4 12 3 16 77 21 92 23 80 29 81 31
REMARK H PARENT 86 40 90 42 87 44 89 45 88 46 8 48 8 49 9 51 9 52 10 55 14 61
REMARK H PARENT 75 63 15 65 74 66 73 76 67 78 69 80 72 82 66 83 34 92 37 94
REMARK H PARENT 70 97 35 98 71 100
REMARK Flexibility Score: inf
ROOT
ATOM      1  C   UNL A   1      41.097  21.135  26.920  1.00  0.00    -0.052 C 
ATOM      2  H   UNL A   1      40.431  20.932  27.732  1.00  0.00     0.027 H 
ATOM      3  H   UNL A   1      42.091  21.411  27.207  1.00  0.00     0.027 H 
ENDROOT
BRANCH   1   4
ATOM      4  C   UNL A   1      40.549  22.353  26.168  1.00  0.00    -0.052 C 
ATOM      5  H   UNL A   1      41.366  23.023  25.999  1.00  0.00     0.027 H 
ATOM      6  H   UNL A   1      40.099  21.951  25.283  1.00  0.00     0.027 H 
BRANCH   4   7
ATOM      7  C   UNL A   1      39.432  23.155  26.845  1.00  0.00    -0.036 C 
ATOM      8  H   UNL A   1      39.346  22.807  27.853  1.00  0.00     0.028 H 
ATOM      9  H   UNL A   1      39.725  24.181  26.753  1.00  0.00     0.028 H 
BRANCH   7  10
ATOM     10  C   UNL A   1      38.049  23.071  26.205  1.00  0.00     0.018 C 
ATOM     11  H   UNL A   1      37.333  22.916  26.985  1.00  0.00     0.049 H 
ATOM     12  H   UNL A   1      37.915  23.990  25.673  1.00  0.00     0.049 H 
BRANCH  10  13
ATOM     13  N   UNL A   1      37.876  22.017  25.225  1.00  0.00    -0.352 N 
ATOM     14  O   UNL A   1      36.782  20.528  23.945  1.00  0.00    -0.270 OA
ATOM     15  C   UNL A   1      36.722  21.449  24.758  1.00  0.00     0.251 C 
ATOM     16  H   UNL A   1      38.709  21.658  24.839  1.00  0.00     0.163 HD
BRANCH  15  17
ATOM     17  C   UNL A   1      35.393  21.934  25.191  1.00  0.00     0.067 C 
ATOM     18  C   UNL A   1      34.464  21.018  25.491  1.00  0.00    -0.038 C 
ATOM     19  C   UNL A   1      34.916  23.320  24.896  1.00  0.00     0.224 C 
ATOM     20  C   UNL A   1      33.518  20.925  24.343  1.00  0.00     0.027 A 
ATOM     21  H   UNL A   1      34.411  20.473  26.364  1.00  0.00     0.064 H 
ATOM     22  O   UNL A   1      33.798  23.315  23.935  1.00  0.00    -0.475 OA
ATOM     23  H   UNL A   1      35.734  23.842  24.446  1.00  0.00     0.090 H 
ATOM     24  C   UNL A   1      33.248  22.092  23.613  1.00  0.00     0.128 A 
ATOM     25  C   UNL A   1      33.080  19.641  23.921  1.00  0.00     0.011 A 
ATOM     26  C   UNL A   1      32.529  21.998  22.430  1.00  0.00    -0.018 A 
ATOM     27  C   UNL A   1      32.390  19.568  22.707  1.00  0.00     0.049 A 
ATOM     28  C   UNL A   1      32.118  20.737  21.971  1.00  0.00    -0.039 A 
ATOM     29  H   UNL A   1      32.296  22.848  21.892  1.00  0.00     0.066 H 
ATOM     30  Cl  UNL A   1      31.926  18.055  22.020  1.00  0.00    -0.084 Cl
ATOM     31  H   UNL A   1      31.606  20.666  21.077  1.00  0.00     0.064 H 
BRANCH  19  32
ATOM     32  C   UNL A   1      34.531  24.080  26.191  1.00  0.00     0.429 C 
ATOM     33  F   UNL A   1      35.110  23.570  27.305  1.00  0.00    -0.167 F 
ATOM     34  F   UNL A   1      34.898  25.381  26.118  1.00  0.00    -0.167 F 
ATOM     35  F   UNL A   1      33.194  24.056  26.413  1.00  0.00    -0.167 F 
ENDBRANCH  19  32
BRANCH  25  36
ATOM     36  C   UNL A   1      33.529  18.501  24.752  1.00  0.00    -0.016 A 
ATOM     37  C   UNL A   1      32.598  17.859  25.588  1.00  0.00    -0.054 A 
ATOM     38  C   UNL A   1      34.677  17.791  24.353  1.00  0.00    -0.054 A 
ATOM     39  C   UNL A   1      32.721  16.496  25.864  1.00  0.00    -0.062 A 
ATOM     40  H   UNL A   1      31.820  18.398  25.999  1.00  0.00     0.063 H 
ATOM     41  C   UNL A   1      34.789  16.425  24.621  1.00  0.00    -0.062 A 
ATOM     42  H   UNL A   1      35.439  18.281  23.861  1.00  0.00     0.063 H 
ATOM     43  C   UNL A   1      33.792  15.773  25.344  1.00  0.00    -0.062 A 
ATOM     44  H   UNL A   1      32.018  16.024  26.455  1.00  0.00     0.062 H 
ATOM     45  H   UNL A   1      35.609  15.899  24.283  1.00  0.00     0.062 H 
ATOM     46  H   UNL A   1      33.847  14.753  25.493  1.00  0.00     0.062 H 
ENDBRANCH  25  36
ENDBRANCH  15  17
ENDBRANCH  10  13
ENDBRANCH   7  10
ENDBRANCH   4   7
ENDBRANCH   1   4
BRANCH   1  47
ATOM     47  C   UNL A   1      41.262  19.838  26.125  1.00  0.00    -0.036 C 
ATOM     48  H   UNL A   1      41.346  20.099  25.091  1.00  0.00     0.028 H 
ATOM     49  H   UNL A   1      40.403  19.247  26.365  1.00  0.00     0.028 H 
BRANCH  47  50
ATOM     50  C   UNL A   1      42.463  18.971  26.484  1.00  0.00     0.018 C 
ATOM     51  H   UNL A   1      42.107  18.051  26.899  1.00  0.00     0.049 H 
ATOM     52  H   UNL A   1      43.056  19.524  27.182  1.00  0.00     0.049 H 
BRANCH  50  53
ATOM     53  N   UNL A   1      43.313  18.664  25.346  1.00  0.00    -0.352 N 
ATOM     54  C   UNL A   1      44.155  19.468  24.620  1.00  0.00     0.251 C 
ATOM     55  H   UNL A   1      43.277  17.727  25.046  1.00  0.00     0.163 HD
ATOM     56  O   UNL A   1      44.692  19.019  23.604  1.00  0.00    -0.269 OA
BRANCH  54  57
ATOM     57  C   UNL A   1      44.419  20.872  25.013  1.00  0.00     0.039 A 
ATOM     58  C   UNL A   1      43.898  21.899  24.218  1.00  0.00    -0.049 A 
ATOM     59  C   UNL A   1      45.203  21.196  26.123  1.00  0.00    -0.049 A 
ATOM     60  C   UNL A   1      44.112  23.236  24.565  1.00  0.00    -0.053 A 
ATOM     61  H   UNL A   1      43.354  21.669  23.371  1.00  0.00     0.063 H 
ATOM     62  C   UNL A   1      45.346  22.526  26.517  1.00  0.00    -0.053 A 
ATOM     63  H   UNL A   1      45.677  20.448  26.654  1.00  0.00     0.063 H 
ATOM     64  C   UNL A   1      44.809  23.564  25.739  1.00  0.00    -0.014 A 
ATOM     65  H   UNL A   1      43.754  23.988  23.955  1.00  0.00     0.063 H 
ATOM     66  H   UNL A   1      45.851  22.751  27.388  1.00  0.00     0.063 H 
BRANCH  64  67
ATOM     67  C   UNL A   1      44.995  24.981  26.154  1.00  0.00     0.031 A 
ATOM     68  C   UNL A   1      46.349  25.633  26.049  1.00  0.00     0.074 A 
ATOM     69  C   UNL A   1      43.957  25.670  26.669  1.00  0.00     0.049 A 
ATOM     70  N   UNL A   1      46.722  26.835  26.415  1.00  0.00    -0.248 NA
ATOM     71  C   UNL A   1      47.434  24.820  25.480  1.00  0.00    -0.034 C 
ATOM     72  C   UNL A   1      42.606  25.143  26.863  1.00  0.00    -0.036 A 
ATOM     73  N   UNL A   1      43.878  26.960  27.134  1.00  0.00    -0.354 N 
ATOM     74  C   UNL A   1      48.078  26.915  26.130  1.00  0.00     0.074 A 
ATOM     75  C   UNL A   1      48.479  25.623  25.617  1.00  0.00    -0.034 C 
ATOM     76  H   UNL A   1      47.392  23.870  25.078  1.00  0.00     0.065 H 
ATOM     77  C   UNL A   1      41.828  26.105  27.382  1.00  0.00    -0.036 A 
ATOM     78  H   UNL A   1      42.300  24.184  26.635  1.00  0.00     0.065 H 
ATOM     79  C   UNL A   1      42.632  27.304  27.601  1.00  0.00     0.049 A 
ATOM     80  H   UNL A   1      44.642  27.581  27.134  1.00  0.00     0.167 HD
ATOM     81  C   UNL A   1      48.910  27.977  26.258  1.00  0.00     0.037 A 
ATOM     82  H   UNL A   1      49.450  25.361  25.388  1.00  0.00     0.065 H 
ATOM     83  H   UNL A   1      40.821  26.012  27.593  1.00  0.00     0.065 H 
ATOM     84  C   UNL A   1      42.189  28.449  28.154  1.00  0.00     0.037 A 
ATOM     85  C   UNL A   1      48.506  29.269  26.749  1.00  0.00     0.049 A 
ATOM     86  C   UNL A   1      43.142  29.608  28.305  1.00  0.00     0.074 A 
ATOM     87  C   UNL A   1      49.264  30.421  26.871  1.00  0.00    -0.036 A 
ATOM     88  N   UNL A   1      47.232  29.578  27.202  1.00  0.00    -0.354 N 
ATOM     89  N   UNL A   1      44.407  29.689  27.972  1.00  0.00    -0.248 NA
ATOM     90  C   UNL A   1      42.601  30.836  28.904  1.00  0.00    -0.034 C 
ATOM     91  C   UNL A   1      48.465  31.412  27.448  1.00  0.00    -0.036 A 
ATOM     92  H   UNL A   1      50.249  30.530  26.584  1.00  0.00     0.065 H 
ATOM     93  C   UNL A   1      47.191  30.898  27.628  1.00  0.00     0.049 A 
ATOM     94  H   UNL A   1      46.471  28.955  27.218  1.00  0.00     0.167 HD
ATOM     95  C   UNL A   1      44.802  30.982  28.288  1.00  0.00     0.074 A 
ATOM     96  C   UNL A   1      43.640  31.655  28.824  1.00  0.00    -0.034 C 
ATOM     97  H   UNL A   1      41.659  31.014  29.286  1.00  0.00     0.065 H 
ATOM     98  H   UNL A   1      48.771  32.365  27.699  1.00  0.00     0.065 H 
ATOM     99  C   UNL A   1      46.021  31.559  28.148  1.00  0.00     0.037 A 
ATOM    100  H   UNL A   1      43.620  32.648  29.107  1.00  0.00     0.065 H 
BRANCH  81 101
ATOM    101  C   UNL A   1      50.347  27.791  25.857  1.00  0.00     0.064 A 
ATOM    102  C   UNL A   1      50.748  27.839  24.512  1.00  0.00     0.173 A 
ATOM    103  C   UNL A   1      51.343  27.616  26.831  1.00  0.00     0.173 A 
ATOM    104  F   UNL A   1      49.836  27.995  23.541  1.00  0.00    -0.203 F 
ATOM    105  C   UNL A   1      52.087  27.690  24.157  1.00  0.00     0.198 A 
ATOM    106  C   UNL A   1      52.684  27.502  26.473  1.00  0.00     0.198 A 
ATOM    107  F   UNL A   1      51.017  27.570  28.131  1.00  0.00    -0.203 F 
ATOM    108  F   UNL A   1      52.438  27.690  22.863  1.00  0.00    -0.200 F 
ATOM    109  C   UNL A   1      53.054  27.530  25.137  1.00  0.00     0.200 A 
ATOM    110  F   UNL A   1      53.619  27.363  27.423  1.00  0.00    -0.200 F 
ATOM    111  F   UNL A   1      54.342  27.399  24.794  1.00  0.00    -0.200 F 
ENDBRANCH  81 101
BRANCH  84 112
ATOM    112  C   UNL A   1      40.774  28.569  28.599  1.00  0.00     0.064 A 
ATOM    113  C   UNL A   1      39.774  29.009  27.722  1.00  0.00     0.173 A 
ATOM    114  C   UNL A   1      40.398  28.269  29.917  1.00  0.00     0.173 A 
ATOM    115  F   UNL A   1      40.086  29.328  26.457  1.00  0.00    -0.203 F 
ATOM    116  C   UNL A   1      38.458  29.175  28.152  1.00  0.00     0.198 A 
ATOM    117  C   UNL A   1      39.076  28.402  30.337  1.00  0.00     0.198 A 
ATOM    118  F   UNL A   1      41.314  27.839  30.797  1.00  0.00    -0.203 F 
ATOM    119  F   UNL A   1      37.536  29.654  27.307  1.00  0.00    -0.200 F 
ATOM    120  C   UNL A   1      38.110  28.865  29.458  1.00  0.00     0.200 A 
ATOM    121  F   UNL A   1      38.740  28.087  31.596  1.00  0.00    -0.200 F 
ATOM    122  F   UNL A   1      36.845  29.026  29.872  1.00  0.00    -0.200 F 
ENDBRANCH  84 112
BRANCH  99 123
ATOM    123  C   UNL A   1      46.152  33.005  28.538  1.00  0.00     0.064 A 
ATOM    124  C   UNL A   1      45.913  34.042  27.626  1.00  0.00     0.173 A 
ATOM    125  C   UNL A   1      46.482  33.354  29.857  1.00  0.00     0.173 A 
ATOM    126  F   UNL A   1      45.609  33.763  26.349  1.00  0.00    -0.203 F 
ATOM    127  C   UNL A   1      46.030  35.376  28.011  1.00  0.00     0.198 A 
ATOM    128  C   UNL A   1      46.563  34.688  30.248  1.00  0.00     0.198 A 
ATOM    129  F   UNL A   1      46.712  32.401  30.773  1.00  0.00    -0.203 F 
ATOM    130  F   UNL A   1      45.851  36.349  27.107  1.00  0.00    -0.200 F 
ATOM    131  C   UNL A   1      46.346  35.697  29.322  1.00  0.00     0.200 A 
ATOM    132  F   UNL A   1      46.851  34.996  31.519  1.00  0.00    -0.200 F 
ATOM    133  F   UNL A   1      46.448  36.981  29.693  1.00  0.00    -0.200 F 
ENDBRANCH  99 123
ENDBRANCH  64  67
ENDBRANCH  54  57
ENDBRANCH  50  53
ENDBRANCH  47  50
ENDBRANCH   1  47
TORSDOF 15
ENDMDL
MODEL 7
REMARK VINA RESULT:     -11.9      4.137      9.030
REMARK SMILES O=C(NCCCCCCNC(=O)c1ccc(-c2c3nc(c(-c4c(F)c(F)c(F)c(F)c4F)c4ccc([nH]4)c(-c4c(F)c(F)c(F)c(F)c4F)c4nc(c(-c5c(F)c(F)c(F)c(F)c5F)c5ccc2[nH]5)C=C4)C=C3)cc1)C1=Cc2c(ccc(Cl)c2-c2ccccc2)O[C@H]1C(F)(F)F
REMARK SMILES IDX 7 1 6 4 5 7 4 10 3 13 1 14 2 15 76 17 77 18 92 19 78 20
REMARK SMILES IDX 91 22 79 24 84 25 80 26 82 27 81 28 83 30 93 32 94 33 95 34
REMARK SMILES IDX 96 35 85 36 86 37 90 38 87 39 89 41 88 43 8 47 9 50 10 53
REMARK SMILES IDX 11 54 12 56 13 57 14 58 75 59 15 60 74 62 16 64 17 67 18 68
REMARK SMILES IDX 68 69 19 70 73 71 67 72 69 73 20 74 72 75 66 77 65 79 21 81
REMARK SMILES IDX 53 84 33 85 52 86 34 87 37 88 51 89 70 90 35 91 36 93 50 95
REMARK SMILES IDX 71 96 38 99 22 101 23 102 31 103 24 104 25 105 29 106 32 107
REMARK SMILES IDX 26 108 27 109 30 110 28 111 54 112 55 113 63 114 56 115
REMARK SMILES IDX 57 116 61 117 64 118 58 119 59 120 62 121 60 122 39 123
REMARK SMILES IDX 40 124 48 125 41 126 42 127 46 128 49 129 43 130 44 131
REMARK SMILES IDX 47 132 45 133
REMARK H PARENT 7 2 7 3 6 5 6 6 5 8 5 9 4 11 4 12 3 16 77 21 92 23 80 29 81 31
REMARK H PARENT 86 40 90 42 87 44 89 45 88 46 8 48 8 49 9 51 9 52 10 55 14 61
REMARK H PARENT 75 63 15 65 74 66 73 76 67 78 69 80 72 82 66 83 34 92 37 94
REMARK H PARENT 70 97 35 98 71 100
REMARK Flexibility Score: inf
ROOT
ATOM      1  C   UNL A   1      31.315  28.009  25.787  1.00  0.00    -0.052 C 
ATOM      2  H   UNL A   1      30.385  28.285  25.335  1.00  0.00     0.027 H 
ATOM      3  H   UNL A   1      32.118  27.832  25.101  1.00  0.00     0.027 H 
ENDROOT
BRANCH   1   4
ATOM      4  C   UNL A   1      31.101  26.668  26.499  1.00  0.00    -0.052 C 
ATOM      5  H   UNL A   1      32.027  26.133  26.464  1.00  0.00     0.027 H 
ATOM      6  H   UNL A   1      30.763  26.929  27.481  1.00  0.00     0.027 H 
BRANCH   4   7
ATOM      7  C   UNL A   1      30.014  25.741  25.944  1.00  0.00    -0.036 C 
ATOM      8  H   UNL A   1      29.106  25.953  26.470  1.00  0.00     0.028 H 
ATOM      9  H   UNL A   1      29.977  25.946  24.894  1.00  0.00     0.028 H 
BRANCH   7  10
ATOM     10  C   UNL A   1      30.276  24.242  26.054  1.00  0.00     0.018 C 
ATOM     11  H   UNL A   1      29.378  23.774  26.400  1.00  0.00     0.049 H 
ATOM     12  H   UNL A   1      30.579  23.925  25.078  1.00  0.00     0.049 H 
BRANCH  10  13
ATOM     13  N   UNL A   1      31.351  23.859  26.948  1.00  0.00    -0.352 N 
ATOM     14  O   UNL A   1      33.426  23.249  27.561  1.00  0.00    -0.270 OA
ATOM     15  C   UNL A   1      32.665  23.603  26.662  1.00  0.00     0.251 C 
ATOM     16  H   UNL A   1      31.101  23.771  27.897  1.00  0.00     0.163 HD
BRANCH  15  17
ATOM     17  C   UNL A   1      33.203  23.765  25.293  1.00  0.00     0.067 C 
ATOM     18  C   UNL A   1      33.227  22.686  24.503  1.00  0.00    -0.038 C 
ATOM     19  C   UNL A   1      34.091  24.907  24.917  1.00  0.00     0.224 C 
ATOM     20  C   UNL A   1      34.623  22.167  24.468  1.00  0.00     0.027 A 
ATOM     21  H   UNL A   1      32.419  22.284  24.003  1.00  0.00     0.064 H 
ATOM     22  O   UNL A   1      35.463  24.453  24.623  1.00  0.00    -0.475 OA
ATOM     23  H   UNL A   1      34.136  25.560  25.764  1.00  0.00     0.090 H 
ATOM     24  C   UNL A   1      35.674  23.093  24.547  1.00  0.00     0.128 A 
ATOM     25  C   UNL A   1      34.833  20.764  24.547  1.00  0.00     0.011 A 
ATOM     26  C   UNL A   1      36.972  22.629  24.711  1.00  0.00    -0.018 A 
ATOM     27  C   UNL A   1      36.145  20.324  24.751  1.00  0.00     0.049 A 
ATOM     28  C   UNL A   1      37.202  21.251  24.831  1.00  0.00    -0.039 A 
ATOM     29  H   UNL A   1      37.762  23.293  24.743  1.00  0.00     0.066 H 
ATOM     30  Cl  UNL A   1      36.511  18.657  25.001  1.00  0.00    -0.084 Cl
ATOM     31  H   UNL A   1      38.165  20.910  24.980  1.00  0.00     0.064 H 
BRANCH  19  32
ATOM     32  C   UNL A   1      33.510  25.718  23.731  1.00  0.00     0.429 C 
ATOM     33  F   UNL A   1      32.165  25.602  23.610  1.00  0.00    -0.167 F 
ATOM     34  F   UNL A   1      33.779  27.038  23.866  1.00  0.00    -0.167 F 
ATOM     35  F   UNL A   1      34.032  25.325  22.544  1.00  0.00    -0.167 F 
ENDBRANCH  19  32
BRANCH  25  36
ATOM     36  C   UNL A   1      33.612  19.927  24.545  1.00  0.00    -0.016 A 
ATOM     37  C   UNL A   1      33.191  19.339  23.339  1.00  0.00    -0.054 A 
ATOM     38  C   UNL A   1      33.191  19.351  25.758  1.00  0.00    -0.054 A 
ATOM     39  C   UNL A   1      32.526  18.112  23.348  1.00  0.00    -0.062 A 
ATOM     40  H   UNL A   1      33.375  19.816  22.444  1.00  0.00     0.063 H 
ATOM     41  C   UNL A   1      32.538  18.117  25.762  1.00  0.00    -0.062 A 
ATOM     42  H   UNL A   1      33.365  19.842  26.648  1.00  0.00     0.063 H 
ATOM     43  C   UNL A   1      32.241  17.482  24.557  1.00  0.00    -0.062 A 
ATOM     44  H   UNL A   1      32.246  17.671  22.458  1.00  0.00     0.062 H 
ATOM     45  H   UNL A   1      32.276  17.675  26.656  1.00  0.00     0.062 H 
ATOM     46  H   UNL A   1      31.808  16.544  24.562  1.00  0.00     0.062 H 
ENDBRANCH  25  36
ENDBRANCH  15  17
ENDBRANCH  10  13
ENDBRANCH   7  10
ENDBRANCH   4   7
ENDBRANCH   1   4
BRANCH   1  47
ATOM     47  C   UNL A   1      31.780  29.189  26.642  1.00  0.00    -0.036 C 
ATOM     48  H   UNL A   1      32.160  28.795  27.561  1.00  0.00     0.028 H 
ATOM     49  H   UNL A   1      30.920  29.817  26.749  1.00  0.00     0.028 H 
BRANCH  47  50
ATOM     50  C   UNL A   1      32.860  30.080  26.038  1.00  0.00     0.018 C 
ATOM     51  H   UNL A   1      32.784  30.030  24.971  1.00  0.00     0.049 H 
ATOM     52  H   UNL A   1      33.803  29.720  26.392  1.00  0.00     0.049 H 
BRANCH  50  53
ATOM     53  N   UNL A   1      32.751  31.471  26.443  1.00  0.00    -0.352 N 
ATOM     54  C   UNL A   1      33.487  32.198  27.344  1.00  0.00     0.251 C 
ATOM     55  H   UNL A   1      32.030  31.974  25.999  1.00  0.00     0.163 HD
ATOM     56  O   UNL A   1      33.135  33.347  27.625  1.00  0.00    -0.269 OA
BRANCH  54  57
ATOM     57  C   UNL A   1      34.683  31.628  28.008  1.00  0.00     0.039 A 
ATOM     58  C   UNL A   1      35.817  32.436  28.152  1.00  0.00    -0.049 A 
ATOM     59  C   UNL A   1      34.725  30.304  28.452  1.00  0.00    -0.049 A 
ATOM     60  C   UNL A   1      36.959  31.940  28.787  1.00  0.00    -0.053 A 
ATOM     61  H   UNL A   1      35.810  33.402  27.788  1.00  0.00     0.063 H 
ATOM     62  C   UNL A   1      35.832  29.836  29.160  1.00  0.00    -0.053 A 
ATOM     63  H   UNL A   1      33.933  29.671  28.256  1.00  0.00     0.063 H 
ATOM     64  C   UNL A   1      36.966  30.645  29.329  1.00  0.00    -0.014 A 
ATOM     65  H   UNL A   1      37.803  32.530  28.859  1.00  0.00     0.063 H 
ATOM     66  H   UNL A   1      35.818  28.886  29.562  1.00  0.00     0.063 H 
BRANCH  64  67
ATOM     67  C   UNL A   1      38.153  30.121  30.060  1.00  0.00     0.031 A 
ATOM     68  C   UNL A   1      38.441  30.576  31.467  1.00  0.00     0.074 A 
ATOM     69  C   UNL A   1      38.998  29.272  29.444  1.00  0.00     0.049 A 
ATOM     70  N   UNL A   1      39.454  30.280  32.244  1.00  0.00    -0.248 NA
ATOM     71  C   UNL A   1      37.476  31.505  32.074  1.00  0.00    -0.034 C 
ATOM     72  C   UNL A   1      38.856  28.786  28.070  1.00  0.00    -0.036 A 
ATOM     73  N   UNL A   1      40.152  28.673  29.887  1.00  0.00    -0.354 N 
ATOM     74  C   UNL A   1      39.252  30.991  33.419  1.00  0.00     0.074 A 
ATOM     75  C   UNL A   1      38.054  31.780  33.235  1.00  0.00    -0.034 C 
ATOM     76  H   UNL A   1      36.582  31.853  31.695  1.00  0.00     0.065 H 
ATOM     77  C   UNL A   1      39.866  27.948  27.792  1.00  0.00    -0.036 A 
ATOM     78  H   UNL A   1      38.098  29.047  27.420  1.00  0.00     0.065 H 
ATOM     79  C   UNL A   1      40.753  27.869  28.950  1.00  0.00     0.049 A 
ATOM     80  H   UNL A   1      40.515  28.807  30.793  1.00  0.00     0.167 HD
ATOM     81  C   UNL A   1      39.984  30.969  34.559  1.00  0.00     0.037 A 
ATOM     82  H   UNL A   1      37.696  32.467  33.916  1.00  0.00     0.065 H 
ATOM     83  H   UNL A   1      39.995  27.440  26.903  1.00  0.00     0.065 H 
ATOM     84  C   UNL A   1      41.895  27.157  29.009  1.00  0.00     0.037 A 
ATOM     85  C   UNL A   1      41.165  30.167  34.749  1.00  0.00     0.049 A 
ATOM     86  C   UNL A   1      42.701  27.167  30.282  1.00  0.00     0.074 A 
ATOM     87  C   UNL A   1      41.947  30.040  35.885  1.00  0.00    -0.036 A 
ATOM     88  N   UNL A   1      41.735  29.358  33.778  1.00  0.00    -0.354 N 
ATOM     89  N   UNL A   1      42.463  27.795  31.408  1.00  0.00    -0.248 NA
ATOM     90  C   UNL A   1      43.931  26.363  30.294  1.00  0.00    -0.034 C 
ATOM     91  C   UNL A   1      43.022  29.197  35.583  1.00  0.00    -0.036 A 
ATOM     92  H   UNL A   1      41.768  30.489  36.796  1.00  0.00     0.065 H 
ATOM     93  C   UNL A   1      42.875  28.748  34.281  1.00  0.00     0.049 A 
ATOM     94  H   UNL A   1      41.383  29.235  32.867  1.00  0.00     0.167 HD
ATOM     95  C   UNL A   1      43.492  27.437  32.270  1.00  0.00     0.074 A 
ATOM     96  C   UNL A   1      44.347  26.524  31.542  1.00  0.00    -0.034 C 
ATOM     97  H   UNL A   1      44.360  25.817  29.530  1.00  0.00     0.065 H 
ATOM     98  H   UNL A   1      43.794  28.951  36.222  1.00  0.00     0.065 H 
ATOM     99  C   UNL A   1      43.709  27.830  33.549  1.00  0.00     0.037 A 
ATOM    100  H   UNL A   1      45.174  26.055  31.944  1.00  0.00     0.065 H 
BRANCH  81 101
ATOM    101  C   UNL A   1      39.527  31.836  35.699  1.00  0.00     0.064 A 
ATOM    102  C   UNL A   1      40.018  33.139  35.875  1.00  0.00     0.173 A 
ATOM    103  C   UNL A   1      38.550  31.378  36.597  1.00  0.00     0.173 A 
ATOM    104  F   UNL A   1      40.960  33.623  35.051  1.00  0.00    -0.203 F 
ATOM    105  C   UNL A   1      39.568  33.941  36.922  1.00  0.00     0.198 A 
ATOM    106  C   UNL A   1      38.078  32.194  37.622  1.00  0.00     0.198 A 
ATOM    107  F   UNL A   1      38.042  30.144  36.472  1.00  0.00    -0.203 F 
ATOM    108  F   UNL A   1      40.088  35.164  37.098  1.00  0.00    -0.200 F 
ATOM    109  C   UNL A   1      38.593  33.472  37.789  1.00  0.00     0.200 A 
ATOM    110  F   UNL A   1      37.124  31.745  38.449  1.00  0.00    -0.200 F 
ATOM    111  F   UNL A   1      38.153  34.248  38.787  1.00  0.00    -0.200 F 
ENDBRANCH  81 101
BRANCH  84 112
ATOM    112  C   UNL A   1      42.346  26.364  27.833  1.00  0.00     0.064 A 
ATOM    113  C   UNL A   1      41.864  25.068  27.606  1.00  0.00     0.173 A 
ATOM    114  C   UNL A   1      43.286  26.876  26.927  1.00  0.00     0.173 A 
ATOM    115  F   UNL A   1      40.980  24.524  28.455  1.00  0.00    -0.203 F 
ATOM    116  C   UNL A   1      42.327  24.302  26.536  1.00  0.00     0.198 A 
ATOM    117  C   UNL A   1      43.723  26.123  25.838  1.00  0.00     0.198 A 
ATOM    118  F   UNL A   1      43.777  28.113  27.093  1.00  0.00    -0.203 F 
ATOM    119  F   UNL A   1      41.894  23.045  26.379  1.00  0.00    -0.200 F 
ATOM    120  C   UNL A   1      43.251  24.834  25.650  1.00  0.00     0.200 A 
ATOM    121  F   UNL A   1      44.605  26.647  24.976  1.00  0.00    -0.200 F 
ATOM    122  F   UNL A   1      43.698  24.098  24.623  1.00  0.00    -0.200 F 
ENDBRANCH  84 112
BRANCH  99 123
ATOM    123  C   UNL A   1      44.895  27.242  34.262  1.00  0.00     0.064 A 
ATOM    124  C   UNL A   1      46.143  27.881  34.273  1.00  0.00     0.173 A 
ATOM    125  C   UNL A   1      44.766  26.041  34.976  1.00  0.00     0.173 A 
ATOM    126  F   UNL A   1      46.324  29.024  33.594  1.00  0.00    -0.203 F 
ATOM    127  C   UNL A   1      47.226  27.324  34.948  1.00  0.00     0.198 A 
ATOM    128  C   UNL A   1      45.841  25.505  35.680  1.00  0.00     0.198 A 
ATOM    129  F   UNL A   1      43.592  25.394  35.006  1.00  0.00    -0.203 F 
ATOM    130  F   UNL A   1      48.423  27.924  34.899  1.00  0.00    -0.200 F 
ATOM    131  C   UNL A   1      47.072  26.142  35.657  1.00  0.00     0.200 A 
ATOM    132  F   UNL A   1      45.686  24.372  36.379  1.00  0.00    -0.200 F 
ATOM    133  F   UNL A   1      48.114  25.612  36.314  1.00  0.00    -0.200 F 
ENDBRANCH  99 123
ENDBRANCH  64  67
ENDBRANCH  54  57
ENDBRANCH  50  53
ENDBRANCH  47  50
ENDBRANCH   1  47
TORSDOF 15
ENDMDL
MODEL 8
REMARK VINA RESULT:     -11.9      4.084      7.364
REMARK SMILES O=C(NCCCCCCNC(=O)c1ccc(-c2c3nc(c(-c4c(F)c(F)c(F)c(F)c4F)c4ccc([nH]4)c(-c4c(F)c(F)c(F)c(F)c4F)c4nc(c(-c5c(F)c(F)c(F)c(F)c5F)c5ccc2[nH]5)C=C4)C=C3)cc1)C1=Cc2c(ccc(Cl)c2-c2ccccc2)O[C@H]1C(F)(F)F
REMARK SMILES IDX 7 1 6 4 5 7 4 10 3 13 1 14 2 15 76 17 77 18 92 19 78 20
REMARK SMILES IDX 91 22 79 24 84 25 80 26 82 27 81 28 83 30 93 32 94 33 95 34
REMARK SMILES IDX 96 35 85 36 86 37 90 38 87 39 89 41 88 43 8 47 9 50 10 53
REMARK SMILES IDX 11 54 12 56 13 57 14 58 75 59 15 60 74 62 16 64 17 67 18 68
REMARK SMILES IDX 68 69 19 70 73 71 67 72 69 73 20 74 72 75 66 77 65 79 21 81
REMARK SMILES IDX 53 84 33 85 52 86 34 87 37 88 51 89 70 90 35 91 36 93 50 95
REMARK SMILES IDX 71 96 38 99 22 101 23 102 31 103 24 104 25 105 29 106 32 107
REMARK SMILES IDX 26 108 27 109 30 110 28 111 54 112 55 113 63 114 56 115
REMARK SMILES IDX 57 116 61 117 64 118 58 119 59 120 62 121 60 122 39 123
REMARK SMILES IDX 40 124 48 125 41 126 42 127 46 128 49 129 43 130 44 131
REMARK SMILES IDX 47 132 45 133
REMARK H PARENT 7 2 7 3 6 5 6 6 5 8 5 9 4 11 4 12 3 16 77 21 92 23 80 29 81 31
REMARK H PARENT 86 40 90 42 87 44 89 45 88 46 8 48 8 49 9 51 9 52 10 55 14 61
REMARK H PARENT 75 63 15 65 74 66 73 76 67 78 69 80 72 82 66 83 34 92 37 94
REMARK H PARENT 70 97 35 98 71 100
REMARK Flexibility Score: inf
ROOT
ATOM      1  C   UNL A   1      30.819  28.097  24.719  1.00  0.00    -0.052 C 
ATOM      2  H   UNL A   1      30.046  28.823  24.859  1.00  0.00     0.027 H 
ATOM      3  H   UNL A   1      31.316  28.143  23.772  1.00  0.00     0.027 H 
ENDROOT
BRANCH   1   4
ATOM      4  C   UNL A   1      30.162  26.712  24.755  1.00  0.00    -0.052 C 
ATOM      5  H   UNL A   1      29.135  26.835  24.480  1.00  0.00     0.027 H 
ATOM      6  H   UNL A   1      30.745  26.114  24.085  1.00  0.00     0.027 H 
BRANCH   4   7
ATOM      7  C   UNL A   1      30.193  25.953  26.086  1.00  0.00    -0.036 C 
ATOM      8  H   UNL A   1      30.953  26.395  26.695  1.00  0.00     0.028 H 
ATOM      9  H   UNL A   1      29.202  26.038  26.482  1.00  0.00     0.028 H 
BRANCH   7  10
ATOM     10  C   UNL A   1      30.471  24.455  26.009  1.00  0.00     0.018 C 
ATOM     11  H   UNL A   1      29.566  23.938  26.251  1.00  0.00     0.049 H 
ATOM     12  H   UNL A   1      30.820  24.271  25.014  1.00  0.00     0.049 H 
BRANCH  10  13
ATOM     13  N   UNL A   1      31.513  23.966  26.891  1.00  0.00    -0.352 N 
ATOM     14  O   UNL A   1      33.522  23.150  27.481  1.00  0.00    -0.270 OA
ATOM     15  C   UNL A   1      32.790  23.578  26.591  1.00  0.00     0.251 C 
ATOM     16  H   UNL A   1      31.266  23.905  27.843  1.00  0.00     0.163 HD
BRANCH  15  17
ATOM     17  C   UNL A   1      33.325  23.682  25.215  1.00  0.00     0.067 C 
ATOM     18  C   UNL A   1      33.326  22.576  24.462  1.00  0.00    -0.038 C 
ATOM     19  C   UNL A   1      34.232  24.795  24.796  1.00  0.00     0.224 C 
ATOM     20  C   UNL A   1      34.713  22.030  24.441  1.00  0.00     0.027 A 
ATOM     21  H   UNL A   1      32.510  22.171  23.980  1.00  0.00     0.064 H 
ATOM     22  O   UNL A   1      35.594  24.306  24.513  1.00  0.00    -0.475 OA
ATOM     23  H   UNL A   1      34.293  25.475  25.619  1.00  0.00     0.090 H 
ATOM     24  C   UNL A   1      35.781  22.940  24.483  1.00  0.00     0.128 A 
ATOM     25  C   UNL A   1      34.898  20.628  24.569  1.00  0.00     0.011 A 
ATOM     26  C   UNL A   1      37.071  22.459  24.659  1.00  0.00    -0.018 A 
ATOM     27  C   UNL A   1      36.203  20.172  24.783  1.00  0.00     0.049 A 
ATOM     28  C   UNL A   1      37.277  21.082  24.827  1.00  0.00    -0.039 A 
ATOM     29  H   UNL A   1      37.873  23.109  24.665  1.00  0.00     0.066 H 
ATOM     30  Cl  UNL A   1      36.540  18.508  25.090  1.00  0.00    -0.084 Cl
ATOM     31  H   UNL A   1      38.234  20.729  24.985  1.00  0.00     0.064 H 
BRANCH  19  32
ATOM     32  C   UNL A   1      33.660  25.574  23.584  1.00  0.00     0.429 C 
ATOM     33  F   UNL A   1      33.863  26.912  23.663  1.00  0.00    -0.167 F 
ATOM     34  F   UNL A   1      34.227  25.158  22.427  1.00  0.00    -0.167 F 
ATOM     35  F   UNL A   1      32.322  25.400  23.457  1.00  0.00    -0.167 F 
ENDBRANCH  19  32
BRANCH  25  36
ATOM     36  C   UNL A   1      33.662  19.814  24.600  1.00  0.00    -0.016 A 
ATOM     37  C   UNL A   1      33.204  19.226  23.408  1.00  0.00    -0.054 A 
ATOM     38  C   UNL A   1      33.259  19.253  25.827  1.00  0.00    -0.054 A 
ATOM     39  C   UNL A   1      32.517  18.011  23.441  1.00  0.00    -0.062 A 
ATOM     40  H   UNL A   1      33.375  19.694  22.506  1.00  0.00     0.063 H 
ATOM     41  C   UNL A   1      32.584  18.031  25.853  1.00  0.00    -0.062 A 
ATOM     42  H   UNL A   1      33.463  19.746  26.709  1.00  0.00     0.063 H 
ATOM     43  C   UNL A   1      32.247  17.394  24.660  1.00  0.00    -0.062 A 
ATOM     44  H   UNL A   1      32.208  17.569  22.560  1.00  0.00     0.062 H 
ATOM     45  H   UNL A   1      32.334  17.600  26.756  1.00  0.00     0.062 H 
ATOM     46  H   UNL A   1      31.798  16.465  24.681  1.00  0.00     0.062 H 
ENDBRANCH  25  36
ENDBRANCH  15  17
ENDBRANCH  10  13
ENDBRANCH   7  10
ENDBRANCH   4   7
ENDBRANCH   1   4
BRANCH   1  47
ATOM     47  C   UNL A   1      31.911  28.382  25.752  1.00  0.00    -0.036 C 
ATOM     48  H   UNL A   1      32.475  27.482  25.884  1.00  0.00     0.028 H 
ATOM     49  H   UNL A   1      31.393  28.714  26.627  1.00  0.00     0.028 H 
BRANCH  47  50
ATOM     50  C   UNL A   1      32.891  29.499  25.413  1.00  0.00     0.018 C 
ATOM     51  H   UNL A   1      32.983  29.559  24.348  1.00  0.00     0.049 H 
ATOM     52  H   UNL A   1      33.820  29.260  25.885  1.00  0.00     0.049 H 
BRANCH  50  53
ATOM     53  N   UNL A   1      32.477  30.800  25.912  1.00  0.00    -0.352 N 
ATOM     54  C   UNL A   1      32.992  31.572  26.922  1.00  0.00     0.251 C 
ATOM     55  H   UNL A   1      31.699  31.189  25.452  1.00  0.00     0.163 HD
ATOM     56  O   UNL A   1      32.398  32.599  27.260  1.00  0.00    -0.269 OA
BRANCH  54  57
ATOM     57  C   UNL A   1      34.235  31.191  27.634  1.00  0.00     0.039 A 
ATOM     58  C   UNL A   1      35.192  32.181  27.885  1.00  0.00    -0.049 A 
ATOM     59  C   UNL A   1      34.494  29.874  28.019  1.00  0.00    -0.049 A 
ATOM     60  C   UNL A   1      36.370  31.864  28.569  1.00  0.00    -0.053 A 
ATOM     61  H   UNL A   1      35.028  33.148  27.565  1.00  0.00     0.063 H 
ATOM     62  C   UNL A   1      35.628  29.574  28.774  1.00  0.00    -0.053 A 
ATOM     63  H   UNL A   1      33.844  29.121  27.746  1.00  0.00     0.063 H 
ATOM     64  C   UNL A   1      36.585  30.564  29.051  1.00  0.00    -0.014 A 
ATOM     65  H   UNL A   1      37.086  32.592  28.720  1.00  0.00     0.063 H 
ATOM     66  H   UNL A   1      35.767  28.616  29.132  1.00  0.00     0.063 H 
BRANCH  64  67
ATOM     67  C   UNL A   1      37.806  30.223  29.832  1.00  0.00     0.031 A 
ATOM     68  C   UNL A   1      38.828  29.271  29.268  1.00  0.00     0.074 A 
ATOM     69  C   UNL A   1      37.976  30.735  31.067  1.00  0.00     0.049 A 
ATOM     70  N   UNL A   1      39.923  28.807  29.819  1.00  0.00    -0.248 NA
ATOM     71  C   UNL A   1      38.574  28.750  27.916  1.00  0.00    -0.034 C 
ATOM     72  C   UNL A   1      37.043  31.636  31.744  1.00  0.00    -0.036 A 
ATOM     73  N   UNL A   1      38.989  30.563  31.979  1.00  0.00    -0.354 N 
ATOM     74  C   UNL A   1      40.477  27.939  28.889  1.00  0.00     0.074 A 
ATOM     75  C   UNL A   1      39.571  27.892  27.762  1.00  0.00    -0.034 C 
ATOM     76  H   UNL A   1      37.817  28.992  27.258  1.00  0.00     0.065 H 
ATOM     77  C   UNL A   1      37.536  31.957  32.950  1.00  0.00    -0.036 A 
ATOM     78  H   UNL A   1      36.148  31.972  31.355  1.00  0.00     0.065 H 
ATOM     79  C   UNL A   1      38.798  31.250  33.153  1.00  0.00     0.049 A 
ATOM     80  H   UNL A   1      39.779  30.000  31.807  1.00  0.00     0.167 HD
ATOM     81  C   UNL A   1      41.649  27.262  28.954  1.00  0.00     0.037 A 
ATOM     82  H   UNL A   1      39.685  27.271  26.946  1.00  0.00     0.065 H 
ATOM     83  H   UNL A   1      37.094  32.599  33.626  1.00  0.00     0.065 H 
ATOM     84  C   UNL A   1      39.547  31.299  34.271  1.00  0.00     0.037 A 
ATOM     85  C   UNL A   1      42.561  27.326  30.067  1.00  0.00     0.049 A 
ATOM     86  C   UNL A   1      40.835  30.519  34.326  1.00  0.00     0.074 A 
ATOM     87  C   UNL A   1      43.796  26.715  30.206  1.00  0.00    -0.036 A 
ATOM     88  N   UNL A   1      42.335  28.042  31.233  1.00  0.00    -0.354 N 
ATOM     89  N   UNL A   1      41.379  29.752  33.412  1.00  0.00    -0.248 NA
ATOM     90  C   UNL A   1      41.617  30.618  35.566  1.00  0.00    -0.034 C 
ATOM     91  C   UNL A   1      44.292  27.017  31.479  1.00  0.00    -0.036 A 
ATOM     92  H   UNL A   1      44.269  26.137  29.495  1.00  0.00     0.065 H 
ATOM     93  C   UNL A   1      43.397  27.867  32.107  1.00  0.00     0.049 A 
ATOM     94  H   UNL A   1      41.540  28.593  31.413  1.00  0.00     0.167 HD
ATOM     95  C   UNL A   1      42.578  29.306  33.953  1.00  0.00     0.074 A 
ATOM     96  C   UNL A   1      42.691  29.901  35.266  1.00  0.00    -0.034 C 
ATOM     97  H   UNL A   1      41.390  31.115  36.442  1.00  0.00     0.065 H 
ATOM     98  H   UNL A   1      45.175  26.665  31.881  1.00  0.00     0.065 H 
ATOM     99  C   UNL A   1      43.502  28.476  33.408  1.00  0.00     0.037 A 
ATOM    100  H   UNL A   1      43.504  29.784  35.891  1.00  0.00     0.065 H 
BRANCH  81 101
ATOM    101  C   UNL A   1      42.021  26.393  27.785  1.00  0.00     0.064 A 
ATOM    102  C   UNL A   1      42.938  26.820  26.812  1.00  0.00     0.173 A 
ATOM    103  C   UNL A   1      41.495  25.097  27.665  1.00  0.00     0.173 A 
ATOM    104  F   UNL A   1      43.464  28.052  26.875  1.00  0.00    -0.203 F 
ATOM    105  C   UNL A   1      43.292  25.994  25.747  1.00  0.00     0.198 A 
ATOM    106  C   UNL A   1      41.877  24.262  26.618  1.00  0.00     0.198 A 
ATOM    107  F   UNL A   1      40.620  24.635  28.569  1.00  0.00    -0.203 F 
ATOM    108  F   UNL A   1      44.132  26.443  24.804  1.00  0.00    -0.200 F 
ATOM    109  C   UNL A   1      42.769  24.714  25.655  1.00  0.00     0.200 A 
ATOM    110  F   UNL A   1      41.382  23.019  26.539  1.00  0.00    -0.200 F 
ATOM    111  F   UNL A   1      43.119  23.916  24.638  1.00  0.00    -0.200 F 
ENDBRANCH  81 101
BRANCH  84 112
ATOM    112  C   UNL A   1      39.109  32.120  35.432  1.00  0.00     0.064 A 
ATOM    113  C   UNL A   1      39.441  33.478  35.524  1.00  0.00     0.173 A 
ATOM    114  C   UNL A   1      38.370  31.559  36.484  1.00  0.00     0.173 A 
ATOM    115  F   UNL A   1      40.163  34.058  34.554  1.00  0.00    -0.203 F 
ATOM    116  C   UNL A   1      39.079  34.237  36.637  1.00  0.00     0.198 A 
ATOM    117  C   UNL A   1      37.980  32.326  37.580  1.00  0.00     0.198 A 
ATOM    118  F   UNL A   1      38.021  30.265  36.446  1.00  0.00    -0.203 F 
ATOM    119  F   UNL A   1      39.462  35.518  36.725  1.00  0.00    -0.200 F 
ATOM    120  C   UNL A   1      38.344  33.661  37.661  1.00  0.00     0.200 A 
ATOM    121  F   UNL A   1      37.256  31.768  38.561  1.00  0.00    -0.200 F 
ATOM    122  F   UNL A   1      37.997  34.389  38.732  1.00  0.00    -0.200 F 
ENDBRANCH  84 112
BRANCH  99 123
ATOM    123  C   UNL A   1      44.740  28.196  34.214  1.00  0.00     0.064 A 
ATOM    124  C   UNL A   1      45.872  29.020  34.141  1.00  0.00     0.173 A 
ATOM    125  C   UNL A   1      44.777  27.108  35.100  1.00  0.00     0.173 A 
ATOM    126  F   UNL A   1      45.895  30.065  33.299  1.00  0.00    -0.203 F 
ATOM    127  C   UNL A   1      47.006  28.749  34.903  1.00  0.00     0.198 A 
ATOM    128  C   UNL A   1      45.898  26.860  35.887  1.00  0.00     0.198 A 
ATOM    129  F   UNL A   1      43.718  26.293  35.215  1.00  0.00    -0.203 F 
ATOM    130  F   UNL A   1      48.096  29.518  34.777  1.00  0.00    -0.200 F 
ATOM    131  C   UNL A   1      47.014  27.675  35.781  1.00  0.00     0.200 A 
ATOM    132  F   UNL A   1      45.898  25.833  36.747  1.00  0.00    -0.200 F 
ATOM    133  F   UNL A   1      48.103  27.421  36.520  1.00  0.00    -0.200 F 
ENDBRANCH  99 123
ENDBRANCH  64  67
ENDBRANCH  54  57
ENDBRANCH  50  53
ENDBRANCH  47  50
ENDBRANCH   1  47
TORSDOF 15
ENDMDL
MODEL 9
REMARK VINA RESULT:     -11.9      4.385      7.351
REMARK SMILES O=C(NCCCCCCNC(=O)c1ccc(-c2c3nc(c(-c4c(F)c(F)c(F)c(F)c4F)c4ccc([nH]4)c(-c4c(F)c(F)c(F)c(F)c4F)c4nc(c(-c5c(F)c(F)c(F)c(F)c5F)c5ccc2[nH]5)C=C4)C=C3)cc1)C1=Cc2c(ccc(Cl)c2-c2ccccc2)O[C@H]1C(F)(F)F
REMARK SMILES IDX 7 1 6 4 5 7 4 10 3 13 1 14 2 15 76 17 77 18 92 19 78 20
REMARK SMILES IDX 91 22 79 24 84 25 80 26 82 27 81 28 83 30 93 32 94 33 95 34
REMARK SMILES IDX 96 35 85 36 86 37 90 38 87 39 89 41 88 43 8 47 9 50 10 53
REMARK SMILES IDX 11 54 12 56 13 57 14 58 75 59 15 60 74 62 16 64 17 67 18 68
REMARK SMILES IDX 68 69 19 70 73 71 67 72 69 73 20 74 72 75 66 77 65 79 21 81
REMARK SMILES IDX 53 84 33 85 52 86 34 87 37 88 51 89 70 90 35 91 36 93 50 95
REMARK SMILES IDX 71 96 38 99 22 101 23 102 31 103 24 104 25 105 29 106 32 107
REMARK SMILES IDX 26 108 27 109 30 110 28 111 54 112 55 113 63 114 56 115
REMARK SMILES IDX 57 116 61 117 64 118 58 119 59 120 62 121 60 122 39 123
REMARK SMILES IDX 40 124 48 125 41 126 42 127 46 128 49 129 43 130 44 131
REMARK SMILES IDX 47 132 45 133
REMARK H PARENT 7 2 7 3 6 5 6 6 5 8 5 9 4 11 4 12 3 16 77 21 92 23 80 29 81 31
REMARK H PARENT 86 40 90 42 87 44 89 45 88 46 8 48 8 49 9 51 9 52 10 55 14 61
REMARK H PARENT 75 63 15 65 74 66 73 76 67 78 69 80 72 82 66 83 34 92 37 94
REMARK H PARENT 70 97 35 98 71 100
REMARK Flexibility Score: inf
ROOT
ATOM      1  C   UNL A   1      32.822  26.355  25.739  1.00  0.00    -0.052 C 
ATOM      2  H   UNL A   1      32.875  25.944  24.753  1.00  0.00     0.027 H 
ATOM      3  H   UNL A   1      33.767  26.576  26.190  1.00  0.00     0.027 H 
ENDROOT
BRANCH   1   4
ATOM      4  C   UNL A   1      32.188  25.294  26.647  1.00  0.00    -0.052 C 
ATOM      5  H   UNL A   1      32.984  24.728  27.085  1.00  0.00     0.027 H 
ATOM      6  H   UNL A   1      31.588  25.847  27.340  1.00  0.00     0.027 H 
BRANCH   4   7
ATOM      7  C   UNL A   1      31.221  24.299  25.998  1.00  0.00    -0.036 C 
ATOM      8  H   UNL A   1      30.238  24.718  26.051  1.00  0.00     0.028 H 
ATOM      9  H   UNL A   1      31.588  24.155  25.003  1.00  0.00     0.028 H 
BRANCH   7  10
ATOM     10  C   UNL A   1      31.165  22.903  26.613  1.00  0.00     0.018 C 
ATOM     11  H   UNL A   1      30.290  22.846  27.224  1.00  0.00     0.049 H 
ATOM     12  H   UNL A   1      31.161  22.219  25.789  1.00  0.00     0.049 H 
BRANCH  10  13
ATOM     13  N   UNL A   1      32.304  22.533  27.429  1.00  0.00    -0.352 N 
ATOM     14  O   UNL A   1      34.185  21.443  28.001  1.00  0.00    -0.270 OA
ATOM     15  C   UNL A   1      33.318  21.656  27.156  1.00  0.00     0.251 C 
ATOM     16  H   UNL A   1      32.357  22.978  28.307  1.00  0.00     0.163 HD
BRANCH  15  17
ATOM     17  C   UNL A   1      33.412  20.968  25.849  1.00  0.00     0.067 C 
ATOM     18  C   UNL A   1      34.329  21.408  24.979  1.00  0.00    -0.038 C 
ATOM     19  C   UNL A   1      32.292  20.142  25.301  1.00  0.00     0.224 C 
ATOM     20  C   UNL A   1      33.635  22.232  23.949  1.00  0.00     0.027 A 
ATOM     21  H   UNL A   1      35.340  21.210  25.014  1.00  0.00     0.064 H 
ATOM     22  O   UNL A   1      31.687  20.770  24.112  1.00  0.00    -0.475 OA
ATOM     23  H   UNL A   1      31.542  20.090  26.062  1.00  0.00     0.090 H 
ATOM     24  C   UNL A   1      32.330  21.869  23.582  1.00  0.00     0.128 A 
ATOM     25  C   UNL A   1      34.238  23.447  23.525  1.00  0.00     0.011 A 
ATOM     26  C   UNL A   1      31.592  22.724  22.776  1.00  0.00    -0.018 A 
ATOM     27  C   UNL A   1      33.460  24.308  22.746  1.00  0.00     0.049 A 
ATOM     28  C   UNL A   1      32.150  23.947  22.375  1.00  0.00    -0.039 A 
ATOM     29  H   UNL A   1      30.641  22.462  22.471  1.00  0.00     0.066 H 
ATOM     30  Cl  UNL A   1      34.028  25.870  22.283  1.00  0.00    -0.084 Cl
ATOM     31  H   UNL A   1      31.590  24.593  21.798  1.00  0.00     0.064 H 
BRANCH  19  32
ATOM     32  C   UNL A   1      32.748  18.694  24.992  1.00  0.00     0.429 C 
ATOM     33  F   UNL A   1      32.037  18.109  23.997  1.00  0.00    -0.167 F 
ATOM     34  F   UNL A   1      34.048  18.662  24.617  1.00  0.00    -0.167 F 
ATOM     35  F   UNL A   1      32.625  17.883  26.072  1.00  0.00    -0.167 F 
ENDBRANCH  19  32
BRANCH  25  36
ATOM     36  C   UNL A   1      35.582  23.728  24.078  1.00  0.00    -0.016 A 
ATOM     37  C   UNL A   1      35.685  24.355  25.332  1.00  0.00    -0.054 A 
ATOM     38  C   UNL A   1      36.671  22.966  23.615  1.00  0.00    -0.054 A 
ATOM     39  C   UNL A   1      36.766  24.078  26.172  1.00  0.00    -0.062 A 
ATOM     40  H   UNL A   1      34.959  25.022  25.634  1.00  0.00     0.063 H 
ATOM     41  C   UNL A   1      37.743  22.682  24.463  1.00  0.00    -0.062 A 
ATOM     42  H   UNL A   1      36.678  22.616  22.645  1.00  0.00     0.063 H 
ATOM     43  C   UNL A   1      37.769  23.208  25.753  1.00  0.00    -0.062 A 
ATOM     44  H   UNL A   1      36.821  24.520  27.103  1.00  0.00     0.062 H 
ATOM     45  H   UNL A   1      38.515  22.082  24.135  1.00  0.00     0.062 H 
ATOM     46  H   UNL A   1      38.533  22.952  26.399  1.00  0.00     0.062 H 
ENDBRANCH  25  36
ENDBRANCH  15  17
ENDBRANCH  10  13
ENDBRANCH   7  10
ENDBRANCH   4   7
ENDBRANCH   1   4
BRANCH   1  47
ATOM     47  C   UNL A   1      32.108  27.705  25.637  1.00  0.00    -0.036 C 
ATOM     48  H   UNL A   1      31.711  27.936  26.604  1.00  0.00     0.028 H 
ATOM     49  H   UNL A   1      31.371  27.578  24.873  1.00  0.00     0.028 H 
BRANCH  47  50
ATOM     50  C   UNL A   1      32.958  28.889  25.190  1.00  0.00     0.018 C 
ATOM     51  H   UNL A   1      32.953  28.926  24.120  1.00  0.00     0.049 H 
ATOM     52  H   UNL A   1      33.942  28.739  25.583  1.00  0.00     0.049 H 
BRANCH  50  53
ATOM     53  N   UNL A   1      32.481  30.164  25.697  1.00  0.00    -0.352 N 
ATOM     54  C   UNL A   1      32.958  30.955  26.711  1.00  0.00     0.251 C 
ATOM     55  H   UNL A   1      31.684  30.517  25.239  1.00  0.00     0.163 HD
ATOM     56  O   UNL A   1      32.314  31.949  27.056  1.00  0.00    -0.269 OA
BRANCH  54  57
ATOM     57  C   UNL A   1      34.219  30.631  27.421  1.00  0.00     0.039 A 
ATOM     58  C   UNL A   1      35.152  31.653  27.626  1.00  0.00    -0.049 A 
ATOM     59  C   UNL A   1      34.516  29.335  27.849  1.00  0.00    -0.049 A 
ATOM     60  C   UNL A   1      36.346  31.391  28.306  1.00  0.00    -0.053 A 
ATOM     61  H   UNL A   1      34.960  32.604  27.274  1.00  0.00     0.063 H 
ATOM     62  C   UNL A   1      35.666  29.091  28.600  1.00  0.00    -0.053 A 
ATOM     63  H   UNL A   1      33.883  28.556  27.610  1.00  0.00     0.063 H 
ATOM     64  C   UNL A   1      36.599  30.114  28.831  1.00  0.00    -0.014 A 
ATOM     65  H   UNL A   1      37.045  32.141  28.422  1.00  0.00     0.063 H 
ATOM     66  H   UNL A   1      35.834  28.150  28.989  1.00  0.00     0.063 H 
BRANCH  64  67
ATOM     67  C   UNL A   1      37.838  29.832  29.607  1.00  0.00     0.031 A 
ATOM     68  C   UNL A   1      38.880  28.891  29.063  1.00  0.00     0.074 A 
ATOM     69  C   UNL A   1      38.006  30.387  30.824  1.00  0.00     0.049 A 
ATOM     70  N   UNL A   1      39.993  28.475  29.615  1.00  0.00    -0.248 NA
ATOM     71  C   UNL A   1      38.627  28.321  27.730  1.00  0.00    -0.034 C 
ATOM     72  C   UNL A   1      37.055  31.283  31.483  1.00  0.00    -0.036 A 
ATOM     73  N   UNL A   1      39.033  30.273  31.729  1.00  0.00    -0.354 N 
ATOM     74  C   UNL A   1      40.562  27.594  28.706  1.00  0.00     0.074 A 
ATOM     75  C   UNL A   1      39.646  27.486  27.592  1.00  0.00    -0.034 C 
ATOM     76  H   UNL A   1      37.856  28.521  27.074  1.00  0.00     0.065 H 
ATOM     77  C   UNL A   1      37.552  31.655  32.673  1.00  0.00    -0.036 A 
ATOM     78  H   UNL A   1      36.147  31.582  31.094  1.00  0.00     0.065 H 
ATOM     79  C   UNL A   1      38.835  30.991  32.884  1.00  0.00     0.049 A 
ATOM     80  H   UNL A   1      39.837  29.726  31.567  1.00  0.00     0.167 HD
ATOM     81  C   UNL A   1      41.754  26.952  28.779  1.00  0.00     0.037 A 
ATOM     82  H   UNL A   1      39.770  26.843  26.795  1.00  0.00     0.065 H 
ATOM     83  H   UNL A   1      37.099  32.306  33.334  1.00  0.00     0.065 H 
ATOM     84  C   UNL A   1      39.594  31.095  33.991  1.00  0.00     0.037 A 
ATOM     85  C   UNL A   1      42.675  27.076  29.880  1.00  0.00     0.049 A 
ATOM     86  C   UNL A   1      40.905  30.354  34.056  1.00  0.00     0.074 A 
ATOM     87  C   UNL A   1      43.927  26.505  30.024  1.00  0.00    -0.036 A 
ATOM     88  N   UNL A   1      42.441  27.823  31.025  1.00  0.00    -0.354 N 
ATOM     89  N   UNL A   1      41.460  29.574  33.161  1.00  0.00    -0.248 NA
ATOM     90  C   UNL A   1      41.696  30.514  35.284  1.00  0.00    -0.034 C 
ATOM     91  C   UNL A   1      44.428  26.860  31.281  1.00  0.00    -0.036 A 
ATOM     92  H   UNL A   1      44.409  25.918  29.325  1.00  0.00     0.065 H 
ATOM     93  C   UNL A   1      43.517  27.705  31.893  1.00  0.00     0.049 A 
ATOM     94  H   UNL A   1      41.633  28.357  31.197  1.00  0.00     0.167 HD
ATOM     95  C   UNL A   1      42.677  29.178  33.701  1.00  0.00     0.074 A 
ATOM     96  C   UNL A   1      42.787  29.817  34.994  1.00  0.00    -0.034 C 
ATOM     97  H   UNL A   1      41.464  31.032  36.146  1.00  0.00     0.065 H 
ATOM     98  H   UNL A   1      45.325  26.546  31.684  1.00  0.00     0.065 H 
ATOM     99  C   UNL A   1      43.618  28.358  33.173  1.00  0.00     0.037 A 
ATOM    100  H   UNL A   1      43.609  29.742  35.613  1.00  0.00     0.065 H 
BRANCH  81 101
ATOM    101  C   UNL A   1      42.137  26.057  27.635  1.00  0.00     0.064 A 
ATOM    102  C   UNL A   1      43.083  26.453  26.675  1.00  0.00     0.173 A 
ATOM    103  C   UNL A   1      41.594  24.768  27.524  1.00  0.00     0.173 A 
ATOM    104  F   UNL A   1      43.627  27.678  26.729  1.00  0.00    -0.203 F 
ATOM    105  C   UNL A   1      43.447  25.604  25.633  1.00  0.00     0.198 A 
ATOM    106  C   UNL A   1      41.986  23.909  26.500  1.00  0.00     0.198 A 
ATOM    107  F   UNL A   1      40.692  24.335  28.417  1.00  0.00    -0.203 F 
ATOM    108  F   UNL A   1      44.314  26.023  24.701  1.00  0.00    -0.200 F 
ATOM    109  C   UNL A   1      42.906  24.330  25.551  1.00  0.00     0.200 A 
ATOM    110  F   UNL A   1      41.473  22.672  26.432  1.00  0.00    -0.200 F 
ATOM    111  F   UNL A   1      43.266  23.510  24.555  1.00  0.00    -0.200 F 
ENDBRANCH  81 101
BRANCH  84 112
ATOM    112  C   UNL A   1      39.145  31.941  35.131  1.00  0.00     0.064 A 
ATOM    113  C   UNL A   1      38.436  31.389  36.206  1.00  0.00     0.173 A 
ATOM    114  C   UNL A   1      39.394  33.321  35.156  1.00  0.00     0.173 A 
ATOM    115  F   UNL A   1      38.153  30.078  36.220  1.00  0.00    -0.203 F 
ATOM    116  C   UNL A   1      37.966  32.189  37.247  1.00  0.00     0.198 A 
ATOM    117  C   UNL A   1      38.954  34.114  36.213  1.00  0.00     0.198 A 
ATOM    118  F   UNL A   1      40.073  33.901  34.154  1.00  0.00    -0.203 F 
ATOM    119  F   UNL A   1      37.239  31.644  38.232  1.00  0.00    -0.200 F 
ATOM    120  C   UNL A   1      38.231  33.550  37.252  1.00  0.00     0.200 A 
ATOM    121  F   UNL A   1      39.226  35.427  36.222  1.00  0.00    -0.200 F 
ATOM    122  F   UNL A   1      37.778  34.319  38.252  1.00  0.00    -0.200 F 
ENDBRANCH  84 112
BRANCH  99 123
ATOM    123  C   UNL A   1      44.871  28.138  33.972  1.00  0.00     0.064 A 
ATOM    124  C   UNL A   1      45.981  28.988  33.858  1.00  0.00     0.173 A 
ATOM    125  C   UNL A   1      44.947  27.082  34.895  1.00  0.00     0.173 A 
ATOM    126  F   UNL A   1      45.967  30.003  32.981  1.00  0.00    -0.203 F 
ATOM    127  C   UNL A   1      47.130  28.772  34.616  1.00  0.00     0.198 A 
ATOM    128  C   UNL A   1      46.082  26.891  35.676  1.00  0.00     0.198 A 
ATOM    129  F   UNL A   1      43.911  26.244  35.050  1.00  0.00    -0.203 F 
ATOM    130  F   UNL A   1      48.197  29.565  34.450  1.00  0.00    -0.200 F 
ATOM    131  C   UNL A   1      47.176  27.730  35.529  1.00  0.00     0.200 A 
ATOM    132  F   UNL A   1      46.119  25.893  36.571  1.00  0.00    -0.200 F 
ATOM    133  F   UNL A   1      48.279  27.529  36.264  1.00  0.00    -0.200 F 
ENDBRANCH  99 123
ENDBRANCH  64  67
ENDBRANCH  54  57
ENDBRANCH  50  53
ENDBRANCH  47  50
ENDBRANCH   1  47
TORSDOF 15
ENDMDL
MODEL 10
REMARK VINA RESULT:     -11.9      4.347      6.897
REMARK SMILES O=C(NCCCCCCNC(=O)c1ccc(-c2c3nc(c(-c4c(F)c(F)c(F)c(F)c4F)c4ccc([nH]4)c(-c4c(F)c(F)c(F)c(F)c4F)c4nc(c(-c5c(F)c(F)c(F)c(F)c5F)c5ccc2[nH]5)C=C4)C=C3)cc1)C1=Cc2c(ccc(Cl)c2-c2ccccc2)O[C@H]1C(F)(F)F
REMARK SMILES IDX 7 1 6 4 5 7 4 10 3 13 1 14 2 15 76 17 77 18 92 19 78 20
REMARK SMILES IDX 91 22 79 24 84 25 80 26 82 27 81 28 83 30 93 32 94 33 95 34
REMARK SMILES IDX 96 35 85 36 86 37 90 38 87 39 89 41 88 43 8 47 9 50 10 53
REMARK SMILES IDX 11 54 12 56 13 57 14 58 75 59 15 60 74 62 16 64 17 67 18 68
REMARK SMILES IDX 68 69 19 70 73 71 67 72 69 73 20 74 72 75 66 77 65 79 21 81
REMARK SMILES IDX 53 84 33 85 52 86 34 87 37 88 51 89 70 90 35 91 36 93 50 95
REMARK SMILES IDX 71 96 38 99 22 101 23 102 31 103 24 104 25 105 29 106 32 107
REMARK SMILES IDX 26 108 27 109 30 110 28 111 54 112 55 113 63 114 56 115
REMARK SMILES IDX 57 116 61 117 64 118 58 119 59 120 62 121 60 122 39 123
REMARK SMILES IDX 40 124 48 125 41 126 42 127 46 128 49 129 43 130 44 131
REMARK SMILES IDX 47 132 45 133
REMARK H PARENT 7 2 7 3 6 5 6 6 5 8 5 9 4 11 4 12 3 16 77 21 92 23 80 29 81 31
REMARK H PARENT 86 40 90 42 87 44 89 45 88 46 8 48 8 49 9 51 9 52 10 55 14 61
REMARK H PARENT 75 63 15 65 74 66 73 76 67 78 69 80 72 82 66 83 34 92 37 94
REMARK H PARENT 70 97 35 98 71 100
REMARK Flexibility Score: inf
ROOT
ATOM      1  C   UNL A   1      41.186  21.414  26.314  1.00  0.00    -0.052 C 
ATOM      2  H   UNL A   1      42.118  21.636  26.789  1.00  0.00     0.027 H 
ATOM      3  H   UNL A   1      41.047  21.866  25.354  1.00  0.00     0.027 H 
ENDROOT
BRANCH   1   4
ATOM      4  C   UNL A   1      40.071  21.997  27.191  1.00  0.00    -0.052 C 
ATOM      5  H   UNL A   1      39.313  21.248  27.289  1.00  0.00     0.027 H 
ATOM      6  H   UNL A   1      40.557  22.275  28.104  1.00  0.00     0.027 H 
BRANCH   4   7
ATOM      7  C   UNL A   1      39.389  23.279  26.702  1.00  0.00    -0.036 C 
ATOM      8  H   UNL A   1      39.282  23.932  27.543  1.00  0.00     0.028 H 
ATOM      9  H   UNL A   1      40.021  23.657  25.925  1.00  0.00     0.028 H 
BRANCH   7  10
ATOM     10  C   UNL A   1      38.013  23.117  26.062  1.00  0.00     0.018 C 
ATOM     11  H   UNL A   1      37.287  23.073  26.846  1.00  0.00     0.049 H 
ATOM     12  H   UNL A   1      37.892  23.957  25.410  1.00  0.00     0.049 H 
BRANCH  10  13
ATOM     13  N   UNL A   1      37.845  21.941  25.231  1.00  0.00    -0.352 N 
ATOM     14  O   UNL A   1      36.762  20.260  24.205  1.00  0.00    -0.270 OA
ATOM     15  C   UNL A   1      36.697  21.272  24.899  1.00  0.00     0.251 C 
ATOM     16  H   UNL A   1      38.674  21.571  24.850  1.00  0.00     0.163 HD
BRANCH  15  17
ATOM     17  C   UNL A   1      35.369  21.754  25.338  1.00  0.00     0.067 C 
ATOM     18  C   UNL A   1      34.433  20.837  25.610  1.00  0.00    -0.038 C 
ATOM     19  C   UNL A   1      34.901  23.150  25.075  1.00  0.00     0.224 C 
ATOM     20  C   UNL A   1      33.492  20.777  24.456  1.00  0.00     0.027 A 
ATOM     21  H   UNL A   1      34.373  20.270  26.470  1.00  0.00     0.064 H 
ATOM     22  O   UNL A   1      33.788  23.175  24.109  1.00  0.00    -0.475 OA
ATOM     23  H   UNL A   1      35.724  23.678  24.642  1.00  0.00     0.090 H 
ATOM     24  C   UNL A   1      33.233  21.964  23.753  1.00  0.00     0.128 A 
ATOM     25  C   UNL A   1      33.050  19.506  24.000  1.00  0.00     0.011 A 
ATOM     26  C   UNL A   1      32.519  21.902  22.564  1.00  0.00    -0.018 A 
ATOM     27  C   UNL A   1      32.366  19.467  22.781  1.00  0.00     0.049 A 
ATOM     28  C   UNL A   1      32.104  20.656  22.073  1.00  0.00    -0.039 A 
ATOM     29  H   UNL A   1      32.294  22.767  22.047  1.00  0.00     0.066 H 
ATOM     30  Cl  UNL A   1      31.897  17.974  22.054  1.00  0.00    -0.084 Cl
ATOM     31  H   UNL A   1      31.597  20.610  21.175  1.00  0.00     0.064 H 
BRANCH  19  32
ATOM     32  C   UNL A   1      34.513  23.880  26.386  1.00  0.00     0.429 C 
ATOM     33  F   UNL A   1      35.172  23.414  27.475  1.00  0.00    -0.167 F 
ATOM     34  F   UNL A   1      34.781  25.204  26.302  1.00  0.00    -0.167 F 
ATOM     35  F   UNL A   1      33.192  23.758  26.662  1.00  0.00    -0.167 F 
ENDBRANCH  19  32
BRANCH  25  36
ATOM     36  C   UNL A   1      33.488  18.343  24.804  1.00  0.00    -0.016 A 
ATOM     37  C   UNL A   1      32.549  17.686  25.619  1.00  0.00    -0.054 A 
ATOM     38  C   UNL A   1      34.635  17.638  24.394  1.00  0.00    -0.054 A 
ATOM     39  C   UNL A   1      32.664  16.316  25.862  1.00  0.00    -0.062 A 
ATOM     40  H   UNL A   1      31.772  18.218  26.039  1.00  0.00     0.063 H 
ATOM     41  C   UNL A   1      34.738  16.265  24.629  1.00  0.00    -0.062 A 
ATOM     42  H   UNL A   1      35.402  18.136  23.919  1.00  0.00     0.063 H 
ATOM     43  C   UNL A   1      33.733  15.600  25.329  1.00  0.00    -0.062 A 
ATOM     44  H   UNL A   1      31.955  15.834  26.437  1.00  0.00     0.062 H 
ATOM     45  H   UNL A   1      35.557  15.743  24.282  1.00  0.00     0.062 H 
ATOM     46  H   UNL A   1      33.783  14.577  25.454  1.00  0.00     0.062 H 
ENDBRANCH  25  36
ENDBRANCH  15  17
ENDBRANCH  10  13
ENDBRANCH   7  10
ENDBRANCH   4   7
ENDBRANCH   1   4
BRANCH   1  47
ATOM     47  C   UNL A   1      41.152  19.907  26.050  1.00  0.00    -0.036 C 
ATOM     48  H   UNL A   1      40.996  19.765  25.000  1.00  0.00     0.028 H 
ATOM     49  H   UNL A   1      40.367  19.528  26.671  1.00  0.00     0.028 H 
BRANCH  47  50
ATOM     50  C   UNL A   1      42.397  19.121  26.445  1.00  0.00     0.018 C 
ATOM     51  H   UNL A   1      42.090  18.199  26.893  1.00  0.00     0.049 H 
ATOM     52  H   UNL A   1      42.955  19.732  27.124  1.00  0.00     0.049 H 
BRANCH  50  53
ATOM     53  N   UNL A   1      43.269  18.820  25.322  1.00  0.00    -0.352 N 
ATOM     54  C   UNL A   1      44.142  19.621  24.631  1.00  0.00     0.251 C 
ATOM     55  H   UNL A   1      43.224  17.889  25.004  1.00  0.00     0.163 HD
ATOM     56  O   UNL A   1      44.695  19.181  23.619  1.00  0.00    -0.269 OA
BRANCH  54  57
ATOM     57  C   UNL A   1      44.421  21.013  25.056  1.00  0.00     0.039 A 
ATOM     58  C   UNL A   1      43.976  22.063  24.243  1.00  0.00    -0.049 A 
ATOM     59  C   UNL A   1      45.147  21.303  26.214  1.00  0.00    -0.049 A 
ATOM     60  C   UNL A   1      44.206  23.390  24.619  1.00  0.00    -0.053 A 
ATOM     61  H   UNL A   1      43.477  21.857  23.364  1.00  0.00     0.063 H 
ATOM     62  C   UNL A   1      45.302  22.625  26.631  1.00  0.00    -0.053 A 
ATOM     63  H   UNL A   1      45.568  20.537  26.762  1.00  0.00     0.063 H 
ATOM     64  C   UNL A   1      44.841  23.685  25.835  1.00  0.00    -0.014 A 
ATOM     65  H   UNL A   1      43.906  24.158  23.998  1.00  0.00     0.063 H 
ATOM     66  H   UNL A   1      45.761  22.826  27.534  1.00  0.00     0.063 H 
BRANCH  64  67
ATOM     67  C   UNL A   1      45.042  25.093  26.278  1.00  0.00     0.031 A 
ATOM     68  C   UNL A   1      46.401  25.734  26.184  1.00  0.00     0.074 A 
ATOM     69  C   UNL A   1      44.011  25.781  26.808  1.00  0.00     0.049 A 
ATOM     70  N   UNL A   1      46.787  26.924  26.573  1.00  0.00    -0.248 NA
ATOM     71  C   UNL A   1      47.478  24.920  25.599  1.00  0.00    -0.034 C 
ATOM     72  C   UNL A   1      42.655  25.264  26.992  1.00  0.00    -0.036 A 
ATOM     73  N   UNL A   1      43.945  27.063  27.298  1.00  0.00    -0.354 N 
ATOM     74  C   UNL A   1      48.143  26.996  26.288  1.00  0.00     0.074 A 
ATOM     75  C   UNL A   1      48.531  25.711  25.750  1.00  0.00    -0.034 C 
ATOM     76  H   UNL A   1      47.427  23.979  25.178  1.00  0.00     0.065 H 
ATOM     77  C   UNL A   1      41.886  26.223  27.531  1.00  0.00    -0.036 A 
ATOM     78  H   UNL A   1      42.340  24.312  26.746  1.00  0.00     0.065 H 
ATOM     79  C   UNL A   1      42.703  27.409  27.773  1.00  0.00     0.049 A 
ATOM     80  H   UNL A   1      44.715  27.677  27.308  1.00  0.00     0.167 HD
ATOM     81  C   UNL A   1      48.986  28.047  26.436  1.00  0.00     0.037 A 
ATOM     82  H   UNL A   1      49.499  25.444  25.515  1.00  0.00     0.065 H 
ATOM     83  H   UNL A   1      40.879  26.136  27.742  1.00  0.00     0.065 H 
ATOM     84  C   UNL A   1      42.271  28.548  28.348  1.00  0.00     0.037 A 
ATOM     85  C   UNL A   1      48.595  29.333  26.953  1.00  0.00     0.049 A 
ATOM     86  C   UNL A   1      43.235  29.694  28.521  1.00  0.00     0.074 A 
ATOM     87  C   UNL A   1      49.364  30.475  27.096  1.00  0.00    -0.036 A 
ATOM     88  N   UNL A   1      47.324  29.646  27.413  1.00  0.00    -0.354 N 
ATOM     89  N   UNL A   1      44.501  29.769  28.188  1.00  0.00    -0.248 NA
ATOM     90  C   UNL A   1      42.707  30.916  29.144  1.00  0.00    -0.034 C 
ATOM     91  C   UNL A   1      48.575  31.463  27.694  1.00  0.00    -0.036 A 
ATOM     92  H   UNL A   1      50.350  30.581  26.810  1.00  0.00     0.065 H 
ATOM     93  C   UNL A   1      47.296  30.957  27.865  1.00  0.00     0.049 A 
ATOM     94  H   UNL A   1      46.558  29.030  27.418  1.00  0.00     0.167 HD
ATOM     95  C   UNL A   1      44.909  31.052  28.529  1.00  0.00     0.074 A 
ATOM     96  C   UNL A   1      43.754  31.726  29.079  1.00  0.00    -0.034 C 
ATOM     97  H   UNL A   1      41.767  31.095  29.531  1.00  0.00     0.065 H 
ATOM     98  H   UNL A   1      48.891  32.408  27.963  1.00  0.00     0.065 H 
ATOM     99  C   UNL A   1      46.134  31.620  28.398  1.00  0.00     0.037 A 
ATOM    100  H   UNL A   1      43.744  32.713  29.382  1.00  0.00     0.065 H 
BRANCH  81 101
ATOM    101  C   UNL A   1      50.421  27.856  26.030  1.00  0.00     0.064 A 
ATOM    102  C   UNL A   1      51.418  27.554  26.971  1.00  0.00     0.173 A 
ATOM    103  C   UNL A   1      50.795  27.922  24.679  1.00  0.00     0.173 A 
ATOM    104  F   UNL A   1      51.117  27.487  28.276  1.00  0.00    -0.203 F 
ATOM    105  C   UNL A   1      52.739  27.355  26.578  1.00  0.00     0.198 A 
ATOM    106  C   UNL A   1      52.110  27.689  24.286  1.00  0.00     0.198 A 
ATOM    107  F   UNL A   1      49.882  28.201  23.737  1.00  0.00    -0.203 F 
ATOM    108  F   UNL A   1      53.682  27.117  27.500  1.00  0.00    -0.200 F 
ATOM    109  C   UNL A   1      53.083  27.414  25.236  1.00  0.00     0.200 A 
ATOM    110  F   UNL A   1      52.437  27.731  22.987  1.00  0.00    -0.200 F 
ATOM    111  F   UNL A   1      54.352  27.210  24.858  1.00  0.00    -0.200 F 
ENDBRANCH  81 101
BRANCH  84 112
ATOM    112  C   UNL A   1      40.858  28.673  28.797  1.00  0.00     0.064 A 
ATOM    113  C   UNL A   1      40.487  28.367  30.113  1.00  0.00     0.173 A 
ATOM    114  C   UNL A   1      39.846  29.076  27.913  1.00  0.00     0.173 A 
ATOM    115  F   UNL A   1      41.414  27.956  30.992  1.00  0.00    -0.203 F 
ATOM    116  C   UNL A   1      39.155  28.429  30.521  1.00  0.00     0.198 A 
ATOM    117  C   UNL A   1      38.520  29.171  28.331  1.00  0.00     0.198 A 
ATOM    118  F   UNL A   1      40.146  29.385  26.643  1.00  0.00    -0.203 F 
ATOM    119  F   UNL A   1      38.822  28.072  31.769  1.00  0.00    -0.200 F 
ATOM    120  C   UNL A   1      38.174  28.837  29.630  1.00  0.00     0.200 A 
ATOM    121  F   UNL A   1      37.577  29.581  27.470  1.00  0.00    -0.200 F 
ATOM    122  F   UNL A   1      36.894  28.895  30.021  1.00  0.00    -0.200 F 
ENDBRANCH  84 112
BRANCH  99 123
ATOM    123  C   UNL A   1      46.278  33.056  28.817  1.00  0.00     0.064 A 
ATOM    124  C   UNL A   1      46.666  33.412  30.117  1.00  0.00     0.173 A 
ATOM    125  C   UNL A   1      46.063  34.089  27.891  1.00  0.00     0.173 A 
ATOM    126  F   UNL A   1      46.870  32.465  31.045  1.00  0.00    -0.203 F 
ATOM    127  C   UNL A   1      46.803  34.750  30.482  1.00  0.00     0.198 A 
ATOM    128  C   UNL A   1      46.236  35.422  28.249  1.00  0.00     0.198 A 
ATOM    129  F   UNL A   1      45.700  33.803  26.632  1.00  0.00    -0.203 F 
ATOM    130  F   UNL A   1      47.121  35.067  31.745  1.00  0.00    -0.200 F 
ATOM    131  C   UNL A   1      46.597  35.752  29.546  1.00  0.00     0.200 A 
ATOM    132  F   UNL A   1      46.054  36.389  27.339  1.00  0.00    -0.200 F 
ATOM    133  F   UNL A   1      46.739  37.038  29.897  1.00  0.00    -0.200 F 
ENDBRANCH  99 123
ENDBRANCH  64  67
ENDBRANCH  54  57
ENDBRANCH  50  53
ENDBRANCH  47  50
ENDBRANCH   1  47
TORSDOF 15
ENDMDL
