MODEL 1
REMARK VINA RESULT:     -12.3      0.000      0.000
REMARK SMILES Cc1cccc(Nc2ccccc2C(=O)NCCCCCCNC(=O)c2ccc(-c3c4nc(c(-c5c(F)c(F)c(F)c(F)c5F)c5ccc([nH]5)c(-c5c(F)c(F)c(F)c(F)c5F)c5nc(c(-c6c(F)c(F)c(F)c(F)c6F)c6ccc3[nH]6)C=C5)C=C4)cc2)c1C
REMARK SMILES IDX 19 1 18 4 17 7 16 10 14 11 15 12 13 14 8 15 9 16 10 17 12 19
REMARK SMILES IDX 11 20 7 24 6 26 2 27 3 28 89 29 4 30 5 32 1 35 90 39 20 43
REMARK SMILES IDX 21 46 22 49 23 52 24 53 25 55 26 56 27 57 88 58 28 59 87 61
REMARK SMILES IDX 29 63 30 66 31 67 81 68 32 69 86 70 80 71 82 72 33 73 85 74
REMARK SMILES IDX 79 76 78 78 34 80 66 83 46 84 65 85 47 86 50 87 64 88 83 89
REMARK SMILES IDX 48 90 49 92 63 94 84 95 51 98 35 100 36 101 44 102 37 103
REMARK SMILES IDX 38 104 42 105 45 106 39 107 40 108 43 109 41 110 67 111
REMARK SMILES IDX 68 112 76 113 69 114 70 115 74 116 77 117 71 118 72 119
REMARK SMILES IDX 75 120 73 121 52 122 53 123 61 124 54 125 55 126 59 127
REMARK SMILES IDX 62 128 56 129 57 130 60 131 58 132
REMARK H PARENT 19 2 19 3 18 5 18 6 17 8 17 9 16 13 9 18 10 21 12 22 11 23
REMARK H PARENT 7 25 3 31 4 33 5 34 1 36 1 37 1 38 90 40 90 41 90 42 20 44
REMARK H PARENT 20 45 21 47 21 48 22 50 22 51 23 54 27 60 88 62 28 64 87 65
REMARK H PARENT 86 75 80 77 82 79 85 81 79 82 47 91 50 93 83 96 48 97 84 99
REMARK Flexibility Score: inf
ROOT
ATOM      1  C   UNL A   1      32.312  29.985  26.884  1.00  0.00    -0.052 C 
ATOM      2  H   UNL A   1      33.169  29.791  26.272  1.00  0.00     0.027 H 
ATOM      3  H   UNL A   1      32.505  30.526  27.787  1.00  0.00     0.027 H 
ENDROOT
BRANCH   1   4
ATOM      4  C   UNL A   1      31.769  28.628  27.353  1.00  0.00    -0.036 C 
ATOM      5  H   UNL A   1      32.190  28.422  28.314  1.00  0.00     0.028 H 
ATOM      6  H   UNL A   1      30.703  28.734  27.348  1.00  0.00     0.028 H 
BRANCH   4   7
ATOM      7  C   UNL A   1      32.057  27.428  26.455  1.00  0.00     0.018 C 
ATOM      8  H   UNL A   1      31.714  27.658  25.468  1.00  0.00     0.049 H 
ATOM      9  H   UNL A   1      33.113  27.258  26.504  1.00  0.00     0.049 H 
BRANCH   7  10
ATOM     10  N   UNL A   1      31.427  26.201  26.875  1.00  0.00    -0.352 N 
ATOM     11  C   UNL A   1      31.700  24.900  26.525  1.00  0.00     0.253 C 
ATOM     12  O   UNL A   1      31.071  24.021  27.121  1.00  0.00    -0.269 OA
ATOM     13  H   UNL A   1      30.685  26.312  27.511  1.00  0.00     0.163 HD
BRANCH  11  14
ATOM     14  C   UNL A   1      32.599  24.493  25.399  1.00  0.00     0.063 A 
ATOM     15  C   UNL A   1      32.383  24.607  24.011  1.00  0.00     0.051 A 
ATOM     16  C   UNL A   1      33.377  24.092  23.138  1.00  0.00    -0.038 A 
ATOM     17  C   UNL A   1      34.574  23.550  23.603  1.00  0.00    -0.060 A 
ATOM     18  H   UNL A   1      33.206  24.119  22.121  1.00  0.00     0.064 H 
ATOM     19  C   UNL A   1      33.832  23.957  25.849  1.00  0.00    -0.047 A 
ATOM     20  C   UNL A   1      34.813  23.503  24.966  1.00  0.00    -0.061 A 
ATOM     21  H   UNL A   1      35.276  23.190  22.938  1.00  0.00     0.062 H 
ATOM     22  H   UNL A   1      34.011  23.899  26.864  1.00  0.00     0.063 H 
ATOM     23  H   UNL A   1      35.707  23.134  25.325  1.00  0.00     0.062 H 
BRANCH  15  24
ATOM     24  N   UNL A   1      31.346  25.302  23.354  1.00  0.00    -0.355 N 
ATOM     25  H   UNL A   1      30.733  24.703  22.869  1.00  0.00     0.167 HD
BRANCH  24  26
ATOM     26  C   UNL A   1      30.989  26.660  23.237  1.00  0.00     0.042 A 
ATOM     27  C   UNL A   1      29.433  28.515  22.950  1.00  0.00    -0.046 A 
ATOM     28  C   UNL A   1      30.491  29.345  22.552  1.00  0.00    -0.059 A 
ATOM     29  C   UNL A   1      29.687  27.181  23.363  1.00  0.00    -0.025 A 
ATOM     30  C   UNL A   1      31.793  28.868  22.545  1.00  0.00    -0.060 A 
ATOM     31  H   UNL A   1      30.301  30.317  22.262  1.00  0.00     0.063 H 
ATOM     32  C   UNL A   1      32.033  27.538  22.874  1.00  0.00    -0.038 A 
ATOM     33  H   UNL A   1      32.576  29.493  22.298  1.00  0.00     0.062 H 
ATOM     34  H   UNL A   1      33.002  27.183  22.852  1.00  0.00     0.064 H 
BRANCH  27  35
ATOM     35  C   UNL A   1      28.038  29.085  22.949  1.00  0.00    -0.039 C 
ATOM     36  H   UNL A   1      27.364  28.380  23.386  1.00  0.00     0.028 H 
ATOM     37  H   UNL A   1      27.738  29.290  21.942  1.00  0.00     0.028 H 
ATOM     38  H   UNL A   1      28.024  29.993  23.516  1.00  0.00     0.028 H 
ENDBRANCH  27  35
BRANCH  29  39
ATOM     39  C   UNL A   1      28.563  26.391  23.986  1.00  0.00    -0.037 C 
ATOM     40  H   UNL A   1      28.793  25.347  23.940  1.00  0.00     0.028 H 
ATOM     41  H   UNL A   1      27.655  26.581  23.453  1.00  0.00     0.028 H 
ATOM     42  H   UNL A   1      28.446  26.685  25.009  1.00  0.00     0.028 H 
ENDBRANCH  29  39
ENDBRANCH  24  26
ENDBRANCH  15  24
ENDBRANCH  11  14
ENDBRANCH   7  10
ENDBRANCH   4   7
ENDBRANCH   1   4
BRANCH   1  43
ATOM     43  C   UNL A   1      31.372  30.892  26.080  1.00  0.00    -0.052 C 
ATOM     44  H   UNL A   1      30.388  30.475  26.145  1.00  0.00     0.027 H 
ATOM     45  H   UNL A   1      31.787  30.920  25.095  1.00  0.00     0.027 H 
BRANCH  43  46
ATOM     46  C   UNL A   1      31.281  32.356  26.515  1.00  0.00    -0.036 C 
ATOM     47  H   UNL A   1      30.446  32.447  27.177  1.00  0.00     0.028 H 
ATOM     48  H   UNL A   1      31.193  32.916  25.608  1.00  0.00     0.028 H 
BRANCH  46  49
ATOM     49  C   UNL A   1      32.500  32.928  27.226  1.00  0.00     0.018 C 
ATOM     50  H   UNL A   1      33.332  32.899  26.553  1.00  0.00     0.049 H 
ATOM     51  H   UNL A   1      32.670  32.332  28.098  1.00  0.00     0.049 H 
BRANCH  49  52
ATOM     52  N   UNL A   1      32.312  34.298  27.669  1.00  0.00    -0.352 N 
ATOM     53  C   UNL A   1      32.977  35.019  28.632  1.00  0.00     0.251 C 
ATOM     54  H   UNL A   1      31.595  34.788  27.207  1.00  0.00     0.163 HD
ATOM     55  O   UNL A   1      32.570  36.134  28.946  1.00  0.00    -0.269 OA
BRANCH  53  56
ATOM     56  C   UNL A   1      34.167  34.462  29.319  1.00  0.00     0.039 A 
ATOM     57  C   UNL A   1      33.989  33.794  30.536  1.00  0.00    -0.049 A 
ATOM     58  C   UNL A   1      35.456  34.625  28.805  1.00  0.00    -0.049 A 
ATOM     59  C   UNL A   1      35.087  33.240  31.202  1.00  0.00    -0.053 A 
ATOM     60  H   UNL A   1      33.044  33.709  30.943  1.00  0.00     0.063 H 
ATOM     61  C   UNL A   1      36.540  34.008  29.428  1.00  0.00    -0.053 A 
ATOM     62  H   UNL A   1      35.606  35.203  27.964  1.00  0.00     0.063 H 
ATOM     63  C   UNL A   1      36.369  33.315  30.638  1.00  0.00    -0.014 A 
ATOM     64  H   UNL A   1      34.954  32.772  32.113  1.00  0.00     0.063 H 
ATOM     65  H   UNL A   1      37.476  34.059  28.997  1.00  0.00     0.063 H 
BRANCH  63  66
ATOM     66  C   UNL A   1      37.551  32.705  31.300  1.00  0.00     0.031 A 
ATOM     67  C   UNL A   1      38.266  31.554  30.646  1.00  0.00     0.074 A 
ATOM     68  C   UNL A   1      37.930  33.122  32.523  1.00  0.00     0.049 A 
ATOM     69  N   UNL A   1      39.224  30.795  31.116  1.00  0.00    -0.248 NA
ATOM     70  C   UNL A   1      37.818  31.184  29.294  1.00  0.00    -0.034 C 
ATOM     71  C   UNL A   1      37.298  34.202  33.282  1.00  0.00    -0.036 A 
ATOM     72  N   UNL A   1      38.928  32.672  33.353  1.00  0.00    -0.354 N 
ATOM     73  C   UNL A   1      39.468  29.843  30.134  1.00  0.00     0.074 A 
ATOM     74  C   UNL A   1      38.530  30.093  29.060  1.00  0.00    -0.034 C 
ATOM     75  H   UNL A   1      37.129  31.654  28.687  1.00  0.00     0.065 H 
ATOM     76  C   UNL A   1      37.925  34.335  34.462  1.00  0.00    -0.036 A 
ATOM     77  H   UNL A   1      36.499  34.768  32.961  1.00  0.00     0.065 H 
ATOM     78  C   UNL A   1      38.977  33.326  34.561  1.00  0.00     0.049 A 
ATOM     79  H   UNL A   1      39.549  31.948  33.107  1.00  0.00     0.167 HD
ATOM     80  C   UNL A   1      40.400  28.861  30.121  1.00  0.00     0.037 A 
ATOM     81  H   UNL A   1      38.429  29.497  28.224  1.00  0.00     0.065 H 
ATOM     82  H   UNL A   1      37.699  35.038  35.183  1.00  0.00     0.065 H 
ATOM     83  C   UNL A   1      39.768  33.126  35.632  1.00  0.00     0.037 A 
ATOM     84  C   UNL A   1      41.362  28.645  31.169  1.00  0.00     0.049 A 
ATOM     85  C   UNL A   1      40.810  32.041  35.587  1.00  0.00     0.074 A 
ATOM     86  C   UNL A   1      42.401  27.731  31.213  1.00  0.00    -0.036 A 
ATOM     87  N   UNL A   1      41.405  29.356  32.359  1.00  0.00    -0.354 N 
ATOM     88  N   UNL A   1      41.071  31.185  34.630  1.00  0.00    -0.248 NA
ATOM     89  C   UNL A   1      41.668  31.894  36.772  1.00  0.00    -0.034 C 
ATOM     90  C   UNL A   1      43.045  27.860  32.448  1.00  0.00    -0.036 A 
ATOM     91  H   UNL A   1      42.656  27.069  30.464  1.00  0.00     0.065 H 
ATOM     92  C   UNL A   1      42.439  28.887  33.154  1.00  0.00     0.049 A 
ATOM     93  H   UNL A   1      40.793  30.088  32.603  1.00  0.00     0.167 HD
ATOM     94  C   UNL A   1      42.137  30.420  35.081  1.00  0.00     0.074 A 
ATOM     95  C   UNL A   1      42.480  30.916  36.397  1.00  0.00    -0.034 C 
ATOM     96  H   UNL A   1      41.644  32.417  37.661  1.00  0.00     0.065 H 
ATOM     97  H   UNL A   1      43.839  27.288  32.776  1.00  0.00     0.065 H 
ATOM     98  C   UNL A   1      42.774  29.398  34.458  1.00  0.00     0.037 A 
ATOM     99  H   UNL A   1      43.259  30.553  36.971  1.00  0.00     0.065 H 
BRANCH  80 100
ATOM    100  C   UNL A   1      40.423  27.939  28.936  1.00  0.00     0.064 A 
ATOM    101  C   UNL A   1      41.194  28.218  27.797  1.00  0.00     0.173 A 
ATOM    102  C   UNL A   1      39.684  26.747  28.950  1.00  0.00     0.173 A 
ATOM    103  F   UNL A   1      41.911  29.350  27.730  1.00  0.00    -0.203 F 
ATOM    104  C   UNL A   1      41.196  27.356  26.704  1.00  0.00     0.198 A 
ATOM    105  C   UNL A   1      39.713  25.870  27.868  1.00  0.00     0.198 A 
ATOM    106  F   UNL A   1      38.935  26.427  30.017  1.00  0.00    -0.203 F 
ATOM    107  F   UNL A   1      41.897  27.672  25.606  1.00  0.00    -0.200 F 
ATOM    108  C   UNL A   1      40.461  26.181  26.742  1.00  0.00     0.200 A 
ATOM    109  F   UNL A   1      39.012  24.729  27.912  1.00  0.00    -0.200 F 
ATOM    110  F   UNL A   1      40.466  25.351  25.691  1.00  0.00    -0.200 F 
ENDBRANCH  80 100
BRANCH  83 111
ATOM    111  C   UNL A   1      39.614  33.990  36.831  1.00  0.00     0.064 A 
ATOM    112  C   UNL A   1      38.828  33.578  37.917  1.00  0.00     0.173 A 
ATOM    113  C   UNL A   1      40.258  35.231  36.924  1.00  0.00     0.173 A 
ATOM    114  F   UNL A   1      38.176  32.408  37.864  1.00  0.00    -0.203 F 
ATOM    115  C   UNL A   1      38.685  34.381  39.046  1.00  0.00     0.198 A 
ATOM    116  C   UNL A   1      40.135  36.022  38.065  1.00  0.00     0.198 A 
ATOM    117  F   UNL A   1      41.025  35.668  35.914  1.00  0.00    -0.203 F 
ATOM    118  F   UNL A   1      37.901  33.979  40.056  1.00  0.00    -0.200 F 
ATOM    119  C   UNL A   1      39.344  35.599  39.123  1.00  0.00     0.200 A 
ATOM    120  F   UNL A   1      40.784  37.192  38.140  1.00  0.00    -0.200 F 
ATOM    121  F   UNL A   1      39.213  36.366  40.213  1.00  0.00    -0.200 F 
ENDBRANCH  83 111
BRANCH  98 122
ATOM    122  C   UNL A   1      43.933  28.766  35.172  1.00  0.00     0.064 A 
ATOM    123  C   UNL A   1      43.757  27.667  36.023  1.00  0.00     0.173 A 
ATOM    124  C   UNL A   1      45.239  29.225  34.946  1.00  0.00     0.173 A 
ATOM    125  F   UNL A   1      42.527  27.201  36.281  1.00  0.00    -0.203 F 
ATOM    126  C   UNL A   1      44.850  27.057  36.634  1.00  0.00     0.198 A 
ATOM    127  C   UNL A   1      46.330  28.597  35.538  1.00  0.00     0.198 A 
ATOM    128  F   UNL A   1      45.458  30.270  34.135  1.00  0.00    -0.203 F 
ATOM    129  F   UNL A   1      44.659  26.026  37.470  1.00  0.00    -0.200 F 
ATOM    130  C   UNL A   1      46.136  27.515  36.384  1.00  0.00     0.200 A 
ATOM    131  F   UNL A   1      47.571  29.033  35.285  1.00  0.00    -0.200 F 
ATOM    132  F   UNL A   1      47.186  26.917  36.961  1.00  0.00    -0.200 F 
ENDBRANCH  98 122
ENDBRANCH  63  66
ENDBRANCH  53  56
ENDBRANCH  49  52
ENDBRANCH  46  49
ENDBRANCH  43  46
ENDBRANCH   1  43
TORSDOF 17
ENDMDL
MODEL 2
REMARK VINA RESULT:     -12.3      0.157      1.591
REMARK SMILES Cc1cccc(Nc2ccccc2C(=O)NCCCCCCNC(=O)c2ccc(-c3c4nc(c(-c5c(F)c(F)c(F)c(F)c5F)c5ccc([nH]5)c(-c5c(F)c(F)c(F)c(F)c5F)c5nc(c(-c6c(F)c(F)c(F)c(F)c6F)c6ccc3[nH]6)C=C5)C=C4)cc2)c1C
REMARK SMILES IDX 19 1 18 4 17 7 16 10 14 11 15 12 13 14 8 15 9 16 10 17 12 19
REMARK SMILES IDX 11 20 7 24 6 26 2 27 3 28 89 29 4 30 5 32 1 35 90 39 20 43
REMARK SMILES IDX 21 46 22 49 23 52 24 53 25 55 26 56 27 57 88 58 28 59 87 61
REMARK SMILES IDX 29 63 30 66 31 67 81 68 32 69 86 70 80 71 82 72 33 73 85 74
REMARK SMILES IDX 79 76 78 78 34 80 66 83 46 84 65 85 47 86 50 87 64 88 83 89
REMARK SMILES IDX 48 90 49 92 63 94 84 95 51 98 35 100 36 101 44 102 37 103
REMARK SMILES IDX 38 104 42 105 45 106 39 107 40 108 43 109 41 110 67 111
REMARK SMILES IDX 68 112 76 113 69 114 70 115 74 116 77 117 71 118 72 119
REMARK SMILES IDX 75 120 73 121 52 122 53 123 61 124 54 125 55 126 59 127
REMARK SMILES IDX 62 128 56 129 57 130 60 131 58 132
REMARK H PARENT 19 2 19 3 18 5 18 6 17 8 17 9 16 13 9 18 10 21 12 22 11 23
REMARK H PARENT 7 25 3 31 4 33 5 34 1 36 1 37 1 38 90 40 90 41 90 42 20 44
REMARK H PARENT 20 45 21 47 21 48 22 50 22 51 23 54 27 60 88 62 28 64 87 65
REMARK H PARENT 86 75 80 77 82 79 85 81 79 82 47 91 50 93 83 96 48 97 84 99
REMARK Flexibility Score: inf
ROOT
ATOM      1  C   UNL A   1      32.314  29.940  26.886  1.00  0.00    -0.052 C 
ATOM      2  H   UNL A   1      33.181  29.739  26.291  1.00  0.00     0.027 H 
ATOM      3  H   UNL A   1      32.492  30.487  27.789  1.00  0.00     0.027 H 
ENDROOT
BRANCH   1   4
ATOM      4  C   UNL A   1      31.756  28.588  27.354  1.00  0.00    -0.036 C 
ATOM      5  H   UNL A   1      32.112  28.415  28.348  1.00  0.00     0.028 H 
ATOM      6  H   UNL A   1      30.692  28.678  27.272  1.00  0.00     0.028 H 
BRANCH   4   7
ATOM      7  C   UNL A   1      32.121  27.369  26.512  1.00  0.00     0.018 C 
ATOM      8  H   UNL A   1      31.885  27.584  25.491  1.00  0.00     0.049 H 
ATOM      9  H   UNL A   1      33.165  27.191  26.672  1.00  0.00     0.049 H 
BRANCH   7  10
ATOM     10  N   UNL A   1      31.438  26.156  26.887  1.00  0.00    -0.352 N 
ATOM     11  C   UNL A   1      31.717  24.848  26.570  1.00  0.00     0.253 C 
ATOM     12  O   UNL A   1      31.027  23.984  27.118  1.00  0.00    -0.269 OA
ATOM     13  H   UNL A   1      30.648  26.285  27.458  1.00  0.00     0.163 HD
BRANCH  11  14
ATOM     14  C   UNL A   1      32.700  24.417  25.526  1.00  0.00     0.063 A 
ATOM     15  C   UNL A   1      32.601  24.519  24.124  1.00  0.00     0.051 A 
ATOM     16  C   UNL A   1      33.655  23.981  23.341  1.00  0.00    -0.038 A 
ATOM     17  C   UNL A   1      34.803  23.429  23.908  1.00  0.00    -0.060 A 
ATOM     18  H   UNL A   1      33.570  23.999  22.313  1.00  0.00     0.064 H 
ATOM     19  C   UNL A   1      33.885  23.869  26.081  1.00  0.00    -0.047 A 
ATOM     20  C   UNL A   1      34.928  23.392  25.286  1.00  0.00    -0.061 A 
ATOM     21  H   UNL A   1      35.552  23.052  23.307  1.00  0.00     0.062 H 
ATOM     22  H   UNL A   1      33.978  23.820  27.108  1.00  0.00     0.063 H 
ATOM     23  H   UNL A   1      35.785  23.016  25.721  1.00  0.00     0.062 H 
BRANCH  15  24
ATOM     24  N   UNL A   1      31.632  25.220  23.377  1.00  0.00    -0.355 N 
ATOM     25  H   UNL A   1      31.085  24.628  22.810  1.00  0.00     0.167 HD
BRANCH  24  26
ATOM     26  C   UNL A   1      31.267  26.577  23.261  1.00  0.00     0.042 A 
ATOM     27  C   UNL A   1      29.702  28.423  22.971  1.00  0.00    -0.046 A 
ATOM     28  C   UNL A   1      30.758  29.260  22.580  1.00  0.00    -0.059 A 
ATOM     29  C   UNL A   1      29.961  27.090  23.383  1.00  0.00    -0.025 A 
ATOM     30  C   UNL A   1      32.062  28.790  22.579  1.00  0.00    -0.060 A 
ATOM     31  H   UNL A   1      30.563  30.231  22.291  1.00  0.00     0.063 H 
ATOM     32  C   UNL A   1      32.308  27.461  22.906  1.00  0.00    -0.038 A 
ATOM     33  H   UNL A   1      32.843  29.420  22.338  1.00  0.00     0.062 H 
ATOM     34  H   UNL A   1      33.279  27.112  22.888  1.00  0.00     0.064 H 
BRANCH  27  35
ATOM     35  C   UNL A   1      28.304  28.985  22.963  1.00  0.00    -0.039 C 
ATOM     36  H   UNL A   1      27.632  28.275  23.396  1.00  0.00     0.028 H 
ATOM     37  H   UNL A   1      28.008  29.190  21.956  1.00  0.00     0.028 H 
ATOM     38  H   UNL A   1      28.281  29.892  23.533  1.00  0.00     0.028 H 
ENDBRANCH  27  35
BRANCH  29  39
ATOM     39  C   UNL A   1      28.839  26.292  23.998  1.00  0.00    -0.037 C 
ATOM     40  H   UNL A   1      29.074  25.249  23.950  1.00  0.00     0.028 H 
ATOM     41  H   UNL A   1      27.932  26.478  23.461  1.00  0.00     0.028 H 
ATOM     42  H   UNL A   1      28.715  26.583  25.020  1.00  0.00     0.028 H 
ENDBRANCH  29  39
ENDBRANCH  24  26
ENDBRANCH  15  24
ENDBRANCH  11  14
ENDBRANCH   7  10
ENDBRANCH   4   7
ENDBRANCH   1   4
BRANCH   1  43
ATOM     43  C   UNL A   1      31.392  30.846  26.060  1.00  0.00    -0.052 C 
ATOM     44  H   UNL A   1      30.405  30.436  26.112  1.00  0.00     0.027 H 
ATOM     45  H   UNL A   1      31.823  30.862  25.080  1.00  0.00     0.027 H 
BRANCH  43  46
ATOM     46  C   UNL A   1      31.304  32.314  26.479  1.00  0.00    -0.036 C 
ATOM     47  H   UNL A   1      30.451  32.419  27.116  1.00  0.00     0.028 H 
ATOM     48  H   UNL A   1      31.247  32.867  25.565  1.00  0.00     0.028 H 
BRANCH  46  49
ATOM     49  C   UNL A   1      32.508  32.880  27.220  1.00  0.00     0.018 C 
ATOM     50  H   UNL A   1      33.354  32.854  26.565  1.00  0.00     0.049 H 
ATOM     51  H   UNL A   1      32.657  32.279  28.092  1.00  0.00     0.049 H 
BRANCH  49  52
ATOM     52  N   UNL A   1      32.313  34.248  27.666  1.00  0.00    -0.352 N 
ATOM     53  C   UNL A   1      32.976  34.971  28.628  1.00  0.00     0.251 C 
ATOM     54  H   UNL A   1      31.591  34.735  27.207  1.00  0.00     0.163 HD
ATOM     55  O   UNL A   1      32.563  36.083  28.945  1.00  0.00    -0.269 OA
BRANCH  53  56
ATOM     56  C   UNL A   1      34.171  34.421  29.311  1.00  0.00     0.039 A 
ATOM     57  C   UNL A   1      33.995  33.705  30.501  1.00  0.00    -0.049 A 
ATOM     58  C   UNL A   1      35.461  34.635  28.821  1.00  0.00    -0.049 A 
ATOM     59  C   UNL A   1      35.099  33.155  31.162  1.00  0.00    -0.053 A 
ATOM     60  H   UNL A   1      33.047  33.582  30.892  1.00  0.00     0.063 H 
ATOM     61  C   UNL A   1      36.553  34.024  29.436  1.00  0.00    -0.053 A 
ATOM     62  H   UNL A   1      35.607  35.246  28.002  1.00  0.00     0.063 H 
ATOM     63  C   UNL A   1      36.385  33.283  30.618  1.00  0.00    -0.014 A 
ATOM     64  H   UNL A   1      34.966  32.652  32.053  1.00  0.00     0.063 H 
ATOM     65  H   UNL A   1      37.493  34.114  29.019  1.00  0.00     0.063 H 
BRANCH  63  66
ATOM     66  C   UNL A   1      37.575  32.680  31.273  1.00  0.00     0.031 A 
ATOM     67  C   UNL A   1      38.304  31.546  30.606  1.00  0.00     0.074 A 
ATOM     68  C   UNL A   1      37.947  33.087  32.502  1.00  0.00     0.049 A 
ATOM     69  N   UNL A   1      39.271  30.793  31.068  1.00  0.00    -0.248 NA
ATOM     70  C   UNL A   1      37.862  31.187  29.250  1.00  0.00    -0.034 C 
ATOM     71  C   UNL A   1      37.301  34.150  33.272  1.00  0.00    -0.036 A 
ATOM     72  N   UNL A   1      38.950  32.640  33.327  1.00  0.00    -0.354 N 
ATOM     73  C   UNL A   1      39.527  29.856  30.076  1.00  0.00     0.074 A 
ATOM     74  C   UNL A   1      38.587  30.107  29.004  1.00  0.00    -0.034 C 
ATOM     75  H   UNL A   1      37.167  31.655  28.648  1.00  0.00     0.065 H 
ATOM     76  C   UNL A   1      37.926  34.277  34.455  1.00  0.00    -0.036 A 
ATOM     77  H   UNL A   1      36.495  34.711  32.958  1.00  0.00     0.065 H 
ATOM     78  C   UNL A   1      38.990  33.281  34.542  1.00  0.00     0.049 A 
ATOM     79  H   UNL A   1      39.580  31.927  33.073  1.00  0.00     0.167 HD
ATOM     80  C   UNL A   1      40.472  28.886  30.052  1.00  0.00     0.037 A 
ATOM     81  H   UNL A   1      38.494  29.520  28.160  1.00  0.00     0.065 H 
ATOM     82  H   UNL A   1      37.691  34.969  35.184  1.00  0.00     0.065 H 
ATOM     83  C   UNL A   1      39.783  33.078  35.612  1.00  0.00     0.037 A 
ATOM     84  C   UNL A   1      41.436  28.670  31.098  1.00  0.00     0.049 A 
ATOM     85  C   UNL A   1      40.838  32.006  35.555  1.00  0.00     0.074 A 
ATOM     86  C   UNL A   1      42.486  27.768  31.132  1.00  0.00    -0.036 A 
ATOM     87  N   UNL A   1      41.469  29.368  32.296  1.00  0.00    -0.354 N 
ATOM     88  N   UNL A   1      41.111  31.165  34.588  1.00  0.00    -0.248 NA
ATOM     89  C   UNL A   1      41.698  31.856  36.739  1.00  0.00    -0.034 C 
ATOM     90  C   UNL A   1      43.128  27.891  32.369  1.00  0.00    -0.036 A 
ATOM     91  H   UNL A   1      42.749  27.118  30.375  1.00  0.00     0.065 H 
ATOM     92  C   UNL A   1      42.508  28.901  33.086  1.00  0.00     0.049 A 
ATOM     93  H   UNL A   1      40.847  30.088  32.548  1.00  0.00     0.167 HD
ATOM     94  C   UNL A   1      42.186  30.408  35.031  1.00  0.00     0.074 A 
ATOM     95  C   UNL A   1      42.522  30.893  36.353  1.00  0.00    -0.034 C 
ATOM     96  H   UNL A   1      41.667  32.368  37.634  1.00  0.00     0.065 H 
ATOM     97  H   UNL A   1      43.928  27.325  32.691  1.00  0.00     0.065 H 
ATOM     98  C   UNL A   1      42.836  29.402  34.396  1.00  0.00     0.037 A 
ATOM     99  H   UNL A   1      43.304  30.532  36.923  1.00  0.00     0.065 H 
BRANCH  80 100
ATOM    100  C   UNL A   1      40.507  27.979  28.856  1.00  0.00     0.064 A 
ATOM    101  C   UNL A   1      41.281  28.277  27.724  1.00  0.00     0.173 A 
ATOM    102  C   UNL A   1      39.777  26.781  28.853  1.00  0.00     0.173 A 
ATOM    103  F   UNL A   1      41.989  29.415  27.673  1.00  0.00    -0.203 F 
ATOM    104  C   UNL A   1      41.294  27.428  26.620  1.00  0.00     0.198 A 
ATOM    105  C   UNL A   1      39.817  25.918  27.760  1.00  0.00     0.198 A 
ATOM    106  F   UNL A   1      39.026  26.442  29.912  1.00  0.00    -0.203 F 
ATOM    107  F   UNL A   1      41.997  27.762  25.529  1.00  0.00    -0.200 F 
ATOM    108  C   UNL A   1      40.568  26.247  26.641  1.00  0.00     0.200 A 
ATOM    109  F   UNL A   1      39.125  24.771  27.787  1.00  0.00    -0.200 F 
ATOM    110  F   UNL A   1      40.584  25.430  25.580  1.00  0.00    -0.200 F 
ENDBRANCH  80 100
BRANCH  83 111
ATOM    111  C   UNL A   1      39.618  33.925  36.821  1.00  0.00     0.064 A 
ATOM    112  C   UNL A   1      40.240  35.178  36.911  1.00  0.00     0.173 A 
ATOM    113  C   UNL A   1      38.825  33.510  37.900  1.00  0.00     0.173 A 
ATOM    114  F   UNL A   1      41.025  35.608  35.913  1.00  0.00    -0.203 F 
ATOM    115  C   UNL A   1      40.082  35.979  38.040  1.00  0.00     0.198 A 
ATOM    116  C   UNL A   1      38.648  34.323  39.018  1.00  0.00     0.198 A 
ATOM    117  F   UNL A   1      38.205  32.320  37.860  1.00  0.00    -0.203 F 
ATOM    118  F   UNL A   1      40.716  37.158  38.116  1.00  0.00    -0.200 F 
ATOM    119  C   UNL A   1      39.281  35.555  39.090  1.00  0.00     0.200 A 
ATOM    120  F   UNL A   1      37.862  33.915  40.023  1.00  0.00    -0.200 F 
ATOM    121  F   UNL A   1      39.123  36.330  40.171  1.00  0.00    -0.200 F 
ENDBRANCH  83 111
BRANCH  98 122
ATOM    122  C   UNL A   1      44.002  28.775  35.104  1.00  0.00     0.064 A 
ATOM    123  C   UNL A   1      45.303  29.273  34.955  1.00  0.00     0.173 A 
ATOM    124  C   UNL A   1      43.800  27.707  35.992  1.00  0.00     0.173 A 
ATOM    125  F   UNL A   1      45.548  30.283  34.107  1.00  0.00    -0.203 F 
ATOM    126  C   UNL A   1      46.365  28.715  35.662  1.00  0.00     0.198 A 
ATOM    127  C   UNL A   1      44.860  27.169  36.715  1.00  0.00     0.198 A 
ATOM    128  F   UNL A   1      42.572  27.200  36.171  1.00  0.00    -0.203 F 
ATOM    129  F   UNL A   1      47.608  29.184  35.483  1.00  0.00    -0.200 F 
ATOM    130  C   UNL A   1      46.142  27.670  36.548  1.00  0.00     0.200 A 
ATOM    131  F   UNL A   1      44.639  26.170  37.580  1.00  0.00    -0.200 F 
ATOM    132  F   UNL A   1      47.162  27.146  37.239  1.00  0.00    -0.200 F 
ENDBRANCH  98 122
ENDBRANCH  63  66
ENDBRANCH  53  56
ENDBRANCH  49  52
ENDBRANCH  46  49
ENDBRANCH  43  46
ENDBRANCH   1  43
TORSDOF 17
ENDMDL
MODEL 3
REMARK VINA RESULT:     -12.0      2.492      4.424
REMARK SMILES Cc1cccc(Nc2ccccc2C(=O)NCCCCCCNC(=O)c2ccc(-c3c4nc(c(-c5c(F)c(F)c(F)c(F)c5F)c5ccc([nH]5)c(-c5c(F)c(F)c(F)c(F)c5F)c5nc(c(-c6c(F)c(F)c(F)c(F)c6F)c6ccc3[nH]6)C=C5)C=C4)cc2)c1C
REMARK SMILES IDX 19 1 18 4 17 7 16 10 14 11 15 12 13 14 8 15 9 16 10 17 12 19
REMARK SMILES IDX 11 20 7 24 6 26 2 27 3 28 89 29 4 30 5 32 1 35 90 39 20 43
REMARK SMILES IDX 21 46 22 49 23 52 24 53 25 55 26 56 27 57 88 58 28 59 87 61
REMARK SMILES IDX 29 63 30 66 31 67 81 68 32 69 86 70 80 71 82 72 33 73 85 74
REMARK SMILES IDX 79 76 78 78 34 80 66 83 46 84 65 85 47 86 50 87 64 88 83 89
REMARK SMILES IDX 48 90 49 92 63 94 84 95 51 98 35 100 36 101 44 102 37 103
REMARK SMILES IDX 38 104 42 105 45 106 39 107 40 108 43 109 41 110 67 111
REMARK SMILES IDX 68 112 76 113 69 114 70 115 74 116 77 117 71 118 72 119
REMARK SMILES IDX 75 120 73 121 52 122 53 123 61 124 54 125 55 126 59 127
REMARK SMILES IDX 62 128 56 129 57 130 60 131 58 132
REMARK H PARENT 19 2 19 3 18 5 18 6 17 8 17 9 16 13 9 18 10 21 12 22 11 23
REMARK H PARENT 7 25 3 31 4 33 5 34 1 36 1 37 1 38 90 40 90 41 90 42 20 44
REMARK H PARENT 20 45 21 47 21 48 22 50 22 51 23 54 27 60 88 62 28 64 87 65
REMARK H PARENT 86 75 80 77 82 79 85 81 79 82 47 91 50 93 83 96 48 97 84 99
REMARK Flexibility Score: inf
ROOT
ATOM      1  C   UNL A   1      30.449  26.821  24.552  1.00  0.00    -0.052 C 
ATOM      2  H   UNL A   1      29.912  26.259  25.289  1.00  0.00     0.027 H 
ATOM      3  H   UNL A   1      29.848  27.437  23.915  1.00  0.00     0.027 H 
ENDROOT
BRANCH   1   4
ATOM      4  C   UNL A   1      31.114  25.813  23.603  1.00  0.00    -0.036 C 
ATOM      5  H   UNL A   1      30.885  26.108  22.601  1.00  0.00     0.028 H 
ATOM      6  H   UNL A   1      32.156  25.840  23.849  1.00  0.00     0.028 H 
BRANCH   4   7
ATOM      7  C   UNL A   1      30.703  24.351  23.761  1.00  0.00     0.018 C 
ATOM      8  H   UNL A   1      29.895  24.157  23.087  1.00  0.00     0.049 H 
ATOM      9  H   UNL A   1      31.575  23.767  23.551  1.00  0.00     0.049 H 
BRANCH   7  10
ATOM     10  N   UNL A   1      30.279  23.989  25.090  1.00  0.00    -0.352 N 
ATOM     11  C   UNL A   1      31.023  23.645  26.194  1.00  0.00     0.253 C 
ATOM     12  O   UNL A   1      30.406  23.483  27.251  1.00  0.00    -0.269 OA
ATOM     13  H   UNL A   1      29.306  23.986  25.229  1.00  0.00     0.163 HD
BRANCH  11  14
ATOM     14  C   UNL A   1      32.487  23.334  26.170  1.00  0.00     0.063 A 
ATOM     15  C   UNL A   1      33.123  22.077  26.153  1.00  0.00     0.051 A 
ATOM     16  C   UNL A   1      34.541  22.047  26.188  1.00  0.00    -0.038 A 
ATOM     17  C   UNL A   1      35.316  23.206  26.164  1.00  0.00    -0.060 A 
ATOM     18  H   UNL A   1      35.018  21.133  26.232  1.00  0.00     0.064 H 
ATOM     19  C   UNL A   1      33.295  24.500  26.127  1.00  0.00    -0.047 A 
ATOM     20  C   UNL A   1      34.688  24.439  26.111  1.00  0.00    -0.061 A 
ATOM     21  H   UNL A   1      36.345  23.146  26.185  1.00  0.00     0.062 H 
ATOM     22  H   UNL A   1      32.835  25.424  26.107  1.00  0.00     0.063 H 
ATOM     23  H   UNL A   1      35.247  25.305  26.062  1.00  0.00     0.062 H 
BRANCH  15  24
ATOM     24  N   UNL A   1      32.527  20.812  25.968  1.00  0.00    -0.355 N 
ATOM     25  H   UNL A   1      31.785  20.644  26.594  1.00  0.00     0.167 HD
BRANCH  24  26
ATOM     26  C   UNL A   1      32.753  19.735  25.087  1.00  0.00     0.042 A 
ATOM     27  C   UNL A   1      32.521  18.517  22.987  1.00  0.00    -0.046 A 
ATOM     28  C   UNL A   1      32.897  17.330  23.632  1.00  0.00    -0.059 A 
ATOM     29  C   UNL A   1      32.513  19.746  23.699  1.00  0.00    -0.025 A 
ATOM     30  C   UNL A   1      33.253  17.341  24.972  1.00  0.00    -0.060 A 
ATOM     31  H   UNL A   1      32.910  16.442  23.106  1.00  0.00     0.063 H 
ATOM     32  C   UNL A   1      33.170  18.529  25.689  1.00  0.00    -0.038 A 
ATOM     33  H   UNL A   1      33.576  16.475  25.432  1.00  0.00     0.062 H 
ATOM     34  H   UNL A   1      33.420  18.528  26.691  1.00  0.00     0.064 H 
BRANCH  27  35
ATOM     35  C   UNL A   1      32.153  18.453  21.528  1.00  0.00    -0.039 C 
ATOM     36  H   UNL A   1      31.762  19.398  21.216  1.00  0.00     0.028 H 
ATOM     37  H   UNL A   1      31.414  17.694  21.380  1.00  0.00     0.028 H 
ATOM     38  H   UNL A   1      33.024  18.219  20.951  1.00  0.00     0.028 H 
ENDBRANCH  27  35
BRANCH  29  39
ATOM     39  C   UNL A   1      32.314  21.026  22.928  1.00  0.00    -0.037 C 
ATOM     40  H   UNL A   1      31.391  21.480  23.221  1.00  0.00     0.028 H 
ATOM     41  H   UNL A   1      32.291  20.813  21.880  1.00  0.00     0.028 H 
ATOM     42  H   UNL A   1      33.123  21.697  23.138  1.00  0.00     0.028 H 
ENDBRANCH  29  39
ENDBRANCH  24  26
ENDBRANCH  15  24
ENDBRANCH  11  14
ENDBRANCH   7  10
ENDBRANCH   4   7
ENDBRANCH   1   4
BRANCH   1  43
ATOM     43  C   UNL A   1      31.358  27.805  25.299  1.00  0.00    -0.052 C 
ATOM     44  H   UNL A   1      31.272  27.594  26.344  1.00  0.00     0.027 H 
ATOM     45  H   UNL A   1      31.017  28.776  25.005  1.00  0.00     0.027 H 
BRANCH  43  46
ATOM     46  C   UNL A   1      32.845  27.782  24.943  1.00  0.00    -0.036 C 
ATOM     47  H   UNL A   1      32.947  27.273  24.008  1.00  0.00     0.028 H 
ATOM     48  H   UNL A   1      33.326  27.298  25.767  1.00  0.00     0.028 H 
BRANCH  46  49
ATOM     49  C   UNL A   1      33.532  29.135  24.813  1.00  0.00     0.018 C 
ATOM     50  H   UNL A   1      33.606  29.380  23.773  1.00  0.00     0.049 H 
ATOM     51  H   UNL A   1      34.492  29.051  25.274  1.00  0.00     0.049 H 
BRANCH  49  52
ATOM     52  N   UNL A   1      32.819  30.205  25.489  1.00  0.00    -0.352 N 
ATOM     53  C   UNL A   1      33.105  30.858  26.663  1.00  0.00     0.251 C 
ATOM     54  H   UNL A   1      32.002  30.511  25.034  1.00  0.00     0.163 HD
ATOM     55  O   UNL A   1      32.294  31.651  27.131  1.00  0.00    -0.269 OA
BRANCH  53  56
ATOM     56  C   UNL A   1      34.371  30.602  27.393  1.00  0.00     0.039 A 
ATOM     57  C   UNL A   1      35.240  31.675  27.626  1.00  0.00    -0.049 A 
ATOM     58  C   UNL A   1      34.732  29.320  27.810  1.00  0.00    -0.049 A 
ATOM     59  C   UNL A   1      36.434  31.473  28.327  1.00  0.00    -0.053 A 
ATOM     60  H   UNL A   1      34.999  32.617  27.280  1.00  0.00     0.063 H 
ATOM     61  C   UNL A   1      35.883  29.132  28.575  1.00  0.00    -0.053 A 
ATOM     62  H   UNL A   1      34.146  28.510  27.553  1.00  0.00     0.063 H 
ATOM     63  C   UNL A   1      36.751  30.205  28.835  1.00  0.00    -0.014 A 
ATOM     64  H   UNL A   1      37.084  32.262  28.472  1.00  0.00     0.063 H 
ATOM     65  H   UNL A   1      36.099  28.197  28.954  1.00  0.00     0.063 H 
BRANCH  63  66
ATOM     66  C   UNL A   1      37.992  29.963  29.616  1.00  0.00     0.031 A 
ATOM     67  C   UNL A   1      39.041  29.025  29.085  1.00  0.00     0.074 A 
ATOM     68  C   UNL A   1      38.138  30.512  30.837  1.00  0.00     0.049 A 
ATOM     69  N   UNL A   1      40.124  28.573  29.667  1.00  0.00    -0.248 NA
ATOM     70  C   UNL A   1      38.827  28.500  27.728  1.00  0.00    -0.034 C 
ATOM     71  C   UNL A   1      37.177  31.407  31.483  1.00  0.00    -0.036 A 
ATOM     72  N   UNL A   1      39.144  30.380  31.763  1.00  0.00    -0.354 N 
ATOM     73  C   UNL A   1      40.696  27.687  28.764  1.00  0.00     0.074 A 
ATOM     74  C   UNL A   1      39.822  27.634  27.611  1.00  0.00    -0.034 C 
ATOM     75  H   UNL A   1      38.092  28.742  27.045  1.00  0.00     0.065 H 
ATOM     76  C   UNL A   1      37.642  31.748  32.696  1.00  0.00    -0.036 A 
ATOM     77  H   UNL A   1      36.286  31.723  31.073  1.00  0.00     0.065 H 
ATOM     78  C   UNL A   1      38.912  31.067  32.931  1.00  0.00     0.049 A 
ATOM     79  H   UNL A   1      39.955  29.843  31.607  1.00  0.00     0.167 HD
ATOM     80  C   UNL A   1      41.855  26.994  28.877  1.00  0.00     0.037 A 
ATOM     81  H   UNL A   1      39.957  27.003  26.806  1.00  0.00     0.065 H 
ATOM     82  H   UNL A   1      37.175  32.389  33.357  1.00  0.00     0.065 H 
ATOM     83  C   UNL A   1      39.633  31.128  34.067  1.00  0.00     0.037 A 
ATOM     84  C   UNL A   1      42.745  27.086  30.003  1.00  0.00     0.049 A 
ATOM     85  C   UNL A   1      40.926  30.365  34.163  1.00  0.00     0.074 A 
ATOM     86  C   UNL A   1      43.983  26.490  30.177  1.00  0.00    -0.036 A 
ATOM     87  N   UNL A   1      42.494  27.826  31.149  1.00  0.00    -0.354 N 
ATOM     88  N   UNL A   1      41.488  29.577  33.279  1.00  0.00    -0.248 NA
ATOM     89  C   UNL A   1      41.687  30.500  35.413  1.00  0.00    -0.034 C 
ATOM     90  C   UNL A   1      44.460  26.835  31.446  1.00  0.00    -0.036 A 
ATOM     91  H   UNL A   1      44.469  25.895  29.488  1.00  0.00     0.065 H 
ATOM     92  C   UNL A   1      43.542  27.683  32.044  1.00  0.00     0.049 A 
ATOM     93  H   UNL A   1      41.689  28.372  31.304  1.00  0.00     0.167 HD
ATOM     94  C   UNL A   1      42.677  29.147  33.850  1.00  0.00     0.074 A 
ATOM     95  C   UNL A   1      42.760  29.765  35.157  1.00  0.00    -0.034 C 
ATOM     96  H   UNL A   1      41.447  31.028  36.267  1.00  0.00     0.065 H 
ATOM     97  H   UNL A   1      45.346  26.511  31.864  1.00  0.00     0.065 H 
ATOM     98  C   UNL A   1      43.615  28.314  33.337  1.00  0.00     0.037 A 
ATOM     99  H   UNL A   1      43.554  29.648  35.807  1.00  0.00     0.065 H 
BRANCH  80 100
ATOM    100  C   UNL A   1      42.225  26.071  27.753  1.00  0.00     0.064 A 
ATOM    101  C   UNL A   1      41.666  24.790  27.633  1.00  0.00     0.173 A 
ATOM    102  C   UNL A   1      43.134  26.483  26.767  1.00  0.00     0.173 A 
ATOM    103  F   UNL A   1      40.800  24.344  28.555  1.00  0.00    -0.203 F 
ATOM    104  C   UNL A   1      42.029  23.943  26.588  1.00  0.00     0.198 A 
ATOM    105  C   UNL A   1      43.472  25.646  25.705  1.00  0.00     0.198 A 
ATOM    106  F   UNL A   1      43.694  27.701  26.828  1.00  0.00    -0.203 F 
ATOM    107  F   UNL A   1      41.522  22.704  26.526  1.00  0.00    -0.200 F 
ATOM    108  C   UNL A   1      42.926  24.374  25.623  1.00  0.00     0.200 A 
ATOM    109  F   UNL A   1      44.329  26.069  24.766  1.00  0.00    -0.200 F 
ATOM    110  F   UNL A   1      43.272  23.560  24.617  1.00  0.00    -0.200 F 
ENDBRANCH  80 100
BRANCH  83 111
ATOM    111  C   UNL A   1      39.150  31.960  35.199  1.00  0.00     0.064 A 
ATOM    112  C   UNL A   1      38.432  31.387  36.257  1.00  0.00     0.173 A 
ATOM    113  C   UNL A   1      39.410  33.337  35.255  1.00  0.00     0.173 A 
ATOM    114  F   UNL A   1      38.141  30.079  36.237  1.00  0.00    -0.203 F 
ATOM    115  C   UNL A   1      37.983  32.162  37.324  1.00  0.00     0.198 A 
ATOM    116  C   UNL A   1      38.982  34.107  36.335  1.00  0.00     0.198 A 
ATOM    117  F   UNL A   1      40.097  33.932  34.269  1.00  0.00    -0.203 F 
ATOM    118  F   UNL A   1      37.268  31.596  38.307  1.00  0.00    -0.200 F 
ATOM    119  C   UNL A   1      38.264  33.520  37.367  1.00  0.00     0.200 A 
ATOM    120  F   UNL A   1      39.268  35.415  36.378  1.00  0.00    -0.200 F 
ATOM    121  F   UNL A   1      37.839  34.262  38.398  1.00  0.00    -0.200 F 
ENDBRANCH  83 111
BRANCH  98 122
ATOM    122  C   UNL A   1      44.834  28.046  34.170  1.00  0.00     0.064 A 
ATOM    123  C   UNL A   1      45.955  28.885  34.120  1.00  0.00     0.173 A 
ATOM    124  C   UNL A   1      44.851  26.974  35.075  1.00  0.00     0.173 A 
ATOM    125  F   UNL A   1      45.992  29.914  33.260  1.00  0.00    -0.203 F 
ATOM    126  C   UNL A   1      47.056  28.654  34.940  1.00  0.00     0.198 A 
ATOM    127  C   UNL A   1      45.942  26.761  35.911  1.00  0.00     0.198 A 
ATOM    128  F   UNL A   1      43.800  26.146  35.162  1.00  0.00    -0.203 F 
ATOM    129  F   UNL A   1      48.132  29.449  34.856  1.00  0.00    -0.200 F 
ATOM    130  C   UNL A   1      47.046  27.598  35.842  1.00  0.00     0.200 A 
ATOM    131  F   UNL A   1      45.924  25.750  36.790  1.00  0.00    -0.200 F 
ATOM    132  F   UNL A   1      48.099  27.387  36.641  1.00  0.00    -0.200 F 
ENDBRANCH  98 122
ENDBRANCH  63  66
ENDBRANCH  53  56
ENDBRANCH  49  52
ENDBRANCH  46  49
ENDBRANCH  43  46
ENDBRANCH   1  43
TORSDOF 17
ENDMDL
MODEL 4
REMARK VINA RESULT:     -12.0      2.088      3.205
REMARK SMILES Cc1cccc(Nc2ccccc2C(=O)NCCCCCCNC(=O)c2ccc(-c3c4nc(c(-c5c(F)c(F)c(F)c(F)c5F)c5ccc([nH]5)c(-c5c(F)c(F)c(F)c(F)c5F)c5nc(c(-c6c(F)c(F)c(F)c(F)c6F)c6ccc3[nH]6)C=C5)C=C4)cc2)c1C
REMARK SMILES IDX 19 1 18 4 17 7 16 10 14 11 15 12 13 14 8 15 9 16 10 17 12 19
REMARK SMILES IDX 11 20 7 24 6 26 2 27 3 28 89 29 4 30 5 32 1 35 90 39 20 43
REMARK SMILES IDX 21 46 22 49 23 52 24 53 25 55 26 56 27 57 88 58 28 59 87 61
REMARK SMILES IDX 29 63 30 66 31 67 81 68 32 69 86 70 80 71 82 72 33 73 85 74
REMARK SMILES IDX 79 76 78 78 34 80 66 83 46 84 65 85 47 86 50 87 64 88 83 89
REMARK SMILES IDX 48 90 49 92 63 94 84 95 51 98 35 100 36 101 44 102 37 103
REMARK SMILES IDX 38 104 42 105 45 106 39 107 40 108 43 109 41 110 67 111
REMARK SMILES IDX 68 112 76 113 69 114 70 115 74 116 77 117 71 118 72 119
REMARK SMILES IDX 75 120 73 121 52 122 53 123 61 124 54 125 55 126 59 127
REMARK SMILES IDX 62 128 56 129 57 130 60 131 58 132
REMARK H PARENT 19 2 19 3 18 5 18 6 17 8 17 9 16 13 9 18 10 21 12 22 11 23
REMARK H PARENT 7 25 3 31 4 33 5 34 1 36 1 37 1 38 90 40 90 41 90 42 20 44
REMARK H PARENT 20 45 21 47 21 48 22 50 22 51 23 54 27 60 88 62 28 64 87 65
REMARK H PARENT 86 75 80 77 82 79 85 81 79 82 47 91 50 93 83 96 48 97 84 99
REMARK Flexibility Score: inf
ROOT
ATOM      1  C   UNL A   1      33.888  26.499  26.016  1.00  0.00    -0.052 C 
ATOM      2  H   UNL A   1      34.209  27.008  25.130  1.00  0.00     0.027 H 
ATOM      3  H   UNL A   1      34.505  26.644  26.879  1.00  0.00     0.027 H 
ENDROOT
BRANCH   1   4
ATOM      4  C   UNL A   1      33.966  24.992  25.732  1.00  0.00    -0.036 C 
ATOM      5  H   UNL A   1      33.280  24.500  26.389  1.00  0.00     0.028 H 
ATOM      6  H   UNL A   1      33.737  24.889  24.691  1.00  0.00     0.028 H 
BRANCH   4   7
ATOM      7  C   UNL A   1      35.331  24.332  25.909  1.00  0.00     0.018 C 
ATOM      8  H   UNL A   1      35.964  25.010  26.441  1.00  0.00     0.049 H 
ATOM      9  H   UNL A   1      35.159  23.417  26.437  1.00  0.00     0.049 H 
BRANCH   7  10
ATOM     10  N   UNL A   1      35.987  23.975  24.676  1.00  0.00    -0.352 N 
ATOM     11  C   UNL A   1      35.672  23.006  23.754  1.00  0.00     0.253 C 
ATOM     12  O   UNL A   1      36.346  22.983  22.720  1.00  0.00    -0.269 OA
ATOM     13  H   UNL A   1      36.786  24.507  24.462  1.00  0.00     0.163 HD
BRANCH  11  14
ATOM     14  C   UNL A   1      34.669  21.916  23.973  1.00  0.00     0.063 A 
ATOM     15  C   UNL A   1      33.325  21.856  23.555  1.00  0.00     0.051 A 
ATOM     16  C   UNL A   1      32.558  20.725  23.939  1.00  0.00    -0.038 A 
ATOM     17  C   UNL A   1      33.104  19.654  24.644  1.00  0.00    -0.060 A 
ATOM     18  H   UNL A   1      31.558  20.695  23.687  1.00  0.00     0.064 H 
ATOM     19  C   UNL A   1      35.209  20.806  24.672  1.00  0.00    -0.047 A 
ATOM     20  C   UNL A   1      34.444  19.685  24.993  1.00  0.00    -0.061 A 
ATOM     21  H   UNL A   1      32.517  18.845  24.901  1.00  0.00     0.062 H 
ATOM     22  H   UNL A   1      36.202  20.829  24.953  1.00  0.00     0.063 H 
ATOM     23  H   UNL A   1      34.871  18.886  25.487  1.00  0.00     0.062 H 
BRANCH  15  24
ATOM     24  N   UNL A   1      32.657  22.729  22.671  1.00  0.00    -0.355 N 
ATOM     25  H   UNL A   1      32.446  22.308  21.806  1.00  0.00     0.167 HD
BRANCH  24  26
ATOM     26  C   UNL A   1      32.221  24.068  22.749  1.00  0.00     0.042 A 
ATOM     27  C   UNL A   1      30.655  25.848  23.317  1.00  0.00    -0.046 A 
ATOM     28  C   UNL A   1      31.295  26.704  22.408  1.00  0.00    -0.059 A 
ATOM     29  C   UNL A   1      31.160  24.541  23.545  1.00  0.00    -0.025 A 
ATOM     30  C   UNL A   1      32.417  26.278  21.714  1.00  0.00    -0.060 A 
ATOM     31  H   UNL A   1      30.928  27.656  22.255  1.00  0.00     0.063 H 
ATOM     32  C   UNL A   1      32.865  24.972  21.878  1.00  0.00    -0.038 A 
ATOM     33  H   UNL A   1      32.915  26.924  21.082  1.00  0.00     0.062 H 
ATOM     34  H   UNL A   1      33.691  24.655  21.346  1.00  0.00     0.064 H 
BRANCH  27  35
ATOM     35  C   UNL A   1      29.445  26.362  24.053  1.00  0.00    -0.039 C 
ATOM     36  H   UNL A   1      29.756  27.028  24.830  1.00  0.00     0.028 H 
ATOM     37  H   UNL A   1      28.912  25.539  24.479  1.00  0.00     0.028 H 
ATOM     38  H   UNL A   1      28.808  26.884  23.369  1.00  0.00     0.028 H 
ENDBRANCH  27  35
BRANCH  29  39
ATOM     39  C   UNL A   1      30.582  23.730  24.678  1.00  0.00    -0.037 C 
ATOM     40  H   UNL A   1      29.521  23.659  24.562  1.00  0.00     0.028 H 
ATOM     41  H   UNL A   1      30.809  24.206  25.609  1.00  0.00     0.028 H 
ATOM     42  H   UNL A   1      31.009  22.748  24.666  1.00  0.00     0.028 H 
ENDBRANCH  29  39
ENDBRANCH  24  26
ENDBRANCH  15  24
ENDBRANCH  11  14
ENDBRANCH   7  10
ENDBRANCH   4   7
ENDBRANCH   1   4
BRANCH   1  43
ATOM     43  C   UNL A   1      32.526  27.082  26.411  1.00  0.00    -0.052 C 
ATOM     44  H   UNL A   1      32.572  27.336  27.449  1.00  0.00     0.027 H 
ATOM     45  H   UNL A   1      31.816  26.320  26.163  1.00  0.00     0.027 H 
BRANCH  43  46
ATOM     46  C   UNL A   1      32.057  28.324  25.652  1.00  0.00    -0.036 C 
ATOM     47  H   UNL A   1      31.228  28.738  26.187  1.00  0.00     0.028 H 
ATOM     48  H   UNL A   1      31.822  27.983  24.666  1.00  0.00     0.028 H 
BRANCH  46  49
ATOM     49  C   UNL A   1      33.086  29.431  25.462  1.00  0.00     0.018 C 
ATOM     50  H   UNL A   1      33.316  29.506  24.420  1.00  0.00     0.049 H 
ATOM     51  H   UNL A   1      33.944  29.171  26.045  1.00  0.00     0.049 H 
BRANCH  49  52
ATOM     52  N   UNL A   1      32.623  30.727  25.927  1.00  0.00    -0.352 N 
ATOM     53  C   UNL A   1      33.106  31.535  26.927  1.00  0.00     0.251 C 
ATOM     54  H   UNL A   1      31.839  31.083  25.449  1.00  0.00     0.163 HD
ATOM     55  O   UNL A   1      32.482  32.542  27.249  1.00  0.00    -0.269 OA
BRANCH  53  56
ATOM     56  C   UNL A   1      34.359  31.199  27.645  1.00  0.00     0.039 A 
ATOM     57  C   UNL A   1      35.302  32.212  27.861  1.00  0.00    -0.049 A 
ATOM     58  C   UNL A   1      34.637  29.898  28.069  1.00  0.00    -0.049 A 
ATOM     59  C   UNL A   1      36.487  31.934  28.550  1.00  0.00    -0.053 A 
ATOM     60  H   UNL A   1      35.122  33.166  27.510  1.00  0.00     0.063 H 
ATOM     61  C   UNL A   1      35.781  29.637  28.822  1.00  0.00    -0.053 A 
ATOM     62  H   UNL A   1      33.995  29.128  27.824  1.00  0.00     0.063 H 
ATOM     63  C   UNL A   1      36.722  30.651  29.065  1.00  0.00    -0.014 A 
ATOM     64  H   UNL A   1      37.191  32.677  28.682  1.00  0.00     0.063 H 
ATOM     65  H   UNL A   1      35.936  28.693  29.206  1.00  0.00     0.063 H 
BRANCH  63  66
ATOM     66  C   UNL A   1      37.953  30.331  29.835  1.00  0.00     0.031 A 
ATOM     67  C   UNL A   1      38.968  29.379  29.263  1.00  0.00     0.074 A 
ATOM     68  C   UNL A   1      38.117  30.820  31.079  1.00  0.00     0.049 A 
ATOM     69  N   UNL A   1      40.032  28.862  29.825  1.00  0.00    -0.248 NA
ATOM     70  C   UNL A   1      38.737  28.920  27.885  1.00  0.00    -0.034 C 
ATOM     71  C   UNL A   1      37.188  31.721  31.762  1.00  0.00    -0.036 A 
ATOM     72  N   UNL A   1      39.117  30.612  31.998  1.00  0.00    -0.354 N 
ATOM     73  C   UNL A   1      40.574  27.997  28.885  1.00  0.00     0.074 A 
ATOM     74  C   UNL A   1      39.700  28.025  27.731  1.00  0.00    -0.034 C 
ATOM     75  H   UNL A   1      38.012  29.219  27.213  1.00  0.00     0.065 H 
ATOM     76  C   UNL A   1      37.663  31.992  32.989  1.00  0.00    -0.036 A 
ATOM     77  H   UNL A   1      36.310  32.087  31.366  1.00  0.00     0.065 H 
ATOM     78  C   UNL A   1      38.908  31.256  33.194  1.00  0.00     0.049 A 
ATOM     79  H   UNL A   1      39.907  30.053  31.818  1.00  0.00     0.167 HD
ATOM     80  C   UNL A   1      41.706  27.258  28.967  1.00  0.00     0.037 A 
ATOM     81  H   UNL A   1      39.813  27.425  26.899  1.00  0.00     0.065 H 
ATOM     82  H   UNL A   1      37.219  32.621  33.677  1.00  0.00     0.065 H 
ATOM     83  C   UNL A   1      39.629  31.241  34.331  1.00  0.00     0.037 A 
ATOM     84  C   UNL A   1      42.598  27.269  30.096  1.00  0.00     0.049 A 
ATOM     85  C   UNL A   1      40.893  30.429  34.394  1.00  0.00     0.074 A 
ATOM     86  C   UNL A   1      43.812  26.621  30.244  1.00  0.00    -0.036 A 
ATOM     87  N   UNL A   1      42.372  27.966  31.273  1.00  0.00    -0.354 N 
ATOM     88  N   UNL A   1      41.427  29.660  33.477  1.00  0.00    -0.248 NA
ATOM     89  C   UNL A   1      41.656  30.482  35.649  1.00  0.00    -0.034 C 
ATOM     90  C   UNL A   1      44.300  26.892  31.527  1.00  0.00    -0.036 A 
ATOM     91  H   UNL A   1      44.278  26.038  29.530  1.00  0.00     0.065 H 
ATOM     92  C   UNL A   1      43.413  27.747  32.161  1.00  0.00     0.049 A 
ATOM     93  H   UNL A   1      41.587  28.534  31.452  1.00  0.00     0.167 HD
ATOM     94  C   UNL A   1      42.599  29.162  34.029  1.00  0.00     0.074 A 
ATOM     95  C   UNL A   1      42.702  29.720  35.361  1.00  0.00    -0.034 C 
ATOM     96  H   UNL A   1      41.435  30.981  36.525  1.00  0.00     0.065 H 
ATOM     97  H   UNL A   1      45.173  26.519  31.931  1.00  0.00     0.065 H 
ATOM     98  C   UNL A   1      43.507  28.319  33.480  1.00  0.00     0.037 A 
ATOM     99  H   UNL A   1      43.491  29.546  36.005  1.00  0.00     0.065 H 
BRANCH  80 100
ATOM    100  C   UNL A   1      42.045  26.371  27.805  1.00  0.00     0.064 A 
ATOM    101  C   UNL A   1      42.980  26.753  26.830  1.00  0.00     0.173 A 
ATOM    102  C   UNL A   1      41.445  25.109  27.676  1.00  0.00     0.173 A 
ATOM    103  F   UNL A   1      43.574  27.953  26.901  1.00  0.00    -0.203 F 
ATOM    104  C   UNL A   1      43.275  25.921  25.754  1.00  0.00     0.198 A 
ATOM    105  C   UNL A   1      41.765  24.265  26.615  1.00  0.00     0.198 A 
ATOM    106  F   UNL A   1      40.549  24.690  28.583  1.00  0.00    -0.203 F 
ATOM    107  F   UNL A   1      44.129  26.331  24.807  1.00  0.00    -0.200 F 
ATOM    108  C   UNL A   1      42.672  24.677  25.650  1.00  0.00     0.200 A 
ATOM    109  F   UNL A   1      41.191  23.058  26.524  1.00  0.00    -0.200 F 
ATOM    110  F   UNL A   1      42.959  23.875  24.615  1.00  0.00    -0.200 F 
ENDBRANCH  80 100
BRANCH  83 111
ATOM    111  C   UNL A   1      39.175  32.042  35.499  1.00  0.00     0.064 A 
ATOM    112  C   UNL A   1      39.535  33.390  35.628  1.00  0.00     0.173 A 
ATOM    113  C   UNL A   1      38.364  31.483  36.496  1.00  0.00     0.173 A 
ATOM    114  F   UNL A   1      40.327  33.962  34.711  1.00  0.00    -0.203 F 
ATOM    115  C   UNL A   1      39.107  34.146  36.718  1.00  0.00     0.198 A 
ATOM    116  C   UNL A   1      37.915  32.247  37.571  1.00  0.00     0.198 A 
ATOM    117  F   UNL A   1      37.988  30.197  36.415  1.00  0.00    -0.203 F 
ATOM    118  F   UNL A   1      39.494  35.424  36.836  1.00  0.00    -0.200 F 
ATOM    119  C   UNL A   1      38.292  33.577  37.685  1.00  0.00     0.200 A 
ATOM    120  F   UNL A   1      37.117  31.696  38.495  1.00  0.00    -0.200 F 
ATOM    121  F   UNL A   1      37.874  34.308  38.726  1.00  0.00    -0.200 F 
ENDBRANCH  83 111
BRANCH  98 122
ATOM    122  C   UNL A   1      44.714  27.970  34.300  1.00  0.00     0.064 A 
ATOM    123  C   UNL A   1      44.741  26.833  35.119  1.00  0.00     0.173 A 
ATOM    124  C   UNL A   1      45.879  28.748  34.211  1.00  0.00     0.173 A 
ATOM    125  F   UNL A   1      43.649  26.067  35.247  1.00  0.00    -0.203 F 
ATOM    126  C   UNL A   1      45.889  26.494  35.830  1.00  0.00     0.198 A 
ATOM    127  C   UNL A   1      47.031  28.392  34.904  1.00  0.00     0.198 A 
ATOM    128  F   UNL A   1      45.903  29.843  33.437  1.00  0.00    -0.203 F 
ATOM    129  F   UNL A   1      45.886  25.420  36.632  1.00  0.00    -0.200 F 
ATOM    130  C   UNL A   1      47.036  27.267  35.715  1.00  0.00     0.200 A 
ATOM    131  F   UNL A   1      48.141  29.132  34.780  1.00  0.00    -0.200 F 
ATOM    132  F   UNL A   1      48.144  26.930  36.388  1.00  0.00    -0.200 F 
ENDBRANCH  98 122
ENDBRANCH  63  66
ENDBRANCH  53  56
ENDBRANCH  49  52
ENDBRANCH  46  49
ENDBRANCH  43  46
ENDBRANCH   1  43
TORSDOF 17
ENDMDL
MODEL 5
REMARK VINA RESULT:     -11.9      4.190     11.134
REMARK SMILES Cc1cccc(Nc2ccccc2C(=O)NCCCCCCNC(=O)c2ccc(-c3c4nc(c(-c5c(F)c(F)c(F)c(F)c5F)c5ccc([nH]5)c(-c5c(F)c(F)c(F)c(F)c5F)c5nc(c(-c6c(F)c(F)c(F)c(F)c6F)c6ccc3[nH]6)C=C5)C=C4)cc2)c1C
REMARK SMILES IDX 19 1 18 4 17 7 16 10 14 11 15 12 13 14 8 15 9 16 10 17 12 19
REMARK SMILES IDX 11 20 7 24 6 26 2 27 3 28 89 29 4 30 5 32 1 35 90 39 20 43
REMARK SMILES IDX 21 46 22 49 23 52 24 53 25 55 26 56 27 57 88 58 28 59 87 61
REMARK SMILES IDX 29 63 30 66 31 67 81 68 32 69 86 70 80 71 82 72 33 73 85 74
REMARK SMILES IDX 79 76 78 78 34 80 66 83 46 84 65 85 47 86 50 87 64 88 83 89
REMARK SMILES IDX 48 90 49 92 63 94 84 95 51 98 35 100 36 101 44 102 37 103
REMARK SMILES IDX 38 104 42 105 45 106 39 107 40 108 43 109 41 110 67 111
REMARK SMILES IDX 68 112 76 113 69 114 70 115 74 116 77 117 71 118 72 119
REMARK SMILES IDX 75 120 73 121 52 122 53 123 61 124 54 125 55 126 59 127
REMARK SMILES IDX 62 128 56 129 57 130 60 131 58 132
REMARK H PARENT 19 2 19 3 18 5 18 6 17 8 17 9 16 13 9 18 10 21 12 22 11 23
REMARK H PARENT 7 25 3 31 4 33 5 34 1 36 1 37 1 38 90 40 90 41 90 42 20 44
REMARK H PARENT 20 45 21 47 21 48 22 50 22 51 23 54 27 60 88 62 28 64 87 65
REMARK H PARENT 86 75 80 77 82 79 85 81 79 82 47 91 50 93 83 96 48 97 84 99
REMARK Flexibility Score: inf
ROOT
ATOM      1  C   UNL A   1      37.569  33.253  29.251  1.00  0.00    -0.052 C 
ATOM      2  H   UNL A   1      37.168  33.053  30.224  1.00  0.00     0.027 H 
ATOM      3  H   UNL A   1      38.021  32.417  28.759  1.00  0.00     0.027 H 
ENDROOT
BRANCH   1   4
ATOM      4  C   UNL A   1      38.710  34.266  29.427  1.00  0.00    -0.036 C 
ATOM      5  H   UNL A   1      39.579  33.862  28.951  1.00  0.00     0.028 H 
ATOM      6  H   UNL A   1      38.349  35.176  28.994  1.00  0.00     0.028 H 
BRANCH   4   7
ATOM      7  C   UNL A   1      39.091  34.626  30.860  1.00  0.00     0.018 C 
ATOM      8  H   UNL A   1      39.543  33.767  31.312  1.00  0.00     0.049 H 
ATOM      9  H   UNL A   1      39.754  35.464  30.796  1.00  0.00     0.049 H 
BRANCH   7  10
ATOM     10  N   UNL A   1      37.986  35.041  31.687  1.00  0.00    -0.352 N 
ATOM     11  C   UNL A   1      37.413  34.426  32.774  1.00  0.00     0.253 C 
ATOM     12  O   UNL A   1      36.537  35.058  33.372  1.00  0.00    -0.269 OA
ATOM     13  H   UNL A   1      37.576  35.898  31.432  1.00  0.00     0.163 HD
BRANCH  11  14
ATOM     14  C   UNL A   1      37.687  33.016  33.197  1.00  0.00     0.063 A 
ATOM     15  C   UNL A   1      38.630  32.541  34.130  1.00  0.00     0.051 A 
ATOM     16  C   UNL A   1      38.733  31.138  34.317  1.00  0.00    -0.038 A 
ATOM     17  C   UNL A   1      37.893  30.232  33.670  1.00  0.00    -0.060 A 
ATOM     18  H   UNL A   1      39.456  30.774  34.956  1.00  0.00     0.064 H 
ATOM     19  C   UNL A   1      36.831  32.079  32.565  1.00  0.00    -0.047 A 
ATOM     20  C   UNL A   1      36.922  30.707  32.805  1.00  0.00    -0.061 A 
ATOM     21  H   UNL A   1      37.994  29.219  33.834  1.00  0.00     0.062 H 
ATOM     22  H   UNL A   1      36.116  32.423  31.903  1.00  0.00     0.063 H 
ATOM     23  H   UNL A   1      36.272  30.053  32.342  1.00  0.00     0.062 H 
BRANCH  15  24
ATOM     24  N   UNL A   1      39.414  33.298  35.025  1.00  0.00    -0.355 N 
ATOM     25  H   UNL A   1      40.347  33.396  34.725  1.00  0.00     0.167 HD
BRANCH  24  26
ATOM     26  C   UNL A   1      39.162  33.948  36.250  1.00  0.00     0.042 A 
ATOM     27  C   UNL A   1      39.551  35.622  37.980  1.00  0.00    -0.046 A 
ATOM     28  C   UNL A   1      38.852  34.832  38.905  1.00  0.00    -0.059 A 
ATOM     29  C   UNL A   1      39.651  35.215  36.624  1.00  0.00    -0.025 A 
ATOM     30  C   UNL A   1      38.263  33.641  38.507  1.00  0.00    -0.060 A 
ATOM     31  H   UNL A   1      38.774  35.138  39.887  1.00  0.00     0.063 H 
ATOM     32  C   UNL A   1      38.428  33.203  37.198  1.00  0.00    -0.038 A 
ATOM     33  H   UNL A   1      37.709  33.085  39.177  1.00  0.00     0.062 H 
ATOM     34  H   UNL A   1      38.002  32.307  36.912  1.00  0.00     0.064 H 
BRANCH  27  35
ATOM     35  C   UNL A   1      40.163  36.912  38.461  1.00  0.00    -0.039 C 
ATOM     36  H   UNL A   1      40.815  37.299  37.707  1.00  0.00     0.028 H 
ATOM     37  H   UNL A   1      40.719  36.730  39.356  1.00  0.00     0.028 H 
ATOM     38  H   UNL A   1      39.388  37.622  38.661  1.00  0.00     0.028 H 
ENDBRANCH  27  35
BRANCH  29  39
ATOM     39  C   UNL A   1      40.219  36.185  35.618  1.00  0.00    -0.037 C 
ATOM     40  H   UNL A   1      39.531  36.991  35.471  1.00  0.00     0.028 H 
ATOM     41  H   UNL A   1      40.382  35.680  34.688  1.00  0.00     0.028 H 
ATOM     42  H   UNL A   1      41.148  36.571  35.982  1.00  0.00     0.028 H 
ENDBRANCH  29  39
ENDBRANCH  24  26
ENDBRANCH  15  24
ENDBRANCH  11  14
ENDBRANCH   7  10
ENDBRANCH   4   7
ENDBRANCH   1   4
BRANCH   1  43
ATOM     43  C   UNL A   1      36.396  33.649  28.345  1.00  0.00    -0.052 C 
ATOM     44  H   UNL A   1      36.362  32.949  27.537  1.00  0.00     0.027 H 
ATOM     45  H   UNL A   1      36.596  34.661  28.058  1.00  0.00     0.027 H 
BRANCH  43  46
ATOM     46  C   UNL A   1      35.007  33.685  28.984  1.00  0.00    -0.036 C 
ATOM     47  H   UNL A   1      34.319  34.041  28.247  1.00  0.00     0.028 H 
ATOM     48  H   UNL A   1      35.105  34.318  29.842  1.00  0.00     0.028 H 
BRANCH  46  49
ATOM     49  C   UNL A   1      34.472  32.363  29.518  1.00  0.00     0.018 C 
ATOM     50  H   UNL A   1      33.668  32.568  30.193  1.00  0.00     0.049 H 
ATOM     51  H   UNL A   1      35.284  31.863  30.002  1.00  0.00     0.049 H 
BRANCH  49  52
ATOM     52  N   UNL A   1      33.984  31.481  28.472  1.00  0.00    -0.352 N 
ATOM     53  C   UNL A   1      34.610  30.449  27.816  1.00  0.00     0.251 C 
ATOM     54  H   UNL A   1      33.056  31.649  28.189  1.00  0.00     0.163 HD
ATOM     55  O   UNL A   1      34.056  29.910  26.862  1.00  0.00    -0.269 OA
BRANCH  53  56
ATOM     56  C   UNL A   1      35.959  29.990  28.225  1.00  0.00     0.039 A 
ATOM     57  C   UNL A   1      37.025  30.159  27.333  1.00  0.00    -0.049 A 
ATOM     58  C   UNL A   1      36.181  29.360  29.451  1.00  0.00    -0.049 A 
ATOM     59  C   UNL A   1      38.315  29.755  27.693  1.00  0.00    -0.053 A 
ATOM     60  H   UNL A   1      36.859  30.584  26.407  1.00  0.00     0.063 H 
ATOM     61  C   UNL A   1      37.477  29.026  29.841  1.00  0.00    -0.053 A 
ATOM     62  H   UNL A   1      35.384  29.140  30.069  1.00  0.00     0.063 H 
ATOM     63  C   UNL A   1      38.558  29.213  28.964  1.00  0.00    -0.014 A 
ATOM     64  H   UNL A   1      39.092  29.856  27.021  1.00  0.00     0.063 H 
ATOM     65  H   UNL A   1      37.645  28.640  30.783  1.00  0.00     0.063 H 
BRANCH  63  66
ATOM     66  C   UNL A   1      39.921  28.807  29.393  1.00  0.00     0.031 A 
ATOM     67  C   UNL A   1      40.734  29.721  30.270  1.00  0.00     0.074 A 
ATOM     68  C   UNL A   1      40.464  27.666  28.927  1.00  0.00     0.049 A 
ATOM     69  N   UNL A   1      41.986  29.620  30.641  1.00  0.00    -0.248 NA
ATOM     70  C   UNL A   1      40.057  30.927  30.769  1.00  0.00    -0.034 C 
ATOM     71  C   UNL A   1      39.797  26.713  28.040  1.00  0.00    -0.036 A 
ATOM     72  N   UNL A   1      41.712  27.124  29.120  1.00  0.00    -0.354 N 
ATOM     73  C   UNL A   1      42.252  30.762  31.384  1.00  0.00     0.074 A 
ATOM     74  C   UNL A   1      41.046  31.562  31.379  1.00  0.00    -0.034 C 
ATOM     75  H   UNL A   1      39.068  31.205  30.670  1.00  0.00     0.065 H 
ATOM     76  C   UNL A   1      40.639  25.702  27.769  1.00  0.00    -0.036 A 
ATOM     77  H   UNL A   1      38.836  26.804  27.680  1.00  0.00     0.065 H 
ATOM     78  C   UNL A   1      41.916  25.953  28.430  1.00  0.00     0.049 A 
ATOM     79  H   UNL A   1      42.396  27.537  29.695  1.00  0.00     0.167 HD
ATOM     80  C   UNL A   1      43.393  31.106  32.028  1.00  0.00     0.037 A 
ATOM     81  H   UNL A   1      40.968  32.503  31.795  1.00  0.00     0.065 H 
ATOM     82  H   UNL A   1      40.417  24.879  27.187  1.00  0.00     0.065 H 
ATOM     83  C   UNL A   1      43.013  25.179  28.330  1.00  0.00     0.037 A 
ATOM     84  C   UNL A   1      44.575  30.287  32.072  1.00  0.00     0.049 A 
ATOM     85  C   UNL A   1      44.264  25.570  29.069  1.00  0.00     0.074 A 
ATOM     86  C   UNL A   1      45.753  30.506  32.765  1.00  0.00    -0.036 A 
ATOM     87  N   UNL A   1      44.728  29.087  31.394  1.00  0.00    -0.354 N 
ATOM     88  N   UNL A   1      44.486  26.622  29.819  1.00  0.00    -0.248 NA
ATOM     89  C   UNL A   1      45.417  24.666  28.951  1.00  0.00    -0.034 C 
ATOM     90  C   UNL A   1      46.635  29.460  32.472  1.00  0.00    -0.036 A 
ATOM     91  H   UNL A   1      45.947  31.304  33.391  1.00  0.00     0.065 H 
ATOM     92  C   UNL A   1      45.989  28.564  31.635  1.00  0.00     0.049 A 
ATOM     93  H   UNL A   1      44.042  28.667  30.826  1.00  0.00     0.167 HD
ATOM     94  C   UNL A   1      45.787  26.494  30.283  1.00  0.00     0.074 A 
ATOM     95  C   UNL A   1      46.306  25.258  29.736  1.00  0.00    -0.034 C 
ATOM     96  H   UNL A   1      45.509  23.798  28.401  1.00  0.00     0.065 H 
ATOM     97  H   UNL A   1      47.601  29.371  32.822  1.00  0.00     0.065 H 
ATOM     98  C   UNL A   1      46.487  27.327  31.091  1.00  0.00     0.037 A 
ATOM     99  H   UNL A   1      47.249  24.886  29.933  1.00  0.00     0.065 H 
BRANCH  80 100
ATOM    100  C   UNL A   1      43.421  32.429  32.738  1.00  0.00     0.064 A 
ATOM    101  C   UNL A   1      43.824  33.607  32.090  1.00  0.00     0.173 A 
ATOM    102  C   UNL A   1      43.013  32.525  34.077  1.00  0.00     0.173 A 
ATOM    103  F   UNL A   1      44.232  33.568  30.813  1.00  0.00    -0.203 F 
ATOM    104  C   UNL A   1      43.852  34.824  32.767  1.00  0.00     0.198 A 
ATOM    105  C   UNL A   1      43.012  33.748  34.742  1.00  0.00     0.198 A 
ATOM    106  F   UNL A   1      42.612  31.431  34.742  1.00  0.00    -0.203 F 
ATOM    107  F   UNL A   1      44.293  35.925  32.143  1.00  0.00    -0.200 F 
ATOM    108  C   UNL A   1      43.441  34.895  34.089  1.00  0.00     0.200 A 
ATOM    109  F   UNL A   1      42.603  33.817  36.016  1.00  0.00    -0.200 F 
ATOM    110  F   UNL A   1      43.465  36.067  34.738  1.00  0.00    -0.200 F 
ENDBRANCH  80 100
BRANCH  83 111
ATOM    111  C   UNL A   1      42.967  23.942  27.507  1.00  0.00     0.064 A 
ATOM    112  C   UNL A   1      42.554  22.724  28.064  1.00  0.00     0.173 A 
ATOM    113  C   UNL A   1      43.316  23.955  26.150  1.00  0.00     0.173 A 
ATOM    114  F   UNL A   1      42.231  22.658  29.364  1.00  0.00    -0.203 F 
ATOM    115  C   UNL A   1      42.503  21.563  27.296  1.00  0.00     0.198 A 
ATOM    116  C   UNL A   1      43.240  22.799  25.375  1.00  0.00     0.198 A 
ATOM    117  F   UNL A   1      43.713  25.098  25.568  1.00  0.00    -0.203 F 
ATOM    118  F   UNL A   1      42.138  20.404  27.861  1.00  0.00    -0.200 F 
ATOM    119  C   UNL A   1      42.838  21.602  25.950  1.00  0.00     0.200 A 
ATOM    120  F   UNL A   1      43.551  22.845  24.073  1.00  0.00    -0.200 F 
ATOM    121  F   UNL A   1      42.779  20.487  25.210  1.00  0.00    -0.200 F 
ENDBRANCH  83 111
BRANCH  98 122
ATOM    122  C   UNL A   1      47.882  26.918  31.467  1.00  0.00     0.064 A 
ATOM    123  C   UNL A   1      48.127  26.048  32.537  1.00  0.00     0.173 A 
ATOM    124  C   UNL A   1      48.976  27.351  30.703  1.00  0.00     0.173 A 
ATOM    125  F   UNL A   1      47.115  25.619  33.305  1.00  0.00    -0.203 F 
ATOM    126  C   UNL A   1      49.422  25.635  32.838  1.00  0.00     0.198 A 
ATOM    127  C   UNL A   1      50.266  26.915  30.990  1.00  0.00     0.198 A 
ATOM    128  F   UNL A   1      48.791  28.180  29.665  1.00  0.00    -0.203 F 
ATOM    129  F   UNL A   1      49.641  24.827  33.885  1.00  0.00    -0.200 F 
ATOM    130  C   UNL A   1      50.489  26.061  32.059  1.00  0.00     0.200 A 
ATOM    131  F   UNL A   1      51.292  27.317  30.229  1.00  0.00    -0.200 F 
ATOM    132  F   UNL A   1      51.732  25.649  32.340  1.00  0.00    -0.200 F 
ENDBRANCH  98 122
ENDBRANCH  63  66
ENDBRANCH  53  56
ENDBRANCH  49  52
ENDBRANCH  46  49
ENDBRANCH  43  46
ENDBRANCH   1  43
TORSDOF 17
ENDMDL
MODEL 6
REMARK VINA RESULT:     -11.9      5.619     11.116
REMARK SMILES Cc1cccc(Nc2ccccc2C(=O)NCCCCCCNC(=O)c2ccc(-c3c4nc(c(-c5c(F)c(F)c(F)c(F)c5F)c5ccc([nH]5)c(-c5c(F)c(F)c(F)c(F)c5F)c5nc(c(-c6c(F)c(F)c(F)c(F)c6F)c6ccc3[nH]6)C=C5)C=C4)cc2)c1C
REMARK SMILES IDX 19 1 18 4 17 7 16 10 14 11 15 12 13 14 8 15 9 16 10 17 12 19
REMARK SMILES IDX 11 20 7 24 6 26 2 27 3 28 89 29 4 30 5 32 1 35 90 39 20 43
REMARK SMILES IDX 21 46 22 49 23 52 24 53 25 55 26 56 27 57 88 58 28 59 87 61
REMARK SMILES IDX 29 63 30 66 31 67 81 68 32 69 86 70 80 71 82 72 33 73 85 74
REMARK SMILES IDX 79 76 78 78 34 80 66 83 46 84 65 85 47 86 50 87 64 88 83 89
REMARK SMILES IDX 48 90 49 92 63 94 84 95 51 98 35 100 36 101 44 102 37 103
REMARK SMILES IDX 38 104 42 105 45 106 39 107 40 108 43 109 41 110 67 111
REMARK SMILES IDX 68 112 76 113 69 114 70 115 74 116 77 117 71 118 72 119
REMARK SMILES IDX 75 120 73 121 52 122 53 123 61 124 54 125 55 126 59 127
REMARK SMILES IDX 62 128 56 129 57 130 60 131 58 132
REMARK H PARENT 19 2 19 3 18 5 18 6 17 8 17 9 16 13 9 18 10 21 12 22 11 23
REMARK H PARENT 7 25 3 31 4 33 5 34 1 36 1 37 1 38 90 40 90 41 90 42 20 44
REMARK H PARENT 20 45 21 47 21 48 22 50 22 51 23 54 27 60 88 62 28 64 87 65
REMARK H PARENT 86 75 80 77 82 79 85 81 79 82 47 91 50 93 83 96 48 97 84 99
REMARK Flexibility Score: inf
ROOT
ATOM      1  C   UNL A   1      36.729  21.899  24.836  1.00  0.00    -0.052 C 
ATOM      2  H   UNL A   1      36.503  22.339  25.785  1.00  0.00     0.027 H 
ATOM      3  H   UNL A   1      37.723  22.066  24.476  1.00  0.00     0.027 H 
ENDROOT
BRANCH   1   4
ATOM      4  C   UNL A   1      35.820  22.568  23.794  1.00  0.00    -0.036 C 
ATOM      5  H   UNL A   1      36.350  22.587  22.865  1.00  0.00     0.028 H 
ATOM      6  H   UNL A   1      34.924  21.982  23.784  1.00  0.00     0.028 H 
BRANCH   4   7
ATOM      7  C   UNL A   1      35.365  23.993  24.097  1.00  0.00     0.018 C 
ATOM      8  H   UNL A   1      34.813  23.980  25.013  1.00  0.00     0.049 H 
ATOM      9  H   UNL A   1      36.252  24.590  24.150  1.00  0.00     0.049 H 
BRANCH   7  10
ATOM     10  N   UNL A   1      34.535  24.585  23.079  1.00  0.00    -0.352 N 
ATOM     11  C   UNL A   1      33.621  25.608  23.165  1.00  0.00     0.253 C 
ATOM     12  O   UNL A   1      33.119  25.996  22.106  1.00  0.00    -0.269 OA
ATOM     13  H   UNL A   1      34.638  24.196  22.181  1.00  0.00     0.163 HD
BRANCH  11  14
ATOM     14  C   UNL A   1      33.107  26.183  24.449  1.00  0.00     0.063 A 
ATOM     15  C   UNL A   1      32.212  25.613  25.376  1.00  0.00     0.051 A 
ATOM     16  C   UNL A   1      31.834  26.391  26.501  1.00  0.00    -0.038 A 
ATOM     17  C   UNL A   1      32.369  27.654  26.752  1.00  0.00    -0.060 A 
ATOM     18  H   UNL A   1      31.137  26.008  27.159  1.00  0.00     0.064 H 
ATOM     19  C   UNL A   1      33.653  27.460  24.734  1.00  0.00    -0.047 A 
ATOM     20  C   UNL A   1      33.300  28.182  25.875  1.00  0.00    -0.061 A 
ATOM     21  H   UNL A   1      32.074  28.189  27.584  1.00  0.00     0.062 H 
ATOM     22  H   UNL A   1      34.333  27.871  24.075  1.00  0.00     0.063 H 
ATOM     23  H   UNL A   1      33.728  29.102  26.063  1.00  0.00     0.062 H 
BRANCH  15  24
ATOM     24  N   UNL A   1      31.731  24.288  25.407  1.00  0.00    -0.355 N 
ATOM     25  H   UNL A   1      30.749  24.236  25.345  1.00  0.00     0.167 HD
BRANCH  24  26
ATOM     26  C   UNL A   1      32.339  23.020  25.505  1.00  0.00     0.042 A 
ATOM     27  C   UNL A   1      32.691  20.688  24.884  1.00  0.00    -0.046 A 
ATOM     28  C   UNL A   1      33.294  20.446  26.127  1.00  0.00    -0.059 A 
ATOM     29  C   UNL A   1      32.270  21.999  24.537  1.00  0.00    -0.025 A 
ATOM     30  C   UNL A   1      33.474  21.479  27.033  1.00  0.00    -0.060 A 
ATOM     31  H   UNL A   1      33.606  19.493  26.369  1.00  0.00     0.063 H 
ATOM     32  C   UNL A   1      32.991  22.747  26.726  1.00  0.00    -0.038 A 
ATOM     33  H   UNL A   1      33.961  21.310  27.927  1.00  0.00     0.062 H 
ATOM     34  H   UNL A   1      33.113  23.509  27.412  1.00  0.00     0.064 H 
BRANCH  27  35
ATOM     35  C   UNL A   1      32.527  19.533  23.931  1.00  0.00    -0.039 C 
ATOM     36  H   UNL A   1      31.640  19.672  23.351  1.00  0.00     0.028 H 
ATOM     37  H   UNL A   1      32.453  18.621  24.486  1.00  0.00     0.028 H 
ATOM     38  H   UNL A   1      33.376  19.485  23.280  1.00  0.00     0.028 H 
ENDBRANCH  27  35
BRANCH  29  39
ATOM     39  C   UNL A   1      31.826  22.265  23.120  1.00  0.00    -0.037 C 
ATOM     40  H   UNL A   1      31.731  21.337  22.595  1.00  0.00     0.028 H 
ATOM     41  H   UNL A   1      32.550  22.881  22.629  1.00  0.00     0.028 H 
ATOM     42  H   UNL A   1      30.880  22.766  23.132  1.00  0.00     0.028 H 
ENDBRANCH  29  39
ENDBRANCH  24  26
ENDBRANCH  15  24
ENDBRANCH  11  14
ENDBRANCH   7  10
ENDBRANCH   4   7
ENDBRANCH   1   4
BRANCH   1  43
ATOM     43  C   UNL A   1      36.626  20.377  25.001  1.00  0.00    -0.052 C 
ATOM     44  H   UNL A   1      35.964  20.014  24.243  1.00  0.00     0.027 H 
ATOM     45  H   UNL A   1      36.288  20.229  26.006  1.00  0.00     0.027 H 
BRANCH  43  46
ATOM     46  C   UNL A   1      37.927  19.580  24.898  1.00  0.00    -0.036 C 
ATOM     47  H   UNL A   1      38.244  19.605  23.877  1.00  0.00     0.028 H 
ATOM     48  H   UNL A   1      37.691  18.603  25.266  1.00  0.00     0.028 H 
BRANCH  46  49
ATOM     49  C   UNL A   1      39.089  20.064  25.756  1.00  0.00     0.018 C 
ATOM     50  H   UNL A   1      38.721  20.278  26.738  1.00  0.00     0.049 H 
ATOM     51  H   UNL A   1      39.493  20.933  25.282  1.00  0.00     0.049 H 
BRANCH  49  52
ATOM     52  N   UNL A   1      40.162  19.092  25.866  1.00  0.00    -0.352 N 
ATOM     53  C   UNL A   1      41.503  19.273  26.103  1.00  0.00     0.251 C 
ATOM     54  H   UNL A   1      39.885  18.154  25.752  1.00  0.00     0.163 HD
ATOM     55  O   UNL A   1      42.269  18.317  26.027  1.00  0.00    -0.269 OA
BRANCH  53  56
ATOM     56  C   UNL A   1      42.048  20.613  26.428  1.00  0.00     0.039 A 
ATOM     57  C   UNL A   1      42.377  21.477  25.376  1.00  0.00    -0.049 A 
ATOM     58  C   UNL A   1      42.279  21.014  27.745  1.00  0.00    -0.049 A 
ATOM     59  C   UNL A   1      42.876  22.756  25.645  1.00  0.00    -0.053 A 
ATOM     60  H   UNL A   1      42.250  21.169  24.398  1.00  0.00     0.063 H 
ATOM     61  C   UNL A   1      42.704  22.314  28.016  1.00  0.00    -0.053 A 
ATOM     62  H   UNL A   1      42.136  20.346  28.519  1.00  0.00     0.063 H 
ATOM     63  C   UNL A   1      43.014  23.197  26.969  1.00  0.00    -0.014 A 
ATOM     64  H   UNL A   1      43.143  23.378  24.866  1.00  0.00     0.063 H 
ATOM     65  H   UNL A   1      42.789  22.631  28.995  1.00  0.00     0.063 H 
BRANCH  63  66
ATOM     66  C   UNL A   1      43.506  24.562  27.291  1.00  0.00     0.031 A 
ATOM     67  C   UNL A   1      42.555  25.591  27.840  1.00  0.00     0.074 A 
ATOM     68  C   UNL A   1      44.777  24.906  27.010  1.00  0.00     0.049 A 
ATOM     69  N   UNL A   1      42.746  26.869  28.056  1.00  0.00    -0.248 NA
ATOM     70  C   UNL A   1      41.196  25.127  28.158  1.00  0.00    -0.034 C 
ATOM     71  C   UNL A   1      45.787  24.014  26.440  1.00  0.00    -0.036 A 
ATOM     72  N   UNL A   1      45.432  26.106  27.147  1.00  0.00    -0.354 N 
ATOM     73  C   UNL A   1      41.527  27.363  28.499  1.00  0.00     0.074 A 
ATOM     74  C   UNL A   1      40.591  26.259  28.484  1.00  0.00    -0.034 C 
ATOM     75  H   UNL A   1      40.814  24.169  28.134  1.00  0.00     0.065 H 
ATOM     76  C   UNL A   1      46.934  24.694  26.281  1.00  0.00    -0.036 A 
ATOM     77  H   UNL A   1      45.642  23.022  26.199  1.00  0.00     0.065 H 
ATOM     78  C   UNL A   1      46.731  26.078  26.700  1.00  0.00     0.049 A 
ATOM     79  H   UNL A   1      45.009  26.910  27.527  1.00  0.00     0.167 HD
ATOM     80  C   UNL A   1      41.219  28.620  28.900  1.00  0.00     0.037 A 
ATOM     81  H   UNL A   1      39.586  26.344  28.698  1.00  0.00     0.065 H 
ATOM     82  H   UNL A   1      47.818  24.301  25.920  1.00  0.00     0.065 H 
ATOM     83  C   UNL A   1      47.649  27.061  26.622  1.00  0.00     0.037 A 
ATOM     84  C   UNL A   1      42.164  29.704  28.960  1.00  0.00     0.049 A 
ATOM     85  C   UNL A   1      47.290  28.445  27.090  1.00  0.00     0.074 A 
ATOM     86  C   UNL A   1      41.972  30.992  29.430  1.00  0.00    -0.036 A 
ATOM     87  N   UNL A   1      43.482  29.625  28.537  1.00  0.00    -0.354 N 
ATOM     88  N   UNL A   1      46.152  28.888  27.564  1.00  0.00    -0.248 NA
ATOM     89  C   UNL A   1      48.345  29.467  27.015  1.00  0.00    -0.034 C 
ATOM     90  C   UNL A   1      43.163  31.704  29.251  1.00  0.00    -0.036 A 
ATOM     91  H   UNL A   1      41.101  31.362  29.841  1.00  0.00     0.065 H 
ATOM     92  C   UNL A   1      44.110  30.848  28.714  1.00  0.00     0.049 A 
ATOM     93  H   UNL A   1      43.910  28.819  28.166  1.00  0.00     0.167 HD
ATOM     94  C   UNL A   1      46.358  30.226  27.870  1.00  0.00     0.074 A 
ATOM     95  C   UNL A   1      47.734  30.523  27.533  1.00  0.00    -0.034 C 
ATOM     96  H   UNL A   1      49.308  29.382  26.653  1.00  0.00     0.065 H 
ATOM     97  H   UNL A   1      43.309  32.699  29.481  1.00  0.00     0.065 H 
ATOM     98  C   UNL A   1      45.484  31.125  28.384  1.00  0.00     0.037 A 
ATOM     99  H   UNL A   1      48.183  31.442  27.678  1.00  0.00     0.065 H 
BRANCH  80 100
ATOM    100  C   UNL A   1      39.800  28.894  29.304  1.00  0.00     0.064 A 
ATOM    101  C   UNL A   1      38.847  29.361  28.385  1.00  0.00     0.173 A 
ATOM    102  C   UNL A   1      39.379  28.661  30.622  1.00  0.00     0.173 A 
ATOM    103  F   UNL A   1      39.200  29.609  27.115  1.00  0.00    -0.203 F 
ATOM    104  C   UNL A   1      37.536  29.617  28.780  1.00  0.00     0.198 A 
ATOM    105  C   UNL A   1      38.060  28.888  31.006  1.00  0.00     0.198 A 
ATOM    106  F   UNL A   1      40.247  28.207  31.539  1.00  0.00    -0.203 F 
ATOM    107  F   UNL A   1      36.659  30.116  27.898  1.00  0.00    -0.200 F 
ATOM    108  C   UNL A   1      37.142  29.376  30.087  1.00  0.00     0.200 A 
ATOM    109  F   UNL A   1      37.678  28.642  32.266  1.00  0.00    -0.200 F 
ATOM    110  F   UNL A   1      35.880  29.621  30.465  1.00  0.00    -0.200 F 
ENDBRANCH  80 100
BRANCH  83 111
ATOM    111  C   UNL A   1      49.004  26.760  26.092  1.00  0.00     0.064 A 
ATOM    112  C   UNL A   1      49.314  26.980  24.743  1.00  0.00     0.173 A 
ATOM    113  C   UNL A   1      50.018  26.263  26.923  1.00  0.00     0.173 A 
ATOM    114  F   UNL A   1      48.370  27.434  23.906  1.00  0.00    -0.203 F 
ATOM    115  C   UNL A   1      50.585  26.705  24.244  1.00  0.00     0.198 A 
ATOM    116  C   UNL A   1      51.296  26.012  26.428  1.00  0.00     0.198 A 
ATOM    117  F   UNL A   1      49.773  26.039  28.223  1.00  0.00    -0.203 F 
ATOM    118  F   UNL A   1      50.845  26.892  22.942  1.00  0.00    -0.200 F 
ATOM    119  C   UNL A   1      51.577  26.228  25.087  1.00  0.00     0.200 A 
ATOM    120  F   UNL A   1      52.256  25.565  27.249  1.00  0.00    -0.200 F 
ATOM    121  F   UNL A   1      52.802  25.973  24.607  1.00  0.00    -0.200 F 
ENDBRANCH  83 111
BRANCH  98 122
ATOM    122  C   UNL A   1      45.993  32.512  28.650  1.00  0.00     0.064 A 
ATOM    123  C   UNL A   1      46.620  32.843  29.859  1.00  0.00     0.173 A 
ATOM    124  C   UNL A   1      45.911  33.499  27.657  1.00  0.00     0.173 A 
ATOM    125  F   UNL A   1      46.709  31.937  30.844  1.00  0.00    -0.203 F 
ATOM    126  C   UNL A   1      47.136  34.118  30.069  1.00  0.00     0.198 A 
ATOM    127  C   UNL A   1      46.451  34.765  27.860  1.00  0.00     0.198 A 
ATOM    128  F   UNL A   1      45.325  33.228  26.482  1.00  0.00    -0.203 F 
ATOM    129  F   UNL A   1      47.704  34.426  31.244  1.00  0.00    -0.200 F 
ATOM    130  C   UNL A   1      47.060  35.076  29.067  1.00  0.00     0.200 A 
ATOM    131  F   UNL A   1      46.389  35.683  26.886  1.00  0.00    -0.200 F 
ATOM    132  F   UNL A   1      47.572  36.298  29.265  1.00  0.00    -0.200 F 
ENDBRANCH  98 122
ENDBRANCH  63  66
ENDBRANCH  53  56
ENDBRANCH  49  52
ENDBRANCH  46  49
ENDBRANCH  43  46
ENDBRANCH   1  43
TORSDOF 17
ENDMDL
MODEL 7
REMARK VINA RESULT:     -11.9      1.691      8.012
REMARK SMILES Cc1cccc(Nc2ccccc2C(=O)NCCCCCCNC(=O)c2ccc(-c3c4nc(c(-c5c(F)c(F)c(F)c(F)c5F)c5ccc([nH]5)c(-c5c(F)c(F)c(F)c(F)c5F)c5nc(c(-c6c(F)c(F)c(F)c(F)c6F)c6ccc3[nH]6)C=C5)C=C4)cc2)c1C
REMARK SMILES IDX 19 1 18 4 17 7 16 10 14 11 15 12 13 14 8 15 9 16 10 17 12 19
REMARK SMILES IDX 11 20 7 24 6 26 2 27 3 28 89 29 4 30 5 32 1 35 90 39 20 43
REMARK SMILES IDX 21 46 22 49 23 52 24 53 25 55 26 56 27 57 88 58 28 59 87 61
REMARK SMILES IDX 29 63 30 66 31 67 81 68 32 69 86 70 80 71 82 72 33 73 85 74
REMARK SMILES IDX 79 76 78 78 34 80 66 83 46 84 65 85 47 86 50 87 64 88 83 89
REMARK SMILES IDX 48 90 49 92 63 94 84 95 51 98 35 100 36 101 44 102 37 103
REMARK SMILES IDX 38 104 42 105 45 106 39 107 40 108 43 109 41 110 67 111
REMARK SMILES IDX 68 112 76 113 69 114 70 115 74 116 77 117 71 118 72 119
REMARK SMILES IDX 75 120 73 121 52 122 53 123 61 124 54 125 55 126 59 127
REMARK SMILES IDX 62 128 56 129 57 130 60 131 58 132
REMARK H PARENT 19 2 19 3 18 5 18 6 17 8 17 9 16 13 9 18 10 21 12 22 11 23
REMARK H PARENT 7 25 3 31 4 33 5 34 1 36 1 37 1 38 90 40 90 41 90 42 20 44
REMARK H PARENT 20 45 21 47 21 48 22 50 22 51 23 54 27 60 88 62 28 64 87 65
REMARK H PARENT 86 75 80 77 82 79 85 81 79 82 47 91 50 93 83 96 48 97 84 99
REMARK Flexibility Score: inf
ROOT
ATOM      1  C   UNL A   1      34.833  32.785  28.002  1.00  0.00    -0.052 C 
ATOM      2  H   UNL A   1      34.215  33.055  27.171  1.00  0.00     0.027 H 
ATOM      3  H   UNL A   1      35.880  32.962  27.875  1.00  0.00     0.027 H 
ENDROOT
BRANCH   1   4
ATOM      4  C   UNL A   1      34.715  31.265  28.185  1.00  0.00    -0.036 C 
ATOM      5  H   UNL A   1      35.703  30.856  28.165  1.00  0.00     0.028 H 
ATOM      6  H   UNL A   1      34.197  31.131  29.113  1.00  0.00     0.028 H 
BRANCH   4   7
ATOM      7  C   UNL A   1      33.882  30.514  27.150  1.00  0.00     0.018 C 
ATOM      8  H   UNL A   1      33.391  31.234  26.529  1.00  0.00     0.049 H 
ATOM      9  H   UNL A   1      34.561  29.888  26.610  1.00  0.00     0.049 H 
BRANCH   7  10
ATOM     10  N   UNL A   1      32.878  29.641  27.708  1.00  0.00    -0.352 N 
ATOM     11  C   UNL A   1      32.215  28.580  27.142  1.00  0.00     0.253 C 
ATOM     12  O   UNL A   1      31.474  27.928  27.883  1.00  0.00    -0.269 OA
ATOM     13  H   UNL A   1      32.630  29.837  28.639  1.00  0.00     0.163 HD
BRANCH  11  14
ATOM     14  C   UNL A   1      32.231  28.247  25.682  1.00  0.00     0.063 A 
ATOM     15  C   UNL A   1      32.993  27.272  25.007  1.00  0.00     0.051 A 
ATOM     16  C   UNL A   1      32.866  27.188  23.595  1.00  0.00    -0.038 A 
ATOM     17  C   UNL A   1      31.970  27.977  22.875  1.00  0.00    -0.060 A 
ATOM     18  H   UNL A   1      33.459  26.517  23.083  1.00  0.00     0.064 H 
ATOM     19  C   UNL A   1      31.312  29.024  24.932  1.00  0.00    -0.047 A 
ATOM     20  C   UNL A   1      31.173  28.885  23.550  1.00  0.00    -0.061 A 
ATOM     21  H   UNL A   1      31.901  27.884  21.850  1.00  0.00     0.062 H 
ATOM     22  H   UNL A   1      30.727  29.718  25.424  1.00  0.00     0.063 H 
ATOM     23  H   UNL A   1      30.482  29.454  23.036  1.00  0.00     0.062 H 
BRANCH  15  24
ATOM     24  N   UNL A   1      33.788  26.254  25.573  1.00  0.00    -0.355 N 
ATOM     25  H   UNL A   1      34.723  26.532  25.710  1.00  0.00     0.167 HD
BRANCH  24  26
ATOM     26  C   UNL A   1      33.544  24.930  25.990  1.00  0.00     0.042 A 
ATOM     27  C   UNL A   1      33.970  22.531  26.077  1.00  0.00    -0.046 A 
ATOM     28  C   UNL A   1      32.658  22.312  26.521  1.00  0.00    -0.059 A 
ATOM     29  C   UNL A   1      34.445  23.853  25.874  1.00  0.00    -0.025 A 
ATOM     30  C   UNL A   1      31.808  23.382  26.754  1.00  0.00    -0.060 A 
ATOM     31  H   UNL A   1      32.323  21.348  26.675  1.00  0.00     0.063 H 
ATOM     32  C   UNL A   1      32.246  24.673  26.480  1.00  0.00    -0.038 A 
ATOM     33  H   UNL A   1      30.859  23.222  27.127  1.00  0.00     0.062 H 
ATOM     34  H   UNL A   1      31.603  25.464  26.640  1.00  0.00     0.064 H 
BRANCH  27  35
ATOM     35  C   UNL A   1      34.857  21.335  25.848  1.00  0.00    -0.039 C 
ATOM     36  H   UNL A   1      35.511  21.210  26.685  1.00  0.00     0.028 H 
ATOM     37  H   UNL A   1      35.436  21.485  24.961  1.00  0.00     0.028 H 
ATOM     38  H   UNL A   1      34.252  20.459  25.734  1.00  0.00     0.028 H 
ENDBRANCH  27  35
BRANCH  29  39
ATOM     39  C   UNL A   1      35.914  24.061  25.607  1.00  0.00    -0.037 C 
ATOM     40  H   UNL A   1      36.164  23.657  24.649  1.00  0.00     0.028 H 
ATOM     41  H   UNL A   1      36.489  23.568  26.364  1.00  0.00     0.028 H 
ATOM     42  H   UNL A   1      36.133  25.109  25.619  1.00  0.00     0.028 H 
ENDBRANCH  29  39
ENDBRANCH  24  26
ENDBRANCH  15  24
ENDBRANCH  11  14
ENDBRANCH   7  10
ENDBRANCH   4   7
ENDBRANCH   1   4
BRANCH   1  43
ATOM     43  C   UNL A   1      34.429  33.679  29.182  1.00  0.00    -0.052 C 
ATOM     44  H   UNL A   1      35.251  34.333  29.387  1.00  0.00     0.027 H 
ATOM     45  H   UNL A   1      34.182  33.001  29.972  1.00  0.00     0.027 H 
BRANCH  43  46
ATOM     46  C   UNL A   1      33.183  34.547  28.999  1.00  0.00    -0.036 C 
ATOM     47  H   UNL A   1      32.391  34.102  29.563  1.00  0.00     0.028 H 
ATOM     48  H   UNL A   1      33.013  34.580  27.943  1.00  0.00     0.028 H 
BRANCH  46  49
ATOM     49  C   UNL A   1      33.301  36.002  29.435  1.00  0.00     0.018 C 
ATOM     50  H   UNL A   1      32.979  36.626  28.627  1.00  0.00     0.049 H 
ATOM     51  H   UNL A   1      34.324  36.175  29.693  1.00  0.00     0.049 H 
BRANCH  49  52
ATOM     52  N   UNL A   1      32.501  36.314  30.606  1.00  0.00    -0.352 N 
ATOM     53  C   UNL A   1      32.651  35.920  31.914  1.00  0.00     0.251 C 
ATOM     54  H   UNL A   1      31.729  36.900  30.436  1.00  0.00     0.163 HD
ATOM     55  O   UNL A   1      31.779  36.192  32.734  1.00  0.00    -0.269 OA
BRANCH  53  56
ATOM     56  C   UNL A   1      33.839  35.147  32.349  1.00  0.00     0.039 A 
ATOM     57  C   UNL A   1      33.652  33.857  32.859  1.00  0.00    -0.049 A 
ATOM     58  C   UNL A   1      35.125  35.689  32.301  1.00  0.00    -0.049 A 
ATOM     59  C   UNL A   1      34.752  33.093  33.261  1.00  0.00    -0.053 A 
ATOM     60  H   UNL A   1      32.698  33.468  32.938  1.00  0.00     0.063 H 
ATOM     61  C   UNL A   1      36.228  34.901  32.630  1.00  0.00    -0.053 A 
ATOM     62  H   UNL A   1      35.260  36.674  32.023  1.00  0.00     0.063 H 
ATOM     63  C   UNL A   1      36.053  33.597  33.121  1.00  0.00    -0.014 A 
ATOM     64  H   UNL A   1      34.606  32.153  33.663  1.00  0.00     0.063 H 
ATOM     65  H   UNL A   1      37.181  35.279  32.510  1.00  0.00     0.063 H 
BRANCH  63  66
ATOM     66  C   UNL A   1      37.247  32.798  33.503  1.00  0.00     0.031 A 
ATOM     67  C   UNL A   1      37.965  33.093  34.791  1.00  0.00     0.074 A 
ATOM     68  C   UNL A   1      37.738  31.872  32.657  1.00  0.00     0.049 A 
ATOM     69  N   UNL A   1      39.097  32.612  35.241  1.00  0.00    -0.248 NA
ATOM     70  C   UNL A   1      37.344  34.089  35.677  1.00  0.00    -0.034 C 
ATOM     71  C   UNL A   1      37.159  31.518  31.361  1.00  0.00    -0.036 A 
ATOM     72  N   UNL A   1      38.851  31.072  32.754  1.00  0.00    -0.354 N 
ATOM     73  C   UNL A   1      39.337  33.269  36.440  1.00  0.00     0.074 A 
ATOM     74  C   UNL A   1      38.256  34.213  36.629  1.00  0.00    -0.034 C 
ATOM     75  H   UNL A   1      36.434  34.566  35.582  1.00  0.00     0.065 H 
ATOM     76  C   UNL A   1      37.916  30.570  30.786  1.00  0.00    -0.036 A 
ATOM     77  H   UNL A   1      36.306  31.932  30.955  1.00  0.00     0.065 H 
ATOM     78  C   UNL A   1      39.055  30.277  31.652  1.00  0.00     0.049 A 
ATOM     79  H   UNL A   1      39.448  31.071  33.537  1.00  0.00     0.167 HD
ATOM     80  C   UNL A   1      40.357  33.091  37.314  1.00  0.00     0.037 A 
ATOM     81  H   UNL A   1      38.204  34.894  37.403  1.00  0.00     0.065 H 
ATOM     82  H   UNL A   1      37.724  30.121  29.877  1.00  0.00     0.065 H 
ATOM     83  C   UNL A   1      40.053  29.420  31.365  1.00  0.00     0.037 A 
ATOM     84  C   UNL A   1      41.404  32.119  37.147  1.00  0.00     0.049 A 
ATOM     85  C   UNL A   1      41.166  29.224  32.359  1.00  0.00     0.074 A 
ATOM     86  C   UNL A   1      42.435  31.803  38.014  1.00  0.00    -0.036 A 
ATOM     87  N   UNL A   1      41.552  31.302  36.036  1.00  0.00    -0.354 N 
ATOM     88  N   UNL A   1      41.351  29.807  33.518  1.00  0.00    -0.248 NA
ATOM     89  C   UNL A   1      42.208  28.248  32.007  1.00  0.00    -0.034 C 
ATOM     90  C   UNL A   1      43.232  30.825  37.409  1.00  0.00    -0.036 A 
ATOM     91  H   UNL A   1      42.589  32.217  38.947  1.00  0.00     0.065 H 
ATOM     92  C   UNL A   1      42.670  30.498  36.185  1.00  0.00     0.049 A 
ATOM     93  H   UNL A   1      40.951  31.295  35.256  1.00  0.00     0.167 HD
ATOM     94  C   UNL A   1      42.509  29.253  34.045  1.00  0.00     0.074 A 
ATOM     95  C   UNL A   1      42.982  28.281  33.083  1.00  0.00    -0.034 C 
ATOM     96  H   UNL A   1      42.309  27.686  31.148  1.00  0.00     0.065 H 
ATOM     97  H   UNL A   1      44.091  30.417  37.808  1.00  0.00     0.065 H 
ATOM     98  C   UNL A   1      43.122  29.527  35.222  1.00  0.00     0.037 A 
ATOM     99  H   UNL A   1      43.817  27.688  33.217  1.00  0.00     0.065 H 
BRANCH  80 100
ATOM    100  C   UNL A   1      40.392  33.970  38.531  1.00  0.00     0.064 A 
ATOM    101  C   UNL A   1      41.098  35.182  38.547  1.00  0.00     0.173 A 
ATOM    102  C   UNL A   1      39.689  33.606  39.689  1.00  0.00     0.173 A 
ATOM    103  F   UNL A   1      41.795  35.571  37.469  1.00  0.00    -0.203 F 
ATOM    104  C   UNL A   1      41.127  35.980  39.688  1.00  0.00     0.198 A 
ATOM    105  C   UNL A   1      39.693  34.421  40.818  1.00  0.00     0.198 A 
ATOM    106  F   UNL A   1      38.991  32.460  39.726  1.00  0.00    -0.203 F 
ATOM    107  F   UNL A   1      41.853  37.107  39.697  1.00  0.00    -0.200 F 
ATOM    108  C   UNL A   1      40.421  35.602  40.820  1.00  0.00     0.200 A 
ATOM    109  F   UNL A   1      39.000  34.061  41.907  1.00  0.00    -0.200 F 
ATOM    110  F   UNL A   1      40.447  36.372  41.916  1.00  0.00    -0.200 F 
ENDBRANCH  80 100
BRANCH  83 111
ATOM    111  C   UNL A   1      40.032  28.669  30.083  1.00  0.00     0.064 A 
ATOM    112  C   UNL A   1      40.637  29.194  28.933  1.00  0.00     0.173 A 
ATOM    113  C   UNL A   1      39.424  27.410  29.985  1.00  0.00     0.173 A 
ATOM    114  F   UNL A   1      41.212  30.404  28.973  1.00  0.00    -0.203 F 
ATOM    115  C   UNL A   1      40.625  28.492  27.730  1.00  0.00     0.198 A 
ATOM    116  C   UNL A   1      39.435  26.696  28.788  1.00  0.00     0.198 A 
ATOM    117  F   UNL A   1      38.835  26.862  31.059  1.00  0.00    -0.203 F 
ATOM    118  F   UNL A   1      41.180  29.032  26.636  1.00  0.00    -0.200 F 
ATOM    119  C   UNL A   1      40.031  27.240  27.659  1.00  0.00     0.200 A 
ATOM    120  F   UNL A   1      38.872  25.482  28.728  1.00  0.00    -0.200 F 
ATOM    121  F   UNL A   1      40.028  26.562  26.505  1.00  0.00    -0.200 F 
ENDBRANCH  83 111
BRANCH  98 122
ATOM    122  C   UNL A   1      44.357  28.742  35.559  1.00  0.00     0.064 A 
ATOM    123  C   UNL A   1      45.634  29.198  35.209  1.00  0.00     0.173 A 
ATOM    124  C   UNL A   1      44.259  27.554  36.300  1.00  0.00     0.173 A 
ATOM    125  F   UNL A   1      45.777  30.320  34.489  1.00  0.00    -0.203 F 
ATOM    126  C   UNL A   1      46.772  28.485  35.578  1.00  0.00     0.198 A 
ATOM    127  C   UNL A   1      45.400  26.858  36.689  1.00  0.00     0.198 A 
ATOM    128  F   UNL A   1      43.059  27.080  36.663  1.00  0.00    -0.203 F 
ATOM    129  F   UNL A   1      47.984  28.921  35.207  1.00  0.00    -0.200 F 
ATOM    130  C   UNL A   1      46.655  27.322  36.325  1.00  0.00     0.200 A 
ATOM    131  F   UNL A   1      45.285  25.743  37.422  1.00  0.00    -0.200 F 
ATOM    132  F   UNL A   1      47.752  26.647  36.693  1.00  0.00    -0.200 F 
ENDBRANCH  98 122
ENDBRANCH  63  66
ENDBRANCH  53  56
ENDBRANCH  49  52
ENDBRANCH  46  49
ENDBRANCH  43  46
ENDBRANCH   1  43
TORSDOF 17
ENDMDL
MODEL 8
REMARK VINA RESULT:     -11.9      2.157      7.918
REMARK SMILES Cc1cccc(Nc2ccccc2C(=O)NCCCCCCNC(=O)c2ccc(-c3c4nc(c(-c5c(F)c(F)c(F)c(F)c5F)c5ccc([nH]5)c(-c5c(F)c(F)c(F)c(F)c5F)c5nc(c(-c6c(F)c(F)c(F)c(F)c6F)c6ccc3[nH]6)C=C5)C=C4)cc2)c1C
REMARK SMILES IDX 19 1 18 4 17 7 16 10 14 11 15 12 13 14 8 15 9 16 10 17 12 19
REMARK SMILES IDX 11 20 7 24 6 26 2 27 3 28 89 29 4 30 5 32 1 35 90 39 20 43
REMARK SMILES IDX 21 46 22 49 23 52 24 53 25 55 26 56 27 57 88 58 28 59 87 61
REMARK SMILES IDX 29 63 30 66 31 67 81 68 32 69 86 70 80 71 82 72 33 73 85 74
REMARK SMILES IDX 79 76 78 78 34 80 66 83 46 84 65 85 47 86 50 87 64 88 83 89
REMARK SMILES IDX 48 90 49 92 63 94 84 95 51 98 35 100 36 101 44 102 37 103
REMARK SMILES IDX 38 104 42 105 45 106 39 107 40 108 43 109 41 110 67 111
REMARK SMILES IDX 68 112 76 113 69 114 70 115 74 116 77 117 71 118 72 119
REMARK SMILES IDX 75 120 73 121 52 122 53 123 61 124 54 125 55 126 59 127
REMARK SMILES IDX 62 128 56 129 57 130 60 131 58 132
REMARK H PARENT 19 2 19 3 18 5 18 6 17 8 17 9 16 13 9 18 10 21 12 22 11 23
REMARK H PARENT 7 25 3 31 4 33 5 34 1 36 1 37 1 38 90 40 90 41 90 42 20 44
REMARK H PARENT 20 45 21 47 21 48 22 50 22 51 23 54 27 60 88 62 28 64 87 65
REMARK H PARENT 86 75 80 77 82 79 85 81 79 82 47 91 50 93 83 96 48 97 84 99
REMARK Flexibility Score: inf
ROOT
ATOM      1  C   UNL A   1      33.657  26.943  26.228  1.00  0.00    -0.052 C 
ATOM      2  H   UNL A   1      34.206  27.833  26.000  1.00  0.00     0.027 H 
ATOM      3  H   UNL A   1      33.933  26.452  27.138  1.00  0.00     0.027 H 
ENDROOT
BRANCH   1   4
ATOM      4  C   UNL A   1      33.967  25.920  25.125  1.00  0.00    -0.036 C 
ATOM      5  H   UNL A   1      33.036  25.596  24.710  1.00  0.00     0.028 H 
ATOM      6  H   UNL A   1      34.607  26.432  24.437  1.00  0.00     0.028 H 
BRANCH   4   7
ATOM      7  C   UNL A   1      34.743  24.675  25.546  1.00  0.00     0.018 C 
ATOM      8  H   UNL A   1      35.330  24.921  26.406  1.00  0.00     0.049 H 
ATOM      9  H   UNL A   1      34.016  23.914  25.738  1.00  0.00     0.049 H 
BRANCH   7  10
ATOM     10  N   UNL A   1      35.626  24.150  24.534  1.00  0.00    -0.352 N 
ATOM     11  C   UNL A   1      35.497  23.037  23.739  1.00  0.00     0.253 C 
ATOM     12  O   UNL A   1      36.358  22.873  22.868  1.00  0.00    -0.269 OA
ATOM     13  H   UNL A   1      36.449  24.669  24.391  1.00  0.00     0.163 HD
BRANCH  11  14
ATOM     14  C   UNL A   1      34.475  21.961  23.938  1.00  0.00     0.063 A 
ATOM     15  C   UNL A   1      33.139  21.920  23.493  1.00  0.00     0.051 A 
ATOM     16  C   UNL A   1      32.348  20.800  23.863  1.00  0.00    -0.038 A 
ATOM     17  C   UNL A   1      32.866  19.721  24.579  1.00  0.00    -0.060 A 
ATOM     18  H   UNL A   1      31.353  20.783  23.591  1.00  0.00     0.064 H 
ATOM     19  C   UNL A   1      34.985  20.845  24.648  1.00  0.00    -0.047 A 
ATOM     20  C   UNL A   1      34.198  19.734  24.955  1.00  0.00    -0.061 A 
ATOM     21  H   UNL A   1      32.263  18.921  24.825  1.00  0.00     0.062 H 
ATOM     22  H   UNL A   1      35.973  20.854  24.950  1.00  0.00     0.063 H 
ATOM     23  H   UNL A   1      34.604  18.930  25.458  1.00  0.00     0.062 H 
BRANCH  15  24
ATOM     24  N   UNL A   1      32.501  22.801  22.596  1.00  0.00    -0.355 N 
ATOM     25  H   UNL A   1      32.245  22.366  21.750  1.00  0.00     0.167 HD
BRANCH  24  26
ATOM     26  C   UNL A   1      32.145  24.164  22.638  1.00  0.00     0.042 A 
ATOM     27  C   UNL A   1      30.701  26.051  23.187  1.00  0.00    -0.046 A 
ATOM     28  C   UNL A   1      31.360  26.837  22.230  1.00  0.00    -0.059 A 
ATOM     29  C   UNL A   1      31.137  24.725  23.447  1.00  0.00    -0.025 A 
ATOM     30  C   UNL A   1      32.434  26.323  21.519  1.00  0.00    -0.060 A 
ATOM     31  H   UNL A   1      31.044  27.803  22.053  1.00  0.00     0.063 H 
ATOM     32  C   UNL A   1      32.812  24.999  21.717  1.00  0.00    -0.038 A 
ATOM     33  H   UNL A   1      32.948  26.917  20.850  1.00  0.00     0.062 H 
ATOM     34  H   UNL A   1      33.602  24.617  21.173  1.00  0.00     0.064 H 
BRANCH  27  35
ATOM     35  C   UNL A   1      29.546  26.659  23.938  1.00  0.00    -0.039 C 
ATOM     36  H   UNL A   1      28.630  26.415  23.444  1.00  0.00     0.028 H 
ATOM     37  H   UNL A   1      29.662  27.722  23.971  1.00  0.00     0.028 H 
ATOM     38  H   UNL A   1      29.526  26.272  24.936  1.00  0.00     0.028 H 
ENDBRANCH  27  35
BRANCH  29  39
ATOM     39  C   UNL A   1      30.550  23.989  24.624  1.00  0.00    -0.037 C 
ATOM     40  H   UNL A   1      30.370  24.677  25.423  1.00  0.00     0.028 H 
ATOM     41  H   UNL A   1      31.234  23.233  24.951  1.00  0.00     0.028 H 
ATOM     42  H   UNL A   1      29.626  23.532  24.333  1.00  0.00     0.028 H 
ENDBRANCH  29  39
ENDBRANCH  24  26
ENDBRANCH  15  24
ENDBRANCH  11  14
ENDBRANCH   7  10
ENDBRANCH   4   7
ENDBRANCH   1   4
BRANCH   1  43
ATOM     43  C   UNL A   1      32.192  27.348  26.434  1.00  0.00    -0.052 C 
ATOM     44  H   UNL A   1      31.980  27.272  27.480  1.00  0.00     0.027 H 
ATOM     45  H   UNL A   1      31.629  26.685  25.810  1.00  0.00     0.027 H 
BRANCH  43  46
ATOM     46  C   UNL A   1      31.791  28.753  25.983  1.00  0.00    -0.036 C 
ATOM     47  H   UNL A   1      31.199  29.188  26.761  1.00  0.00     0.028 H 
ATOM     48  H   UNL A   1      31.274  28.617  25.056  1.00  0.00     0.028 H 
BRANCH  46  49
ATOM     49  C   UNL A   1      32.929  29.716  25.674  1.00  0.00     0.018 C 
ATOM     50  H   UNL A   1      33.082  29.735  24.615  1.00  0.00     0.049 H 
ATOM     51  H   UNL A   1      33.793  29.366  26.197  1.00  0.00     0.049 H 
BRANCH  49  52
ATOM     52  N   UNL A   1      32.670  31.072  26.126  1.00  0.00    -0.352 N 
ATOM     53  C   UNL A   1      33.286  31.815  27.103  1.00  0.00     0.251 C 
ATOM     54  H   UNL A   1      31.935  31.531  25.659  1.00  0.00     0.163 HD
ATOM     55  O   UNL A   1      32.822  32.906  27.421  1.00  0.00    -0.269 OA
BRANCH  53  56
ATOM     56  C   UNL A   1      34.494  31.311  27.801  1.00  0.00     0.039 A 
ATOM     57  C   UNL A   1      35.557  32.193  28.026  1.00  0.00    -0.049 A 
ATOM     58  C   UNL A   1      34.610  29.977  28.196  1.00  0.00    -0.049 A 
ATOM     59  C   UNL A   1      36.704  31.756  28.698  1.00  0.00    -0.053 A 
ATOM     60  H   UNL A   1      35.495  33.169  27.696  1.00  0.00     0.063 H 
ATOM     61  C   UNL A   1      35.719  29.560  28.932  1.00  0.00    -0.053 A 
ATOM     62  H   UNL A   1      33.875  29.298  27.943  1.00  0.00     0.063 H 
ATOM     63  C   UNL A   1      36.781  30.443  29.185  1.00  0.00    -0.014 A 
ATOM     64  H   UNL A   1      37.496  32.403  28.837  1.00  0.00     0.063 H 
ATOM     65  H   UNL A   1      35.758  28.595  29.296  1.00  0.00     0.063 H 
BRANCH  63  66
ATOM     66  C   UNL A   1      37.968  29.956  29.935  1.00  0.00     0.031 A 
ATOM     67  C   UNL A   1      38.214  30.433  31.340  1.00  0.00     0.074 A 
ATOM     68  C   UNL A   1      38.870  29.160  29.329  1.00  0.00     0.049 A 
ATOM     69  N   UNL A   1      39.254  30.241  32.114  1.00  0.00    -0.248 NA
ATOM     70  C   UNL A   1      37.165  31.267  31.945  1.00  0.00    -0.034 C 
ATOM     71  C   UNL A   1      38.769  28.658  27.958  1.00  0.00    -0.036 A 
ATOM     72  N   UNL A   1      40.061  28.648  29.784  1.00  0.00    -0.354 N 
ATOM     73  C   UNL A   1      38.997  30.956  33.276  1.00  0.00     0.074 A 
ATOM     74  C   UNL A   1      37.723  31.619  33.093  1.00  0.00    -0.034 C 
ATOM     75  H   UNL A   1      36.234  31.513  31.572  1.00  0.00     0.065 H 
ATOM     76  C   UNL A   1      39.848  27.908  27.685  1.00  0.00    -0.036 A 
ATOM     77  H   UNL A   1      37.993  28.851  27.307  1.00  0.00     0.065 H 
ATOM     78  C   UNL A   1      40.736  27.906  28.844  1.00  0.00     0.049 A 
ATOM     79  H   UNL A   1      40.401  28.800  30.695  1.00  0.00     0.167 HD
ATOM     80  C   UNL A   1      39.745  31.038  34.402  1.00  0.00     0.037 A 
ATOM     81  H   UNL A   1      37.307  32.280  33.767  1.00  0.00     0.065 H 
ATOM     82  H   UNL A   1      40.022  27.411  26.796  1.00  0.00     0.065 H 
ATOM     83  C   UNL A   1      41.940  27.306  28.905  1.00  0.00     0.037 A 
ATOM     84  C   UNL A   1      40.987  30.339  34.600  1.00  0.00     0.049 A 
ATOM     85  C   UNL A   1      42.746  27.395  30.173  1.00  0.00     0.074 A 
ATOM     86  C   UNL A   1      41.780  30.290  35.734  1.00  0.00    -0.036 A 
ATOM     87  N   UNL A   1      41.618  29.563  33.638  1.00  0.00    -0.354 N 
ATOM     88  N   UNL A   1      42.465  28.024  31.287  1.00  0.00    -0.248 NA
ATOM     89  C   UNL A   1      44.035  26.689  30.192  1.00  0.00    -0.034 C 
ATOM     90  C   UNL A   1      42.911  29.519  35.444  1.00  0.00    -0.036 A 
ATOM     91  H   UNL A   1      41.571  30.743  36.637  1.00  0.00     0.065 H 
ATOM     92  C   UNL A   1      42.800  29.049  34.146  1.00  0.00     0.049 A 
ATOM     93  H   UNL A   1      41.275  29.401  32.729  1.00  0.00     0.167 HD
ATOM     94  C   UNL A   1      43.524  27.768  32.148  1.00  0.00     0.074 A 
ATOM     95  C   UNL A   1      44.451  26.921  31.429  1.00  0.00    -0.034 C 
ATOM     96  H   UNL A   1      44.495  26.153  29.439  1.00  0.00     0.065 H 
ATOM     97  H   UNL A   1      43.694  29.333  36.090  1.00  0.00     0.065 H 
ATOM     98  C   UNL A   1      43.708  28.198  33.420  1.00  0.00     0.037 A 
ATOM     99  H   UNL A   1      45.327  26.545  31.829  1.00  0.00     0.065 H 
BRANCH  80 100
ATOM    100  C   UNL A   1      39.243  31.919  35.509  1.00  0.00     0.064 A 
ATOM    101  C   UNL A   1      38.410  31.427  36.525  1.00  0.00     0.173 A 
ATOM    102  C   UNL A   1      39.621  33.269  35.568  1.00  0.00     0.173 A 
ATOM    103  F   UNL A   1      38.012  30.146  36.510  1.00  0.00    -0.203 F 
ATOM    104  C   UNL A   1      37.947  32.261  37.540  1.00  0.00     0.198 A 
ATOM    105  C   UNL A   1      39.182  34.093  36.601  1.00  0.00     0.198 A 
ATOM    106  F   UNL A   1      40.422  33.790  34.626  1.00  0.00    -0.203 F 
ATOM    107  F   UNL A   1      37.108  31.781  38.468  1.00  0.00    -0.200 F 
ATOM    108  C   UNL A   1      38.337  33.591  37.580  1.00  0.00     0.200 A 
ATOM    109  F   UNL A   1      39.570  35.375  36.646  1.00  0.00    -0.200 F 
ATOM    110  F   UNL A   1      37.893  34.392  38.558  1.00  0.00    -0.200 F 
ENDBRANCH  80 100
BRANCH  83 111
ATOM    111  C   UNL A   1      42.445  26.551  27.729  1.00  0.00     0.064 A 
ATOM    112  C   UNL A   1      43.306  27.157  26.803  1.00  0.00     0.173 A 
ATOM    113  C   UNL A   1      42.093  25.211  27.515  1.00  0.00     0.173 A 
ATOM    114  F   UNL A   1      43.653  28.442  26.954  1.00  0.00    -0.203 F 
ATOM    115  C   UNL A   1      43.787  26.451  25.702  1.00  0.00     0.198 A 
ATOM    116  C   UNL A   1      42.596  24.499  26.428  1.00  0.00     0.198 A 
ATOM    117  F   UNL A   1      41.275  24.586  28.376  1.00  0.00    -0.203 F 
ATOM    118  F   UNL A   1      44.581  27.064  24.812  1.00  0.00    -0.200 F 
ATOM    119  C   UNL A   1      43.438  25.122  25.518  1.00  0.00     0.200 A 
ATOM    120  F   UNL A   1      42.266  23.211  26.263  1.00  0.00    -0.200 F 
ATOM    121  F   UNL A   1      43.909  24.442  24.464  1.00  0.00    -0.200 F 
ENDBRANCH  83 111
BRANCH  98 122
ATOM    122  C   UNL A   1      44.942  27.733  34.137  1.00  0.00     0.064 A 
ATOM    123  C   UNL A   1      46.124  28.486  34.126  1.00  0.00     0.173 A 
ATOM    124  C   UNL A   1      44.917  26.554  34.897  1.00  0.00     0.173 A 
ATOM    125  F   UNL A   1      46.201  29.613  33.403  1.00  0.00    -0.203 F 
ATOM    126  C   UNL A   1      47.242  28.068  34.842  1.00  0.00     0.198 A 
ATOM    127  C   UNL A   1      46.028  26.153  35.632  1.00  0.00     0.198 A 
ATOM    128  F   UNL A   1      43.808  25.802  34.942  1.00  0.00    -0.203 F 
ATOM    129  F   UNL A   1      48.373  28.786  34.795  1.00  0.00    -0.200 F 
ATOM    130  C   UNL A   1      47.191  26.908  35.602  1.00  0.00     0.200 A 
ATOM    131  F   UNL A   1      45.973  25.040  36.375  1.00  0.00    -0.200 F 
ATOM    132  F   UNL A   1      48.264  26.516  36.303  1.00  0.00    -0.200 F 
ENDBRANCH  98 122
ENDBRANCH  63  66
ENDBRANCH  53  56
ENDBRANCH  49  52
ENDBRANCH  46  49
ENDBRANCH  43  46
ENDBRANCH   1  43
TORSDOF 17
ENDMDL
MODEL 9
REMARK VINA RESULT:     -11.9      3.779      7.768
REMARK SMILES Cc1cccc(Nc2ccccc2C(=O)NCCCCCCNC(=O)c2ccc(-c3c4nc(c(-c5c(F)c(F)c(F)c(F)c5F)c5ccc([nH]5)c(-c5c(F)c(F)c(F)c(F)c5F)c5nc(c(-c6c(F)c(F)c(F)c(F)c6F)c6ccc3[nH]6)C=C5)C=C4)cc2)c1C
REMARK SMILES IDX 19 1 18 4 17 7 16 10 14 11 15 12 13 14 8 15 9 16 10 17 12 19
REMARK SMILES IDX 11 20 7 24 6 26 2 27 3 28 89 29 4 30 5 32 1 35 90 39 20 43
REMARK SMILES IDX 21 46 22 49 23 52 24 53 25 55 26 56 27 57 88 58 28 59 87 61
REMARK SMILES IDX 29 63 30 66 31 67 81 68 32 69 86 70 80 71 82 72 33 73 85 74
REMARK SMILES IDX 79 76 78 78 34 80 66 83 46 84 65 85 47 86 50 87 64 88 83 89
REMARK SMILES IDX 48 90 49 92 63 94 84 95 51 98 35 100 36 101 44 102 37 103
REMARK SMILES IDX 38 104 42 105 45 106 39 107 40 108 43 109 41 110 67 111
REMARK SMILES IDX 68 112 76 113 69 114 70 115 74 116 77 117 71 118 72 119
REMARK SMILES IDX 75 120 73 121 52 122 53 123 61 124 54 125 55 126 59 127
REMARK SMILES IDX 62 128 56 129 57 130 60 131 58 132
REMARK H PARENT 19 2 19 3 18 5 18 6 17 8 17 9 16 13 9 18 10 21 12 22 11 23
REMARK H PARENT 7 25 3 31 4 33 5 34 1 36 1 37 1 38 90 40 90 41 90 42 20 44
REMARK H PARENT 20 45 21 47 21 48 22 50 22 51 23 54 27 60 88 62 28 64 87 65
REMARK H PARENT 86 75 80 77 82 79 85 81 79 82 47 91 50 93 83 96 48 97 84 99
REMARK Flexibility Score: inf
ROOT
ATOM      1  C   UNL A   1      33.539  21.979  25.102  1.00  0.00    -0.052 C 
ATOM      2  H   UNL A   1      33.095  21.076  25.466  1.00  0.00     0.027 H 
ATOM      3  H   UNL A   1      33.144  22.885  25.515  1.00  0.00     0.027 H 
ENDROOT
BRANCH   1   4
ATOM      4  C   UNL A   1      33.227  22.070  23.601  1.00  0.00    -0.036 C 
ATOM      5  H   UNL A   1      34.133  22.330  23.095  1.00  0.00     0.028 H 
ATOM      6  H   UNL A   1      32.829  21.111  23.337  1.00  0.00     0.028 H 
BRANCH   4   7
ATOM      7  C   UNL A   1      32.158  23.076  23.183  1.00  0.00     0.018 C 
ATOM      8  H   UNL A   1      31.244  22.544  23.018  1.00  0.00     0.049 H 
ATOM      9  H   UNL A   1      32.089  23.792  23.976  1.00  0.00     0.049 H 
BRANCH   7  10
ATOM     10  N   UNL A   1      32.470  23.819  21.988  1.00  0.00    -0.352 N 
ATOM     11  C   UNL A   1      32.952  25.097  21.841  1.00  0.00     0.253 C 
ATOM     12  O   UNL A   1      33.237  25.455  20.694  1.00  0.00    -0.269 OA
ATOM     13  H   UNL A   1      32.311  23.336  21.146  1.00  0.00     0.163 HD
BRANCH  11  14
ATOM     14  C   UNL A   1      33.033  26.109  22.942  1.00  0.00     0.063 A 
ATOM     15  C   UNL A   1      32.379  27.352  23.048  1.00  0.00     0.051 A 
ATOM     16  C   UNL A   1      32.666  28.162  24.178  1.00  0.00    -0.038 A 
ATOM     17  C   UNL A   1      33.506  27.739  25.207  1.00  0.00    -0.060 A 
ATOM     18  H   UNL A   1      32.238  29.098  24.240  1.00  0.00     0.064 H 
ATOM     19  C   UNL A   1      33.868  25.691  24.010  1.00  0.00    -0.047 A 
ATOM     20  C   UNL A   1      34.093  26.488  25.133  1.00  0.00    -0.061 A 
ATOM     21  H   UNL A   1      33.688  28.353  26.017  1.00  0.00     0.062 H 
ATOM     22  H   UNL A   1      34.325  24.767  23.954  1.00  0.00     0.063 H 
ATOM     23  H   UNL A   1      34.692  26.148  25.901  1.00  0.00     0.062 H 
BRANCH  15  24
ATOM     24  N   UNL A   1      31.350  27.858  22.227  1.00  0.00    -0.355 N 
ATOM     25  H   UNL A   1      31.504  27.684  21.270  1.00  0.00     0.167 HD
BRANCH  24  26
ATOM     26  C   UNL A   1      30.149  28.555  22.468  1.00  0.00     0.042 A 
ATOM     27  C   UNL A   1      27.780  28.745  23.018  1.00  0.00    -0.046 A 
ATOM     28  C   UNL A   1      27.751  30.029  22.457  1.00  0.00    -0.059 A 
ATOM     29  C   UNL A   1      29.002  28.024  23.090  1.00  0.00    -0.025 A 
ATOM     30  C   UNL A   1      28.909  30.603  21.954  1.00  0.00    -0.060 A 
ATOM     31  H   UNL A   1      26.862  30.551  22.416  1.00  0.00     0.063 H 
ATOM     32  C   UNL A   1      30.089  29.867  21.953  1.00  0.00    -0.038 A 
ATOM     33  H   UNL A   1      28.895  31.567  21.585  1.00  0.00     0.062 H 
ATOM     34  H   UNL A   1      30.944  30.293  21.562  1.00  0.00     0.064 H 
BRANCH  27  35
ATOM     35  C   UNL A   1      26.497  28.170  23.559  1.00  0.00    -0.039 C 
ATOM     36  H   UNL A   1      26.548  27.103  23.540  1.00  0.00     0.028 H 
ATOM     37  H   UNL A   1      25.678  28.500  22.955  1.00  0.00     0.028 H 
ATOM     38  H   UNL A   1      26.354  28.503  24.566  1.00  0.00     0.028 H 
ENDBRANCH  27  35
BRANCH  29  39
ATOM     39  C   UNL A   1      29.041  26.745  23.889  1.00  0.00    -0.037 C 
ATOM     40  H   UNL A   1      28.106  26.609  24.391  1.00  0.00     0.028 H 
ATOM     41  H   UNL A   1      29.830  26.799  24.610  1.00  0.00     0.028 H 
ATOM     42  H   UNL A   1      29.215  25.920  23.230  1.00  0.00     0.028 H 
ENDBRANCH  29  39
ENDBRANCH  24  26
ENDBRANCH  15  24
ENDBRANCH  11  14
ENDBRANCH   7  10
ENDBRANCH   4   7
ENDBRANCH   1   4
BRANCH   1  43
ATOM     43  C   UNL A   1      35.013  21.969  25.525  1.00  0.00    -0.052 C 
ATOM     44  H   UNL A   1      35.590  21.665  24.678  1.00  0.00     0.027 H 
ATOM     45  H   UNL A   1      35.056  21.306  26.364  1.00  0.00     0.027 H 
BRANCH  43  46
ATOM     46  C   UNL A   1      35.597  23.289  26.032  1.00  0.00    -0.036 C 
ATOM     47  H   UNL A   1      35.773  23.184  27.082  1.00  0.00     0.028 H 
ATOM     48  H   UNL A   1      34.876  24.036  25.775  1.00  0.00     0.028 H 
BRANCH  46  49
ATOM     49  C   UNL A   1      36.900  23.745  25.388  1.00  0.00     0.018 C 
ATOM     50  H   UNL A   1      37.172  24.693  25.805  1.00  0.00     0.049 H 
ATOM     51  H   UNL A   1      36.730  23.804  24.334  1.00  0.00     0.049 H 
BRANCH  49  52
ATOM     52  N   UNL A   1      37.996  22.817  25.598  1.00  0.00    -0.352 N 
ATOM     53  C   UNL A   1      39.230  23.014  26.171  1.00  0.00     0.251 C 
ATOM     54  H   UNL A   1      37.830  21.900  25.280  1.00  0.00     0.163 HD
ATOM     55  O   UNL A   1      40.069  22.120  26.131  1.00  0.00    -0.269 OA
BRANCH  53  56
ATOM     56  C   UNL A   1      39.576  24.304  26.816  1.00  0.00     0.039 A 
ATOM     57  C   UNL A   1      39.223  24.500  28.157  1.00  0.00    -0.049 A 
ATOM     58  C   UNL A   1      40.201  25.334  26.111  1.00  0.00    -0.049 A 
ATOM     59  C   UNL A   1      39.550  25.697  28.803  1.00  0.00    -0.053 A 
ATOM     60  H   UNL A   1      38.720  23.758  28.670  1.00  0.00     0.063 H 
ATOM     61  C   UNL A   1      40.595  26.496  26.774  1.00  0.00    -0.053 A 
ATOM     62  H   UNL A   1      40.372  25.236  25.098  1.00  0.00     0.063 H 
ATOM     63  C   UNL A   1      40.268  26.693  28.126  1.00  0.00    -0.014 A 
ATOM     64  H   UNL A   1      39.263  25.847  29.783  1.00  0.00     0.063 H 
ATOM     65  H   UNL A   1      41.134  27.216  26.269  1.00  0.00     0.063 H 
BRANCH  63  66
ATOM     66  C   UNL A   1      40.664  27.961  28.792  1.00  0.00     0.031 A 
ATOM     67  C   UNL A   1      42.054  28.113  29.347  1.00  0.00     0.074 A 
ATOM     68  C   UNL A   1      39.757  28.938  28.979  1.00  0.00     0.049 A 
ATOM     69  N   UNL A   1      42.556  29.075  30.081  1.00  0.00    -0.248 NA
ATOM     70  C   UNL A   1      42.997  27.020  29.067  1.00  0.00    -0.034 C 
ATOM     71  C   UNL A   1      38.366  28.899  28.524  1.00  0.00    -0.036 A 
ATOM     72  N   UNL A   1      39.863  30.149  29.619  1.00  0.00    -0.354 N 
ATOM     73  C   UNL A   1      43.856  28.686  30.376  1.00  0.00     0.074 A 
ATOM     74  C   UNL A   1      44.054  27.382  29.778  1.00  0.00    -0.034 C 
ATOM     75  H   UNL A   1      42.869  26.187  28.471  1.00  0.00     0.065 H 
ATOM     76  C   UNL A   1      37.751  30.034  28.895  1.00  0.00    -0.036 A 
ATOM     77  H   UNL A   1      37.929  28.124  28.004  1.00  0.00     0.065 H 
ATOM     78  C   UNL A   1      38.689  30.863  29.646  1.00  0.00     0.049 A 
ATOM     79  H   UNL A   1      40.701  30.473  30.023  1.00  0.00     0.167 HD
ATOM     80  C   UNL A   1      44.805  29.360  31.068  1.00  0.00     0.037 A 
ATOM     81  H   UNL A   1      44.906  26.812  29.892  1.00  0.00     0.065 H 
ATOM     82  H   UNL A   1      36.771  30.280  28.682  1.00  0.00     0.065 H 
ATOM     83  C   UNL A   1      38.399  32.045  30.223  1.00  0.00     0.037 A 
ATOM     84  C   UNL A   1      44.620  30.676  31.621  1.00  0.00     0.049 A 
ATOM     85  C   UNL A   1      39.474  32.786  30.970  1.00  0.00     0.074 A 
ATOM     86  C   UNL A   1      45.545  31.479  32.267  1.00  0.00    -0.036 A 
ATOM     87  N   UNL A   1      43.428  31.384  31.590  1.00  0.00    -0.354 N 
ATOM     88  N   UNL A   1      40.717  32.435  31.192  1.00  0.00    -0.248 NA
ATOM     89  C   UNL A   1      39.106  34.087  31.547  1.00  0.00    -0.034 C 
ATOM     90  C   UNL A   1      44.900  32.655  32.664  1.00  0.00    -0.036 A 
ATOM     91  H   UNL A   1      46.538  31.249  32.426  1.00  0.00     0.065 H 
ATOM     92  C   UNL A   1      43.587  32.606  32.225  1.00  0.00     0.049 A 
ATOM     93  H   UNL A   1      42.592  31.066  31.178  1.00  0.00     0.167 HD
ATOM     94  C   UNL A   1      41.287  33.480  31.906  1.00  0.00     0.074 A 
ATOM     95  C   UNL A   1      40.256  34.482  32.076  1.00  0.00    -0.034 C 
ATOM     96  H   UNL A   1      38.193  34.567  31.541  1.00  0.00     0.065 H 
ATOM     97  H   UNL A   1      45.331  33.428  33.194  1.00  0.00     0.065 H 
ATOM     98  C   UNL A   1      42.553  33.597  32.377  1.00  0.00     0.037 A 
ATOM     99  H   UNL A   1      40.398  35.389  32.550  1.00  0.00     0.065 H 
BRANCH  80 100
ATOM    100  C   UNL A   1      46.130  28.685  31.271  1.00  0.00     0.064 A 
ATOM    101  C   UNL A   1      47.176  28.817  30.345  1.00  0.00     0.173 A 
ATOM    102  C   UNL A   1      46.366  27.917  32.421  1.00  0.00     0.173 A 
ATOM    103  F   UNL A   1      46.999  29.532  29.225  1.00  0.00    -0.203 F 
ATOM    104  C   UNL A   1      48.396  28.176  30.546  1.00  0.00     0.198 A 
ATOM    105  C   UNL A   1      47.598  27.303  32.635  1.00  0.00     0.198 A 
ATOM    106  F   UNL A   1      45.403  27.764  33.343  1.00  0.00    -0.203 F 
ATOM    107  F   UNL A   1      49.361  28.271  29.620  1.00  0.00    -0.200 F 
ATOM    108  C   UNL A   1      48.608  27.425  31.692  1.00  0.00     0.200 A 
ATOM    109  F   UNL A   1      47.805  26.588  33.749  1.00  0.00    -0.200 F 
ATOM    110  F   UNL A   1      49.783  26.811  31.885  1.00  0.00    -0.200 F 
ENDBRANCH  80 100
BRANCH  83 111
ATOM    111  C   UNL A   1      37.029  32.606  30.097  1.00  0.00     0.064 A 
ATOM    112  C   UNL A   1      36.657  33.345  28.965  1.00  0.00     0.173 A 
ATOM    113  C   UNL A   1      36.062  32.404  31.092  1.00  0.00     0.173 A 
ATOM    114  F   UNL A   1      37.553  33.584  27.998  1.00  0.00    -0.203 F 
ATOM    115  C   UNL A   1      35.372  33.869  28.840  1.00  0.00     0.198 A 
ATOM    116  C   UNL A   1      34.770  32.906  30.953  1.00  0.00     0.198 A 
ATOM    117  F   UNL A   1      36.368  31.699  32.192  1.00  0.00    -0.203 F 
ATOM    118  F   UNL A   1      35.052  34.602  27.764  1.00  0.00    -0.200 F 
ATOM    119  C   UNL A   1      34.427  33.643  29.830  1.00  0.00     0.200 A 
ATOM    120  F   UNL A   1      33.857  32.673  31.906  1.00  0.00    -0.200 F 
ATOM    121  F   UNL A   1      33.189  34.139  29.703  1.00  0.00    -0.200 F 
ENDBRANCH  83 111
BRANCH  98 122
ATOM    122  C   UNL A   1      42.912  34.866  33.093  1.00  0.00     0.064 A 
ATOM    123  C   UNL A   1      43.441  35.969  32.409  1.00  0.00     0.173 A 
ATOM    124  C   UNL A   1      42.659  35.000  34.466  1.00  0.00     0.173 A 
ATOM    125  F   UNL A   1      43.712  35.885  31.098  1.00  0.00    -0.203 F 
ATOM    126  C   UNL A   1      43.716  37.158  33.078  1.00  0.00     0.198 A 
ATOM    127  C   UNL A   1      42.912  36.198  35.126  1.00  0.00     0.198 A 
ATOM    128  F   UNL A   1      42.149  33.974  35.163  1.00  0.00    -0.203 F 
ATOM    129  F   UNL A   1      44.251  38.192  32.413  1.00  0.00    -0.200 F 
ATOM    130  C   UNL A   1      43.443  37.276  34.434  1.00  0.00     0.200 A 
ATOM    131  F   UNL A   1      42.635  36.314  36.432  1.00  0.00    -0.200 F 
ATOM    132  F   UNL A   1      43.694  38.426  35.072  1.00  0.00    -0.200 F 
ENDBRANCH  98 122
ENDBRANCH  63  66
ENDBRANCH  53  56
ENDBRANCH  49  52
ENDBRANCH  46  49
ENDBRANCH  43  46
ENDBRANCH   1  43
TORSDOF 17
ENDMDL
MODEL 10
REMARK VINA RESULT:     -11.9      2.130      7.755
REMARK SMILES Cc1cccc(Nc2ccccc2C(=O)NCCCCCCNC(=O)c2ccc(-c3c4nc(c(-c5c(F)c(F)c(F)c(F)c5F)c5ccc([nH]5)c(-c5c(F)c(F)c(F)c(F)c5F)c5nc(c(-c6c(F)c(F)c(F)c(F)c6F)c6ccc3[nH]6)C=C5)C=C4)cc2)c1C
REMARK SMILES IDX 19 1 18 4 17 7 16 10 14 11 15 12 13 14 8 15 9 16 10 17 12 19
REMARK SMILES IDX 11 20 7 24 6 26 2 27 3 28 89 29 4 30 5 32 1 35 90 39 20 43
REMARK SMILES IDX 21 46 22 49 23 52 24 53 25 55 26 56 27 57 88 58 28 59 87 61
REMARK SMILES IDX 29 63 30 66 31 67 81 68 32 69 86 70 80 71 82 72 33 73 85 74
REMARK SMILES IDX 79 76 78 78 34 80 66 83 46 84 65 85 47 86 50 87 64 88 83 89
REMARK SMILES IDX 48 90 49 92 63 94 84 95 51 98 35 100 36 101 44 102 37 103
REMARK SMILES IDX 38 104 42 105 45 106 39 107 40 108 43 109 41 110 67 111
REMARK SMILES IDX 68 112 76 113 69 114 70 115 74 116 77 117 71 118 72 119
REMARK SMILES IDX 75 120 73 121 52 122 53 123 61 124 54 125 55 126 59 127
REMARK SMILES IDX 62 128 56 129 57 130 60 131 58 132
REMARK H PARENT 19 2 19 3 18 5 18 6 17 8 17 9 16 13 9 18 10 21 12 22 11 23
REMARK H PARENT 7 25 3 31 4 33 5 34 1 36 1 37 1 38 90 40 90 41 90 42 20 44
REMARK H PARENT 20 45 21 47 21 48 22 50 22 51 23 54 27 60 88 62 28 64 87 65
REMARK H PARENT 86 75 80 77 82 79 85 81 79 82 47 91 50 93 83 96 48 97 84 99
REMARK Flexibility Score: inf
ROOT
ATOM      1  C   UNL A   1      33.664  27.076  26.253  1.00  0.00    -0.052 C 
ATOM      2  H   UNL A   1      34.217  27.984  26.124  1.00  0.00     0.027 H 
ATOM      3  H   UNL A   1      33.908  26.509  27.127  1.00  0.00     0.027 H 
ENDROOT
BRANCH   1   4
ATOM      4  C   UNL A   1      34.020  26.153  25.079  1.00  0.00    -0.036 C 
ATOM      5  H   UNL A   1      33.136  26.012  24.495  1.00  0.00     0.028 H 
ATOM      6  H   UNL A   1      34.820  26.646  24.564  1.00  0.00     0.028 H 
BRANCH   4   7
ATOM      7  C   UNL A   1      34.565  24.772  25.435  1.00  0.00     0.018 C 
ATOM      8  H   UNL A   1      35.060  24.842  26.381  1.00  0.00     0.049 H 
ATOM      9  H   UNL A   1      33.724  24.109  25.449  1.00  0.00     0.049 H 
BRANCH   7  10
ATOM     10  N   UNL A   1      35.496  24.230  24.477  1.00  0.00    -0.352 N 
ATOM     11  C   UNL A   1      35.430  23.077  23.733  1.00  0.00     0.253 C 
ATOM     12  O   UNL A   1      36.322  22.903  22.898  1.00  0.00    -0.269 OA
ATOM     13  H   UNL A   1      36.306  24.770  24.335  1.00  0.00     0.163 HD
BRANCH  11  14
ATOM     14  C   UNL A   1      34.436  21.978  23.952  1.00  0.00     0.063 A 
ATOM     15  C   UNL A   1      33.089  21.911  23.545  1.00  0.00     0.051 A 
ATOM     16  C   UNL A   1      32.334  20.772  23.927  1.00  0.00    -0.038 A 
ATOM     17  C   UNL A   1      32.895  19.699  24.618  1.00  0.00    -0.060 A 
ATOM     18  H   UNL A   1      31.332  20.736  23.683  1.00  0.00     0.064 H 
ATOM     19  C   UNL A   1      34.991  20.867  24.638  1.00  0.00    -0.047 A 
ATOM     20  C   UNL A   1      34.236  19.738  24.957  1.00  0.00    -0.061 A 
ATOM     21  H   UNL A   1      32.316  18.884  24.874  1.00  0.00     0.062 H 
ATOM     22  H   UNL A   1      35.986  20.896  24.911  1.00  0.00     0.063 H 
ATOM     23  H   UNL A   1      34.674  18.938  25.441  1.00  0.00     0.062 H 
BRANCH  15  24
ATOM     24  N   UNL A   1      32.407  22.786  22.674  1.00  0.00    -0.355 N 
ATOM     25  H   UNL A   1      32.063  22.333  21.870  1.00  0.00     0.167 HD
BRANCH  24  26
ATOM     26  C   UNL A   1      32.104  24.163  22.697  1.00  0.00     0.042 A 
ATOM     27  C   UNL A   1      30.730  26.111  23.209  1.00  0.00    -0.046 A 
ATOM     28  C   UNL A   1      31.428  26.858  22.249  1.00  0.00    -0.059 A 
ATOM     29  C   UNL A   1      31.112  24.772  23.489  1.00  0.00    -0.025 A 
ATOM     30  C   UNL A   1      32.488  26.295  21.556  1.00  0.00    -0.060 A 
ATOM     31  H   UNL A   1      31.152  27.834  22.058  1.00  0.00     0.063 H 
ATOM     32  C   UNL A   1      32.812  24.960  21.772  1.00  0.00    -0.038 A 
ATOM     33  H   UNL A   1      33.032  26.861  20.885  1.00  0.00     0.062 H 
ATOM     34  H   UNL A   1      33.591  24.541  21.241  1.00  0.00     0.064 H 
BRANCH  27  35
ATOM     35  C   UNL A   1      29.592  26.773  23.942  1.00  0.00    -0.039 C 
ATOM     36  H   UNL A   1      29.066  27.420  23.274  1.00  0.00     0.028 H 
ATOM     37  H   UNL A   1      29.980  27.342  24.761  1.00  0.00     0.028 H 
ATOM     38  H   UNL A   1      28.924  26.024  24.314  1.00  0.00     0.028 H 
ENDBRANCH  27  35
BRANCH  29  39
ATOM     39  C   UNL A   1      30.485  24.073  24.669  1.00  0.00    -0.037 C 
ATOM     40  H   UNL A   1      31.219  23.466  25.156  1.00  0.00     0.028 H 
ATOM     41  H   UNL A   1      29.678  23.457  24.331  1.00  0.00     0.028 H 
ATOM     42  H   UNL A   1      30.112  24.803  25.358  1.00  0.00     0.028 H 
ENDBRANCH  29  39
ENDBRANCH  24  26
ENDBRANCH  15  24
ENDBRANCH  11  14
ENDBRANCH   7  10
ENDBRANCH   4   7
ENDBRANCH   1   4
BRANCH   1  43
ATOM     43  C   UNL A   1      32.190  27.459  26.438  1.00  0.00    -0.052 C 
ATOM     44  H   UNL A   1      31.944  27.310  27.468  1.00  0.00     0.027 H 
ATOM     45  H   UNL A   1      31.654  26.839  25.750  1.00  0.00     0.027 H 
BRANCH  43  46
ATOM     46  C   UNL A   1      31.795  28.891  26.072  1.00  0.00    -0.036 C 
ATOM     47  H   UNL A   1      31.263  29.303  26.904  1.00  0.00     0.028 H 
ATOM     48  H   UNL A   1      31.219  28.807  25.174  1.00  0.00     0.028 H 
BRANCH  46  49
ATOM     49  C   UNL A   1      32.935  29.843  25.734  1.00  0.00     0.018 C 
ATOM     50  H   UNL A   1      33.061  29.859  24.671  1.00  0.00     0.049 H 
ATOM     51  H   UNL A   1      33.808  29.486  26.236  1.00  0.00     0.049 H 
BRANCH  49  52
ATOM     52  N   UNL A   1      32.699  31.201  26.190  1.00  0.00    -0.352 N 
ATOM     53  C   UNL A   1      33.329  31.931  27.169  1.00  0.00     0.251 C 
ATOM     54  H   UNL A   1      31.972  31.675  25.725  1.00  0.00     0.163 HD
ATOM     55  O   UNL A   1      32.885  33.029  27.491  1.00  0.00    -0.269 OA
BRANCH  53  56
ATOM     56  C   UNL A   1      34.528  31.403  27.864  1.00  0.00     0.039 A 
ATOM     57  C   UNL A   1      35.634  32.246  28.030  1.00  0.00    -0.049 A 
ATOM     58  C   UNL A   1      34.594  30.084  28.315  1.00  0.00    -0.049 A 
ATOM     59  C   UNL A   1      36.774  31.787  28.698  1.00  0.00    -0.053 A 
ATOM     60  H   UNL A   1      35.607  33.209  27.659  1.00  0.00     0.063 H 
ATOM     61  C   UNL A   1      35.699  29.649  29.047  1.00  0.00    -0.053 A 
ATOM     62  H   UNL A   1      33.825  29.428  28.107  1.00  0.00     0.063 H 
ATOM     63  C   UNL A   1      36.805  30.494  29.240  1.00  0.00    -0.014 A 
ATOM     64  H   UNL A   1      37.597  32.403  28.793  1.00  0.00     0.063 H 
ATOM     65  H   UNL A   1      35.705  28.700  29.452  1.00  0.00     0.063 H 
BRANCH  63  66
ATOM     66  C   UNL A   1      37.985  29.987  29.987  1.00  0.00     0.031 A 
ATOM     67  C   UNL A   1      38.247  30.466  31.389  1.00  0.00     0.074 A 
ATOM     68  C   UNL A   1      38.868  29.170  29.381  1.00  0.00     0.049 A 
ATOM     69  N   UNL A   1      39.286  30.257  32.159  1.00  0.00    -0.248 NA
ATOM     70  C   UNL A   1      37.217  31.324  31.994  1.00  0.00    -0.034 C 
ATOM     71  C   UNL A   1      38.750  28.664  28.013  1.00  0.00    -0.036 A 
ATOM     72  N   UNL A   1      40.051  28.637  29.833  1.00  0.00    -0.354 N 
ATOM     73  C   UNL A   1      39.049  30.982  33.318  1.00  0.00     0.074 A 
ATOM     74  C   UNL A   1      37.788  31.670  33.137  1.00  0.00    -0.034 C 
ATOM     75  H   UNL A   1      36.290  31.587  31.624  1.00  0.00     0.065 H 
ATOM     76  C   UNL A   1      39.813  27.890  27.738  1.00  0.00    -0.036 A 
ATOM     77  H   UNL A   1      37.976  28.869  27.364  1.00  0.00     0.065 H 
ATOM     78  C   UNL A   1      40.706  27.877  28.894  1.00  0.00     0.049 A 
ATOM     79  H   UNL A   1      40.397  28.786  30.742  1.00  0.00     0.167 HD
ATOM     80  C   UNL A   1      39.804  31.055  34.441  1.00  0.00     0.037 A 
ATOM     81  H   UNL A   1      37.389  32.342  33.810  1.00  0.00     0.065 H 
ATOM     82  H   UNL A   1      39.973  27.386  26.852  1.00  0.00     0.065 H 
ATOM     83  C   UNL A   1      41.898  27.252  28.953  1.00  0.00     0.037 A 
ATOM     84  C   UNL A   1      41.033  30.332  34.636  1.00  0.00     0.049 A 
ATOM     85  C   UNL A   1      42.711  27.331  30.216  1.00  0.00     0.074 A 
ATOM     86  C   UNL A   1      41.829  30.272  35.767  1.00  0.00    -0.036 A 
ATOM     87  N   UNL A   1      41.643  29.539  33.676  1.00  0.00    -0.354 N 
ATOM     88  N   UNL A   1      42.449  27.971  31.329  1.00  0.00    -0.248 NA
ATOM     89  C   UNL A   1      43.986  26.600  30.233  1.00  0.00    -0.034 C 
ATOM     90  C   UNL A   1      42.943  29.478  35.476  1.00  0.00    -0.036 A 
ATOM     91  H   UNL A   1      41.634  30.734  36.669  1.00  0.00     0.065 H 
ATOM     92  C   UNL A   1      42.817  29.004  34.181  1.00  0.00     0.049 A 
ATOM     93  H   UNL A   1      41.293  29.379  32.769  1.00  0.00     0.167 HD
ATOM     94  C   UNL A   1      43.506  27.699  32.186  1.00  0.00     0.074 A 
ATOM     95  C   UNL A   1      44.413  26.830  31.467  1.00  0.00    -0.034 C 
ATOM     96  H   UNL A   1      44.432  26.051  29.481  1.00  0.00     0.065 H 
ATOM     97  H   UNL A   1      43.725  29.279  36.119  1.00  0.00     0.065 H 
ATOM     98  C   UNL A   1      43.704  28.131  33.455  1.00  0.00     0.037 A 
ATOM     99  H   UNL A   1      45.282  26.438  31.865  1.00  0.00     0.065 H 
BRANCH  80 100
ATOM    100  C   UNL A   1      39.325  31.951  35.545  1.00  0.00     0.064 A 
ATOM    101  C   UNL A   1      39.722  33.294  35.633  1.00  0.00     0.173 A 
ATOM    102  C   UNL A   1      38.435  31.467  36.516  1.00  0.00     0.173 A 
ATOM    103  F   UNL A   1      40.579  33.803  34.736  1.00  0.00    -0.203 F 
ATOM    104  C   UNL A   1      39.274  34.108  36.670  1.00  0.00     0.198 A 
ATOM    105  C   UNL A   1      37.963  32.292  37.534  1.00  0.00     0.198 A 
ATOM    106  F   UNL A   1      38.017  30.192  36.476  1.00  0.00    -0.203 F 
ATOM    107  F   UNL A   1      39.711  35.372  36.764  1.00  0.00    -0.200 F 
ATOM    108  C   UNL A   1      38.392  33.609  37.616  1.00  0.00     0.200 A 
ATOM    109  F   UNL A   1      37.101  31.811  38.440  1.00  0.00    -0.200 F 
ATOM    110  F   UNL A   1      37.959  34.394  38.612  1.00  0.00    -0.200 F 
ENDBRANCH  80 100
BRANCH  83 111
ATOM    111  C   UNL A   1      42.383  26.482  27.778  1.00  0.00     0.064 A 
ATOM    112  C   UNL A   1      41.952  25.167  27.554  1.00  0.00     0.173 A 
ATOM    113  C   UNL A   1      43.269  27.046  26.850  1.00  0.00     0.173 A 
ATOM    114  F   UNL A   1      41.121  24.578  28.425  1.00  0.00    -0.203 F 
ATOM    115  C   UNL A   1      42.398  24.443  26.451  1.00  0.00     0.198 A 
ATOM    116  C   UNL A   1      43.695  26.330  25.734  1.00  0.00     0.198 A 
ATOM    117  F   UNL A   1      43.708  28.303  27.018  1.00  0.00    -0.203 F 
ATOM    118  F   UNL A   1      41.998  23.175  26.278  1.00  0.00    -0.200 F 
ATOM    119  C   UNL A   1      43.264  25.026  25.538  1.00  0.00     0.200 A 
ATOM    120  F   UNL A   1      44.520  26.902  24.847  1.00  0.00    -0.200 F 
ATOM    121  F   UNL A   1      43.685  24.332  24.472  1.00  0.00    -0.200 F 
ENDBRANCH  83 111
BRANCH  98 122
ATOM    122  C   UNL A   1      44.932  27.645  34.169  1.00  0.00     0.064 A 
ATOM    123  C   UNL A   1      46.125  28.380  34.159  1.00  0.00     0.173 A 
ATOM    124  C   UNL A   1      44.890  26.463  34.924  1.00  0.00     0.173 A 
ATOM    125  F   UNL A   1      46.218  29.508  33.440  1.00  0.00    -0.203 F 
ATOM    126  C   UNL A   1      47.238  27.943  34.873  1.00  0.00     0.198 A 
ATOM    127  C   UNL A   1      45.996  26.043  35.656  1.00  0.00     0.198 A 
ATOM    128  F   UNL A   1      43.770  25.729  34.968  1.00  0.00    -0.203 F 
ATOM    129  F   UNL A   1      48.380  28.643  34.826  1.00  0.00    -0.200 F 
ATOM    130  C   UNL A   1      47.170  26.781  35.628  1.00  0.00     0.200 A 
ATOM    131  F   UNL A   1      45.924  24.928  36.395  1.00  0.00    -0.200 F 
ATOM    132  F   UNL A   1      48.237  26.370  36.326  1.00  0.00    -0.200 F 
ENDBRANCH  98 122
ENDBRANCH  63  66
ENDBRANCH  53  56
ENDBRANCH  49  52
ENDBRANCH  46  49
ENDBRANCH  43  46
ENDBRANCH   1  43
TORSDOF 17
ENDMDL
