MODEL 1
REMARK VINA RESULT:     -13.4      0.000      0.000
REMARK SMILES Cc1c(-c2nn(-c3ccccc3)cc2/C=N/O)nnn1-c1ccc(C(=O)NCCCCCCNC(=O)c2ccc(-c3c4nc(c(-c5c(F)c(F)c(F)c(F)c5F)c5ccc([nH]5)c(-c5c(F)c(F)c(F)c(F)c5F)c5nc(c(-c6c(F)c(F)c(F)c(F)c6F)c6ccc3[nH]6)C=C5)C=C4)cc2)cc1
REMARK SMILES IDX 29 1 28 4 27 7 25 8 26 9 24 11 21 12 22 13 101 14 23 15
REMARK SMILES IDX 100 17 20 21 2 22 3 23 18 24 19 25 1 26 4 30 5 31 14 32 6 33
REMARK SMILES IDX 13 34 15 36 16 37 17 39 7 41 8 42 12 43 9 44 11 46 10 48
REMARK SMILES IDX 30 52 31 55 32 58 33 61 34 64 35 65 36 67 37 68 38 69 99 70
REMARK SMILES IDX 39 71 98 73 40 75 41 78 42 79 92 80 43 81 97 82 91 83 93 84
REMARK SMILES IDX 44 85 96 86 90 88 89 90 45 92 77 95 57 96 76 97 58 98 61 99
REMARK SMILES IDX 75 100 94 101 59 102 60 104 74 106 95 107 62 110 46 112
REMARK SMILES IDX 47 113 55 114 48 115 49 116 53 117 56 118 50 119 51 120
REMARK SMILES IDX 54 121 52 122 78 123 79 124 87 125 80 126 81 127 85 128
REMARK SMILES IDX 88 129 82 130 83 131 86 132 84 133 63 134 64 135 72 136
REMARK SMILES IDX 65 137 66 138 70 139 73 140 67 141 68 142 71 143 69 144
REMARK H PARENT 29 2 29 3 28 5 28 6 27 10 22 16 101 18 23 19 100 20 1 27 1 28
REMARK H PARENT 1 29 13 35 15 38 17 40 8 45 12 47 9 49 11 50 10 51 30 53 30 54
REMARK H PARENT 31 56 31 57 32 59 32 60 33 62 33 63 34 66 38 72 99 74 39 76
REMARK H PARENT 98 77 97 87 91 89 93 91 96 93 90 94 58 103 61 105 94 108
REMARK H PARENT 59 109 95 111
REMARK Flexibility Score: inf
ROOT
ATOM      1  C   UNL A   1      31.726  29.596  27.261  1.00  0.00    -0.036 C 
ATOM      2  H   UNL A   1      30.813  29.112  26.984  1.00  0.00     0.028 H 
ATOM      3  H   UNL A   1      31.710  29.934  28.277  1.00  0.00     0.028 H 
ENDROOT
BRANCH   1   4
ATOM      4  C   UNL A   1      31.912  30.830  26.375  1.00  0.00     0.018 C 
ATOM      5  H   UNL A   1      31.853  31.712  26.978  1.00  0.00     0.049 H 
ATOM      6  H   UNL A   1      32.870  30.780  25.900  1.00  0.00     0.049 H 
BRANCH   4   7
ATOM      7  N   UNL A   1      30.880  30.871  25.362  1.00  0.00    -0.352 N 
ATOM      8  C   UNL A   1      30.577  30.087  24.281  1.00  0.00     0.251 C 
ATOM      9  O   UNL A   1      29.626  30.448  23.586  1.00  0.00    -0.269 OA
ATOM     10  H   UNL A   1      30.259  31.627  25.474  1.00  0.00     0.163 HD
BRANCH   8  11
ATOM     11  C   UNL A   1      31.272  28.811  23.945  1.00  0.00     0.039 A 
ATOM     12  C   UNL A   1      32.453  26.292  23.553  1.00  0.00     0.067 A 
ATOM     13  C   UNL A   1      31.119  26.373  23.953  1.00  0.00    -0.036 A 
ATOM     14  C   UNL A   1      33.176  27.454  23.272  1.00  0.00    -0.036 A 
ATOM     15  C   UNL A   1      30.551  27.627  24.184  1.00  0.00    -0.047 A 
ATOM     16  H   UNL A   1      30.559  25.515  24.077  1.00  0.00     0.065 H 
ATOM     17  C   UNL A   1      32.559  28.703  23.408  1.00  0.00    -0.047 A 
ATOM     18  H   UNL A   1      34.160  27.392  22.967  1.00  0.00     0.065 H 
ATOM     19  H   UNL A   1      29.583  27.686  24.537  1.00  0.00     0.063 H 
ATOM     20  H   UNL A   1      33.059  29.554  23.109  1.00  0.00     0.063 H 
BRANCH  12  21
ATOM     21  N   UNL A   1      33.048  25.026  23.381  1.00  0.00    -0.217 N 
ATOM     22  C   UNL A   1      33.225  24.018  24.307  1.00  0.00     0.071 A 
ATOM     23  C   UNL A   1      34.040  23.126  23.639  1.00  0.00     0.137 A 
ATOM     24  N   UNL A   1      34.236  23.533  22.353  1.00  0.00    -0.128 NA
ATOM     25  N   UNL A   1      33.557  24.660  22.181  1.00  0.00    -0.061 NA
BRANCH  22  26
ATOM     26  C   UNL A   1      32.554  23.942  25.625  1.00  0.00    -0.020 C 
ATOM     27  H   UNL A   1      31.915  24.792  25.750  1.00  0.00     0.030 H 
ATOM     28  H   UNL A   1      33.291  23.936  26.401  1.00  0.00     0.030 H 
ATOM     29  H   UNL A   1      31.972  23.047  25.679  1.00  0.00     0.030 H 
ENDBRANCH  22  26
BRANCH  23  30
ATOM     30  C   UNL A   1      34.559  21.848  24.106  1.00  0.00     0.124 A 
ATOM     31  N   UNL A   1      33.849  20.722  23.991  1.00  0.00    -0.165 NA
ATOM     32  C   UNL A   1      35.808  21.644  24.734  1.00  0.00     0.044 A 
ATOM     33  N   UNL A   1      34.588  19.790  24.629  1.00  0.00    -0.240 N 
ATOM     34  C   UNL A   1      35.776  20.308  25.092  1.00  0.00     0.040 A 
ATOM     35  H   UNL A   1      36.507  19.796  25.611  1.00  0.00     0.085 H 
BRANCH  32  36
ATOM     36  C   UNL A   1      36.908  22.540  24.985  1.00  0.00     0.077 C 
ATOM     37  N   UNL A   1      37.922  22.144  25.681  1.00  0.00    -0.097 NA
ATOM     38  H   UNL A   1      36.887  23.500  24.607  1.00  0.00     0.088 H 
BRANCH  37  39
ATOM     39  O   UNL A   1      38.835  23.197  25.809  1.00  0.00    -0.411 OA
ATOM     40  H   UNL A   1      39.755  23.029  25.757  1.00  0.00     0.330 HD
ENDBRANCH  37  39
ENDBRANCH  32  36
BRANCH  33  41
ATOM     41  C   UNL A   1      34.098  18.475  24.793  1.00  0.00     0.065 A 
ATOM     42  C   UNL A   1      34.816  17.405  24.240  1.00  0.00    -0.036 A 
ATOM     43  C   UNL A   1      32.893  18.243  25.466  1.00  0.00    -0.036 A 
ATOM     44  C   UNL A   1      34.338  16.103  24.381  1.00  0.00    -0.060 A 
ATOM     45  H   UNL A   1      35.696  17.582  23.731  1.00  0.00     0.065 H 
ATOM     46  C   UNL A   1      32.397  16.942  25.557  1.00  0.00    -0.060 A 
ATOM     47  H   UNL A   1      32.376  19.029  25.892  1.00  0.00     0.065 H 
ATOM     48  C   UNL A   1      33.123  15.874  25.025  1.00  0.00    -0.062 A 
ATOM     49  H   UNL A   1      34.883  15.310  24.009  1.00  0.00     0.062 H 
ATOM     50  H   UNL A   1      31.491  16.768  26.018  1.00  0.00     0.062 H 
ATOM     51  H   UNL A   1      32.759  14.912  25.110  1.00  0.00     0.062 H 
ENDBRANCH  33  41
ENDBRANCH  23  30
ENDBRANCH  12  21
ENDBRANCH   8  11
ENDBRANCH   4   7
ENDBRANCH   1   4
BRANCH   1  52
ATOM     52  C   UNL A   1      32.873  28.583  27.135  1.00  0.00    -0.052 C 
ATOM     53  H   UNL A   1      32.590  27.854  26.403  1.00  0.00     0.027 H 
ATOM     54  H   UNL A   1      33.017  28.177  28.114  1.00  0.00     0.027 H 
BRANCH  52  55
ATOM     55  C   UNL A   1      34.234  29.170  26.717  1.00  0.00    -0.052 C 
ATOM     56  H   UNL A   1      34.050  29.941  26.000  1.00  0.00     0.027 H 
ATOM     57  H   UNL A   1      34.798  28.342  26.339  1.00  0.00     0.027 H 
BRANCH  55  58
ATOM     58  C   UNL A   1      35.091  29.769  27.843  1.00  0.00    -0.036 C 
ATOM     59  H   UNL A   1      36.021  29.243  27.879  1.00  0.00     0.028 H 
ATOM     60  H   UNL A   1      34.536  29.668  28.752  1.00  0.00     0.028 H 
BRANCH  58  61
ATOM     61  C   UNL A   1      35.379  31.248  27.652  1.00  0.00     0.018 C 
ATOM     62  H   UNL A   1      34.776  31.614  26.847  1.00  0.00     0.049 H 
ATOM     63  H   UNL A   1      36.422  31.351  27.438  1.00  0.00     0.049 H 
BRANCH  61  64
ATOM     64  N   UNL A   1      35.086  32.035  28.857  1.00  0.00    -0.352 N 
ATOM     65  C   UNL A   1      35.529  31.826  30.148  1.00  0.00     0.251 C 
ATOM     66  H   UNL A   1      34.496  32.812  28.727  1.00  0.00     0.163 HD
ATOM     67  O   UNL A   1      34.955  32.325  31.114  1.00  0.00    -0.269 OA
BRANCH  65  68
ATOM     68  C   UNL A   1      36.728  31.001  30.342  1.00  0.00     0.039 A 
ATOM     69  C   UNL A   1      36.678  29.675  30.780  1.00  0.00    -0.049 A 
ATOM     70  C   UNL A   1      37.934  31.599  30.009  1.00  0.00    -0.049 A 
ATOM     71  C   UNL A   1      37.864  28.943  30.816  1.00  0.00    -0.053 A 
ATOM     72  H   UNL A   1      35.785  29.246  31.071  1.00  0.00     0.063 H 
ATOM     73  C   UNL A   1      39.025  30.816  29.793  1.00  0.00    -0.053 A 
ATOM     74  H   UNL A   1      38.003  32.625  29.928  1.00  0.00     0.063 H 
ATOM     75  C   UNL A   1      39.032  29.530  30.312  1.00  0.00    -0.014 A 
ATOM     76  H   UNL A   1      37.881  27.987  31.205  1.00  0.00     0.063 H 
ATOM     77  H   UNL A   1      39.829  31.171  29.252  1.00  0.00     0.063 H 
BRANCH  75  78
ATOM     78  C   UNL A   1      40.317  28.851  30.299  1.00  0.00     0.031 A 
ATOM     79  C   UNL A   1      40.952  28.645  31.627  1.00  0.00     0.074 A 
ATOM     80  C   UNL A   1      40.741  28.216  29.183  1.00  0.00     0.049 A 
ATOM     81  N   UNL A   1      42.099  29.076  32.033  1.00  0.00    -0.248 NA
ATOM     82  C   UNL A   1      40.176  27.950  32.667  1.00  0.00    -0.034 C 
ATOM     83  C   UNL A   1      40.051  28.047  27.892  1.00  0.00    -0.036 A 
ATOM     84  N   UNL A   1      41.858  27.467  29.011  1.00  0.00    -0.354 N 
ATOM     85  C   UNL A   1      42.268  28.581  33.325  1.00  0.00     0.074 A 
ATOM     86  C   UNL A   1      40.998  28.028  33.714  1.00  0.00    -0.034 C 
ATOM     87  H   UNL A   1      39.241  27.517  32.602  1.00  0.00     0.065 H 
ATOM     88  C   UNL A   1      40.644  27.065  27.181  1.00  0.00    -0.036 A 
ATOM     89  H   UNL A   1      39.236  28.597  27.580  1.00  0.00     0.065 H 
ATOM     90  C   UNL A   1      41.856  26.674  27.871  1.00  0.00     0.049 A 
ATOM     91  H   UNL A   1      42.613  27.485  29.644  1.00  0.00     0.167 HD
ATOM     92  C   UNL A   1      43.504  28.490  33.893  1.00  0.00     0.037 A 
ATOM     93  H   UNL A   1      40.757  27.731  34.673  1.00  0.00     0.065 H 
ATOM     94  H   UNL A   1      40.294  26.661  26.298  1.00  0.00     0.065 H 
ATOM     95  C   UNL A   1      42.781  25.741  27.546  1.00  0.00     0.037 A 
ATOM     96  C   UNL A   1      44.465  29.284  33.168  1.00  0.00     0.049 A 
ATOM     97  C   UNL A   1      43.996  26.040  28.349  1.00  0.00     0.074 A 
ATOM     98  C   UNL A   1      44.596  30.634  32.907  1.00  0.00    -0.036 A 
ATOM     99  N   UNL A   1      45.266  28.651  32.249  1.00  0.00    -0.354 N 
ATOM    100  N   UNL A   1      44.717  27.116  28.189  1.00  0.00    -0.248 NA
ATOM    101  C   UNL A   1      44.115  25.394  29.648  1.00  0.00    -0.034 C 
ATOM    102  C   UNL A   1      45.046  30.703  31.554  1.00  0.00    -0.036 A 
ATOM    103  H   UNL A   1      44.412  31.420  33.548  1.00  0.00     0.065 H 
ATOM    104  C   UNL A   1      45.232  29.398  31.097  1.00  0.00     0.049 A 
ATOM    105  H   UNL A   1      45.772  27.817  32.390  1.00  0.00     0.167 HD
ATOM    106  C   UNL A   1      45.052  27.516  29.475  1.00  0.00     0.074 A 
ATOM    107  C   UNL A   1      44.714  26.376  30.327  1.00  0.00    -0.034 C 
ATOM    108  H   UNL A   1      43.823  24.453  29.954  1.00  0.00     0.065 H 
ATOM    109  H   UNL A   1      45.205  31.565  31.010  1.00  0.00     0.065 H 
ATOM    110  C   UNL A   1      45.292  28.828  29.769  1.00  0.00     0.037 A 
ATOM    111  H   UNL A   1      44.915  26.335  31.338  1.00  0.00     0.065 H 
BRANCH  92 112
ATOM    112  C   UNL A   1      43.926  27.452  34.901  1.00  0.00     0.064 A 
ATOM    113  C   UNL A   1      43.783  26.084  34.584  1.00  0.00     0.173 A 
ATOM    114  C   UNL A   1      44.192  27.734  36.259  1.00  0.00     0.173 A 
ATOM    115  F   UNL A   1      43.520  25.697  33.327  1.00  0.00    -0.203 F 
ATOM    116  C   UNL A   1      43.823  25.088  35.564  1.00  0.00     0.198 A 
ATOM    117  C   UNL A   1      44.285  26.733  37.224  1.00  0.00     0.198 A 
ATOM    118  F   UNL A   1      44.261  28.986  36.725  1.00  0.00    -0.203 F 
ATOM    119  F   UNL A   1      43.559  23.817  35.232  1.00  0.00    -0.200 F 
ATOM    120  C   UNL A   1      44.067  25.415  36.885  1.00  0.00     0.200 A 
ATOM    121  F   UNL A   1      44.508  27.071  38.503  1.00  0.00    -0.200 F 
ATOM    122  F   UNL A   1      44.045  24.472  37.835  1.00  0.00    -0.200 F 
ENDBRANCH  92 112
BRANCH  95 123
ATOM    123  C   UNL A   1      42.555  24.444  26.869  1.00  0.00     0.064 A 
ATOM    124  C   UNL A   1      43.160  24.152  25.638  1.00  0.00     0.173 A 
ATOM    125  C   UNL A   1      41.959  23.363  27.549  1.00  0.00     0.173 A 
ATOM    126  F   UNL A   1      43.788  25.117  24.953  1.00  0.00    -0.203 F 
ATOM    127  C   UNL A   1      43.189  22.849  25.128  1.00  0.00     0.198 A 
ATOM    128  C   UNL A   1      41.985  22.064  27.037  1.00  0.00     0.198 A 
ATOM    129  F   UNL A   1      41.425  23.528  28.769  1.00  0.00    -0.203 F 
ATOM    130  F   UNL A   1      43.828  22.596  23.977  1.00  0.00    -0.200 F 
ATOM    131  C   UNL A   1      42.611  21.806  25.832  1.00  0.00     0.200 A 
ATOM    132  F   UNL A   1      41.457  21.058  27.750  1.00  0.00    -0.200 F 
ATOM    133  F   UNL A   1      42.695  20.548  25.375  1.00  0.00    -0.200 F 
ENDBRANCH  95 123
BRANCH 110 134
ATOM    134  C   UNL A   1      45.389  29.801  28.623  1.00  0.00     0.064 A 
ATOM    135  C   UNL A   1      44.299  30.534  28.117  1.00  0.00     0.173 A 
ATOM    136  C   UNL A   1      46.657  30.123  28.124  1.00  0.00     0.173 A 
ATOM    137  F   UNL A   1      43.069  30.366  28.611  1.00  0.00    -0.203 F 
ATOM    138  C   UNL A   1      44.466  31.507  27.134  1.00  0.00     0.198 A 
ATOM    139  C   UNL A   1      46.828  31.121  27.167  1.00  0.00     0.198 A 
ATOM    140  F   UNL A   1      47.745  29.504  28.608  1.00  0.00    -0.203 F 
ATOM    141  F   UNL A   1      43.405  32.183  26.669  1.00  0.00    -0.200 F 
ATOM    142  C   UNL A   1      45.732  31.806  26.665  1.00  0.00     0.200 A 
ATOM    143  F   UNL A   1      48.062  31.443  26.755  1.00  0.00    -0.200 F 
ATOM    144  F   UNL A   1      45.901  32.772  25.751  1.00  0.00    -0.200 F 
ENDBRANCH 110 134
ENDBRANCH  75  78
ENDBRANCH  65  68
ENDBRANCH  61  64
ENDBRANCH  58  61
ENDBRANCH  55  58
ENDBRANCH  52  55
ENDBRANCH   1  52
TORSDOF 19
ENDMDL
MODEL 2
REMARK VINA RESULT:     -13.2      3.027      9.631
REMARK SMILES Cc1c(-c2nn(-c3ccccc3)cc2/C=N/O)nnn1-c1ccc(C(=O)NCCCCCCNC(=O)c2ccc(-c3c4nc(c(-c5c(F)c(F)c(F)c(F)c5F)c5ccc([nH]5)c(-c5c(F)c(F)c(F)c(F)c5F)c5nc(c(-c6c(F)c(F)c(F)c(F)c6F)c6ccc3[nH]6)C=C5)C=C4)cc2)cc1
REMARK SMILES IDX 29 1 28 4 27 7 25 8 26 9 24 11 21 12 22 13 101 14 23 15
REMARK SMILES IDX 100 17 20 21 2 22 3 23 18 24 19 25 1 26 4 30 5 31 14 32 6 33
REMARK SMILES IDX 13 34 15 36 16 37 17 39 7 41 8 42 12 43 9 44 11 46 10 48
REMARK SMILES IDX 30 52 31 55 32 58 33 61 34 64 35 65 36 67 37 68 38 69 99 70
REMARK SMILES IDX 39 71 98 73 40 75 41 78 42 79 92 80 43 81 97 82 91 83 93 84
REMARK SMILES IDX 44 85 96 86 90 88 89 90 45 92 77 95 57 96 76 97 58 98 61 99
REMARK SMILES IDX 75 100 94 101 59 102 60 104 74 106 95 107 62 110 46 112
REMARK SMILES IDX 47 113 55 114 48 115 49 116 53 117 56 118 50 119 51 120
REMARK SMILES IDX 54 121 52 122 78 123 79 124 87 125 80 126 81 127 85 128
REMARK SMILES IDX 88 129 82 130 83 131 86 132 84 133 63 134 64 135 72 136
REMARK SMILES IDX 65 137 66 138 70 139 73 140 67 141 68 142 71 143 69 144
REMARK H PARENT 29 2 29 3 28 5 28 6 27 10 22 16 101 18 23 19 100 20 1 27 1 28
REMARK H PARENT 1 29 13 35 15 38 17 40 8 45 12 47 9 49 11 50 10 51 30 53 30 54
REMARK H PARENT 31 56 31 57 32 59 32 60 33 62 33 63 34 66 38 72 99 74 39 76
REMARK H PARENT 98 77 97 87 91 89 93 91 96 93 90 94 58 103 61 105 94 108
REMARK H PARENT 59 109 95 111
REMARK Flexibility Score: inf
ROOT
ATOM      1  C   UNL A   1      36.290  18.577  25.000  1.00  0.00    -0.036 C 
ATOM      2  H   UNL A   1      37.159  17.952  24.993  1.00  0.00     0.028 H 
ATOM      3  H   UNL A   1      35.905  18.719  25.988  1.00  0.00     0.028 H 
ENDROOT
BRANCH   1   4
ATOM      4  C   UNL A   1      35.194  17.895  24.178  1.00  0.00     0.018 C 
ATOM      5  H   UNL A   1      35.004  18.469  23.295  1.00  0.00     0.049 H 
ATOM      6  H   UNL A   1      35.517  16.911  23.908  1.00  0.00     0.049 H 
BRANCH   4   7
ATOM      7  N   UNL A   1      33.978  17.799  24.958  1.00  0.00    -0.352 N 
ATOM      8  C   UNL A   1      33.088  18.717  25.446  1.00  0.00     0.251 C 
ATOM      9  O   UNL A   1      32.160  18.278  26.126  1.00  0.00    -0.269 OA
ATOM     10  H   UNL A   1      33.740  16.872  25.187  1.00  0.00     0.163 HD
BRANCH   8  11
ATOM     11  C   UNL A   1      33.135  20.178  25.146  1.00  0.00     0.039 A 
ATOM     12  C   UNL A   1      33.139  22.972  24.860  1.00  0.00     0.067 A 
ATOM     13  C   UNL A   1      33.637  22.399  26.030  1.00  0.00    -0.036 A 
ATOM     14  C   UNL A   1      32.714  22.163  23.804  1.00  0.00    -0.036 A 
ATOM     15  C   UNL A   1      33.596  21.012  26.181  1.00  0.00    -0.047 A 
ATOM     16  H   UNL A   1      34.031  22.994  26.776  1.00  0.00     0.065 H 
ATOM     17  C   UNL A   1      32.776  20.770  23.931  1.00  0.00    -0.047 A 
ATOM     18  H   UNL A   1      32.354  22.588  22.935  1.00  0.00     0.065 H 
ATOM     19  H   UNL A   1      33.909  20.590  27.069  1.00  0.00     0.063 H 
ATOM     20  H   UNL A   1      32.556  20.173  23.119  1.00  0.00     0.063 H 
BRANCH  12  21
ATOM     21  N   UNL A   1      33.120  24.376  24.731  1.00  0.00    -0.217 N 
ATOM     22  C   UNL A   1      32.142  25.269  25.118  1.00  0.00     0.071 A 
ATOM     23  C   UNL A   1      32.567  26.455  24.554  1.00  0.00     0.137 A 
ATOM     24  N   UNL A   1      33.787  26.291  23.966  1.00  0.00    -0.128 NA
ATOM     25  N   UNL A   1      34.154  25.029  24.151  1.00  0.00    -0.061 NA
BRANCH  22  26
ATOM     26  C   UNL A   1      31.014  24.960  26.028  1.00  0.00    -0.020 C 
ATOM     27  H   UNL A   1      30.400  25.829  26.143  1.00  0.00     0.030 H 
ATOM     28  H   UNL A   1      31.397  24.666  26.983  1.00  0.00     0.030 H 
ATOM     29  H   UNL A   1      30.432  24.163  25.617  1.00  0.00     0.030 H 
ENDBRANCH  22  26
BRANCH  23  30
ATOM     30  C   UNL A   1      31.945  27.770  24.631  1.00  0.00     0.124 A 
ATOM     31  N   UNL A   1      30.901  28.094  23.862  1.00  0.00    -0.165 NA
ATOM     32  C   UNL A   1      32.357  28.831  25.467  1.00  0.00     0.044 A 
ATOM     33  N   UNL A   1      30.683  29.400  24.122  1.00  0.00    -0.240 N 
ATOM     34  C   UNL A   1      31.543  29.882  25.083  1.00  0.00     0.040 A 
ATOM     35  H   UNL A   1      31.575  30.846  25.450  1.00  0.00     0.085 H 
BRANCH  32  36
ATOM     36  C   UNL A   1      33.364  28.901  26.495  1.00  0.00     0.077 C 
ATOM     37  N   UNL A   1      33.378  29.891  27.325  1.00  0.00    -0.097 NA
ATOM     38  H   UNL A   1      34.076  28.157  26.570  1.00  0.00     0.088 H 
BRANCH  37  39
ATOM     39  O   UNL A   1      34.461  29.747  28.199  1.00  0.00    -0.411 OA
ATOM     40  H   UNL A   1      34.872  30.505  28.565  1.00  0.00     0.330 HD
ENDBRANCH  37  39
ENDBRANCH  32  36
BRANCH  33  41
ATOM     41  C   UNL A   1      29.698  30.118  23.407  1.00  0.00     0.065 A 
ATOM     42  C   UNL A   1      29.390  29.732  22.095  1.00  0.00    -0.036 A 
ATOM     43  C   UNL A   1      29.062  31.223  23.985  1.00  0.00    -0.036 A 
ATOM     44  C   UNL A   1      28.431  30.438  21.371  1.00  0.00    -0.060 A 
ATOM     45  H   UNL A   1      29.872  28.926  21.667  1.00  0.00     0.065 H 
ATOM     46  C   UNL A   1      28.141  31.955  23.234  1.00  0.00    -0.060 A 
ATOM     47  H   UNL A   1      29.273  31.493  24.959  1.00  0.00     0.065 H 
ATOM     48  C   UNL A   1      27.819  31.557  21.935  1.00  0.00    -0.062 A 
ATOM     49  H   UNL A   1      28.174  30.134  20.420  1.00  0.00     0.062 H 
ATOM     50  H   UNL A   1      27.698  32.793  23.640  1.00  0.00     0.062 H 
ATOM     51  H   UNL A   1      27.125  32.094  21.391  1.00  0.00     0.062 H 
ENDBRANCH  33  41
ENDBRANCH  23  30
ENDBRANCH  12  21
ENDBRANCH   8  11
ENDBRANCH   4   7
ENDBRANCH   1   4
BRANCH   1  52
ATOM     52  C   UNL A   1      36.679  19.960  24.457  1.00  0.00    -0.052 C 
ATOM     53  H   UNL A   1      35.779  20.520  24.306  1.00  0.00     0.027 H 
ATOM     54  H   UNL A   1      37.231  19.779  23.559  1.00  0.00     0.027 H 
BRANCH  52  55
ATOM     55  C   UNL A   1      37.607  20.791  25.363  1.00  0.00    -0.052 C 
ATOM     56  H   UNL A   1      38.616  20.571  25.084  1.00  0.00     0.027 H 
ATOM     57  H   UNL A   1      37.356  20.510  26.365  1.00  0.00     0.027 H 
BRANCH  55  58
ATOM     58  C   UNL A   1      37.426  22.316  25.306  1.00  0.00    -0.036 C 
ATOM     59  H   UNL A   1      36.413  22.547  25.560  1.00  0.00     0.028 H 
ATOM     60  H   UNL A   1      37.673  22.629  24.314  1.00  0.00     0.028 H 
BRANCH  58  61
ATOM     61  C   UNL A   1      38.344  23.062  26.258  1.00  0.00     0.018 C 
ATOM     62  H   UNL A   1      37.869  23.126  27.214  1.00  0.00     0.049 H 
ATOM     63  H   UNL A   1      38.523  24.032  25.844  1.00  0.00     0.049 H 
BRANCH  61  64
ATOM     64  N   UNL A   1      39.643  22.396  26.419  1.00  0.00    -0.352 N 
ATOM     65  C   UNL A   1      40.896  22.968  26.518  1.00  0.00     0.251 C 
ATOM     66  H   UNL A   1      39.616  21.413  26.461  1.00  0.00     0.163 HD
ATOM     67  O   UNL A   1      41.918  22.320  26.302  1.00  0.00    -0.269 OA
BRANCH  65  68
ATOM     68  C   UNL A   1      40.981  24.379  26.910  1.00  0.00     0.039 A 
ATOM     69  C   UNL A   1      40.473  25.421  26.129  1.00  0.00    -0.049 A 
ATOM     70  C   UNL A   1      41.556  24.629  28.148  1.00  0.00    -0.049 A 
ATOM     71  C   UNL A   1      40.499  26.714  26.649  1.00  0.00    -0.053 A 
ATOM     72  H   UNL A   1      40.087  25.238  25.190  1.00  0.00     0.063 H 
ATOM     73  C   UNL A   1      41.337  25.829  28.750  1.00  0.00    -0.053 A 
ATOM     74  H   UNL A   1      42.143  23.915  28.605  1.00  0.00     0.063 H 
ATOM     75  C   UNL A   1      40.931  26.900  27.969  1.00  0.00    -0.014 A 
ATOM     76  H   UNL A   1      40.203  27.518  26.074  1.00  0.00     0.063 H 
ATOM     77  H   UNL A   1      41.469  25.939  29.768  1.00  0.00     0.063 H 
BRANCH  75  78
ATOM     78  C   UNL A   1      40.991  28.205  28.606  1.00  0.00     0.031 A 
ATOM     79  C   UNL A   1      42.087  29.098  28.146  1.00  0.00     0.074 A 
ATOM     80  C   UNL A   1      39.952  28.650  29.346  1.00  0.00     0.049 A 
ATOM     81  N   UNL A   1      43.040  29.612  28.850  1.00  0.00    -0.248 NA
ATOM     82  C   UNL A   1      42.192  29.383  26.706  1.00  0.00    -0.034 C 
ATOM     83  C   UNL A   1      38.651  28.006  29.602  1.00  0.00    -0.036 A 
ATOM     84  N   UNL A   1      39.794  29.860  29.939  1.00  0.00    -0.354 N 
ATOM     85  C   UNL A   1      43.780  30.413  27.982  1.00  0.00     0.074 A 
ATOM     86  C   UNL A   1      43.306  30.115  26.657  1.00  0.00    -0.034 C 
ATOM     87  H   UNL A   1      41.568  29.093  25.937  1.00  0.00     0.065 H 
ATOM     88  C   UNL A   1      37.775  28.917  30.078  1.00  0.00    -0.036 A 
ATOM     89  H   UNL A   1      38.442  27.009  29.441  1.00  0.00     0.065 H 
ATOM     90  C   UNL A   1      38.495  30.145  30.340  1.00  0.00     0.049 A 
ATOM     91  H   UNL A   1      40.542  30.486  30.075  1.00  0.00     0.167 HD
ATOM     92  C   UNL A   1      44.588  31.406  28.450  1.00  0.00     0.037 A 
ATOM     93  H   UNL A   1      43.766  30.426  25.786  1.00  0.00     0.065 H 
ATOM     94  H   UNL A   1      36.765  28.764  30.227  1.00  0.00     0.065 H 
ATOM     95  C   UNL A   1      38.051  31.329  30.824  1.00  0.00     0.037 A 
ATOM     96  C   UNL A   1      44.838  31.246  29.861  1.00  0.00     0.049 A 
ATOM     97  C   UNL A   1      39.248  32.084  31.281  1.00  0.00     0.074 A 
ATOM     98  C   UNL A   1      45.456  30.275  30.625  1.00  0.00    -0.036 A 
ATOM     99  N   UNL A   1      44.079  31.979  30.740  1.00  0.00    -0.354 N 
ATOM    100  N   UNL A   1      39.994  31.712  32.285  1.00  0.00    -0.248 NA
ATOM    101  C   UNL A   1      39.891  32.965  30.317  1.00  0.00    -0.034 C 
ATOM    102  C   UNL A   1      44.647  30.161  31.795  1.00  0.00    -0.036 A 
ATOM    103  H   UNL A   1      46.314  29.748  30.400  1.00  0.00     0.065 H 
ATOM    104  C   UNL A   1      43.633  31.115  31.710  1.00  0.00     0.049 A 
ATOM    105  H   UNL A   1      43.891  32.945  30.687  1.00  0.00     0.167 HD
ATOM    106  C   UNL A   1      41.296  31.961  31.874  1.00  0.00     0.074 A 
ATOM    107  C   UNL A   1      41.164  32.800  30.683  1.00  0.00    -0.034 C 
ATOM    108  H   UNL A   1      39.481  33.548  29.570  1.00  0.00     0.065 H 
ATOM    109  H   UNL A   1      44.788  29.491  32.567  1.00  0.00     0.065 H 
ATOM    110  C   UNL A   1      42.344  31.228  32.355  1.00  0.00     0.037 A 
ATOM    111  H   UNL A   1      41.965  33.216  30.183  1.00  0.00     0.065 H 
BRANCH  92 112
ATOM    112  C   UNL A   1      44.898  32.691  27.725  1.00  0.00     0.064 A 
ATOM    113  C   UNL A   1      46.142  32.832  27.073  1.00  0.00     0.173 A 
ATOM    114  C   UNL A   1      44.157  33.882  27.880  1.00  0.00     0.173 A 
ATOM    115  F   UNL A   1      46.937  31.769  26.878  1.00  0.00    -0.203 F 
ATOM    116  C   UNL A   1      46.636  34.080  26.684  1.00  0.00     0.198 A 
ATOM    117  C   UNL A   1      44.630  35.117  27.441  1.00  0.00     0.198 A 
ATOM    118  F   UNL A   1      43.004  33.920  28.558  1.00  0.00    -0.203 F 
ATOM    119  F   UNL A   1      47.875  34.178  26.182  1.00  0.00    -0.200 F 
ATOM    120  C   UNL A   1      45.882  35.223  26.875  1.00  0.00     0.200 A 
ATOM    121  F   UNL A   1      43.890  36.216  27.648  1.00  0.00    -0.200 F 
ATOM    122  F   UNL A   1      46.377  36.426  26.559  1.00  0.00    -0.200 F 
ENDBRANCH  92 112
BRANCH  95 123
ATOM    123  C   UNL A   1      36.733  31.961  30.595  1.00  0.00     0.064 A 
ATOM    124  C   UNL A   1      35.858  32.224  31.659  1.00  0.00     0.173 A 
ATOM    125  C   UNL A   1      36.421  32.565  29.359  1.00  0.00     0.173 A 
ATOM    126  F   UNL A   1      36.111  31.723  32.876  1.00  0.00    -0.203 F 
ATOM    127  C   UNL A   1      34.749  33.064  31.503  1.00  0.00     0.198 A 
ATOM    128  C   UNL A   1      35.312  33.399  29.205  1.00  0.00     0.198 A 
ATOM    129  F   UNL A   1      37.240  32.436  28.305  1.00  0.00    -0.203 F 
ATOM    130  F   UNL A   1      33.969  33.342  32.557  1.00  0.00    -0.200 F 
ATOM    131  C   UNL A   1      34.483  33.658  30.280  1.00  0.00     0.200 A 
ATOM    132  F   UNL A   1      35.092  33.999  28.026  1.00  0.00    -0.200 F 
ATOM    133  F   UNL A   1      33.459  34.513  30.148  1.00  0.00    -0.200 F 
ENDBRANCH  95 123
BRANCH 110 134
ATOM    134  C   UNL A   1      42.077  30.284  33.499  1.00  0.00     0.064 A 
ATOM    135  C   UNL A   1      41.686  28.942  33.336  1.00  0.00     0.173 A 
ATOM    136  C   UNL A   1      42.382  30.704  34.799  1.00  0.00     0.173 A 
ATOM    137  F   UNL A   1      41.478  28.428  32.120  1.00  0.00    -0.203 F 
ATOM    138  C   UNL A   1      41.567  28.078  34.424  1.00  0.00     0.198 A 
ATOM    139  C   UNL A   1      42.297  29.831  35.881  1.00  0.00     0.198 A 
ATOM    140  F   UNL A   1      42.819  31.954  35.014  1.00  0.00    -0.203 F 
ATOM    141  F   UNL A   1      41.186  26.806  34.234  1.00  0.00    -0.200 F 
ATOM    142  C   UNL A   1      41.881  28.522  35.695  1.00  0.00     0.200 A 
ATOM    143  F   UNL A   1      42.653  30.250  37.103  1.00  0.00    -0.200 F 
ATOM    144  F   UNL A   1      41.809  27.682  36.738  1.00  0.00    -0.200 F 
ENDBRANCH 110 134
ENDBRANCH  75  78
ENDBRANCH  65  68
ENDBRANCH  61  64
ENDBRANCH  58  61
ENDBRANCH  55  58
ENDBRANCH  52  55
ENDBRANCH   1  52
TORSDOF 19
ENDMDL
MODEL 3
REMARK VINA RESULT:     -12.7      5.363     11.847
REMARK SMILES Cc1c(-c2nn(-c3ccccc3)cc2/C=N/O)nnn1-c1ccc(C(=O)NCCCCCCNC(=O)c2ccc(-c3c4nc(c(-c5c(F)c(F)c(F)c(F)c5F)c5ccc([nH]5)c(-c5c(F)c(F)c(F)c(F)c5F)c5nc(c(-c6c(F)c(F)c(F)c(F)c6F)c6ccc3[nH]6)C=C5)C=C4)cc2)cc1
REMARK SMILES IDX 29 1 28 4 27 7 25 8 26 9 24 11 21 12 22 13 101 14 23 15
REMARK SMILES IDX 100 17 20 21 2 22 3 23 18 24 19 25 1 26 4 30 5 31 14 32 6 33
REMARK SMILES IDX 13 34 15 36 16 37 17 39 7 41 8 42 12 43 9 44 11 46 10 48
REMARK SMILES IDX 30 52 31 55 32 58 33 61 34 64 35 65 36 67 37 68 38 69 99 70
REMARK SMILES IDX 39 71 98 73 40 75 41 78 42 79 92 80 43 81 97 82 91 83 93 84
REMARK SMILES IDX 44 85 96 86 90 88 89 90 45 92 77 95 57 96 76 97 58 98 61 99
REMARK SMILES IDX 75 100 94 101 59 102 60 104 74 106 95 107 62 110 46 112
REMARK SMILES IDX 47 113 55 114 48 115 49 116 53 117 56 118 50 119 51 120
REMARK SMILES IDX 54 121 52 122 78 123 79 124 87 125 80 126 81 127 85 128
REMARK SMILES IDX 88 129 82 130 83 131 86 132 84 133 63 134 64 135 72 136
REMARK SMILES IDX 65 137 66 138 70 139 73 140 67 141 68 142 71 143 69 144
REMARK H PARENT 29 2 29 3 28 5 28 6 27 10 22 16 101 18 23 19 100 20 1 27 1 28
REMARK H PARENT 1 29 13 35 15 38 17 40 8 45 12 47 9 49 11 50 10 51 30 53 30 54
REMARK H PARENT 31 56 31 57 32 59 32 60 33 62 33 63 34 66 38 72 99 74 39 76
REMARK H PARENT 98 77 97 87 91 89 93 91 96 93 90 94 58 103 61 105 94 108
REMARK H PARENT 59 109 95 111
REMARK Flexibility Score: inf
ROOT
ATOM      1  C   UNL A   1      46.569  24.657  24.615  1.00  0.00    -0.036 C 
ATOM      2  H   UNL A   1      46.560  24.050  23.734  1.00  0.00     0.028 H 
ATOM      3  H   UNL A   1      45.700  25.277  24.685  1.00  0.00     0.028 H 
ENDROOT
BRANCH   1   4
ATOM      4  C   UNL A   1      47.786  25.583  24.555  1.00  0.00     0.018 C 
ATOM      5  H   UNL A   1      48.351  25.485  25.458  1.00  0.00     0.049 H 
ATOM      6  H   UNL A   1      48.393  25.312  23.717  1.00  0.00     0.049 H 
BRANCH   4   7
ATOM      7  N   UNL A   1      47.354  26.957  24.405  1.00  0.00    -0.352 N 
ATOM      8  C   UNL A   1      46.625  27.814  25.185  1.00  0.00     0.251 C 
ATOM      9  O   UNL A   1      46.403  28.932  24.717  1.00  0.00    -0.269 OA
ATOM     10  H   UNL A   1      47.650  27.364  23.558  1.00  0.00     0.163 HD
BRANCH   8  11
ATOM     11  C   UNL A   1      46.159  27.504  26.568  1.00  0.00     0.039 A 
ATOM     12  C   UNL A   1      45.560  26.855  29.234  1.00  0.00     0.067 A 
ATOM     13  C   UNL A   1      46.718  27.578  28.945  1.00  0.00    -0.036 A 
ATOM     14  C   UNL A   1      44.663  26.523  28.216  1.00  0.00    -0.036 A 
ATOM     15  C   UNL A   1      47.028  27.863  27.614  1.00  0.00    -0.047 A 
ATOM     16  H   UNL A   1      47.337  27.898  29.706  1.00  0.00     0.065 H 
ATOM     17  C   UNL A   1      44.938  26.907  26.899  1.00  0.00    -0.047 A 
ATOM     18  H   UNL A   1      43.803  25.996  28.434  1.00  0.00     0.065 H 
ATOM     19  H   UNL A   1      47.913  28.346  27.394  1.00  0.00     0.063 H 
ATOM     20  H   UNL A   1      44.233  26.750  26.163  1.00  0.00     0.063 H 
BRANCH  12  21
ATOM     21  N   UNL A   1      45.277  26.509  30.571  1.00  0.00    -0.217 N 
ATOM     22  C   UNL A   1      46.069  25.839  31.481  1.00  0.00     0.071 A 
ATOM     23  C   UNL A   1      45.203  25.605  32.530  1.00  0.00     0.137 A 
ATOM     24  N   UNL A   1      44.002  26.206  32.297  1.00  0.00    -0.128 NA
ATOM     25  N   UNL A   1      44.084  26.827  31.127  1.00  0.00    -0.061 NA
BRANCH  22  26
ATOM     26  C   UNL A   1      47.522  25.591  31.328  1.00  0.00    -0.020 C 
ATOM     27  H   UNL A   1      47.689  24.962  30.479  1.00  0.00     0.030 H 
ATOM     28  H   UNL A   1      47.896  25.109  32.208  1.00  0.00     0.030 H 
ATOM     29  H   UNL A   1      48.030  26.522  31.189  1.00  0.00     0.030 H 
ENDBRANCH  22  26
BRANCH  23  30
ATOM     30  C   UNL A   1      45.473  24.940  33.797  1.00  0.00     0.124 A 
ATOM     31  N   UNL A   1      45.613  23.613  33.873  1.00  0.00    -0.165 NA
ATOM     32  C   UNL A   1      45.593  25.574  35.054  1.00  0.00     0.044 A 
ATOM     33  N   UNL A   1      45.730  23.361  35.194  1.00  0.00    -0.240 N 
ATOM     34  C   UNL A   1      45.721  24.519  35.939  1.00  0.00     0.040 A 
ATOM     35  H   UNL A   1      45.794  24.588  36.966  1.00  0.00     0.085 H 
BRANCH  32  36
ATOM     36  C   UNL A   1      45.595  26.967  35.424  1.00  0.00     0.077 C 
ATOM     37  N   UNL A   1      45.432  27.310  36.658  1.00  0.00    -0.097 NA
ATOM     38  H   UNL A   1      45.727  27.692  34.701  1.00  0.00     0.088 H 
BRANCH  37  39
ATOM     39  O   UNL A   1      45.442  28.707  36.755  1.00  0.00    -0.411 OA
ATOM     40  H   UNL A   1      45.181  29.123  37.552  1.00  0.00     0.330 HD
ENDBRANCH  37  39
ENDBRANCH  32  36
BRANCH  33  41
ATOM     41  C   UNL A   1      45.801  22.031  35.667  1.00  0.00     0.065 A 
ATOM     42  C   UNL A   1      46.018  21.804  37.033  1.00  0.00    -0.036 A 
ATOM     43  C   UNL A   1      45.693  20.954  34.781  1.00  0.00    -0.036 A 
ATOM     44  C   UNL A   1      46.104  20.498  37.514  1.00  0.00    -0.060 A 
ATOM     45  H   UNL A   1      46.113  22.602  37.681  1.00  0.00     0.065 H 
ATOM     46  C   UNL A   1      45.833  19.652  35.263  1.00  0.00    -0.060 A 
ATOM     47  H   UNL A   1      45.511  21.122  33.779  1.00  0.00     0.065 H 
ATOM     48  C   UNL A   1      46.028  19.425  36.627  1.00  0.00    -0.062 A 
ATOM     49  H   UNL A   1      46.226  20.327  38.524  1.00  0.00     0.062 H 
ATOM     50  H   UNL A   1      45.793  18.854  34.611  1.00  0.00     0.062 H 
ATOM     51  H   UNL A   1      46.114  18.459  36.980  1.00  0.00     0.062 H 
ENDBRANCH  33  41
ENDBRANCH  23  30
ENDBRANCH  12  21
ENDBRANCH   8  11
ENDBRANCH   4   7
ENDBRANCH   1   4
BRANCH   1  52
ATOM     52  C   UNL A   1      46.572  23.735  25.843  1.00  0.00    -0.052 C 
ATOM     53  H   UNL A   1      47.104  24.233  26.627  1.00  0.00     0.027 H 
ATOM     54  H   UNL A   1      47.029  22.822  25.524  1.00  0.00     0.027 H 
BRANCH  52  55
ATOM     55  C   UNL A   1      45.184  23.346  26.385  1.00  0.00    -0.052 C 
ATOM     56  H   UNL A   1      44.634  24.248  26.550  1.00  0.00     0.027 H 
ATOM     57  H   UNL A   1      45.373  22.775  27.271  1.00  0.00     0.027 H 
BRANCH  55  58
ATOM     58  C   UNL A   1      44.334  22.436  25.484  1.00  0.00    -0.036 C 
ATOM     59  H   UNL A   1      44.073  21.558  26.038  1.00  0.00     0.028 H 
ATOM     60  H   UNL A   1      44.920  22.206  24.620  1.00  0.00     0.028 H 
BRANCH  58  61
ATOM     61  C   UNL A   1      43.056  23.099  25.001  1.00  0.00     0.018 C 
ATOM     62  H   UNL A   1      43.025  23.047  23.932  1.00  0.00     0.049 H 
ATOM     63  H   UNL A   1      43.065  24.112  25.344  1.00  0.00     0.049 H 
BRANCH  61  64
ATOM     64  N   UNL A   1      41.853  22.453  25.540  1.00  0.00    -0.352 N 
ATOM     65  C   UNL A   1      41.034  22.881  26.566  1.00  0.00     0.251 C 
ATOM     66  H   UNL A   1      41.597  21.602  25.114  1.00  0.00     0.163 HD
ATOM     67  O   UNL A   1      40.278  22.108  27.152  1.00  0.00    -0.269 OA
BRANCH  65  68
ATOM     68  C   UNL A   1      41.071  24.302  26.933  1.00  0.00     0.039 A 
ATOM     69  C   UNL A   1      40.442  25.300  26.184  1.00  0.00    -0.049 A 
ATOM     70  C   UNL A   1      41.730  24.603  28.115  1.00  0.00    -0.049 A 
ATOM     71  C   UNL A   1      40.438  26.601  26.684  1.00  0.00    -0.053 A 
ATOM     72  H   UNL A   1      39.992  25.081  25.281  1.00  0.00     0.063 H 
ATOM     73  C   UNL A   1      41.494  25.800  28.719  1.00  0.00    -0.053 A 
ATOM     74  H   UNL A   1      42.392  23.930  28.531  1.00  0.00     0.063 H 
ATOM     75  C   UNL A   1      40.966  26.833  27.961  1.00  0.00    -0.014 A 
ATOM     76  H   UNL A   1      40.052  27.378  26.125  1.00  0.00     0.063 H 
ATOM     77  H   UNL A   1      41.703  25.934  29.721  1.00  0.00     0.063 H 
BRANCH  75  78
ATOM     78  C   UNL A   1      41.004  28.150  28.574  1.00  0.00     0.031 A 
ATOM     79  C   UNL A   1      42.073  29.060  28.086  1.00  0.00     0.074 A 
ATOM     80  C   UNL A   1      39.964  28.584  29.320  1.00  0.00     0.049 A 
ATOM     81  N   UNL A   1      43.023  29.607  28.768  1.00  0.00    -0.248 NA
ATOM     82  C   UNL A   1      42.154  29.321  26.640  1.00  0.00    -0.034 C 
ATOM     83  C   UNL A   1      38.682  27.916  29.604  1.00  0.00    -0.036 A 
ATOM     84  N   UNL A   1      39.786  29.800  29.894  1.00  0.00    -0.354 N 
ATOM     85  C   UNL A   1      43.734  30.409  27.877  1.00  0.00     0.074 A 
ATOM     86  C   UNL A   1      43.250  30.078  26.563  1.00  0.00    -0.034 C 
ATOM     87  H   UNL A   1      41.527  29.004  25.884  1.00  0.00     0.065 H 
ATOM     88  C   UNL A   1      37.791  28.814  30.075  1.00  0.00    -0.036 A 
ATOM     89  H   UNL A   1      38.494  26.911  29.463  1.00  0.00     0.065 H 
ATOM     90  C   UNL A   1      38.487  30.063  30.307  1.00  0.00     0.049 A 
ATOM     91  H   UNL A   1      40.521  30.446  30.010  1.00  0.00     0.167 HD
ATOM     92  C   UNL A   1      44.525  31.428  28.318  1.00  0.00     0.037 A 
ATOM     93  H   UNL A   1      43.692  30.384  25.681  1.00  0.00     0.065 H 
ATOM     94  H   UNL A   1      36.787  28.641  30.241  1.00  0.00     0.065 H 
ATOM     95  C   UNL A   1      38.022  31.245  30.777  1.00  0.00     0.037 A 
ATOM     96  C   UNL A   1      44.796  31.298  29.728  1.00  0.00     0.049 A 
ATOM     97  C   UNL A   1      39.207  32.034  31.205  1.00  0.00     0.074 A 
ATOM     98  C   UNL A   1      45.445  30.355  30.500  1.00  0.00    -0.036 A 
ATOM     99  N   UNL A   1      44.032  32.029  30.604  1.00  0.00    -0.354 N 
ATOM    100  N   UNL A   1      39.974  31.697  32.205  1.00  0.00    -0.248 NA
ATOM    101  C   UNL A   1      39.817  32.913  30.218  1.00  0.00    -0.034 C 
ATOM    102  C   UNL A   1      44.655  30.243  31.683  1.00  0.00    -0.036 A 
ATOM    103  H   UNL A   1      46.312  29.843  30.273  1.00  0.00     0.065 H 
ATOM    104  C   UNL A   1      43.618  31.172  31.594  1.00  0.00     0.049 A 
ATOM    105  H   UNL A   1      43.821  32.989  30.536  1.00  0.00     0.167 HD
ATOM    106  C   UNL A   1      41.265  31.968  31.773  1.00  0.00     0.074 A 
ATOM    107  C   UNL A   1      41.099  32.783  30.570  1.00  0.00    -0.034 C 
ATOM    108  H   UNL A   1      39.385  33.473  29.466  1.00  0.00     0.065 H 
ATOM    109  H   UNL A   1      44.820  29.589  32.464  1.00  0.00     0.065 H 
ATOM    110  C   UNL A   1      42.335  31.267  32.254  1.00  0.00     0.037 A 
ATOM    111  H   UNL A   1      41.883  33.209  30.053  1.00  0.00     0.065 H 
BRANCH  92 112
ATOM    112  C   UNL A   1      44.797  32.706  27.567  1.00  0.00     0.064 A 
ATOM    113  C   UNL A   1      45.993  32.832  26.830  1.00  0.00     0.173 A 
ATOM    114  C   UNL A   1      44.080  33.906  27.767  1.00  0.00     0.173 A 
ATOM    115  F   UNL A   1      46.762  31.761  26.585  1.00  0.00    -0.203 F 
ATOM    116  C   UNL A   1      46.472  34.074  26.401  1.00  0.00     0.198 A 
ATOM    117  C   UNL A   1      44.533  35.135  27.290  1.00  0.00     0.198 A 
ATOM    118  F   UNL A   1      42.977  33.958  28.523  1.00  0.00    -0.203 F 
ATOM    119  F   UNL A   1      47.673  34.158  25.814  1.00  0.00    -0.200 F 
ATOM    120  C   UNL A   1      45.744  35.225  26.638  1.00  0.00     0.200 A 
ATOM    121  F   UNL A   1      43.820  36.242  27.543  1.00  0.00    -0.200 F 
ATOM    122  F   UNL A   1      46.228  36.422  26.284  1.00  0.00    -0.200 F 
ENDBRANCH  92 112
BRANCH  95 123
ATOM    123  C   UNL A   1      36.687  31.842  30.554  1.00  0.00     0.064 A 
ATOM    124  C   UNL A   1      35.860  32.197  31.630  1.00  0.00     0.173 A 
ATOM    125  C   UNL A   1      36.310  32.327  29.285  1.00  0.00     0.173 A 
ATOM    126  F   UNL A   1      36.176  31.812  32.874  1.00  0.00    -0.203 F 
ATOM    127  C   UNL A   1      34.735  33.010  31.451  1.00  0.00     0.198 A 
ATOM    128  C   UNL A   1      35.185  33.135  29.107  1.00  0.00     0.198 A 
ATOM    129  F   UNL A   1      37.080  32.108  28.209  1.00  0.00    -0.203 F 
ATOM    130  F   UNL A   1      34.002  33.378  32.511  1.00  0.00    -0.200 F 
ATOM    131  C   UNL A   1      34.405  33.486  30.193  1.00  0.00     0.200 A 
ATOM    132  F   UNL A   1      34.902  33.623  27.891  1.00  0.00    -0.200 F 
ATOM    133  F   UNL A   1      33.366  34.317  30.032  1.00  0.00    -0.200 F 
ENDBRANCH  95 123
BRANCH 110 134
ATOM    134  C   UNL A   1      42.104  30.337  33.417  1.00  0.00     0.064 A 
ATOM    135  C   UNL A   1      41.760  28.979  33.282  1.00  0.00     0.173 A 
ATOM    136  C   UNL A   1      42.397  30.793  34.707  1.00  0.00     0.173 A 
ATOM    137  F   UNL A   1      41.566  28.435  32.077  1.00  0.00    -0.203 F 
ATOM    138  C   UNL A   1      41.673  28.134  34.387  1.00  0.00     0.198 A 
ATOM    139  C   UNL A   1      42.345  29.940  35.807  1.00  0.00     0.198 A 
ATOM    140  F   UNL A   1      42.790  32.062  34.896  1.00  0.00    -0.203 F 
ATOM    141  F   UNL A   1      41.337  26.846  34.224  1.00  0.00    -0.200 F 
ATOM    142  C   UNL A   1      41.974  28.614  35.648  1.00  0.00     0.200 A 
ATOM    143  F   UNL A   1      42.689  30.395  37.019  1.00  0.00    -0.200 F 
ATOM    144  F   UNL A   1      41.935  27.793  36.707  1.00  0.00    -0.200 F 
ENDBRANCH 110 134
ENDBRANCH  75  78
ENDBRANCH  65  68
ENDBRANCH  61  64
ENDBRANCH  58  61
ENDBRANCH  55  58
ENDBRANCH  52  55
ENDBRANCH   1  52
TORSDOF 19
ENDMDL
MODEL 4
REMARK VINA RESULT:     -12.7      3.289      9.492
REMARK SMILES Cc1c(-c2nn(-c3ccccc3)cc2/C=N/O)nnn1-c1ccc(C(=O)NCCCCCCNC(=O)c2ccc(-c3c4nc(c(-c5c(F)c(F)c(F)c(F)c5F)c5ccc([nH]5)c(-c5c(F)c(F)c(F)c(F)c5F)c5nc(c(-c6c(F)c(F)c(F)c(F)c6F)c6ccc3[nH]6)C=C5)C=C4)cc2)cc1
REMARK SMILES IDX 29 1 28 4 27 7 25 8 26 9 24 11 21 12 22 13 101 14 23 15
REMARK SMILES IDX 100 17 20 21 2 22 3 23 18 24 19 25 1 26 4 30 5 31 14 32 6 33
REMARK SMILES IDX 13 34 15 36 16 37 17 39 7 41 8 42 12 43 9 44 11 46 10 48
REMARK SMILES IDX 30 52 31 55 32 58 33 61 34 64 35 65 36 67 37 68 38 69 99 70
REMARK SMILES IDX 39 71 98 73 40 75 41 78 42 79 92 80 43 81 97 82 91 83 93 84
REMARK SMILES IDX 44 85 96 86 90 88 89 90 45 92 77 95 57 96 76 97 58 98 61 99
REMARK SMILES IDX 75 100 94 101 59 102 60 104 74 106 95 107 62 110 46 112
REMARK SMILES IDX 47 113 55 114 48 115 49 116 53 117 56 118 50 119 51 120
REMARK SMILES IDX 54 121 52 122 78 123 79 124 87 125 80 126 81 127 85 128
REMARK SMILES IDX 88 129 82 130 83 131 86 132 84 133 63 134 64 135 72 136
REMARK SMILES IDX 65 137 66 138 70 139 73 140 67 141 68 142 71 143 69 144
REMARK H PARENT 29 2 29 3 28 5 28 6 27 10 22 16 101 18 23 19 100 20 1 27 1 28
REMARK H PARENT 1 29 13 35 15 38 17 40 8 45 12 47 9 49 11 50 10 51 30 53 30 54
REMARK H PARENT 31 56 31 57 32 59 32 60 33 62 33 63 34 66 38 72 99 74 39 76
REMARK H PARENT 98 77 97 87 91 89 93 91 96 93 90 94 58 103 61 105 94 108
REMARK H PARENT 59 109 95 111
REMARK Flexibility Score: inf
ROOT
ATOM      1  C   UNL A   1      42.908  18.410  26.293  1.00  0.00    -0.036 C 
ATOM      2  H   UNL A   1      42.660  17.379  26.148  1.00  0.00     0.028 H 
ATOM      3  H   UNL A   1      43.305  18.595  27.269  1.00  0.00     0.028 H 
ENDROOT
BRANCH   1   4
ATOM      4  C   UNL A   1      41.632  19.242  26.154  1.00  0.00     0.018 C 
ATOM      5  H   UNL A   1      41.625  19.725  25.199  1.00  0.00     0.049 H 
ATOM      6  H   UNL A   1      40.781  18.599  26.240  1.00  0.00     0.049 H 
BRANCH   4   7
ATOM      7  N   UNL A   1      41.579  20.243  27.198  1.00  0.00    -0.352 N 
ATOM      8  C   UNL A   1      40.816  21.361  27.405  1.00  0.00     0.251 C 
ATOM      9  O   UNL A   1      41.075  22.028  28.408  1.00  0.00    -0.269 OA
ATOM     10  H   UNL A   1      42.234  20.086  27.916  1.00  0.00     0.163 HD
BRANCH   8  11
ATOM     11  C   UNL A   1      39.668  21.768  26.544  1.00  0.00     0.039 A 
ATOM     12  C   UNL A   1      37.423  22.710  25.143  1.00  0.00     0.067 A 
ATOM     13  C   UNL A   1      38.192  23.602  25.891  1.00  0.00    -0.036 A 
ATOM     14  C   UNL A   1      37.809  21.373  25.025  1.00  0.00    -0.036 A 
ATOM     15  C   UNL A   1      39.283  23.119  26.616  1.00  0.00    -0.047 A 
ATOM     16  H   UNL A   1      37.956  24.607  25.909  1.00  0.00     0.065 H 
ATOM     17  C   UNL A   1      38.966  20.927  25.675  1.00  0.00    -0.047 A 
ATOM     18  H   UNL A   1      37.244  20.717  24.464  1.00  0.00     0.065 H 
ATOM     19  H   UNL A   1      39.817  23.766  27.217  1.00  0.00     0.063 H 
ATOM     20  H   UNL A   1      39.306  19.967  25.510  1.00  0.00     0.063 H 
BRANCH  12  21
ATOM     21  N   UNL A   1      36.283  23.183  24.463  1.00  0.00    -0.217 N 
ATOM     22  C   UNL A   1      35.008  23.393  24.948  1.00  0.00     0.071 A 
ATOM     23  C   UNL A   1      34.280  23.647  23.802  1.00  0.00     0.137 A 
ATOM     24  N   UNL A   1      35.105  23.695  22.717  1.00  0.00    -0.128 NA
ATOM     25  N   UNL A   1      36.344  23.489  23.145  1.00  0.00    -0.061 NA
BRANCH  22  26
ATOM     26  C   UNL A   1      34.637  23.442  26.381  1.00  0.00    -0.020 C 
ATOM     27  H   UNL A   1      34.742  24.444  26.743  1.00  0.00     0.030 H 
ATOM     28  H   UNL A   1      35.281  22.794  26.938  1.00  0.00     0.030 H 
ATOM     29  H   UNL A   1      33.623  23.125  26.498  1.00  0.00     0.030 H 
ENDBRANCH  22  26
BRANCH  23  30
ATOM     30  C   UNL A   1      32.863  23.958  23.679  1.00  0.00     0.124 A 
ATOM     31  N   UNL A   1      32.443  25.184  23.355  1.00  0.00    -0.165 NA
ATOM     32  C   UNL A   1      31.798  23.056  23.898  1.00  0.00     0.044 A 
ATOM     33  N   UNL A   1      31.099  25.117  23.454  1.00  0.00    -0.240 N 
ATOM     34  C   UNL A   1      30.671  23.851  23.782  1.00  0.00     0.040 A 
ATOM     35  H   UNL A   1      29.693  23.549  23.917  1.00  0.00     0.085 H 
BRANCH  32  36
ATOM     36  C   UNL A   1      31.785  21.643  24.180  1.00  0.00     0.077 C 
ATOM     37  N   UNL A   1      31.848  21.223  25.400  1.00  0.00    -0.097 NA
ATOM     38  H   UNL A   1      31.725  20.964  23.404  1.00  0.00     0.088 H 
BRANCH  37  39
ATOM     39  O   UNL A   1      31.851  19.824  25.408  1.00  0.00    -0.411 OA
ATOM     40  H   UNL A   1      31.249  19.357  25.952  1.00  0.00     0.330 HD
ENDBRANCH  37  39
ENDBRANCH  32  36
BRANCH  33  41
ATOM     41  C   UNL A   1      30.308  26.275  23.272  1.00  0.00     0.065 A 
ATOM     42  C   UNL A   1      30.866  27.387  22.625  1.00  0.00    -0.036 A 
ATOM     43  C   UNL A   1      28.998  26.326  23.761  1.00  0.00    -0.036 A 
ATOM     44  C   UNL A   1      30.104  28.541  22.450  1.00  0.00    -0.060 A 
ATOM     45  H   UNL A   1      31.838  27.350  22.280  1.00  0.00     0.065 H 
ATOM     46  C   UNL A   1      28.261  27.505  23.627  1.00  0.00    -0.060 A 
ATOM     47  H   UNL A   1      28.581  25.500  24.217  1.00  0.00     0.065 H 
ATOM     48  C   UNL A   1      28.810  28.605  22.964  1.00  0.00    -0.062 A 
ATOM     49  H   UNL A   1      30.499  29.347  21.941  1.00  0.00     0.062 H 
ATOM     50  H   UNL A   1      27.309  27.563  24.019  1.00  0.00     0.062 H 
ATOM     51  H   UNL A   1      28.254  29.467  22.853  1.00  0.00     0.062 H 
ENDBRANCH  33  41
ENDBRANCH  23  30
ENDBRANCH  12  21
ENDBRANCH   8  11
ENDBRANCH   4   7
ENDBRANCH   1   4
BRANCH   1  52
ATOM     52  C   UNL A   1      43.994  18.797  25.278  1.00  0.00    -0.052 C 
ATOM     53  H   UNL A   1      43.968  19.860  25.155  1.00  0.00     0.027 H 
ATOM     54  H   UNL A   1      43.769  18.254  24.384  1.00  0.00     0.027 H 
BRANCH  52  55
ATOM     55  C   UNL A   1      45.432  18.400  25.661  1.00  0.00    -0.052 C 
ATOM     56  H   UNL A   1      45.680  17.511  25.120  1.00  0.00     0.027 H 
ATOM     57  H   UNL A   1      45.422  18.280  26.725  1.00  0.00     0.027 H 
BRANCH  55  58
ATOM     58  C   UNL A   1      46.525  19.443  25.375  1.00  0.00    -0.036 C 
ATOM     59  H   UNL A   1      47.017  19.177  24.464  1.00  0.00     0.028 H 
ATOM     60  H   UNL A   1      47.194  19.438  26.210  1.00  0.00     0.028 H 
BRANCH  58  61
ATOM     61  C   UNL A   1      45.981  20.854  25.238  1.00  0.00     0.018 C 
ATOM     62  H   UNL A   1      46.741  21.545  25.539  1.00  0.00     0.049 H 
ATOM     63  H   UNL A   1      45.114  20.931  25.859  1.00  0.00     0.049 H 
BRANCH  61  64
ATOM     64  N   UNL A   1      45.578  21.166  23.861  1.00  0.00    -0.352 N 
ATOM     65  C   UNL A   1      44.639  22.080  23.427  1.00  0.00     0.251 C 
ATOM     66  H   UNL A   1      46.037  20.655  23.155  1.00  0.00     0.163 HD
ATOM     67  O   UNL A   1      44.144  22.010  22.304  1.00  0.00    -0.269 OA
BRANCH  65  68
ATOM     68  C   UNL A   1      44.256  23.163  24.341  1.00  0.00     0.039 A 
ATOM     69  C   UNL A   1      43.015  23.217  24.981  1.00  0.00    -0.049 A 
ATOM     70  C   UNL A   1      45.229  24.121  24.585  1.00  0.00    -0.049 A 
ATOM     71  C   UNL A   1      42.797  24.224  25.921  1.00  0.00    -0.053 A 
ATOM     72  H   UNL A   1      42.276  22.530  24.764  1.00  0.00     0.063 H 
ATOM     73  C   UNL A   1      45.110  24.923  25.678  1.00  0.00    -0.053 A 
ATOM     74  H   UNL A   1      46.031  24.226  23.945  1.00  0.00     0.063 H 
ATOM     75  C   UNL A   1      43.861  25.068  26.263  1.00  0.00    -0.014 A 
ATOM     76  H   UNL A   1      41.869  24.343  26.358  1.00  0.00     0.063 H 
ATOM     77  H   UNL A   1      45.934  25.411  26.064  1.00  0.00     0.063 H 
BRANCH  75  78
ATOM     78  C   UNL A   1      43.740  26.142  27.233  1.00  0.00     0.031 A 
ATOM     79  C   UNL A   1      44.720  27.252  27.095  1.00  0.00     0.074 A 
ATOM     80  C   UNL A   1      42.637  26.239  28.009  1.00  0.00     0.049 A 
ATOM     81  N   UNL A   1      45.585  27.659  27.963  1.00  0.00    -0.248 NA
ATOM     82  C   UNL A   1      44.816  27.934  25.795  1.00  0.00    -0.034 C 
ATOM     83  C   UNL A   1      41.426  25.399  28.009  1.00  0.00    -0.036 A 
ATOM     84  N   UNL A   1      42.313  27.209  28.899  1.00  0.00    -0.354 N 
ATOM     85  C   UNL A   1      46.232  28.751  27.387  1.00  0.00     0.074 A 
ATOM     86  C   UNL A   1      45.827  28.778  26.007  1.00  0.00    -0.034 C 
ATOM     87  H   UNL A   1      44.249  27.797  24.943  1.00  0.00     0.065 H 
ATOM     88  C   UNL A   1      40.431  26.032  28.666  1.00  0.00    -0.036 A 
ATOM     89  H   UNL A   1      41.351  24.468  27.572  1.00  0.00     0.065 H 
ATOM     90  C   UNL A   1      40.981  27.216  29.292  1.00  0.00     0.049 A 
ATOM     91  H   UNL A   1      42.971  27.857  29.242  1.00  0.00     0.167 HD
ATOM     92  C   UNL A   1      46.896  29.664  28.151  1.00  0.00     0.037 A 
ATOM     93  H   UNL A   1      46.259  29.371  25.280  1.00  0.00     0.065 H 
ATOM     94  H   UNL A   1      39.447  25.725  28.714  1.00  0.00     0.065 H 
ATOM     95  C   UNL A   1      40.379  28.157  30.056  1.00  0.00     0.037 A 
ATOM     96  C   UNL A   1      47.137  29.150  29.476  1.00  0.00     0.049 A 
ATOM     97  C   UNL A   1      41.459  28.893  30.765  1.00  0.00     0.074 A 
ATOM     98  C   UNL A   1      47.860  28.086  29.979  1.00  0.00    -0.036 A 
ATOM     99  N   UNL A   1      46.273  29.516  30.480  1.00  0.00    -0.354 N 
ATOM    100  N   UNL A   1      42.228  28.349  31.668  1.00  0.00    -0.248 NA
ATOM    101  C   UNL A   1      42.002  30.077  30.114  1.00  0.00    -0.034 C 
ATOM    102  C   UNL A   1      47.050  27.557  31.029  1.00  0.00    -0.036 A 
ATOM    103  H   UNL A   1      48.783  27.748  29.666  1.00  0.00     0.065 H 
ATOM    104  C   UNL A   1      45.924  28.370  31.152  1.00  0.00     0.049 A 
ATOM    105  H   UNL A   1      45.963  30.429  30.681  1.00  0.00     0.167 HD
ATOM    106  C   UNL A   1      43.494  28.854  31.412  1.00  0.00     0.074 A 
ATOM    107  C   UNL A   1      43.278  29.969  30.490  1.00  0.00    -0.034 C 
ATOM    108  H   UNL A   1      41.535  30.791  29.533  1.00  0.00     0.065 H 
ATOM    109  H   UNL A   1      47.261  26.721  31.595  1.00  0.00     0.065 H 
ATOM    110  C   UNL A   1      44.618  28.147  31.732  1.00  0.00     0.037 A 
ATOM    111  H   UNL A   1      44.028  30.599  30.166  1.00  0.00     0.065 H 
BRANCH  92 112
ATOM    112  C   UNL A   1      47.052  31.127  27.821  1.00  0.00     0.064 A 
ATOM    113  C   UNL A   1      45.905  31.946  27.758  1.00  0.00     0.173 A 
ATOM    114  C   UNL A   1      48.231  31.694  27.290  1.00  0.00     0.173 A 
ATOM    115  F   UNL A   1      44.725  31.509  28.224  1.00  0.00    -0.203 F 
ATOM    116  C   UNL A   1      45.923  33.198  27.137  1.00  0.00     0.198 A 
ATOM    117  C   UNL A   1      48.256  32.966  26.721  1.00  0.00     0.198 A 
ATOM    118  F   UNL A   1      49.373  31.003  27.198  1.00  0.00    -0.203 F 
ATOM    119  F   UNL A   1      44.782  33.885  26.991  1.00  0.00    -0.200 F 
ATOM    120  C   UNL A   1      47.098  33.704  26.613  1.00  0.00     0.200 A 
ATOM    121  F   UNL A   1      49.403  33.433  26.205  1.00  0.00    -0.200 F 
ATOM    122  F   UNL A   1      47.106  34.875  25.964  1.00  0.00    -0.200 F 
ENDBRANCH  92 112
BRANCH  95 123
ATOM    123  C   UNL A   1      38.995  28.667  29.936  1.00  0.00     0.064 A 
ATOM    124  C   UNL A   1      38.206  28.902  31.071  1.00  0.00     0.173 A 
ATOM    125  C   UNL A   1      38.515  29.190  28.717  1.00  0.00     0.173 A 
ATOM    126  F   UNL A   1      38.616  28.476  32.274  1.00  0.00    -0.203 F 
ATOM    127  C   UNL A   1      37.018  29.639  30.997  1.00  0.00     0.198 A 
ATOM    128  C   UNL A   1      37.329  29.922  28.644  1.00  0.00     0.198 A 
ATOM    129  F   UNL A   1      39.238  29.085  27.593  1.00  0.00    -0.203 F 
ATOM    130  F   UNL A   1      36.321  29.896  32.112  1.00  0.00    -0.200 F 
ATOM    131  C   UNL A   1      36.587  30.157  29.787  1.00  0.00     0.200 A 
ATOM    132  F   UNL A   1      36.946  30.451  27.473  1.00  0.00    -0.200 F 
ATOM    133  F   UNL A   1      35.484  30.917  29.727  1.00  0.00    -0.200 F 
ENDBRANCH  95 123
BRANCH 110 134
ATOM    134  C   UNL A   1      44.453  26.897  32.559  1.00  0.00     0.064 A 
ATOM    135  C   UNL A   1      44.346  25.604  32.016  1.00  0.00     0.173 A 
ATOM    136  C   UNL A   1      44.568  26.996  33.951  1.00  0.00     0.173 A 
ATOM    137  F   UNL A   1      44.337  25.410  30.695  1.00  0.00    -0.203 F 
ATOM    138  C   UNL A   1      44.314  24.471  32.829  1.00  0.00     0.198 A 
ATOM    139  C   UNL A   1      44.572  25.862  34.759  1.00  0.00     0.198 A 
ATOM    140  F   UNL A   1      44.734  28.197  34.526  1.00  0.00    -0.203 F 
ATOM    141  F   UNL A   1      44.204  23.253  32.280  1.00  0.00    -0.200 F 
ATOM    142  C   UNL A   1      44.435  24.601  34.200  1.00  0.00     0.200 A 
ATOM    143  F   UNL A   1      44.743  25.989  36.082  1.00  0.00    -0.200 F 
ATOM    144  F   UNL A   1      44.448  23.512  34.981  1.00  0.00    -0.200 F 
ENDBRANCH 110 134
ENDBRANCH  75  78
ENDBRANCH  65  68
ENDBRANCH  61  64
ENDBRANCH  58  61
ENDBRANCH  55  58
ENDBRANCH  52  55
ENDBRANCH   1  52
TORSDOF 19
ENDMDL
MODEL 5
REMARK VINA RESULT:     -12.5      2.316      4.307
REMARK SMILES Cc1c(-c2nn(-c3ccccc3)cc2/C=N/O)nnn1-c1ccc(C(=O)NCCCCCCNC(=O)c2ccc(-c3c4nc(c(-c5c(F)c(F)c(F)c(F)c5F)c5ccc([nH]5)c(-c5c(F)c(F)c(F)c(F)c5F)c5nc(c(-c6c(F)c(F)c(F)c(F)c6F)c6ccc3[nH]6)C=C5)C=C4)cc2)cc1
REMARK SMILES IDX 29 1 28 4 27 7 25 8 26 9 24 11 21 12 22 13 101 14 23 15
REMARK SMILES IDX 100 17 20 21 2 22 3 23 18 24 19 25 1 26 4 30 5 31 14 32 6 33
REMARK SMILES IDX 13 34 15 36 16 37 17 39 7 41 8 42 12 43 9 44 11 46 10 48
REMARK SMILES IDX 30 52 31 55 32 58 33 61 34 64 35 65 36 67 37 68 38 69 99 70
REMARK SMILES IDX 39 71 98 73 40 75 41 78 42 79 92 80 43 81 97 82 91 83 93 84
REMARK SMILES IDX 44 85 96 86 90 88 89 90 45 92 77 95 57 96 76 97 58 98 61 99
REMARK SMILES IDX 75 100 94 101 59 102 60 104 74 106 95 107 62 110 46 112
REMARK SMILES IDX 47 113 55 114 48 115 49 116 53 117 56 118 50 119 51 120
REMARK SMILES IDX 54 121 52 122 78 123 79 124 87 125 80 126 81 127 85 128
REMARK SMILES IDX 88 129 82 130 83 131 86 132 84 133 63 134 64 135 72 136
REMARK SMILES IDX 65 137 66 138 70 139 73 140 67 141 68 142 71 143 69 144
REMARK H PARENT 29 2 29 3 28 5 28 6 27 10 22 16 101 18 23 19 100 20 1 27 1 28
REMARK H PARENT 1 29 13 35 15 38 17 40 8 45 12 47 9 49 11 50 10 51 30 53 30 54
REMARK H PARENT 31 56 31 57 32 59 32 60 33 62 33 63 34 66 38 72 99 74 39 76
REMARK H PARENT 98 77 97 87 91 89 93 91 96 93 90 94 58 103 61 105 94 108
REMARK H PARENT 59 109 95 111
REMARK Flexibility Score: inf
ROOT
ATOM      1  C   UNL A   1      33.772  35.647  31.515  1.00  0.00    -0.036 C 
ATOM      2  H   UNL A   1      33.163  36.465  31.840  1.00  0.00     0.028 H 
ATOM      3  H   UNL A   1      34.730  35.972  31.166  1.00  0.00     0.028 H 
ENDROOT
BRANCH   1   4
ATOM      4  C   UNL A   1      33.072  34.953  30.345  1.00  0.00     0.018 C 
ATOM      5  H   UNL A   1      33.021  33.901  30.535  1.00  0.00     0.049 H 
ATOM      6  H   UNL A   1      32.084  35.349  30.241  1.00  0.00     0.049 H 
BRANCH   4   7
ATOM      7  N   UNL A   1      33.809  35.184  29.121  1.00  0.00    -0.352 N 
ATOM      8  C   UNL A   1      34.052  34.434  28.001  1.00  0.00     0.251 C 
ATOM      9  O   UNL A   1      34.778  34.940  27.145  1.00  0.00    -0.269 OA
ATOM     10  H   UNL A   1      34.227  36.075  29.085  1.00  0.00     0.163 HD
BRANCH   8  11
ATOM     11  C   UNL A   1      33.442  33.099  27.734  1.00  0.00     0.039 A 
ATOM     12  C   UNL A   1      32.558  30.500  27.138  1.00  0.00     0.067 A 
ATOM     13  C   UNL A   1      33.797  30.683  27.752  1.00  0.00    -0.036 A 
ATOM     14  C   UNL A   1      31.726  31.595  26.891  1.00  0.00    -0.036 A 
ATOM     15  C   UNL A   1      34.247  31.979  28.009  1.00  0.00    -0.047 A 
ATOM     16  H   UNL A   1      34.376  29.868  28.013  1.00  0.00     0.065 H 
ATOM     17  C   UNL A   1      32.147  32.880  27.251  1.00  0.00    -0.047 A 
ATOM     18  H   UNL A   1      30.805  31.457  26.446  1.00  0.00     0.065 H 
ATOM     19  H   UNL A   1      35.187  32.118  28.409  1.00  0.00     0.063 H 
ATOM     20  H   UNL A   1      31.496  33.675  27.160  1.00  0.00     0.063 H 
BRANCH  12  21
ATOM     21  N   UNL A   1      32.130  29.196  26.818  1.00  0.00    -0.217 N 
ATOM     22  C   UNL A   1      32.237  28.517  25.621  1.00  0.00     0.071 A 
ATOM     23  C   UNL A   1      31.467  27.391  25.836  1.00  0.00     0.137 A 
ATOM     24  N   UNL A   1      31.028  27.356  27.127  1.00  0.00    -0.128 NA
ATOM     25  N   UNL A   1      31.508  28.429  27.743  1.00  0.00    -0.061 NA
BRANCH  22  26
ATOM     26  C   UNL A   1      33.099  28.919  24.485  1.00  0.00    -0.020 C 
ATOM     27  H   UNL A   1      32.640  29.731  23.959  1.00  0.00     0.030 H 
ATOM     28  H   UNL A   1      33.222  28.090  23.820  1.00  0.00     0.030 H 
ATOM     29  H   UNL A   1      34.054  29.227  24.853  1.00  0.00     0.030 H 
ENDBRANCH  22  26
BRANCH  23  30
ATOM     30  C   UNL A   1      31.210  26.282  24.928  1.00  0.00     0.124 A 
ATOM     31  N   UNL A   1      31.605  25.038  25.215  1.00  0.00    -0.165 NA
ATOM     32  C   UNL A   1      30.564  26.374  23.675  1.00  0.00     0.044 A 
ATOM     33  N   UNL A   1      31.304  24.326  24.109  1.00  0.00    -0.240 N 
ATOM     34  C   UNL A   1      30.677  25.097  23.157  1.00  0.00     0.040 A 
ATOM     35  H   UNL A   1      30.352  24.782  22.229  1.00  0.00     0.085 H 
BRANCH  32  36
ATOM     36  C   UNL A   1      29.916  27.479  23.013  1.00  0.00     0.077 C 
ATOM     37  N   UNL A   1      30.535  28.133  22.087  1.00  0.00    -0.097 NA
ATOM     38  H   UNL A   1      28.956  27.747  23.280  1.00  0.00     0.088 H 
BRANCH  37  39
ATOM     39  O   UNL A   1      29.713  29.169  21.626  1.00  0.00    -0.411 OA
ATOM     40  H   UNL A   1      28.782  29.069  21.637  1.00  0.00     0.330 HD
ENDBRANCH  37  39
ENDBRANCH  32  36
BRANCH  33  41
ATOM     41  C   UNL A   1      31.671  22.964  24.012  1.00  0.00     0.065 A 
ATOM     42  C   UNL A   1      31.781  22.202  25.184  1.00  0.00    -0.036 A 
ATOM     43  C   UNL A   1      31.957  22.391  22.768  1.00  0.00    -0.036 A 
ATOM     44  C   UNL A   1      32.155  20.862  25.107  1.00  0.00    -0.060 A 
ATOM     45  H   UNL A   1      31.584  22.633  26.101  1.00  0.00     0.065 H 
ATOM     46  C   UNL A   1      32.382  21.062  22.706  1.00  0.00    -0.060 A 
ATOM     47  H   UNL A   1      31.855  22.946  21.904  1.00  0.00     0.065 H 
ATOM     48  C   UNL A   1      32.470  20.298  23.872  1.00  0.00    -0.062 A 
ATOM     49  H   UNL A   1      32.200  20.289  25.963  1.00  0.00     0.062 H 
ATOM     50  H   UNL A   1      32.632  20.644  21.797  1.00  0.00     0.062 H 
ATOM     51  H   UNL A   1      32.769  19.311  23.817  1.00  0.00     0.062 H 
ENDBRANCH  33  41
ENDBRANCH  23  30
ENDBRANCH  12  21
ENDBRANCH   8  11
ENDBRANCH   4   7
ENDBRANCH   1   4
BRANCH   1  52
ATOM     52  C   UNL A   1      34.014  34.715  32.712  1.00  0.00    -0.052 C 
ATOM     53  H   UNL A   1      33.595  33.759  32.475  1.00  0.00     0.027 H 
ATOM     54  H   UNL A   1      33.555  35.191  33.553  1.00  0.00     0.027 H 
BRANCH  52  55
ATOM     55  C   UNL A   1      35.489  34.503  33.100  1.00  0.00    -0.052 C 
ATOM     56  H   UNL A   1      35.679  35.075  33.984  1.00  0.00     0.027 H 
ATOM     57  H   UNL A   1      36.057  34.811  32.246  1.00  0.00     0.027 H 
BRANCH  55  58
ATOM     58  C   UNL A   1      35.918  33.053  33.377  1.00  0.00    -0.036 C 
ATOM     59  H   UNL A   1      35.361  32.689  34.215  1.00  0.00     0.028 H 
ATOM     60  H   UNL A   1      36.971  33.064  33.568  1.00  0.00     0.028 H 
BRANCH  58  61
ATOM     61  C   UNL A   1      35.682  32.125  32.199  1.00  0.00     0.018 C 
ATOM     62  H   UNL A   1      34.672  31.771  32.238  1.00  0.00     0.049 H 
ATOM     63  H   UNL A   1      36.382  31.320  32.274  1.00  0.00     0.049 H 
BRANCH  61  64
ATOM     64  N   UNL A   1      35.899  32.792  30.909  1.00  0.00    -0.352 N 
ATOM     65  C   UNL A   1      37.008  32.738  30.089  1.00  0.00     0.251 C 
ATOM     66  H   UNL A   1      35.156  33.353  30.588  1.00  0.00     0.163 HD
ATOM     67  O   UNL A   1      37.216  33.591  29.229  1.00  0.00    -0.269 OA
BRANCH  65  68
ATOM     68  C   UNL A   1      37.936  31.612  30.257  1.00  0.00     0.039 A 
ATOM     69  C   UNL A   1      37.629  30.306  29.867  1.00  0.00    -0.049 A 
ATOM     70  C   UNL A   1      39.180  31.928  30.783  1.00  0.00    -0.049 A 
ATOM     71  C   UNL A   1      38.625  29.335  29.961  1.00  0.00    -0.053 A 
ATOM     72  H   UNL A   1      36.688  30.064  29.519  1.00  0.00     0.063 H 
ATOM     73  C   UNL A   1      40.209  31.053  30.621  1.00  0.00    -0.053 A 
ATOM     74  H   UNL A   1      39.323  32.814  31.292  1.00  0.00     0.063 H 
ATOM     75  C   UNL A   1      39.916  29.728  30.336  1.00  0.00    -0.014 A 
ATOM     76  H   UNL A   1      38.415  28.345  29.755  1.00  0.00     0.063 H 
ATOM     77  H   UNL A   1      41.188  31.370  30.708  1.00  0.00     0.063 H 
BRANCH  75  78
ATOM     78  C   UNL A   1      41.024  28.796  30.457  1.00  0.00     0.031 A 
ATOM     79  C   UNL A   1      41.433  28.456  31.846  1.00  0.00     0.074 A 
ATOM     80  C   UNL A   1      41.443  28.092  29.383  1.00  0.00     0.049 A 
ATOM     81  N   UNL A   1      42.585  28.637  32.400  1.00  0.00    -0.248 NA
ATOM     82  C   UNL A   1      40.407  27.935  32.763  1.00  0.00    -0.034 C 
ATOM     83  C   UNL A   1      40.898  28.075  28.013  1.00  0.00    -0.036 A 
ATOM     84  N   UNL A   1      42.394  27.126  29.324  1.00  0.00    -0.354 N 
ATOM     85  C   UNL A   1      42.487  28.112  33.688  1.00  0.00     0.074 A 
ATOM     86  C   UNL A   1      41.092  27.835  33.904  1.00  0.00    -0.034 C 
ATOM     87  H   UNL A   1      39.419  27.707  32.574  1.00  0.00     0.065 H 
ATOM     88  C   UNL A   1      41.359  26.994  27.350  1.00  0.00    -0.036 A 
ATOM     89  H   UNL A   1      40.260  28.785  27.622  1.00  0.00     0.065 H 
ATOM     90  C   UNL A   1      42.369  26.356  28.169  1.00  0.00     0.049 A 
ATOM     91  H   UNL A   1      43.051  26.983  30.044  1.00  0.00     0.167 HD
ATOM     92  C   UNL A   1      43.597  27.763  34.397  1.00  0.00     0.037 A 
ATOM     93  H   UNL A   1      40.677  27.592  34.818  1.00  0.00     0.065 H 
ATOM     94  H   UNL A   1      41.045  26.676  26.420  1.00  0.00     0.065 H 
ATOM     95  C   UNL A   1      43.114  25.251  27.930  1.00  0.00     0.037 A 
ATOM     96  C   UNL A   1      44.783  28.342  33.817  1.00  0.00     0.049 A 
ATOM     97  C   UNL A   1      44.255  25.287  28.882  1.00  0.00     0.074 A 
ATOM     98  C   UNL A   1      45.223  29.635  33.614  1.00  0.00    -0.036 A 
ATOM     99  N   UNL A   1      45.544  27.559  32.983  1.00  0.00    -0.354 N 
ATOM    100  N   UNL A   1      45.198  26.188  28.842  1.00  0.00    -0.248 NA
ATOM    101  C   UNL A   1      44.076  24.625  30.166  1.00  0.00    -0.034 C 
ATOM    102  C   UNL A   1      45.841  29.614  32.328  1.00  0.00    -0.036 A 
ATOM    103  H   UNL A   1      45.126  30.441  34.252  1.00  0.00     0.065 H 
ATOM    104  C   UNL A   1      45.808  28.301  31.858  1.00  0.00     0.049 A 
ATOM    105  H   UNL A   1      45.845  26.638  33.159  1.00  0.00     0.167 HD
ATOM    106  C   UNL A   1      45.445  26.505  30.171  1.00  0.00     0.074 A 
ATOM    107  C   UNL A   1      44.776  25.457  30.941  1.00  0.00    -0.034 C 
ATOM    108  H   UNL A   1      43.560  23.764  30.406  1.00  0.00     0.065 H 
ATOM    109  H   UNL A   1      46.241  30.426  31.833  1.00  0.00     0.065 H 
ATOM    110  C   UNL A   1      45.913  27.737  30.531  1.00  0.00     0.037 A 
ATOM    111  H   UNL A   1      44.837  25.372  31.967  1.00  0.00     0.065 H 
BRANCH  92 112
ATOM    112  C   UNL A   1      43.666  26.656  35.417  1.00  0.00     0.064 A 
ATOM    113  C   UNL A   1      44.046  26.960  36.741  1.00  0.00     0.173 A 
ATOM    114  C   UNL A   1      43.654  25.282  35.092  1.00  0.00     0.173 A 
ATOM    115  F   UNL A   1      44.103  28.233  37.162  1.00  0.00    -0.203 F 
ATOM    116  C   UNL A   1      44.460  25.972  37.639  1.00  0.00     0.198 A 
ATOM    117  C   UNL A   1      44.015  24.295  36.007  1.00  0.00     0.198 A 
ATOM    118  F   UNL A   1      43.403  24.847  33.851  1.00  0.00    -0.203 F 
ATOM    119  F   UNL A   1      44.930  26.321  38.844  1.00  0.00    -0.200 F 
ATOM    120  C   UNL A   1      44.450  24.640  37.268  1.00  0.00     0.200 A 
ATOM    121  F   UNL A   1      44.012  23.010  35.624  1.00  0.00    -0.200 F 
ATOM    122  F   UNL A   1      44.903  23.697  38.104  1.00  0.00    -0.200 F 
ENDBRANCH  92 112
BRANCH  95 123
ATOM    123  C   UNL A   1      42.710  24.033  27.193  1.00  0.00     0.064 A 
ATOM    124  C   UNL A   1      43.535  23.475  26.205  1.00  0.00     0.173 A 
ATOM    125  C   UNL A   1      41.632  23.239  27.633  1.00  0.00     0.173 A 
ATOM    126  F   UNL A   1      44.607  24.148  25.766  1.00  0.00    -0.203 F 
ATOM    127  C   UNL A   1      43.309  22.187  25.705  1.00  0.00     0.198 A 
ATOM    128  C   UNL A   1      41.406  21.957  27.131  1.00  0.00     0.198 A 
ATOM    129  F   UNL A   1      40.836  23.654  28.630  1.00  0.00    -0.203 F 
ATOM    130  F   UNL A   1      44.153  21.663  24.805  1.00  0.00    -0.200 F 
ATOM    131  C   UNL A   1      42.252  21.426  26.175  1.00  0.00     0.200 A 
ATOM    132  F   UNL A   1      40.403  21.216  27.626  1.00  0.00    -0.200 F 
ATOM    133  F   UNL A   1      42.074  20.170  25.744  1.00  0.00    -0.200 F 
ENDBRANCH  95 123
BRANCH 110 134
ATOM    134  C   UNL A   1      46.351  28.673  29.433  1.00  0.00     0.064 A 
ATOM    135  C   UNL A   1      47.599  28.598  28.788  1.00  0.00     0.173 A 
ATOM    136  C   UNL A   1      45.416  29.572  28.908  1.00  0.00     0.173 A 
ATOM    137  F   UNL A   1      48.512  27.695  29.156  1.00  0.00    -0.203 F 
ATOM    138  C   UNL A   1      47.908  29.412  27.699  1.00  0.00     0.198 A 
ATOM    139  C   UNL A   1      45.713  30.360  27.798  1.00  0.00     0.198 A 
ATOM    140  F   UNL A   1      44.187  29.648  29.440  1.00  0.00    -0.203 F 
ATOM    141  F   UNL A   1      49.110  29.320  27.110  1.00  0.00    -0.200 F 
ATOM    142  C   UNL A   1      46.961  30.287  27.200  1.00  0.00     0.200 A 
ATOM    143  F   UNL A   1      44.774  31.167  27.285  1.00  0.00    -0.200 F 
ATOM    144  F   UNL A   1      47.240  31.040  26.126  1.00  0.00    -0.200 F 
ENDBRANCH 110 134
ENDBRANCH  75  78
ENDBRANCH  65  68
ENDBRANCH  61  64
ENDBRANCH  58  61
ENDBRANCH  55  58
ENDBRANCH  52  55
ENDBRANCH   1  52
TORSDOF 19
ENDMDL
MODEL 6
REMARK VINA RESULT:     -12.4      4.169      9.814
REMARK SMILES Cc1c(-c2nn(-c3ccccc3)cc2/C=N/O)nnn1-c1ccc(C(=O)NCCCCCCNC(=O)c2ccc(-c3c4nc(c(-c5c(F)c(F)c(F)c(F)c5F)c5ccc([nH]5)c(-c5c(F)c(F)c(F)c(F)c5F)c5nc(c(-c6c(F)c(F)c(F)c(F)c6F)c6ccc3[nH]6)C=C5)C=C4)cc2)cc1
REMARK SMILES IDX 29 1 28 4 27 7 25 8 26 9 24 11 21 12 22 13 101 14 23 15
REMARK SMILES IDX 100 17 20 21 2 22 3 23 18 24 19 25 1 26 4 30 5 31 14 32 6 33
REMARK SMILES IDX 13 34 15 36 16 37 17 39 7 41 8 42 12 43 9 44 11 46 10 48
REMARK SMILES IDX 30 52 31 55 32 58 33 61 34 64 35 65 36 67 37 68 38 69 99 70
REMARK SMILES IDX 39 71 98 73 40 75 41 78 42 79 92 80 43 81 97 82 91 83 93 84
REMARK SMILES IDX 44 85 96 86 90 88 89 90 45 92 77 95 57 96 76 97 58 98 61 99
REMARK SMILES IDX 75 100 94 101 59 102 60 104 74 106 95 107 62 110 46 112
REMARK SMILES IDX 47 113 55 114 48 115 49 116 53 117 56 118 50 119 51 120
REMARK SMILES IDX 54 121 52 122 78 123 79 124 87 125 80 126 81 127 85 128
REMARK SMILES IDX 88 129 82 130 83 131 86 132 84 133 63 134 64 135 72 136
REMARK SMILES IDX 65 137 66 138 70 139 73 140 67 141 68 142 71 143 69 144
REMARK H PARENT 29 2 29 3 28 5 28 6 27 10 22 16 101 18 23 19 100 20 1 27 1 28
REMARK H PARENT 1 29 13 35 15 38 17 40 8 45 12 47 9 49 11 50 10 51 30 53 30 54
REMARK H PARENT 31 56 31 57 32 59 32 60 33 62 33 63 34 66 38 72 99 74 39 76
REMARK H PARENT 98 77 97 87 91 89 93 91 96 93 90 94 58 103 61 105 94 108
REMARK H PARENT 59 109 95 111
REMARK Flexibility Score: inf
ROOT
ATOM      1  C   UNL A   1      44.149  25.179  25.255  1.00  0.00    -0.036 C 
ATOM      2  H   UNL A   1      44.519  24.966  24.274  1.00  0.00     0.028 H 
ATOM      3  H   UNL A   1      44.758  24.744  26.020  1.00  0.00     0.028 H 
ENDROOT
BRANCH   1   4
ATOM      4  C   UNL A   1      42.749  24.574  25.389  1.00  0.00     0.018 C 
ATOM      5  H   UNL A   1      42.079  25.314  25.774  1.00  0.00     0.049 H 
ATOM      6  H   UNL A   1      42.414  24.248  24.427  1.00  0.00     0.049 H 
BRANCH   4   7
ATOM      7  N   UNL A   1      42.784  23.443  26.291  1.00  0.00    -0.352 N 
ATOM      8  C   UNL A   1      41.825  22.641  26.847  1.00  0.00     0.251 C 
ATOM      9  O   UNL A   1      42.216  21.773  27.629  1.00  0.00    -0.269 OA
ATOM     10  H   UNL A   1      43.698  23.197  26.565  1.00  0.00     0.163 HD
BRANCH   8  11
ATOM     11  C   UNL A   1      40.373  22.709  26.511  1.00  0.00     0.039 A 
ATOM     12  C   UNL A   1      37.603  22.984  26.131  1.00  0.00     0.067 A 
ATOM     13  C   UNL A   1      38.341  24.059  26.627  1.00  0.00    -0.036 A 
ATOM     14  C   UNL A   1      38.246  21.803  25.751  1.00  0.00    -0.036 A 
ATOM     15  C   UNL A   1      39.709  23.902  26.850  1.00  0.00    -0.047 A 
ATOM     16  H   UNL A   1      37.879  24.961  26.827  1.00  0.00     0.065 H 
ATOM     17  C   UNL A   1      39.636  21.699  25.884  1.00  0.00    -0.047 A 
ATOM     18  H   UNL A   1      37.701  21.012  25.375  1.00  0.00     0.065 H 
ATOM     19  H   UNL A   1      40.245  24.676  27.272  1.00  0.00     0.063 H 
ATOM     20  H   UNL A   1      40.123  20.868  25.514  1.00  0.00     0.063 H 
BRANCH  12  21
ATOM     21  N   UNL A   1      36.210  23.118  25.965  1.00  0.00    -0.217 N 
ATOM     22  C   UNL A   1      35.495  23.394  24.817  1.00  0.00     0.071 A 
ATOM     23  C   UNL A   1      34.219  23.615  25.295  1.00  0.00     0.137 A 
ATOM     24  N   UNL A   1      34.164  23.370  26.635  1.00  0.00    -0.128 NA
ATOM     25  N   UNL A   1      35.375  22.988  27.023  1.00  0.00    -0.061 NA
BRANCH  22  26
ATOM     26  C   UNL A   1      36.032  23.318  23.439  1.00  0.00    -0.020 C 
ATOM     27  H   UNL A   1      36.411  24.276  23.150  1.00  0.00     0.030 H 
ATOM     28  H   UNL A   1      35.250  23.028  22.767  1.00  0.00     0.030 H 
ATOM     29  H   UNL A   1      36.819  22.596  23.402  1.00  0.00     0.030 H 
ENDBRANCH  22  26
BRANCH  23  30
ATOM     30  C   UNL A   1      33.014  23.937  24.544  1.00  0.00     0.124 A 
ATOM     31  N   UNL A   1      32.642  25.203  24.329  1.00  0.00    -0.165 NA
ATOM     32  C   UNL A   1      32.109  23.003  23.992  1.00  0.00     0.044 A 
ATOM     33  N   UNL A   1      31.443  25.104  23.718  1.00  0.00    -0.240 N 
ATOM     34  C   UNL A   1      31.086  23.793  23.499  1.00  0.00     0.040 A 
ATOM     35  H   UNL A   1      30.218  23.460  23.051  1.00  0.00     0.085 H 
BRANCH  32  36
ATOM     36  C   UNL A   1      32.153  21.564  23.913  1.00  0.00     0.077 C 
ATOM     37  N   UNL A   1      32.052  20.852  24.986  1.00  0.00    -0.097 NA
ATOM     38  H   UNL A   1      32.264  21.102  22.996  1.00  0.00     0.088 H 
BRANCH  37  39
ATOM     39  O   UNL A   1      32.153  19.496  24.651  1.00  0.00    -0.411 OA
ATOM     40  H   UNL A   1      31.573  19.126  24.016  1.00  0.00     0.330 HD
ENDBRANCH  37  39
ENDBRANCH  32  36
BRANCH  33  41
ATOM     41  C   UNL A   1      30.694  26.264  23.418  1.00  0.00     0.065 A 
ATOM     42  C   UNL A   1      29.346  26.322  23.801  1.00  0.00    -0.036 A 
ATOM     43  C   UNL A   1      31.275  27.327  22.718  1.00  0.00    -0.036 A 
ATOM     44  C   UNL A   1      28.589  27.453  23.501  1.00  0.00    -0.060 A 
ATOM     45  H   UNL A   1      28.917  25.530  24.304  1.00  0.00     0.065 H 
ATOM     46  C   UNL A   1      30.495  28.432  22.376  1.00  0.00    -0.060 A 
ATOM     47  H   UNL A   1      32.273  27.292  22.456  1.00  0.00     0.065 H 
ATOM     48  C   UNL A   1      29.158  28.500  22.776  1.00  0.00    -0.062 A 
ATOM     49  H   UNL A   1      27.608  27.516  23.814  1.00  0.00     0.062 H 
ATOM     50  H   UNL A   1      30.905  29.202  21.827  1.00  0.00     0.062 H 
ATOM     51  H   UNL A   1      28.590  29.327  22.535  1.00  0.00     0.062 H 
ENDBRANCH  33  41
ENDBRANCH  23  30
ENDBRANCH  12  21
ENDBRANCH   8  11
ENDBRANCH   4   7
ENDBRANCH   1   4
BRANCH   1  52
ATOM     52  C   UNL A   1      44.171  26.701  25.464  1.00  0.00    -0.052 C 
ATOM     53  H   UNL A   1      43.191  27.006  25.769  1.00  0.00     0.027 H 
ATOM     54  H   UNL A   1      44.484  27.121  24.532  1.00  0.00     0.027 H 
BRANCH  52  55
ATOM     55  C   UNL A   1      45.175  27.212  26.515  1.00  0.00    -0.052 C 
ATOM     56  H   UNL A   1      44.618  27.517  27.375  1.00  0.00     0.027 H 
ATOM     57  H   UNL A   1      45.713  28.003  26.034  1.00  0.00     0.027 H 
BRANCH  55  58
ATOM     58  C   UNL A   1      46.244  26.209  26.978  1.00  0.00    -0.036 C 
ATOM     59  H   UNL A   1      47.209  26.631  26.789  1.00  0.00     0.028 H 
ATOM     60  H   UNL A   1      46.087  25.303  26.433  1.00  0.00     0.028 H 
BRANCH  58  61
ATOM     61  C   UNL A   1      46.146  25.872  28.455  1.00  0.00     0.018 C 
ATOM     62  H   UNL A   1      45.742  26.716  28.974  1.00  0.00     0.049 H 
ATOM     63  H   UNL A   1      47.129  25.634  28.801  1.00  0.00     0.049 H 
BRANCH  61  64
ATOM     64  N   UNL A   1      45.286  24.707  28.706  1.00  0.00    -0.352 N 
ATOM     65  C   UNL A   1      44.127  24.640  29.452  1.00  0.00     0.251 C 
ATOM     66  H   UNL A   1      45.577  23.864  28.289  1.00  0.00     0.163 HD
ATOM     67  O   UNL A   1      43.693  23.570  29.874  1.00  0.00    -0.269 OA
BRANCH  65  68
ATOM     68  C   UNL A   1      43.403  25.890  29.717  1.00  0.00     0.039 A 
ATOM     69  C   UNL A   1      43.675  26.711  30.815  1.00  0.00    -0.049 A 
ATOM     70  C   UNL A   1      42.453  26.250  28.773  1.00  0.00    -0.049 A 
ATOM     71  C   UNL A   1      43.013  27.934  30.909  1.00  0.00    -0.053 A 
ATOM     72  H   UNL A   1      44.348  26.419  31.540  1.00  0.00     0.063 H 
ATOM     73  C   UNL A   1      42.019  27.539  28.728  1.00  0.00    -0.053 A 
ATOM     74  H   UNL A   1      42.079  25.550  28.114  1.00  0.00     0.063 H 
ATOM     75  C   UNL A   1      42.189  28.337  29.849  1.00  0.00    -0.014 A 
ATOM     76  H   UNL A   1      43.129  28.532  31.742  1.00  0.00     0.063 H 
ATOM     77  H   UNL A   1      41.574  27.915  27.875  1.00  0.00     0.063 H 
BRANCH  75  78
ATOM     78  C   UNL A   1      41.460  29.594  29.846  1.00  0.00     0.031 A 
ATOM     79  C   UNL A   1      42.257  30.801  29.502  1.00  0.00     0.074 A 
ATOM     80  C   UNL A   1      40.109  29.598  29.877  1.00  0.00     0.049 A 
ATOM     81  N   UNL A   1      42.455  31.853  30.223  1.00  0.00    -0.248 NA
ATOM     82  C   UNL A   1      43.003  30.801  28.233  1.00  0.00    -0.034 C 
ATOM     83  C   UNL A   1      39.177  28.457  29.872  1.00  0.00    -0.036 A 
ATOM     84  N   UNL A   1      39.266  30.657  29.796  1.00  0.00    -0.354 N 
ATOM     85  C   UNL A   1      43.221  32.722  29.447  1.00  0.00     0.074 A 
ATOM     86  C   UNL A   1      43.651  31.965  28.302  1.00  0.00    -0.034 C 
ATOM     87  H   UNL A   1      43.020  30.088  27.486  1.00  0.00     0.065 H 
ATOM     88  C   UNL A   1      37.936  28.881  29.550  1.00  0.00    -0.036 A 
ATOM     89  H   UNL A   1      39.434  27.481  30.082  1.00  0.00     0.065 H 
ATOM     90  C   UNL A   1      37.946  30.329  29.518  1.00  0.00     0.049 A 
ATOM     91  H   UNL A   1      39.567  31.587  29.925  1.00  0.00     0.167 HD
ATOM     92  C   UNL A   1      43.270  34.057  29.718  1.00  0.00     0.037 A 
ATOM     93  H   UNL A   1      44.365  32.280  27.625  1.00  0.00     0.065 H 
ATOM     94  H   UNL A   1      37.121  28.278  29.359  1.00  0.00     0.065 H 
ATOM     95  C   UNL A   1      36.946  31.201  29.251  1.00  0.00     0.037 A 
ATOM     96  C   UNL A   1      42.774  34.333  31.043  1.00  0.00     0.049 A 
ATOM     97  C   UNL A   1      37.384  32.528  29.758  1.00  0.00     0.074 A 
ATOM     98  C   UNL A   1      43.180  33.980  32.315  1.00  0.00    -0.036 A 
ATOM     99  N   UNL A   1      41.471  34.749  31.173  1.00  0.00    -0.354 N 
ATOM    100  N   UNL A   1      37.561  32.792  31.024  1.00  0.00    -0.248 NA
ATOM    101  C   UNL A   1      38.097  33.396  28.833  1.00  0.00    -0.034 C 
ATOM    102  C   UNL A   1      41.970  33.717  33.025  1.00  0.00    -0.036 A 
ATOM    103  H   UNL A   1      44.145  33.920  32.675  1.00  0.00     0.065 H 
ATOM    104  C   UNL A   1      40.903  33.995  32.171  1.00  0.00     0.049 A 
ATOM    105  H   UNL A   1      41.028  35.456  30.650  1.00  0.00     0.167 HD
ATOM    106  C   UNL A   1      38.709  33.570  31.070  1.00  0.00     0.074 A 
ATOM    107  C   UNL A   1      38.952  33.969  29.683  1.00  0.00    -0.034 C 
ATOM    108  H   UNL A   1      37.976  33.530  27.817  1.00  0.00     0.065 H 
ATOM    109  H   UNL A   1      41.898  33.380  33.997  1.00  0.00     0.065 H 
ATOM    110  C   UNL A   1      39.519  33.576  32.170  1.00  0.00     0.037 A 
ATOM    111  H   UNL A   1      39.700  34.618  29.396  1.00  0.00     0.065 H 
BRANCH  92 112
ATOM    112  C   UNL A   1      43.462  35.146  28.694  1.00  0.00     0.064 A 
ATOM    113  C   UNL A   1      44.727  35.757  28.566  1.00  0.00     0.173 A 
ATOM    114  C   UNL A   1      42.401  35.807  28.038  1.00  0.00     0.173 A 
ATOM    115  F   UNL A   1      45.808  35.223  29.155  1.00  0.00    -0.203 F 
ATOM    116  C   UNL A   1      44.898  36.976  27.904  1.00  0.00     0.198 A 
ATOM    117  C   UNL A   1      42.585  36.995  27.331  1.00  0.00     0.198 A 
ATOM    118  F   UNL A   1      41.132  35.397  28.145  1.00  0.00    -0.203 F 
ATOM    119  F   UNL A   1      46.094  37.579  27.915  1.00  0.00    -0.200 F 
ATOM    120  C   UNL A   1      43.824  37.598  27.292  1.00  0.00     0.200 A 
ATOM    121  F   UNL A   1      41.529  37.589  26.757  1.00  0.00    -0.200 F 
ATOM    122  F   UNL A   1      43.970  38.794  26.710  1.00  0.00    -0.200 F 
ENDBRANCH  92 112
BRANCH  95 123
ATOM    123  C   UNL A   1      35.826  31.026  28.299  1.00  0.00     0.064 A 
ATOM    124  C   UNL A   1      35.648  29.824  27.599  1.00  0.00     0.173 A 
ATOM    125  C   UNL A   1      34.753  31.940  28.262  1.00  0.00     0.173 A 
ATOM    126  F   UNL A   1      36.604  28.885  27.623  1.00  0.00    -0.203 F 
ATOM    127  C   UNL A   1      34.456  29.541  26.922  1.00  0.00     0.198 A 
ATOM    128  C   UNL A   1      33.566  31.658  27.584  1.00  0.00     0.198 A 
ATOM    129  F   UNL A   1      34.798  33.081  28.966  1.00  0.00    -0.203 F 
ATOM    130  F   UNL A   1      34.299  28.357  26.314  1.00  0.00    -0.200 F 
ATOM    131  C   UNL A   1      33.414  30.453  26.924  1.00  0.00     0.200 A 
ATOM    132  F   UNL A   1      32.551  32.532  27.629  1.00  0.00    -0.200 F 
ATOM    133  F   UNL A   1      32.249  30.155  26.330  1.00  0.00    -0.200 F 
ENDBRANCH  95 123
BRANCH 110 134
ATOM    134  C   UNL A   1      39.025  32.879  33.412  1.00  0.00     0.064 A 
ATOM    135  C   UNL A   1      39.392  31.571  33.779  1.00  0.00     0.173 A 
ATOM    136  C   UNL A   1      38.284  33.616  34.343  1.00  0.00     0.173 A 
ATOM    137  F   UNL A   1      40.186  30.834  32.997  1.00  0.00    -0.203 F 
ATOM    138  C   UNL A   1      39.001  31.017  34.997  1.00  0.00     0.198 A 
ATOM    139  C   UNL A   1      37.924  33.075  35.575  1.00  0.00     0.198 A 
ATOM    140  F   UNL A   1      37.954  34.890  34.079  1.00  0.00    -0.203 F 
ATOM    141  F   UNL A   1      39.363  29.765  35.313  1.00  0.00    -0.200 F 
ATOM    142  C   UNL A   1      38.274  31.773  35.897  1.00  0.00     0.200 A 
ATOM    143  F   UNL A   1      37.266  33.829  36.466  1.00  0.00    -0.200 F 
ATOM    144  F   UNL A   1      37.934  31.258  37.088  1.00  0.00    -0.200 F 
ENDBRANCH 110 134
ENDBRANCH  75  78
ENDBRANCH  65  68
ENDBRANCH  61  64
ENDBRANCH  58  61
ENDBRANCH  55  58
ENDBRANCH  52  55
ENDBRANCH   1  52
TORSDOF 19
ENDMDL
MODEL 7
REMARK VINA RESULT:     -12.3      2.847      9.554
REMARK SMILES Cc1c(-c2nn(-c3ccccc3)cc2/C=N/O)nnn1-c1ccc(C(=O)NCCCCCCNC(=O)c2ccc(-c3c4nc(c(-c5c(F)c(F)c(F)c(F)c5F)c5ccc([nH]5)c(-c5c(F)c(F)c(F)c(F)c5F)c5nc(c(-c6c(F)c(F)c(F)c(F)c6F)c6ccc3[nH]6)C=C5)C=C4)cc2)cc1
REMARK SMILES IDX 29 1 28 4 27 7 25 8 26 9 24 11 21 12 22 13 101 14 23 15
REMARK SMILES IDX 100 17 20 21 2 22 3 23 18 24 19 25 1 26 4 30 5 31 14 32 6 33
REMARK SMILES IDX 13 34 15 36 16 37 17 39 7 41 8 42 12 43 9 44 11 46 10 48
REMARK SMILES IDX 30 52 31 55 32 58 33 61 34 64 35 65 36 67 37 68 38 69 99 70
REMARK SMILES IDX 39 71 98 73 40 75 41 78 42 79 92 80 43 81 97 82 91 83 93 84
REMARK SMILES IDX 44 85 96 86 90 88 89 90 45 92 77 95 57 96 76 97 58 98 61 99
REMARK SMILES IDX 75 100 94 101 59 102 60 104 74 106 95 107 62 110 46 112
REMARK SMILES IDX 47 113 55 114 48 115 49 116 53 117 56 118 50 119 51 120
REMARK SMILES IDX 54 121 52 122 78 123 79 124 87 125 80 126 81 127 85 128
REMARK SMILES IDX 88 129 82 130 83 131 86 132 84 133 63 134 64 135 72 136
REMARK SMILES IDX 65 137 66 138 70 139 73 140 67 141 68 142 71 143 69 144
REMARK H PARENT 29 2 29 3 28 5 28 6 27 10 22 16 101 18 23 19 100 20 1 27 1 28
REMARK H PARENT 1 29 13 35 15 38 17 40 8 45 12 47 9 49 11 50 10 51 30 53 30 54
REMARK H PARENT 31 56 31 57 32 59 32 60 33 62 33 63 34 66 38 72 99 74 39 76
REMARK H PARENT 98 77 97 87 91 89 93 91 96 93 90 94 58 103 61 105 94 108
REMARK H PARENT 59 109 95 111
REMARK Flexibility Score: inf
ROOT
ATOM      1  C   UNL A   1      36.286  19.230  25.032  1.00  0.00    -0.036 C 
ATOM      2  H   UNL A   1      37.097  18.594  25.321  1.00  0.00     0.028 H 
ATOM      3  H   UNL A   1      35.704  19.547  25.872  1.00  0.00     0.028 H 
ENDROOT
BRANCH   1   4
ATOM      4  C   UNL A   1      35.357  18.443  24.105  1.00  0.00     0.018 C 
ATOM      5  H   UNL A   1      35.033  19.077  23.306  1.00  0.00     0.049 H 
ATOM      6  H   UNL A   1      35.886  17.603  23.707  1.00  0.00     0.049 H 
BRANCH   4   7
ATOM      7  N   UNL A   1      34.204  17.974  24.843  1.00  0.00    -0.352 N 
ATOM      8  C   UNL A   1      33.168  18.598  25.486  1.00  0.00     0.251 C 
ATOM      9  O   UNL A   1      32.360  17.872  26.065  1.00  0.00    -0.269 OA
ATOM     10  H   UNL A   1      34.153  16.992  24.895  1.00  0.00     0.163 HD
BRANCH   8  11
ATOM     11  C   UNL A   1      32.928  20.070  25.462  1.00  0.00     0.039 A 
ATOM     12  C   UNL A   1      32.394  22.818  25.699  1.00  0.00     0.067 A 
ATOM     13  C   UNL A   1      33.032  22.148  26.743  1.00  0.00    -0.036 A 
ATOM     14  C   UNL A   1      32.091  22.148  24.511  1.00  0.00    -0.036 A 
ATOM     15  C   UNL A   1      33.259  20.775  26.634  1.00  0.00    -0.047 A 
ATOM     16  H   UNL A   1      33.333  22.662  27.586  1.00  0.00     0.065 H 
ATOM     17  C   UNL A   1      32.421  20.793  24.378  1.00  0.00    -0.047 A 
ATOM     18  H   UNL A   1      31.628  22.647  23.736  1.00  0.00     0.065 H 
ATOM     19  H   UNL A   1      33.678  20.267  27.428  1.00  0.00     0.063 H 
ATOM     20  H   UNL A   1      32.288  20.323  23.469  1.00  0.00     0.063 H 
BRANCH  12  21
ATOM     21  N   UNL A   1      32.105  24.191  25.833  1.00  0.00    -0.217 N 
ATOM     22  C   UNL A   1      32.886  25.279  25.498  1.00  0.00     0.071 A 
ATOM     23  C   UNL A   1      32.188  26.338  26.044  1.00  0.00     0.137 A 
ATOM     24  N   UNL A   1      31.006  25.908  26.569  1.00  0.00    -0.128 NA
ATOM     25  N   UNL A   1      30.928  24.599  26.363  1.00  0.00    -0.061 NA
BRANCH  22  26
ATOM     26  C   UNL A   1      34.096  25.230  24.645  1.00  0.00    -0.020 C 
ATOM     27  H   UNL A   1      34.853  24.653  25.133  1.00  0.00     0.030 H 
ATOM     28  H   UNL A   1      34.457  26.225  24.482  1.00  0.00     0.030 H 
ATOM     29  H   UNL A   1      33.853  24.780  23.707  1.00  0.00     0.030 H 
ENDBRANCH  22  26
BRANCH  23  30
ATOM     30  C   UNL A   1      32.517  27.756  26.003  1.00  0.00     0.124 A 
ATOM     31  N   UNL A   1      33.392  28.295  26.856  1.00  0.00    -0.165 NA
ATOM     32  C   UNL A   1      31.963  28.707  25.117  1.00  0.00     0.044 A 
ATOM     33  N   UNL A   1      33.346  29.618  26.596  1.00  0.00    -0.240 N 
ATOM     34  C   UNL A   1      32.493  29.907  25.555  1.00  0.00     0.040 A 
ATOM     35  H   UNL A   1      32.287  30.843  25.172  1.00  0.00     0.085 H 
BRANCH  32  36
ATOM     36  C   UNL A   1      31.061  28.561  24.002  1.00  0.00     0.077 C 
ATOM     37  N   UNL A   1      31.525  28.375  22.811  1.00  0.00    -0.097 NA
ATOM     38  H   UNL A   1      30.041  28.605  24.156  1.00  0.00     0.088 H 
BRANCH  37  39
ATOM     39  O   UNL A   1      30.460  28.296  21.906  1.00  0.00    -0.411 OA
ATOM     40  H   UNL A   1      30.586  28.540  21.011  1.00  0.00     0.330 HD
ENDBRANCH  37  39
ENDBRANCH  32  36
BRANCH  33  41
ATOM     41  C   UNL A   1      34.084  30.530  27.384  1.00  0.00     0.065 A 
ATOM     42  C   UNL A   1      35.292  30.111  27.960  1.00  0.00    -0.036 A 
ATOM     43  C   UNL A   1      33.602  31.822  27.619  1.00  0.00    -0.036 A 
ATOM     44  C   UNL A   1      36.026  30.993  28.751  1.00  0.00    -0.060 A 
ATOM     45  H   UNL A   1      35.637  29.152  27.797  1.00  0.00     0.065 H 
ATOM     46  C   UNL A   1      34.318  32.681  28.455  1.00  0.00    -0.060 A 
ATOM     47  H   UNL A   1      32.724  32.137  27.177  1.00  0.00     0.065 H 
ATOM     48  C   UNL A   1      35.532  32.270  29.011  1.00  0.00    -0.062 A 
ATOM     49  H   UNL A   1      36.934  30.701  29.145  1.00  0.00     0.062 H 
ATOM     50  H   UNL A   1      33.949  33.621  28.664  1.00  0.00     0.062 H 
ATOM     51  H   UNL A   1      36.064  32.916  29.615  1.00  0.00     0.062 H 
ENDBRANCH  33  41
ENDBRANCH  23  30
ENDBRANCH  12  21
ENDBRANCH   8  11
ENDBRANCH   4   7
ENDBRANCH   1   4
BRANCH   1  52
ATOM     52  C   UNL A   1      36.867  20.492  24.376  1.00  0.00    -0.052 C 
ATOM     53  H   UNL A   1      36.799  20.372  23.314  1.00  0.00     0.027 H 
ATOM     54  H   UNL A   1      37.870  20.576  24.737  1.00  0.00     0.027 H 
BRANCH  52  55
ATOM     55  C   UNL A   1      36.171  21.814  24.749  1.00  0.00    -0.052 C 
ATOM     56  H   UNL A   1      35.980  21.796  25.801  1.00  0.00     0.027 H 
ATOM     57  H   UNL A   1      35.290  21.854  24.142  1.00  0.00     0.027 H 
BRANCH  55  58
ATOM     58  C   UNL A   1      36.946  23.103  24.434  1.00  0.00    -0.036 C 
ATOM     59  H   UNL A   1      36.255  23.835  24.074  1.00  0.00     0.028 H 
ATOM     60  H   UNL A   1      37.688  22.857  23.704  1.00  0.00     0.028 H 
BRANCH  58  61
ATOM     61  C   UNL A   1      37.670  23.674  25.640  1.00  0.00     0.018 C 
ATOM     62  H   UNL A   1      36.944  24.055  26.328  1.00  0.00     0.049 H 
ATOM     63  H   UNL A   1      38.323  24.447  25.293  1.00  0.00     0.049 H 
BRANCH  61  64
ATOM     64  N   UNL A   1      38.490  22.669  26.328  1.00  0.00    -0.352 N 
ATOM     65  C   UNL A   1      39.659  22.853  27.040  1.00  0.00     0.251 C 
ATOM     66  H   UNL A   1      38.164  21.742  26.273  1.00  0.00     0.163 HD
ATOM     67  O   UNL A   1      40.428  21.922  27.268  1.00  0.00    -0.269 OA
BRANCH  65  68
ATOM     68  C   UNL A   1      39.957  24.201  27.541  1.00  0.00     0.039 A 
ATOM     69  C   UNL A   1      38.983  25.193  27.687  1.00  0.00    -0.049 A 
ATOM     70  C   UNL A   1      41.271  24.427  27.922  1.00  0.00    -0.049 A 
ATOM     71  C   UNL A   1      39.349  26.398  28.284  1.00  0.00    -0.053 A 
ATOM     72  H   UNL A   1      38.016  25.038  27.361  1.00  0.00     0.063 H 
ATOM     73  C   UNL A   1      41.553  25.483  28.733  1.00  0.00    -0.053 A 
ATOM     74  H   UNL A   1      42.025  23.805  27.593  1.00  0.00     0.063 H 
ATOM     75  C   UNL A   1      40.642  26.525  28.808  1.00  0.00    -0.014 A 
ATOM     76  H   UNL A   1      38.679  27.182  28.340  1.00  0.00     0.063 H 
ATOM     77  H   UNL A   1      42.427  25.505  29.282  1.00  0.00     0.063 H 
BRANCH  75  78
ATOM     78  C   UNL A   1      41.120  27.736  29.454  1.00  0.00     0.031 A 
ATOM     79  C   UNL A   1      42.131  28.517  28.693  1.00  0.00     0.074 A 
ATOM     80  C   UNL A   1      40.471  28.237  30.528  1.00  0.00     0.049 A 
ATOM     81  N   UNL A   1      43.333  28.822  29.053  1.00  0.00    -0.248 NA
ATOM     82  C   UNL A   1      41.797  28.934  27.322  1.00  0.00    -0.034 C 
ATOM     83  C   UNL A   1      39.243  27.750  31.181  1.00  0.00    -0.036 A 
ATOM     84  N   UNL A   1      40.716  29.388  31.202  1.00  0.00    -0.354 N 
ATOM     85  C   UNL A   1      43.862  29.603  28.027  1.00  0.00     0.074 A 
ATOM     86  C   UNL A   1      42.935  29.511  26.931  1.00  0.00    -0.034 C 
ATOM     87  H   UNL A   1      40.915  28.813  26.800  1.00  0.00     0.065 H 
ATOM     88  C   UNL A   1      38.733  28.715  31.976  1.00  0.00    -0.036 A 
ATOM     89  H   UNL A   1      38.834  26.812  31.050  1.00  0.00     0.065 H 
ATOM     90  C   UNL A   1      39.689  29.801  32.039  1.00  0.00     0.049 A 
ATOM     91  H   UNL A   1      41.558  29.891  31.106  1.00  0.00     0.167 HD
ATOM     92  C   UNL A   1      44.929  30.424  28.241  1.00  0.00     0.037 A 
ATOM     93  H   UNL A   1      43.124  29.847  25.973  1.00  0.00     0.065 H 
ATOM     94  H   UNL A   1      37.820  28.684  32.455  1.00  0.00     0.065 H 
ATOM     95  C   UNL A   1      39.628  30.977  32.708  1.00  0.00     0.037 A 
ATOM     96  C   UNL A   1      45.604  30.085  29.469  1.00  0.00     0.049 A 
ATOM     97  C   UNL A   1      41.014  31.512  32.765  1.00  0.00     0.074 A 
ATOM     98  C   UNL A   1      46.274  28.965  29.922  1.00  0.00    -0.036 A 
ATOM     99  N   UNL A   1      45.308  30.817  30.593  1.00  0.00    -0.354 N 
ATOM    100  N   UNL A   1      41.980  30.941  33.430  1.00  0.00    -0.248 NA
ATOM    101  C   UNL A   1      41.435  32.396  31.687  1.00  0.00    -0.034 C 
ATOM    102  C   UNL A   1      45.892  28.839  31.291  1.00  0.00    -0.036 A 
ATOM    103  H   UNL A   1      46.911  28.354  29.388  1.00  0.00     0.065 H 
ATOM    104  C   UNL A   1      45.076  29.924  31.610  1.00  0.00     0.049 A 
ATOM    105  H   UNL A   1      45.272  31.800  30.658  1.00  0.00     0.167 HD
ATOM    106  C   UNL A   1      43.094  31.054  32.611  1.00  0.00     0.074 A 
ATOM    107  C   UNL A   1      42.713  32.024  31.584  1.00  0.00    -0.034 C 
ATOM    108  H   UNL A   1      40.900  33.103  31.158  1.00  0.00     0.065 H 
ATOM    109  H   UNL A   1      46.170  28.079  31.931  1.00  0.00     0.065 H 
ATOM    110  C   UNL A   1      44.109  30.141  32.663  1.00  0.00     0.037 A 
ATOM    111  H   UNL A   1      43.358  32.379  30.862  1.00  0.00     0.065 H 
BRANCH  92 112
ATOM    112  C   UNL A   1      45.185  31.724  27.522  1.00  0.00     0.064 A 
ATOM    113  C   UNL A   1      46.414  31.913  26.854  1.00  0.00     0.173 A 
ATOM    114  C   UNL A   1      44.406  32.888  27.697  1.00  0.00     0.173 A 
ATOM    115  F   UNL A   1      47.242  30.879  26.639  1.00  0.00    -0.203 F 
ATOM    116  C   UNL A   1      46.860  33.180  26.468  1.00  0.00     0.198 A 
ATOM    117  C   UNL A   1      44.830  34.142  27.261  1.00  0.00     0.198 A 
ATOM    118  F   UNL A   1      43.262  32.881  28.391  1.00  0.00    -0.203 F 
ATOM    119  F   UNL A   1      48.087  33.325  25.950  1.00  0.00    -0.200 F 
ATOM    120  C   UNL A   1      46.070  34.295  26.679  1.00  0.00     0.200 A 
ATOM    121  F   UNL A   1      44.056  35.213  27.488  1.00  0.00    -0.200 F 
ATOM    122  F   UNL A   1      46.519  35.517  26.366  1.00  0.00    -0.200 F 
ENDBRANCH  92 112
BRANCH  95 123
ATOM    123  C   UNL A   1      38.429  31.800  32.979  1.00  0.00     0.064 A 
ATOM    124  C   UNL A   1      37.993  32.041  34.291  1.00  0.00     0.173 A 
ATOM    125  C   UNL A   1      37.845  32.590  31.968  1.00  0.00     0.173 A 
ATOM    126  F   UNL A   1      38.534  31.363  35.312  1.00  0.00    -0.203 F 
ATOM    127  C   UNL A   1      37.047  33.032  34.577  1.00  0.00     0.198 A 
ATOM    128  C   UNL A   1      36.899  33.576  32.255  1.00  0.00     0.198 A 
ATOM    129  F   UNL A   1      38.254  32.488  30.694  1.00  0.00    -0.203 F 
ATOM    130  F   UNL A   1      36.700  33.276  35.848  1.00  0.00    -0.200 F 
ATOM    131  C   UNL A   1      36.510  33.805  33.561  1.00  0.00     0.200 A 
ATOM    132  F   UNL A   1      36.418  34.343  31.266  1.00  0.00    -0.200 F 
ATOM    133  F   UNL A   1      35.653  34.797  33.843  1.00  0.00    -0.200 F 
ENDBRANCH  95 123
BRANCH 110 134
ATOM    134  C   UNL A   1      44.087  29.127  33.778  1.00  0.00     0.064 A 
ATOM    135  C   UNL A   1      43.500  27.853  33.670  1.00  0.00     0.173 A 
ATOM    136  C   UNL A   1      44.825  29.391  34.938  1.00  0.00     0.173 A 
ATOM    137  F   UNL A   1      42.867  27.479  32.555  1.00  0.00    -0.203 F 
ATOM    138  C   UNL A   1      43.610  26.909  34.690  1.00  0.00     0.198 A 
ATOM    139  C   UNL A   1      44.966  28.434  35.941  1.00  0.00     0.198 A 
ATOM    140  F   UNL A   1      45.461  30.564  35.075  1.00  0.00    -0.203 F 
ATOM    141  F   UNL A   1      43.032  25.706  34.558  1.00  0.00    -0.200 F 
ATOM    142  C   UNL A   1      44.351  27.198  35.821  1.00  0.00     0.200 A 
ATOM    143  F   UNL A   1      45.727  28.699  37.011  1.00  0.00    -0.200 F 
ATOM    144  F   UNL A   1      44.495  26.276  36.784  1.00  0.00    -0.200 F 
ENDBRANCH 110 134
ENDBRANCH  75  78
ENDBRANCH  65  68
ENDBRANCH  61  64
ENDBRANCH  58  61
ENDBRANCH  55  58
ENDBRANCH  52  55
ENDBRANCH   1  52
TORSDOF 19
ENDMDL
MODEL 8
REMARK VINA RESULT:     -12.1      2.975      4.923
REMARK SMILES Cc1c(-c2nn(-c3ccccc3)cc2/C=N/O)nnn1-c1ccc(C(=O)NCCCCCCNC(=O)c2ccc(-c3c4nc(c(-c5c(F)c(F)c(F)c(F)c5F)c5ccc([nH]5)c(-c5c(F)c(F)c(F)c(F)c5F)c5nc(c(-c6c(F)c(F)c(F)c(F)c6F)c6ccc3[nH]6)C=C5)C=C4)cc2)cc1
REMARK SMILES IDX 29 1 28 4 27 7 25 8 26 9 24 11 21 12 22 13 101 14 23 15
REMARK SMILES IDX 100 17 20 21 2 22 3 23 18 24 19 25 1 26 4 30 5 31 14 32 6 33
REMARK SMILES IDX 13 34 15 36 16 37 17 39 7 41 8 42 12 43 9 44 11 46 10 48
REMARK SMILES IDX 30 52 31 55 32 58 33 61 34 64 35 65 36 67 37 68 38 69 99 70
REMARK SMILES IDX 39 71 98 73 40 75 41 78 42 79 92 80 43 81 97 82 91 83 93 84
REMARK SMILES IDX 44 85 96 86 90 88 89 90 45 92 77 95 57 96 76 97 58 98 61 99
REMARK SMILES IDX 75 100 94 101 59 102 60 104 74 106 95 107 62 110 46 112
REMARK SMILES IDX 47 113 55 114 48 115 49 116 53 117 56 118 50 119 51 120
REMARK SMILES IDX 54 121 52 122 78 123 79 124 87 125 80 126 81 127 85 128
REMARK SMILES IDX 88 129 82 130 83 131 86 132 84 133 63 134 64 135 72 136
REMARK SMILES IDX 65 137 66 138 70 139 73 140 67 141 68 142 71 143 69 144
REMARK H PARENT 29 2 29 3 28 5 28 6 27 10 22 16 101 18 23 19 100 20 1 27 1 28
REMARK H PARENT 1 29 13 35 15 38 17 40 8 45 12 47 9 49 11 50 10 51 30 53 30 54
REMARK H PARENT 31 56 31 57 32 59 32 60 33 62 33 63 34 66 38 72 99 74 39 76
REMARK H PARENT 98 77 97 87 91 89 93 91 96 93 90 94 58 103 61 105 94 108
REMARK H PARENT 59 109 95 111
REMARK Flexibility Score: inf
ROOT
ATOM      1  C   UNL A   1      33.837  35.645  28.685  1.00  0.00    -0.036 C 
ATOM      2  H   UNL A   1      33.121  35.627  27.890  1.00  0.00     0.028 H 
ATOM      3  H   UNL A   1      34.303  36.603  28.784  1.00  0.00     0.028 H 
ENDROOT
BRANCH   1   4
ATOM      4  C   UNL A   1      34.940  34.632  28.369  1.00  0.00     0.018 C 
ATOM      5  H   UNL A   1      34.640  34.031  27.535  1.00  0.00     0.049 H 
ATOM      6  H   UNL A   1      35.841  35.157  28.130  1.00  0.00     0.049 H 
BRANCH   4   7
ATOM      7  N   UNL A   1      35.173  33.781  29.516  1.00  0.00    -0.352 N 
ATOM      8  C   UNL A   1      35.101  32.430  29.727  1.00  0.00     0.251 C 
ATOM      9  O   UNL A   1      35.330  32.038  30.872  1.00  0.00    -0.269 OA
ATOM     10  H   UNL A   1      35.442  34.283  30.319  1.00  0.00     0.163 HD
BRANCH   8  11
ATOM     11  C   UNL A   1      34.839  31.424  28.658  1.00  0.00     0.039 A 
ATOM     12  C   UNL A   1      34.060  29.554  26.711  1.00  0.00     0.067 A 
ATOM     13  C   UNL A   1      33.306  30.713  26.893  1.00  0.00    -0.036 A 
ATOM     14  C   UNL A   1      35.239  29.359  27.435  1.00  0.00    -0.036 A 
ATOM     15  C   UNL A   1      33.677  31.618  27.889  1.00  0.00    -0.047 A 
ATOM     16  H   UNL A   1      32.483  30.899  26.299  1.00  0.00     0.065 H 
ATOM     17  C   UNL A   1      35.654  30.327  28.357  1.00  0.00    -0.047 A 
ATOM     18  H   UNL A   1      35.801  28.505  27.293  1.00  0.00     0.065 H 
ATOM     19  H   UNL A   1      33.087  32.446  28.065  1.00  0.00     0.063 H 
ATOM     20  H   UNL A   1      36.571  30.232  28.820  1.00  0.00     0.063 H 
BRANCH  12  21
ATOM     21  N   UNL A   1      33.652  28.607  25.751  1.00  0.00    -0.217 N 
ATOM     22  C   UNL A   1      32.711  27.604  25.867  1.00  0.00     0.071 A 
ATOM     23  C   UNL A   1      32.891  26.877  24.707  1.00  0.00     0.137 A 
ATOM     24  N   UNL A   1      33.807  27.486  23.902  1.00  0.00    -0.128 NA
ATOM     25  N   UNL A   1      34.210  28.591  24.518  1.00  0.00    -0.061 NA
BRANCH  22  26
ATOM     26  C   UNL A   1      31.708  27.495  26.952  1.00  0.00    -0.020 C 
ATOM     27  H   UNL A   1      32.138  26.978  27.785  1.00  0.00     0.030 H 
ATOM     28  H   UNL A   1      30.857  26.953  26.598  1.00  0.00     0.030 H 
ATOM     29  H   UNL A   1      31.406  28.474  27.258  1.00  0.00     0.030 H 
ENDBRANCH  22  26
BRANCH  23  30
ATOM     30  C   UNL A   1      32.168  25.696  24.257  1.00  0.00     0.124 A 
ATOM     31  N   UNL A   1      32.606  24.463  24.529  1.00  0.00    -0.165 NA
ATOM     32  C   UNL A   1      30.981  25.696  23.491  1.00  0.00     0.044 A 
ATOM     33  N   UNL A   1      31.761  23.650  23.861  1.00  0.00    -0.240 N 
ATOM     34  C   UNL A   1      30.768  24.356  23.221  1.00  0.00     0.040 A 
ATOM     35  H   UNL A   1      30.007  23.961  22.646  1.00  0.00     0.085 H 
BRANCH  32  36
ATOM     36  C   UNL A   1      30.130  26.772  23.049  1.00  0.00     0.077 C 
ATOM     37  N   UNL A   1      30.573  27.647  22.209  1.00  0.00    -0.097 NA
ATOM     38  H   UNL A   1      29.163  26.843  23.404  1.00  0.00     0.088 H 
BRANCH  37  39
ATOM     39  O   UNL A   1      29.576  28.598  21.963  1.00  0.00    -0.411 OA
ATOM     40  H   UNL A   1      28.676  28.342  21.952  1.00  0.00     0.330 HD
ENDBRANCH  37  39
ENDBRANCH  32  36
BRANCH  33  41
ATOM     41  C   UNL A   1      31.977  22.253  23.840  1.00  0.00     0.065 A 
ATOM     42  C   UNL A   1      32.246  21.586  25.044  1.00  0.00    -0.036 A 
ATOM     43  C   UNL A   1      31.959  21.548  22.632  1.00  0.00    -0.036 A 
ATOM     44  C   UNL A   1      32.475  20.212  25.039  1.00  0.00    -0.060 A 
ATOM     45  H   UNL A   1      32.273  22.113  25.932  1.00  0.00     0.065 H 
ATOM     46  C   UNL A   1      32.241  20.180  22.631  1.00  0.00    -0.060 A 
ATOM     47  H   UNL A   1      31.739  22.035  21.749  1.00  0.00     0.065 H 
ATOM     48  C   UNL A   1      32.488  19.513  23.833  1.00  0.00    -0.062 A 
ATOM     49  H   UNL A   1      32.635  19.712  25.927  1.00  0.00     0.062 H 
ATOM     50  H   UNL A   1      32.268  19.662  21.740  1.00  0.00     0.062 H 
ATOM     51  H   UNL A   1      32.680  18.499  23.827  1.00  0.00     0.062 H 
ENDBRANCH  33  41
ENDBRANCH  23  30
ENDBRANCH  12  21
ENDBRANCH   8  11
ENDBRANCH   4   7
ENDBRANCH   1   4
BRANCH   1  52
ATOM     52  C   UNL A   1      33.108  35.352  30.005  1.00  0.00    -0.052 C 
ATOM     53  H   UNL A   1      33.461  34.411  30.374  1.00  0.00     0.027 H 
ATOM     54  H   UNL A   1      32.064  35.360  29.772  1.00  0.00     0.027 H 
BRANCH  52  55
ATOM     55  C   UNL A   1      33.301  36.400  31.116  1.00  0.00    -0.052 C 
ATOM     56  H   UNL A   1      32.553  37.153  30.987  1.00  0.00     0.027 H 
ATOM     57  H   UNL A   1      34.306  36.753  31.004  1.00  0.00     0.027 H 
BRANCH  55  58
ATOM     58  C   UNL A   1      33.205  35.885  32.561  1.00  0.00    -0.036 C 
ATOM     59  H   UNL A   1      32.239  35.447  32.701  1.00  0.00     0.028 H 
ATOM     60  H   UNL A   1      33.364  36.722  33.208  1.00  0.00     0.028 H 
BRANCH  58  61
ATOM     61  C   UNL A   1      34.261  34.847  32.896  1.00  0.00     0.018 C 
ATOM     62  H   UNL A   1      35.157  35.083  32.360  1.00  0.00     0.049 H 
ATOM     63  H   UNL A   1      33.877  33.889  32.615  1.00  0.00     0.049 H 
BRANCH  61  64
ATOM     64  N   UNL A   1      34.567  34.805  34.332  1.00  0.00    -0.352 N 
ATOM     65  C   UNL A   1      35.582  34.124  34.975  1.00  0.00     0.251 C 
ATOM     66  H   UNL A   1      33.970  35.331  34.912  1.00  0.00     0.163 HD
ATOM     67  O   UNL A   1      35.533  33.883  36.179  1.00  0.00    -0.269 OA
BRANCH  65  68
ATOM     68  C   UNL A   1      36.743  33.706  34.181  1.00  0.00     0.039 A 
ATOM     69  C   UNL A   1      37.698  34.604  33.695  1.00  0.00    -0.049 A 
ATOM     70  C   UNL A   1      36.879  32.340  33.980  1.00  0.00    -0.049 A 
ATOM     71  C   UNL A   1      38.826  34.091  33.055  1.00  0.00    -0.053 A 
ATOM     72  H   UNL A   1      37.573  35.622  33.806  1.00  0.00     0.063 H 
ATOM     73  C   UNL A   1      38.087  31.842  33.602  1.00  0.00    -0.053 A 
ATOM     74  H   UNL A   1      36.073  31.710  34.114  1.00  0.00     0.063 H 
ATOM     75  C   UNL A   1      39.008  32.702  33.022  1.00  0.00    -0.014 A 
ATOM     76  H   UNL A   1      39.514  34.722  32.616  1.00  0.00     0.063 H 
ATOM     77  H   UNL A   1      38.314  30.846  33.746  1.00  0.00     0.063 H 
BRANCH  75  78
ATOM     78  C   UNL A   1      40.150  32.068  32.386  1.00  0.00     0.031 A 
ATOM     79  C   UNL A   1      41.297  31.758  33.280  1.00  0.00     0.074 A 
ATOM     80  C   UNL A   1      40.038  31.554  31.141  1.00  0.00     0.049 A 
ATOM     81  N   UNL A   1      42.512  32.184  33.188  1.00  0.00    -0.248 NA
ATOM     82  C   UNL A   1      41.041  30.945  34.480  1.00  0.00    -0.034 C 
ATOM     83  C   UNL A   1      38.853  31.485  30.268  1.00  0.00    -0.036 A 
ATOM     84  N   UNL A   1      40.959  30.859  30.429  1.00  0.00    -0.354 N 
ATOM     85  C   UNL A   1      43.220  31.576  34.223  1.00  0.00     0.074 A 
ATOM     86  C   UNL A   1      42.239  30.949  35.069  1.00  0.00    -0.034 C 
ATOM     87  H   UNL A   1      40.166  30.491  34.786  1.00  0.00     0.065 H 
ATOM     88  C   UNL A   1      39.065  30.592  29.278  1.00  0.00    -0.036 A 
ATOM     89  H   UNL A   1      37.991  32.036  30.396  1.00  0.00     0.065 H 
ATOM     90  C   UNL A   1      40.451  30.177  29.331  1.00  0.00     0.049 A 
ATOM     91  H   UNL A   1      41.914  30.841  30.670  1.00  0.00     0.167 HD
ATOM     92  C   UNL A   1      44.578  31.471  34.186  1.00  0.00     0.037 A 
ATOM     93  H   UNL A   1      42.435  30.557  36.003  1.00  0.00     0.065 H 
ATOM     94  H   UNL A   1      38.360  30.263  28.600  1.00  0.00     0.065 H 
ATOM     95  C   UNL A   1      41.130  29.307  28.547  1.00  0.00     0.037 A 
ATOM     96  C   UNL A   1      45.138  32.359  33.198  1.00  0.00     0.049 A 
ATOM     97  C   UNL A   1      42.577  29.567  28.768  1.00  0.00     0.074 A 
ATOM     98  C   UNL A   1      45.160  33.730  33.038  1.00  0.00    -0.036 A 
ATOM     99  N   UNL A   1      45.452  31.839  31.965  1.00  0.00    -0.354 N 
ATOM    100  N   UNL A   1      43.172  30.675  28.417  1.00  0.00    -0.248 NA
ATOM    101  C   UNL A   1      43.242  28.807  29.816  1.00  0.00    -0.034 C 
ATOM    102  C   UNL A   1      44.977  33.940  31.639  1.00  0.00    -0.036 A 
ATOM    103  H   UNL A   1      45.283  34.447  33.770  1.00  0.00     0.065 H 
ATOM    104  C   UNL A   1      44.929  32.689  31.021  1.00  0.00     0.049 A 
ATOM    105  H   UNL A   1      45.958  31.013  31.790  1.00  0.00     0.167 HD
ATOM    106  C   UNL A   1      44.037  30.964  29.463  1.00  0.00     0.074 A 
ATOM    107  C   UNL A   1      44.089  29.739  30.261  1.00  0.00    -0.034 C 
ATOM    108  H   UNL A   1      43.100  27.832  30.125  1.00  0.00     0.065 H 
ATOM    109  H   UNL A   1      44.895  34.854  31.167  1.00  0.00     0.065 H 
ATOM    110  C   UNL A   1      44.398  32.249  29.751  1.00  0.00     0.037 A 
ATOM    111  H   UNL A   1      44.709  29.610  31.075  1.00  0.00     0.065 H 
BRANCH  92 112
ATOM    112  C   UNL A   1      45.383  30.356  34.805  1.00  0.00     0.064 A 
ATOM    113  C   UNL A   1      45.157  29.028  34.386  1.00  0.00     0.173 A 
ATOM    114  C   UNL A   1      46.154  30.498  35.979  1.00  0.00     0.173 A 
ATOM    115  F   UNL A   1      44.430  28.770  33.288  1.00  0.00    -0.203 F 
ATOM    116  C   UNL A   1      45.598  27.931  35.132  1.00  0.00     0.198 A 
ATOM    117  C   UNL A   1      46.639  29.402  36.690  1.00  0.00     0.198 A 
ATOM    118  F   UNL A   1      46.374  31.690  36.546  1.00  0.00    -0.203 F 
ATOM    119  F   UNL A   1      45.253  26.691  34.761  1.00  0.00    -0.200 F 
ATOM    120  C   UNL A   1      46.334  28.120  36.287  1.00  0.00     0.200 A 
ATOM    121  F   UNL A   1      47.339  29.606  37.816  1.00  0.00    -0.200 F 
ATOM    122  F   UNL A   1      46.706  27.074  37.036  1.00  0.00    -0.200 F 
ENDBRANCH  92 112
BRANCH  95 123
ATOM    123  C   UNL A   1      40.616  28.073  27.912  1.00  0.00     0.064 A 
ATOM    124  C   UNL A   1      41.066  27.665  26.648  1.00  0.00     0.173 A 
ATOM    125  C   UNL A   1      39.876  27.128  28.652  1.00  0.00     0.173 A 
ATOM    126  F   UNL A   1      41.814  28.490  25.903  1.00  0.00    -0.203 F 
ATOM    127  C   UNL A   1      40.811  26.377  26.162  1.00  0.00     0.198 A 
ATOM    128  C   UNL A   1      39.620  25.846  28.164  1.00  0.00     0.198 A 
ATOM    129  F   UNL A   1      39.472  27.398  29.902  1.00  0.00    -0.203 F 
ATOM    130  F   UNL A   1      41.308  26.002  24.975  1.00  0.00    -0.200 F 
ATOM    131  C   UNL A   1      40.098  25.467  26.924  1.00  0.00     0.200 A 
ATOM    132  F   UNL A   1      38.964  24.962  28.930  1.00  0.00    -0.200 F 
ATOM    133  F   UNL A   1      39.911  24.214  26.486  1.00  0.00    -0.200 F 
ENDBRANCH  95 123
BRANCH 110 134
ATOM    134  C   UNL A   1      43.999  33.328  28.776  1.00  0.00     0.064 A 
ATOM    135  C   UNL A   1      42.850  34.127  28.915  1.00  0.00     0.173 A 
ATOM    136  C   UNL A   1      44.894  33.673  27.756  1.00  0.00     0.173 A 
ATOM    137  F   UNL A   1      41.996  33.935  29.924  1.00  0.00    -0.203 F 
ATOM    138  C   UNL A   1      42.590  35.189  28.050  1.00  0.00     0.198 A 
ATOM    139  C   UNL A   1      44.652  34.756  26.915  1.00  0.00     0.198 A 
ATOM    140  F   UNL A   1      46.039  32.988  27.610  1.00  0.00    -0.203 F 
ATOM    141  F   UNL A   1      41.481  35.927  28.206  1.00  0.00    -0.200 F 
ATOM    142  C   UNL A   1      43.496  35.508  27.056  1.00  0.00     0.200 A 
ATOM    143  F   UNL A   1      45.558  35.094  25.987  1.00  0.00    -0.200 F 
ATOM    144  F   UNL A   1      43.271  36.556  26.250  1.00  0.00    -0.200 F 
ENDBRANCH 110 134
ENDBRANCH  75  78
ENDBRANCH  65  68
ENDBRANCH  61  64
ENDBRANCH  58  61
ENDBRANCH  55  58
ENDBRANCH  52  55
ENDBRANCH   1  52
TORSDOF 19
ENDMDL
MODEL 9
REMARK VINA RESULT:     -12.1      3.614      9.214
REMARK SMILES Cc1c(-c2nn(-c3ccccc3)cc2/C=N/O)nnn1-c1ccc(C(=O)NCCCCCCNC(=O)c2ccc(-c3c4nc(c(-c5c(F)c(F)c(F)c(F)c5F)c5ccc([nH]5)c(-c5c(F)c(F)c(F)c(F)c5F)c5nc(c(-c6c(F)c(F)c(F)c(F)c6F)c6ccc3[nH]6)C=C5)C=C4)cc2)cc1
REMARK SMILES IDX 29 1 28 4 27 7 25 8 26 9 24 11 21 12 22 13 101 14 23 15
REMARK SMILES IDX 100 17 20 21 2 22 3 23 18 24 19 25 1 26 4 30 5 31 14 32 6 33
REMARK SMILES IDX 13 34 15 36 16 37 17 39 7 41 8 42 12 43 9 44 11 46 10 48
REMARK SMILES IDX 30 52 31 55 32 58 33 61 34 64 35 65 36 67 37 68 38 69 99 70
REMARK SMILES IDX 39 71 98 73 40 75 41 78 42 79 92 80 43 81 97 82 91 83 93 84
REMARK SMILES IDX 44 85 96 86 90 88 89 90 45 92 77 95 57 96 76 97 58 98 61 99
REMARK SMILES IDX 75 100 94 101 59 102 60 104 74 106 95 107 62 110 46 112
REMARK SMILES IDX 47 113 55 114 48 115 49 116 53 117 56 118 50 119 51 120
REMARK SMILES IDX 54 121 52 122 78 123 79 124 87 125 80 126 81 127 85 128
REMARK SMILES IDX 88 129 82 130 83 131 86 132 84 133 63 134 64 135 72 136
REMARK SMILES IDX 65 137 66 138 70 139 73 140 67 141 68 142 71 143 69 144
REMARK H PARENT 29 2 29 3 28 5 28 6 27 10 22 16 101 18 23 19 100 20 1 27 1 28
REMARK H PARENT 1 29 13 35 15 38 17 40 8 45 12 47 9 49 11 50 10 51 30 53 30 54
REMARK H PARENT 31 56 31 57 32 59 32 60 33 62 33 63 34 66 38 72 99 74 39 76
REMARK H PARENT 98 77 97 87 91 89 93 91 96 93 90 94 58 103 61 105 94 108
REMARK H PARENT 59 109 95 111
REMARK Flexibility Score: inf
ROOT
ATOM      1  C   UNL A   1      36.176  20.723  25.493  1.00  0.00    -0.036 C 
ATOM      2  H   UNL A   1      36.623  20.437  26.421  1.00  0.00     0.028 H 
ATOM      3  H   UNL A   1      35.244  21.230  25.634  1.00  0.00     0.028 H 
ENDROOT
BRANCH   1   4
ATOM      4  C   UNL A   1      35.887  19.458  24.682  1.00  0.00     0.018 C 
ATOM      5  H   UNL A   1      35.958  19.682  23.637  1.00  0.00     0.049 H 
ATOM      6  H   UNL A   1      36.601  18.704  24.940  1.00  0.00     0.049 H 
BRANCH   4   7
ATOM      7  N   UNL A   1      34.555  18.974  24.978  1.00  0.00    -0.352 N 
ATOM      8  C   UNL A   1      33.386  19.579  25.354  1.00  0.00     0.251 C 
ATOM      9  O   UNL A   1      32.426  18.838  25.571  1.00  0.00    -0.269 OA
ATOM     10  H   UNL A   1      34.472  17.997  24.890  1.00  0.00     0.163 HD
BRANCH   8  11
ATOM     11  C   UNL A   1      33.193  21.056  25.443  1.00  0.00     0.039 A 
ATOM     12  C   UNL A   1      32.979  23.855  25.358  1.00  0.00     0.067 A 
ATOM     13  C   UNL A   1      32.820  23.117  24.185  1.00  0.00    -0.036 A 
ATOM     14  C   UNL A   1      33.165  23.206  26.581  1.00  0.00    -0.036 A 
ATOM     15  C   UNL A   1      32.967  21.729  24.229  1.00  0.00    -0.047 A 
ATOM     16  H   UNL A   1      32.597  23.591  23.296  1.00  0.00     0.065 H 
ATOM     17  C   UNL A   1      33.205  21.807  26.622  1.00  0.00    -0.047 A 
ATOM     18  H   UNL A   1      33.273  23.754  27.449  1.00  0.00     0.065 H 
ATOM     19  H   UNL A   1      32.908  21.187  23.353  1.00  0.00     0.063 H 
ATOM     20  H   UNL A   1      33.244  21.324  27.533  1.00  0.00     0.063 H 
BRANCH  12  21
ATOM     21  N   UNL A   1      32.896  25.261  25.306  1.00  0.00    -0.217 N 
ATOM     22  C   UNL A   1      31.776  26.067  25.347  1.00  0.00     0.071 A 
ATOM     23  C   UNL A   1      32.283  27.315  25.047  1.00  0.00     0.137 A 
ATOM     24  N   UNL A   1      33.642  27.265  24.948  1.00  0.00    -0.128 NA
ATOM     25  N   UNL A   1      34.015  26.014  25.188  1.00  0.00    -0.061 NA
BRANCH  22  26
ATOM     26  C   UNL A   1      30.422  25.625  25.754  1.00  0.00    -0.020 C 
ATOM     27  H   UNL A   1      29.773  25.636  24.903  1.00  0.00     0.030 H 
ATOM     28  H   UNL A   1      30.039  26.288  26.501  1.00  0.00     0.030 H 
ATOM     29  H   UNL A   1      30.473  24.633  26.150  1.00  0.00     0.030 H 
ENDBRANCH  22  26
BRANCH  23  30
ATOM     30  C   UNL A   1      31.573  28.583  24.956  1.00  0.00     0.124 A 
ATOM     31  N   UNL A   1      30.686  28.819  23.984  1.00  0.00    -0.165 NA
ATOM     32  C   UNL A   1      31.738  29.686  25.823  1.00  0.00     0.044 A 
ATOM     33  N   UNL A   1      30.335  30.111  24.154  1.00  0.00    -0.240 N 
ATOM     34  C   UNL A   1      30.950  30.669  25.251  1.00  0.00     0.040 A 
ATOM     35  H   UNL A   1      30.845  31.640  25.585  1.00  0.00     0.085 H 
BRANCH  32  36
ATOM     36  C   UNL A   1      32.511  29.846  27.028  1.00  0.00     0.077 C 
ATOM     37  N   UNL A   1      33.331  30.837  27.147  1.00  0.00    -0.097 NA
ATOM     38  H   UNL A   1      32.409  29.167  27.799  1.00  0.00     0.088 H 
BRANCH  37  39
ATOM     39  O   UNL A   1      33.980  30.755  28.384  1.00  0.00    -0.411 OA
ATOM     40  H   UNL A   1      34.233  31.536  28.834  1.00  0.00     0.330 HD
ENDBRANCH  37  39
ENDBRANCH  32  36
BRANCH  33  41
ATOM     41  C   UNL A   1      29.468  30.744  23.235  1.00  0.00     0.065 A 
ATOM     42  C   UNL A   1      29.015  30.026  22.118  1.00  0.00    -0.036 A 
ATOM     43  C   UNL A   1      29.094  32.080  23.414  1.00  0.00    -0.036 A 
ATOM     44  C   UNL A   1      28.171  30.641  21.195  1.00  0.00    -0.060 A 
ATOM     45  H   UNL A   1      29.306  29.046  21.982  1.00  0.00     0.065 H 
ATOM     46  C   UNL A   1      28.291  32.703  22.456  1.00  0.00    -0.060 A 
ATOM     47  H   UNL A   1      29.409  32.601  24.247  1.00  0.00     0.065 H 
ATOM     48  C   UNL A   1      27.822  31.981  21.356  1.00  0.00    -0.062 A 
ATOM     49  H   UNL A   1      27.805  30.104  20.393  1.00  0.00     0.062 H 
ATOM     50  H   UNL A   1      28.042  33.698  22.561  1.00  0.00     0.062 H 
ATOM     51  H   UNL A   1      27.215  32.442  20.660  1.00  0.00     0.062 H 
ENDBRANCH  33  41
ENDBRANCH  23  30
ENDBRANCH  12  21
ENDBRANCH   8  11
ENDBRANCH   4   7
ENDBRANCH   1   4
BRANCH   1  52
ATOM     52  C   UNL A   1      37.121  21.698  24.775  1.00  0.00    -0.052 C 
ATOM     53  H   UNL A   1      36.522  22.433  24.279  1.00  0.00     0.027 H 
ATOM     54  H   UNL A   1      37.710  21.101  24.110  1.00  0.00     0.027 H 
BRANCH  52  55
ATOM     55  C   UNL A   1      38.125  22.436  25.680  1.00  0.00    -0.052 C 
ATOM     56  H   UNL A   1      39.075  22.426  25.188  1.00  0.00     0.027 H 
ATOM     57  H   UNL A   1      38.107  21.912  26.614  1.00  0.00     0.027 H 
BRANCH  55  58
ATOM     58  C   UNL A   1      37.788  23.896  26.021  1.00  0.00    -0.036 C 
ATOM     59  H   UNL A   1      36.923  23.906  26.650  1.00  0.00     0.028 H 
ATOM     60  H   UNL A   1      37.619  24.407  25.096  1.00  0.00     0.028 H 
BRANCH  58  61
ATOM     61  C   UNL A   1      38.916  24.618  26.737  1.00  0.00     0.018 C 
ATOM     62  H   UNL A   1      39.022  24.202  27.717  1.00  0.00     0.049 H 
ATOM     63  H   UNL A   1      38.663  25.656  26.777  1.00  0.00     0.049 H 
BRANCH  61  64
ATOM     64  N   UNL A   1      40.197  24.493  26.030  1.00  0.00    -0.352 N 
ATOM     65  C   UNL A   1      41.173  25.452  25.845  1.00  0.00     0.251 C 
ATOM     66  H   UNL A   1      40.383  23.611  25.636  1.00  0.00     0.163 HD
ATOM     67  O   UNL A   1      42.021  25.345  24.961  1.00  0.00    -0.269 OA
BRANCH  65  68
ATOM     68  C   UNL A   1      41.187  26.607  26.751  1.00  0.00     0.039 A 
ATOM     69  C   UNL A   1      40.926  27.913  26.326  1.00  0.00    -0.049 A 
ATOM     70  C   UNL A   1      41.422  26.324  28.088  1.00  0.00    -0.049 A 
ATOM     71  C   UNL A   1      40.847  28.919  27.288  1.00  0.00    -0.053 A 
ATOM     72  H   UNL A   1      40.797  28.128  25.326  1.00  0.00     0.063 H 
ATOM     73  C   UNL A   1      41.083  27.244  29.031  1.00  0.00    -0.053 A 
ATOM     74  H   UNL A   1      41.851  25.427  28.364  1.00  0.00     0.063 H 
ATOM     75  C   UNL A   1      40.922  28.565  28.641  1.00  0.00    -0.014 A 
ATOM     76  H   UNL A   1      40.732  29.906  27.007  1.00  0.00     0.063 H 
ATOM     77  H   UNL A   1      40.946  26.964  30.015  1.00  0.00     0.063 H 
BRANCH  75  78
ATOM     78  C   UNL A   1      40.844  29.536  29.719  1.00  0.00     0.031 A 
ATOM     79  C   UNL A   1      39.566  30.288  29.820  1.00  0.00     0.074 A 
ATOM     80  C   UNL A   1      41.765  29.532  30.708  1.00  0.00     0.049 A 
ATOM     81  N   UNL A   1      39.388  31.565  29.748  1.00  0.00    -0.248 NA
ATOM     82  C   UNL A   1      38.315  29.519  29.922  1.00  0.00    -0.034 C 
ATOM     83  C   UNL A   1      42.898  28.613  30.918  1.00  0.00    -0.036 A 
ATOM     84  N   UNL A   1      41.807  30.297  31.827  1.00  0.00    -0.354 N 
ATOM     85  C   UNL A   1      38.026  31.783  29.950  1.00  0.00     0.074 A 
ATOM     86  C   UNL A   1      37.399  30.489  29.900  1.00  0.00    -0.034 C 
ATOM     87  H   UNL A   1      38.181  28.498  29.991  1.00  0.00     0.065 H 
ATOM     88  C   UNL A   1      43.348  28.722  32.186  1.00  0.00    -0.036 A 
ATOM     89  H   UNL A   1      43.288  27.981  30.202  1.00  0.00     0.065 H 
ATOM     90  C   UNL A   1      42.673  29.840  32.811  1.00  0.00     0.049 A 
ATOM     91  H   UNL A   1      41.265  31.113  31.933  1.00  0.00     0.167 HD
ATOM     92  C   UNL A   1      37.555  33.001  30.343  1.00  0.00     0.037 A 
ATOM     93  H   UNL A   1      36.380  30.333  29.854  1.00  0.00     0.065 H 
ATOM     94  H   UNL A   1      44.051  28.113  32.633  1.00  0.00     0.065 H 
ATOM     95  C   UNL A   1      42.794  30.340  34.064  1.00  0.00     0.037 A 
ATOM     96  C   UNL A   1      38.547  34.027  30.143  1.00  0.00     0.049 A 
ATOM     97  C   UNL A   1      42.205  31.705  34.041  1.00  0.00     0.074 A 
ATOM     98  C   UNL A   1      39.188  34.544  29.035  1.00  0.00    -0.036 A 
ATOM     99  N   UNL A   1      39.310  34.408  31.221  1.00  0.00    -0.354 N 
ATOM    100  N   UNL A   1      42.718  32.699  33.368  1.00  0.00    -0.248 NA
ATOM    101  C   UNL A   1      40.790  31.829  34.360  1.00  0.00    -0.034 C 
ATOM    102  C   UNL A   1      40.536  34.752  29.454  1.00  0.00    -0.036 A 
ATOM    103  H   UNL A   1      38.781  34.739  28.106  1.00  0.00     0.065 H 
ATOM    104  C   UNL A   1      40.620  34.421  30.806  1.00  0.00     0.049 A 
ATOM    105  H   UNL A   1      38.980  34.631  32.122  1.00  0.00     0.167 HD
ATOM    106  C   UNL A   1      41.627  33.361  32.823  1.00  0.00     0.074 A 
ATOM    107  C   UNL A   1      40.464  32.823  33.529  1.00  0.00    -0.034 C 
ATOM    108  H   UNL A   1      40.210  31.304  35.032  1.00  0.00     0.065 H 
ATOM    109  H   UNL A   1      41.311  35.086  28.861  1.00  0.00     0.065 H 
ATOM    110  C   UNL A   1      41.734  34.062  31.655  1.00  0.00     0.037 A 
ATOM    111  H   UNL A   1      39.502  33.170  33.399  1.00  0.00     0.065 H 
BRANCH  92 112
ATOM    112  C   UNL A   1      36.331  33.227  31.193  1.00  0.00     0.064 A 
ATOM    113  C   UNL A   1      35.215  33.885  30.634  1.00  0.00     0.173 A 
ATOM    114  C   UNL A   1      36.310  33.086  32.597  1.00  0.00     0.173 A 
ATOM    115  F   UNL A   1      35.130  34.084  29.310  1.00  0.00    -0.203 F 
ATOM    116  C   UNL A   1      34.202  34.429  31.429  1.00  0.00     0.198 A 
ATOM    117  C   UNL A   1      35.270  33.582  33.382  1.00  0.00     0.198 A 
ATOM    118  F   UNL A   1      37.340  32.566  33.276  1.00  0.00    -0.203 F 
ATOM    119  F   UNL A   1      33.226  35.152  30.862  1.00  0.00    -0.200 F 
ATOM    120  C   UNL A   1      34.234  34.283  32.803  1.00  0.00     0.200 A 
ATOM    121  F   UNL A   1      35.328  33.443  34.715  1.00  0.00    -0.200 F 
ATOM    122  F   UNL A   1      33.298  34.855  33.572  1.00  0.00    -0.200 F 
ENDBRANCH  92 112
BRANCH  95 123
ATOM    123  C   UNL A   1      43.058  29.591  35.313  1.00  0.00     0.064 A 
ATOM    124  C   UNL A   1      42.293  28.469  35.663  1.00  0.00     0.173 A 
ATOM    125  C   UNL A   1      44.241  29.801  36.050  1.00  0.00     0.173 A 
ATOM    126  F   UNL A   1      41.178  28.176  34.979  1.00  0.00    -0.203 F 
ATOM    127  C   UNL A   1      42.700  27.593  36.676  1.00  0.00     0.198 A 
ATOM    128  C   UNL A   1      44.644  28.929  37.063  1.00  0.00     0.198 A 
ATOM    129  F   UNL A   1      45.078  30.801  35.737  1.00  0.00    -0.203 F 
ATOM    130  F   UNL A   1      41.975  26.498  36.943  1.00  0.00    -0.200 F 
ATOM    131  C   UNL A   1      43.879  27.818  37.367  1.00  0.00     0.200 A 
ATOM    132  F   UNL A   1      45.809  29.136  37.694  1.00  0.00    -0.200 F 
ATOM    133  F   UNL A   1      44.302  26.944  38.292  1.00  0.00    -0.200 F 
ENDBRANCH  95 123
BRANCH 110 134
ATOM    134  C   UNL A   1      43.112  34.273  31.084  1.00  0.00     0.064 A 
ATOM    135  C   UNL A   1      43.703  33.429  30.125  1.00  0.00     0.173 A 
ATOM    136  C   UNL A   1      43.793  35.455  31.396  1.00  0.00     0.173 A 
ATOM    137  F   UNL A   1      43.074  32.334  29.691  1.00  0.00    -0.203 F 
ATOM    138  C   UNL A   1      44.932  33.734  29.542  1.00  0.00     0.198 A 
ATOM    139  C   UNL A   1      45.003  35.777  30.786  1.00  0.00     0.198 A 
ATOM    140  F   UNL A   1      43.254  36.332  32.257  1.00  0.00    -0.203 F 
ATOM    141  F   UNL A   1      45.471  32.905  28.636  1.00  0.00    -0.200 F 
ATOM    142  C   UNL A   1      45.577  34.913  29.867  1.00  0.00     0.200 A 
ATOM    143  F   UNL A   1      45.599  36.945  31.065  1.00  0.00    -0.200 F 
ATOM    144  F   UNL A   1      46.738  35.230  29.276  1.00  0.00    -0.200 F 
ENDBRANCH 110 134
ENDBRANCH  75  78
ENDBRANCH  65  68
ENDBRANCH  61  64
ENDBRANCH  58  61
ENDBRANCH  55  58
ENDBRANCH  52  55
ENDBRANCH   1  52
TORSDOF 19
ENDMDL
MODEL 10
REMARK VINA RESULT:     -12.0      2.646      4.611
REMARK SMILES Cc1c(-c2nn(-c3ccccc3)cc2/C=N/O)nnn1-c1ccc(C(=O)NCCCCCCNC(=O)c2ccc(-c3c4nc(c(-c5c(F)c(F)c(F)c(F)c5F)c5ccc([nH]5)c(-c5c(F)c(F)c(F)c(F)c5F)c5nc(c(-c6c(F)c(F)c(F)c(F)c6F)c6ccc3[nH]6)C=C5)C=C4)cc2)cc1
REMARK SMILES IDX 29 1 28 4 27 7 25 8 26 9 24 11 21 12 22 13 101 14 23 15
REMARK SMILES IDX 100 17 20 21 2 22 3 23 18 24 19 25 1 26 4 30 5 31 14 32 6 33
REMARK SMILES IDX 13 34 15 36 16 37 17 39 7 41 8 42 12 43 9 44 11 46 10 48
REMARK SMILES IDX 30 52 31 55 32 58 33 61 34 64 35 65 36 67 37 68 38 69 99 70
REMARK SMILES IDX 39 71 98 73 40 75 41 78 42 79 92 80 43 81 97 82 91 83 93 84
REMARK SMILES IDX 44 85 96 86 90 88 89 90 45 92 77 95 57 96 76 97 58 98 61 99
REMARK SMILES IDX 75 100 94 101 59 102 60 104 74 106 95 107 62 110 46 112
REMARK SMILES IDX 47 113 55 114 48 115 49 116 53 117 56 118 50 119 51 120
REMARK SMILES IDX 54 121 52 122 78 123 79 124 87 125 80 126 81 127 85 128
REMARK SMILES IDX 88 129 82 130 83 131 86 132 84 133 63 134 64 135 72 136
REMARK SMILES IDX 65 137 66 138 70 139 73 140 67 141 68 142 71 143 69 144
REMARK H PARENT 29 2 29 3 28 5 28 6 27 10 22 16 101 18 23 19 100 20 1 27 1 28
REMARK H PARENT 1 29 13 35 15 38 17 40 8 45 12 47 9 49 11 50 10 51 30 53 30 54
REMARK H PARENT 31 56 31 57 32 59 32 60 33 62 33 63 34 66 38 72 99 74 39 76
REMARK H PARENT 98 77 97 87 91 89 93 91 96 93 90 94 58 103 61 105 94 108
REMARK H PARENT 59 109 95 111
REMARK Flexibility Score: inf
ROOT
ATOM      1  C   UNL A   1      33.854  35.367  31.698  1.00  0.00    -0.036 C 
ATOM      2  H   UNL A   1      33.180  35.320  32.528  1.00  0.00     0.028 H 
ATOM      3  H   UNL A   1      34.221  36.359  31.534  1.00  0.00     0.028 H 
ENDROOT
BRANCH   1   4
ATOM      4  C   UNL A   1      33.100  34.946  30.435  1.00  0.00     0.018 C 
ATOM      5  H   UNL A   1      32.848  33.908  30.502  1.00  0.00     0.049 H 
ATOM      6  H   UNL A   1      32.208  35.530  30.346  1.00  0.00     0.049 H 
BRANCH   4   7
ATOM      7  N   UNL A   1      33.930  35.163  29.269  1.00  0.00    -0.352 N 
ATOM      8  C   UNL A   1      34.248  34.404  28.175  1.00  0.00     0.251 C 
ATOM      9  O   UNL A   1      35.042  34.898  27.373  1.00  0.00    -0.269 OA
ATOM     10  H   UNL A   1      34.359  36.049  29.261  1.00  0.00     0.163 HD
BRANCH   8  11
ATOM     11  C   UNL A   1      33.646  33.074  27.868  1.00  0.00     0.039 A 
ATOM     12  C   UNL A   1      32.784  30.479  27.224  1.00  0.00     0.067 A 
ATOM     13  C   UNL A   1      33.965  30.654  27.945  1.00  0.00    -0.036 A 
ATOM     14  C   UNL A   1      31.992  31.581  26.892  1.00  0.00    -0.036 A 
ATOM     15  C   UNL A   1      34.408  31.947  28.227  1.00  0.00    -0.047 A 
ATOM     16  H   UNL A   1      34.507  29.835  28.266  1.00  0.00     0.065 H 
ATOM     17  C   UNL A   1      32.398  32.866  27.274  1.00  0.00    -0.047 A 
ATOM     18  H   UNL A   1      31.113  31.450  26.367  1.00  0.00     0.065 H 
ATOM     19  H   UNL A   1      35.311  32.079  28.708  1.00  0.00     0.063 H 
ATOM     20  H   UNL A   1      31.768  33.667  27.116  1.00  0.00     0.063 H 
BRANCH  12  21
ATOM     21  N   UNL A   1      32.368  29.177  26.882  1.00  0.00    -0.217 N 
ATOM     22  C   UNL A   1      32.624  28.459  25.731  1.00  0.00     0.071 A 
ATOM     23  C   UNL A   1      31.800  27.359  25.865  1.00  0.00     0.137 A 
ATOM     24  N   UNL A   1      31.181  27.374  27.080  1.00  0.00    -0.128 NA
ATOM     25  N   UNL A   1      31.599  28.454  27.729  1.00  0.00    -0.061 NA
BRANCH  22  26
ATOM     26  C   UNL A   1      33.649  28.805  24.719  1.00  0.00    -0.020 C 
ATOM     27  H   UNL A   1      33.897  29.843  24.803  1.00  0.00     0.030 H 
ATOM     28  H   UNL A   1      33.265  28.609  23.740  1.00  0.00     0.030 H 
ATOM     29  H   UNL A   1      34.526  28.215  24.883  1.00  0.00     0.030 H 
ENDBRANCH  22  26
BRANCH  23  30
ATOM     30  C   UNL A   1      31.642  26.230  24.959  1.00  0.00     0.124 A 
ATOM     31  N   UNL A   1      32.115  25.018  25.265  1.00  0.00    -0.165 NA
ATOM     32  C   UNL A   1      31.023  26.270  23.690  1.00  0.00     0.044 A 
ATOM     33  N   UNL A   1      31.891  24.280  24.158  1.00  0.00    -0.240 N 
ATOM     34  C   UNL A   1      31.237  25.000  23.185  1.00  0.00     0.040 A 
ATOM     35  H   UNL A   1      30.957  24.657  22.252  1.00  0.00     0.085 H 
BRANCH  32  36
ATOM     36  C   UNL A   1      30.317  27.323  23.004  1.00  0.00     0.077 C 
ATOM     37  N   UNL A   1      30.936  28.070  22.152  1.00  0.00    -0.097 NA
ATOM     38  H   UNL A   1      29.315  27.479  23.194  1.00  0.00     0.088 H 
BRANCH  37  39
ATOM     39  O   UNL A   1      30.049  29.030  21.649  1.00  0.00    -0.411 OA
ATOM     40  H   UNL A   1      29.546  29.557  22.237  1.00  0.00     0.330 HD
ENDBRANCH  37  39
ENDBRANCH  32  36
BRANCH  33  41
ATOM     41  C   UNL A   1      32.354  22.946  24.081  1.00  0.00     0.065 A 
ATOM     42  C   UNL A   1      31.787  22.082  23.133  1.00  0.00    -0.036 A 
ATOM     43  C   UNL A   1      33.338  22.482  24.960  1.00  0.00    -0.036 A 
ATOM     44  C   UNL A   1      32.223  20.760  23.053  1.00  0.00    -0.060 A 
ATOM     45  H   UNL A   1      31.051  22.424  22.496  1.00  0.00     0.065 H 
ATOM     46  C   UNL A   1      33.730  21.143  24.907  1.00  0.00    -0.060 A 
ATOM     47  H   UNL A   1      33.770  23.124  25.643  1.00  0.00     0.065 H 
ATOM     48  C   UNL A   1      33.181  20.288  23.949  1.00  0.00    -0.062 A 
ATOM     49  H   UNL A   1      31.836  20.132  22.332  1.00  0.00     0.062 H 
ATOM     50  H   UNL A   1      34.426  20.784  25.577  1.00  0.00     0.062 H 
ATOM     51  H   UNL A   1      33.486  19.303  23.904  1.00  0.00     0.062 H 
ENDBRANCH  33  41
ENDBRANCH  23  30
ENDBRANCH  12  21
ENDBRANCH   8  11
ENDBRANCH   4   7
ENDBRANCH   1   4
BRANCH   1  52
ATOM     52  C   UNL A   1      35.067  34.476  32.004  1.00  0.00    -0.052 C 
ATOM     53  H   UNL A   1      35.453  34.762  32.960  1.00  0.00     0.027 H 
ATOM     54  H   UNL A   1      35.753  34.627  31.198  1.00  0.00     0.027 H 
BRANCH  52  55
ATOM     55  C   UNL A   1      34.785  32.962  32.040  1.00  0.00    -0.052 C 
ATOM     56  H   UNL A   1      34.668  32.628  31.031  1.00  0.00     0.027 H 
ATOM     57  H   UNL A   1      33.910  32.849  32.647  1.00  0.00     0.027 H 
BRANCH  55  58
ATOM     58  C   UNL A   1      35.860  32.086  32.703  1.00  0.00    -0.036 C 
ATOM     59  H   UNL A   1      35.491  31.084  32.766  1.00  0.00     0.028 H 
ATOM     60  H   UNL A   1      36.058  32.502  33.669  1.00  0.00     0.028 H 
BRANCH  58  61
ATOM     61  C   UNL A   1      37.173  32.071  31.940  1.00  0.00     0.018 C 
ATOM     62  H   UNL A   1      37.505  31.057  31.849  1.00  0.00     0.049 H 
ATOM     63  H   UNL A   1      37.874  32.665  32.486  1.00  0.00     0.049 H 
BRANCH  61  64
ATOM     64  N   UNL A   1      37.044  32.648  30.596  1.00  0.00    -0.352 N 
ATOM     65  C   UNL A   1      37.939  32.590  29.546  1.00  0.00     0.251 C 
ATOM     66  H   UNL A   1      36.210  33.141  30.420  1.00  0.00     0.163 HD
ATOM     67  O   UNL A   1      37.886  33.384  28.610  1.00  0.00    -0.269 OA
BRANCH  65  68
ATOM     68  C   UNL A   1      38.958  31.533  29.565  1.00  0.00     0.039 A 
ATOM     69  C   UNL A   1      40.282  31.756  29.954  1.00  0.00    -0.049 A 
ATOM     70  C   UNL A   1      38.518  30.263  29.222  1.00  0.00    -0.049 A 
ATOM     71  C   UNL A   1      41.138  30.660  30.051  1.00  0.00    -0.053 A 
ATOM     72  H   UNL A   1      40.618  32.708  30.164  1.00  0.00     0.063 H 
ATOM     73  C   UNL A   1      39.269  29.184  29.572  1.00  0.00    -0.053 A 
ATOM     74  H   UNL A   1      37.633  30.138  28.707  1.00  0.00     0.063 H 
ATOM     75  C   UNL A   1      40.612  29.375  29.861  1.00  0.00    -0.014 A 
ATOM     76  H   UNL A   1      42.140  30.793  30.260  1.00  0.00     0.063 H 
ATOM     77  H   UNL A   1      38.847  28.243  29.623  1.00  0.00     0.063 H 
BRANCH  75  78
ATOM     78  C   UNL A   1      41.417  28.169  29.946  1.00  0.00     0.031 A 
ATOM     79  C   UNL A   1      42.009  27.880  31.279  1.00  0.00     0.074 A 
ATOM     80  C   UNL A   1      41.380  27.254  28.952  1.00  0.00     0.049 A 
ATOM     81  N   UNL A   1      43.258  27.761  31.583  1.00  0.00    -0.248 NA
ATOM     82  C   UNL A   1      41.104  27.804  32.437  1.00  0.00    -0.034 C 
ATOM     83  C   UNL A   1      40.567  27.250  27.723  1.00  0.00    -0.036 A 
ATOM     84  N   UNL A   1      41.990  26.044  28.896  1.00  0.00    -0.354 N 
ATOM     85  C   UNL A   1      43.301  27.440  32.939  1.00  0.00     0.074 A 
ATOM     86  C   UNL A   1      41.966  27.629  33.441  1.00  0.00    -0.034 C 
ATOM     87  H   UNL A   1      40.074  27.870  32.466  1.00  0.00     0.065 H 
ATOM     88  C   UNL A   1      40.554  26.012  27.186  1.00  0.00    -0.036 A 
ATOM     89  H   UNL A   1      40.081  28.072  27.332  1.00  0.00     0.065 H 
ATOM     90  C   UNL A   1      41.501  25.193  27.913  1.00  0.00     0.049 A 
ATOM     91  H   UNL A   1      42.722  25.789  29.503  1.00  0.00     0.167 HD
ATOM     92  C   UNL A   1      44.398  26.851  33.493  1.00  0.00     0.037 A 
ATOM     93  H   UNL A   1      41.709  27.629  34.441  1.00  0.00     0.065 H 
ATOM     94  H   UNL A   1      39.970  25.702  26.394  1.00  0.00     0.065 H 
ATOM     95  C   UNL A   1      41.841  23.893  27.742  1.00  0.00     0.037 A 
ATOM     96  C   UNL A   1      45.542  26.969  32.624  1.00  0.00     0.049 A 
ATOM     97  C   UNL A   1      43.126  23.685  28.459  1.00  0.00     0.074 A 
ATOM     98  C   UNL A   1      46.267  28.035  32.127  1.00  0.00    -0.036 A 
ATOM     99  N   UNL A   1      45.855  25.902  31.817  1.00  0.00    -0.354 N 
ATOM    100  N   UNL A   1      44.249  24.245  28.100  1.00  0.00    -0.248 NA
ATOM    101  C   UNL A   1      43.056  23.260  29.849  1.00  0.00    -0.034 C 
ATOM    102  C   UNL A   1      46.559  27.681  30.776  1.00  0.00    -0.036 A 
ATOM    103  H   UNL A   1      46.538  28.898  32.623  1.00  0.00     0.065 H 
ATOM    104  C   UNL A   1      46.062  26.396  30.552  1.00  0.00     0.049 A 
ATOM    105  H   UNL A   1      45.921  24.959  32.094  1.00  0.00     0.167 HD
ATOM    106  C   UNL A   1      44.858  24.619  29.290  1.00  0.00     0.074 A 
ATOM    107  C   UNL A   1      44.110  23.920  30.335  1.00  0.00    -0.034 C 
ATOM    108  H   UNL A   1      42.387  22.631  30.320  1.00  0.00     0.065 H 
ATOM    109  H   UNL A   1      47.050  28.270  30.086  1.00  0.00     0.065 H 
ATOM    110  C   UNL A   1      45.716  25.681  29.345  1.00  0.00     0.037 A 
ATOM    111  H   UNL A   1      44.368  23.936  31.333  1.00  0.00     0.065 H 
BRANCH  92 112
ATOM    112  C   UNL A   1      44.379  25.898  34.661  1.00  0.00     0.064 A 
ATOM    113  C   UNL A   1      45.016  26.268  35.864  1.00  0.00     0.173 A 
ATOM    114  C   UNL A   1      44.015  24.537  34.562  1.00  0.00     0.173 A 
ATOM    115  F   UNL A   1      45.414  27.533  36.067  1.00  0.00    -0.203 F 
ATOM    116  C   UNL A   1      45.335  25.332  36.852  1.00  0.00     0.198 A 
ATOM    117  C   UNL A   1      44.287  23.617  35.573  1.00  0.00     0.198 A 
ATOM    118  F   UNL A   1      43.487  24.021  33.447  1.00  0.00    -0.203 F 
ATOM    119  F   UNL A   1      46.050  25.709  37.920  1.00  0.00    -0.200 F 
ATOM    120  C   UNL A   1      44.977  24.005  36.702  1.00  0.00     0.200 A 
ATOM    121  F   UNL A   1      43.943  22.332  35.402  1.00  0.00    -0.200 F 
ATOM    122  F   UNL A   1      45.335  23.095  37.616  1.00  0.00    -0.200 F 
ENDBRANCH  92 112
BRANCH  95 123
ATOM    123  C   UNL A   1      40.965  22.782  27.307  1.00  0.00     0.064 A 
ATOM    124  C   UNL A   1      39.626  23.006  26.955  1.00  0.00     0.173 A 
ATOM    125  C   UNL A   1      41.502  21.523  26.969  1.00  0.00     0.173 A 
ATOM    126  F   UNL A   1      39.057  24.194  27.202  1.00  0.00    -0.203 F 
ATOM    127  C   UNL A   1      38.875  22.036  26.282  1.00  0.00     0.198 A 
ATOM    128  C   UNL A   1      40.750  20.555  26.301  1.00  0.00     0.198 A 
ATOM    129  F   UNL A   1      42.795  21.244  27.193  1.00  0.00    -0.203 F 
ATOM    130  F   UNL A   1      37.617  22.307  25.908  1.00  0.00    -0.200 F 
ATOM    131  C   UNL A   1      39.440  20.817  25.947  1.00  0.00     0.200 A 
ATOM    132  F   UNL A   1      41.323  19.395  25.947  1.00  0.00    -0.200 F 
ATOM    133  F   UNL A   1      38.740  19.914  25.245  1.00  0.00    -0.200 F 
ENDBRANCH  95 123
BRANCH 110 134
ATOM    134  C   UNL A   1      46.145  26.308  28.043  1.00  0.00     0.064 A 
ATOM    135  C   UNL A   1      45.561  27.465  27.497  1.00  0.00     0.173 A 
ATOM    136  C   UNL A   1      47.291  25.814  27.409  1.00  0.00     0.173 A 
ATOM    137  F   UNL A   1      44.529  28.064  28.097  1.00  0.00    -0.203 F 
ATOM    138  C   UNL A   1      46.074  28.071  26.351  1.00  0.00     0.198 A 
ATOM    139  C   UNL A   1      47.825  26.440  26.285  1.00  0.00     0.198 A 
ATOM    140  F   UNL A   1      47.931  24.749  27.915  1.00  0.00    -0.203 F 
ATOM    141  F   UNL A   1      45.489  29.170  25.852  1.00  0.00    -0.200 F 
ATOM    142  C   UNL A   1      47.211  27.562  25.750  1.00  0.00     0.200 A 
ATOM    143  F   UNL A   1      48.956  25.975  25.738  1.00  0.00    -0.200 F 
ATOM    144  F   UNL A   1      47.732  28.168  24.674  1.00  0.00    -0.200 F 
ENDBRANCH 110 134
ENDBRANCH  75  78
ENDBRANCH  65  68
ENDBRANCH  61  64
ENDBRANCH  58  61
ENDBRANCH  55  58
ENDBRANCH  52  55
ENDBRANCH   1  52
TORSDOF 19
ENDMDL
