MODEL 1
REMARK VINA RESULT:     -11.8      0.000      0.000
REMARK SMILES C[C@H](C(=O)NCCCCCCNC(=O)c1ccc(-c2c3nc(c(-c4c(F)c(F)c(F)c(F)c4F)c4ccc([nH]4)c(-c4c(F)c(F)c(F)c(F)c4F)c4nc(c(-c5c(F)c(F)c(F)c(F)c5F)c5ccc2[nH]5)C=C4)C=C3)cc1)c1ccc2c(c1)OCCO2
REMARK SMILES IDX 9 1 8 4 7 7 6 10 5 13 3 14 4 15 2 17 1 19 78 23 79 24 83 25
REMARK SMILES IDX 80 26 82 28 81 30 84 32 87 33 85 34 86 35 10 40 11 43 12 46
REMARK SMILES IDX 13 47 14 49 15 50 16 51 77 52 17 53 76 55 18 57 19 60 20 61
REMARK SMILES IDX 70 62 21 63 75 64 69 65 71 66 22 67 74 68 68 70 67 72 23 74
REMARK SMILES IDX 55 77 35 78 54 79 36 80 39 81 53 82 72 83 37 84 38 86 52 88
REMARK SMILES IDX 73 89 40 92 24 94 25 95 33 96 26 97 27 98 31 99 34 100
REMARK SMILES IDX 28 101 29 102 32 103 30 104 56 105 57 106 65 107 58 108
REMARK SMILES IDX 59 109 63 110 66 111 60 112 61 113 64 114 62 115 41 116
REMARK SMILES IDX 42 117 50 118 43 119 44 120 48 121 51 122 45 123 46 124
REMARK SMILES IDX 49 125 47 126
REMARK H PARENT 9 2 9 3 8 5 8 6 7 8 7 9 6 11 6 12 5 16 2 18 1 20 1 21 1 22
REMARK H PARENT 79 27 83 29 80 31 85 36 85 37 86 38 86 39 10 41 10 42 11 44
REMARK H PARENT 11 45 12 48 16 54 77 56 17 58 76 59 75 69 69 71 71 73 74 75
REMARK H PARENT 68 76 36 85 39 87 72 90 37 91 73 93
REMARK Flexibility Score: inf
ROOT
ATOM      1  C   UNL A   1      31.403  30.303  26.098  1.00  0.00    -0.052 C 
ATOM      2  H   UNL A   1      30.456  29.988  25.714  1.00  0.00     0.027 H 
ATOM      3  H   UNL A   1      32.208  30.262  25.394  1.00  0.00     0.027 H 
ENDROOT
BRANCH   1   4
ATOM      4  C   UNL A   1      31.796  29.333  27.216  1.00  0.00    -0.052 C 
ATOM      5  H   UNL A   1      32.804  29.556  27.499  1.00  0.00     0.027 H 
ATOM      6  H   UNL A   1      31.069  29.485  27.987  1.00  0.00     0.027 H 
BRANCH   4   7
ATOM      7  C   UNL A   1      31.729  27.838  26.891  1.00  0.00    -0.036 C 
ATOM      8  H   UNL A   1      31.362  27.332  27.760  1.00  0.00     0.028 H 
ATOM      9  H   UNL A   1      31.094  27.765  26.032  1.00  0.00     0.028 H 
BRANCH   7  10
ATOM     10  C   UNL A   1      33.038  27.166  26.482  1.00  0.00     0.017 C 
ATOM     11  H   UNL A   1      33.764  27.933  26.309  1.00  0.00     0.049 H 
ATOM     12  H   UNL A   1      33.299  26.507  27.282  1.00  0.00     0.049 H 
BRANCH  10  13
ATOM     13  N   UNL A   1      32.960  26.343  25.286  1.00  0.00    -0.356 N 
ATOM     14  C   UNL A   1      32.943  26.694  23.962  1.00  0.00     0.227 C 
ATOM     15  O   UNL A   1      33.153  25.783  23.152  1.00  0.00    -0.274 OA
ATOM     16  H   UNL A   1      32.912  25.374  25.456  1.00  0.00     0.163 HD
BRANCH  14  17
ATOM     17  C   UNL A   1      32.565  28.101  23.447  1.00  0.00     0.060 C 
ATOM     18  H   UNL A   1      32.598  28.800  24.257  1.00  0.00     0.045 H 
BRANCH  17  19
ATOM     19  C   UNL A   1      33.607  28.455  22.376  1.00  0.00    -0.049 C 
ATOM     20  H   UNL A   1      33.162  29.093  21.641  1.00  0.00     0.024 H 
ATOM     21  H   UNL A   1      33.955  27.558  21.906  1.00  0.00     0.024 H 
ATOM     22  H   UNL A   1      34.432  28.961  22.834  1.00  0.00     0.024 H 
ENDBRANCH  17  19
BRANCH  17  23
ATOM     23  C   UNL A   1      31.116  28.277  23.003  1.00  0.00    -0.032 A 
ATOM     24  C   UNL A   1      30.076  27.479  23.521  1.00  0.00    -0.054 A 
ATOM     25  C   UNL A   1      30.779  29.352  22.170  1.00  0.00    -0.012 A 
ATOM     26  C   UNL A   1      28.750  27.904  23.440  1.00  0.00    -0.016 A 
ATOM     27  H   UNL A   1      30.298  26.575  23.965  1.00  0.00     0.063 H 
ATOM     28  C   UNL A   1      29.483  29.849  22.207  1.00  0.00     0.161 A 
ATOM     29  H   UNL A   1      31.483  29.768  21.539  1.00  0.00     0.067 H 
ATOM     30  C   UNL A   1      28.486  29.146  22.884  1.00  0.00     0.161 A 
ATOM     31  H   UNL A   1      27.982  27.307  23.785  1.00  0.00     0.066 H 
ATOM     32  O   UNL A   1      29.315  31.124  21.734  1.00  0.00    -0.486 OA
ATOM     33  O   UNL A   1      27.277  29.731  23.167  1.00  0.00    -0.486 OA
ATOM     34  C   UNL A   1      28.184  31.801  22.300  1.00  0.00     0.122 C 
ATOM     35  C   UNL A   1      27.564  31.095  23.500  1.00  0.00     0.122 C 
ATOM     36  H   UNL A   1      27.435  31.893  21.542  1.00  0.00     0.074 H 
ATOM     37  H   UNL A   1      28.538  32.748  22.651  1.00  0.00     0.074 H 
ATOM     38  H   UNL A   1      26.658  31.591  23.776  1.00  0.00     0.074 H 
ATOM     39  H   UNL A   1      28.253  31.120  24.320  1.00  0.00     0.074 H 
ENDBRANCH  17  23
ENDBRANCH  14  17
ENDBRANCH  10  13
ENDBRANCH   7  10
ENDBRANCH   4   7
ENDBRANCH   1   4
BRANCH   1  40
ATOM     40  C   UNL A   1      31.280  31.781  26.482  1.00  0.00    -0.036 C 
ATOM     41  H   UNL A   1      30.607  31.846  27.311  1.00  0.00     0.028 H 
ATOM     42  H   UNL A   1      30.945  32.275  25.594  1.00  0.00     0.028 H 
BRANCH  40  43
ATOM     43  C   UNL A   1      32.571  32.498  26.876  1.00  0.00     0.018 C 
ATOM     44  H   UNL A   1      33.189  32.584  26.006  1.00  0.00     0.049 H 
ATOM     45  H   UNL A   1      33.031  31.914  27.646  1.00  0.00     0.049 H 
BRANCH  43  46
ATOM     46  N   UNL A   1      32.357  33.828  27.421  1.00  0.00    -0.352 N 
ATOM     47  C   UNL A   1      33.024  34.512  28.405  1.00  0.00     0.251 C 
ATOM     48  H   UNL A   1      31.607  34.320  27.016  1.00  0.00     0.163 HD
ATOM     49  O   UNL A   1      32.593  35.612  28.765  1.00  0.00    -0.269 OA
BRANCH  47  50
ATOM     50  C   UNL A   1      34.226  33.959  29.074  1.00  0.00     0.039 A 
ATOM     51  C   UNL A   1      34.043  32.969  30.046  1.00  0.00    -0.049 A 
ATOM     52  C   UNL A   1      35.517  34.420  28.803  1.00  0.00    -0.049 A 
ATOM     53  C   UNL A   1      35.146  32.404  30.694  1.00  0.00    -0.053 A 
ATOM     54  H   UNL A   1      33.090  32.655  30.287  1.00  0.00     0.063 H 
ATOM     55  C   UNL A   1      36.624  33.807  29.399  1.00  0.00    -0.053 A 
ATOM     56  H   UNL A   1      35.655  35.216  28.160  1.00  0.00     0.063 H 
ATOM     57  C   UNL A   1      36.452  32.790  30.350  1.00  0.00    -0.014 A 
ATOM     58  H   UNL A   1      34.999  31.698  31.433  1.00  0.00     0.063 H 
ATOM     59  H   UNL A   1      37.577  34.105  29.137  1.00  0.00     0.063 H 
BRANCH  57  60
ATOM     60  C   UNL A   1      37.626  32.113  30.968  1.00  0.00     0.031 A 
ATOM     61  C   UNL A   1      38.104  32.491  32.344  1.00  0.00     0.074 A 
ATOM     62  C   UNL A   1      38.283  31.164  30.271  1.00  0.00     0.049 A 
ATOM     63  N   UNL A   1      39.107  32.004  33.035  1.00  0.00    -0.248 NA
ATOM     64  C   UNL A   1      37.377  33.570  33.028  1.00  0.00    -0.034 C 
ATOM     65  C   UNL A   1      37.958  30.744  28.907  1.00  0.00    -0.036 A 
ATOM     66  N   UNL A   1      39.360  30.383  30.611  1.00  0.00    -0.354 N 
ATOM     67  C   UNL A   1      39.123  32.709  34.232  1.00  0.00     0.074 A 
ATOM     68  C   UNL A   1      38.073  33.702  34.149  1.00  0.00    -0.034 C 
ATOM     69  H   UNL A   1      36.541  34.090  32.718  1.00  0.00     0.065 H 
ATOM     70  C   UNL A   1      38.801  29.767  28.536  1.00  0.00    -0.036 A 
ATOM     71  H   UNL A   1      37.202  31.136  28.325  1.00  0.00     0.065 H 
ATOM     72  C   UNL A   1      39.745  29.513  29.620  1.00  0.00     0.049 A 
ATOM     73  H   UNL A   1      39.815  30.441  31.483  1.00  0.00     0.167 HD
ATOM     74  C   UNL A   1      39.920  32.527  35.313  1.00  0.00     0.037 A 
ATOM     75  H   UNL A   1      37.891  34.419  34.868  1.00  0.00     0.065 H 
ATOM     76  H   UNL A   1      38.782  29.274  27.629  1.00  0.00     0.065 H 
ATOM     77  C   UNL A   1      40.745  28.612  29.584  1.00  0.00     0.037 A 
ATOM     78  C   UNL A   1      40.964  31.536  35.401  1.00  0.00     0.049 A 
ATOM     79  C   UNL A   1      41.619  28.434  30.797  1.00  0.00     0.074 A 
ATOM     80  C   UNL A   1      41.804  31.258  36.466  1.00  0.00    -0.036 A 
ATOM     81  N   UNL A   1      41.310  30.661  34.382  1.00  0.00    -0.354 N 
ATOM     82  N   UNL A   1      41.579  29.064  31.946  1.00  0.00    -0.248 NA
ATOM     83  C   UNL A   1      42.668  27.408  30.712  1.00  0.00    -0.034 C 
ATOM     84  C   UNL A   1      42.687  30.244  36.077  1.00  0.00    -0.036 A 
ATOM     85  H   UNL A   1      41.784  31.719  37.388  1.00  0.00     0.065 H 
ATOM     86  C   UNL A   1      42.362  29.852  34.788  1.00  0.00     0.049 A 
ATOM     87  H   UNL A   1      40.874  30.619  33.501  1.00  0.00     0.167 HD
ATOM     88  C   UNL A   1      42.578  28.498  32.726  1.00  0.00     0.074 A 
ATOM     89  C   UNL A   1      43.188  27.453  31.930  1.00  0.00    -0.034 C 
ATOM     90  H   UNL A   1      42.931  26.810  29.913  1.00  0.00     0.065 H 
ATOM     91  H   UNL A   1      43.450  29.854  36.651  1.00  0.00     0.065 H 
ATOM     92  C   UNL A   1      42.961  28.817  33.986  1.00  0.00     0.037 A 
ATOM     93  H   UNL A   1      43.932  26.824  32.268  1.00  0.00     0.065 H 
BRANCH  74  94
ATOM     94  C   UNL A   1      39.685  33.408  36.507  1.00  0.00     0.064 A 
ATOM     95  C   UNL A   1      40.299  34.664  36.620  1.00  0.00     0.173 A 
ATOM     96  C   UNL A   1      38.794  33.022  37.521  1.00  0.00     0.173 A 
ATOM     97  F   UNL A   1      41.165  35.078  35.683  1.00  0.00    -0.203 F 
ATOM     98  C   UNL A   1      40.050  35.491  37.713  1.00  0.00     0.198 A 
ATOM     99  C   UNL A   1      38.524  33.863  38.597  1.00  0.00     0.198 A 
ATOM    100  F   UNL A   1      38.175  31.833  37.461  1.00  0.00    -0.203 F 
ATOM    101  F   UNL A   1      40.682  36.668  37.819  1.00  0.00    -0.200 F 
ATOM    102  C   UNL A   1      39.157  35.094  38.697  1.00  0.00     0.200 A 
ATOM    103  F   UNL A   1      37.650  33.484  39.540  1.00  0.00    -0.200 F 
ATOM    104  F   UNL A   1      38.909  35.894  39.742  1.00  0.00    -0.200 F 
ENDBRANCH  74  94
BRANCH  77 105
ATOM    105  C   UNL A   1      40.971  27.797  28.361  1.00  0.00     0.064 A 
ATOM    106  C   UNL A   1      40.361  26.544  28.199  1.00  0.00     0.173 A 
ATOM    107  C   UNL A   1      41.822  28.242  27.338  1.00  0.00     0.173 A 
ATOM    108  F   UNL A   1      39.554  26.064  29.158  1.00  0.00    -0.203 F 
ATOM    109  C   UNL A   1      40.617  25.757  27.078  1.00  0.00     0.198 A 
ATOM    110  C   UNL A   1      42.050  27.469  26.202  1.00  0.00     0.198 A 
ATOM    111  F   UNL A   1      42.425  29.436  27.439  1.00  0.00    -0.203 F 
ATOM    112  F   UNL A   1      40.067  24.539  26.978  1.00  0.00    -0.200 F 
ATOM    113  C   UNL A   1      41.458  26.222  26.079  1.00  0.00     0.200 A 
ATOM    114  F   UNL A   1      42.850  27.930  25.231  1.00  0.00    -0.200 F 
ATOM    115  F   UNL A   1      41.703  25.465  25.001  1.00  0.00    -0.200 F 
ENDBRANCH  77 105
BRANCH  92 116
ATOM    116  C   UNL A   1      44.075  28.009  34.590  1.00  0.00     0.064 A 
ATOM    117  C   UNL A   1      43.826  26.812  35.281  1.00  0.00     0.173 A 
ATOM    118  C   UNL A   1      45.409  28.428  34.467  1.00  0.00     0.173 A 
ATOM    119  F   UNL A   1      42.569  26.374  35.440  1.00  0.00    -0.203 F 
ATOM    120  C   UNL A   1      44.866  26.090  35.860  1.00  0.00     0.198 A 
ATOM    121  C   UNL A   1      46.449  27.686  35.017  1.00  0.00     0.198 A 
ATOM    122  F   UNL A   1      45.703  29.559  33.809  1.00  0.00    -0.203 F 
ATOM    123  F   UNL A   1      44.597  24.985  36.569  1.00  0.00    -0.200 F 
ATOM    124  C   UNL A   1      46.176  26.523  35.724  1.00  0.00     0.200 A 
ATOM    125  F   UNL A   1      47.715  28.098  34.873  1.00  0.00    -0.200 F 
ATOM    126  F   UNL A   1      47.175  25.827  36.282  1.00  0.00    -0.200 F 
ENDBRANCH  92 116
ENDBRANCH  57  60
ENDBRANCH  47  50
ENDBRANCH  43  46
ENDBRANCH  40  43
ENDBRANCH   1  40
TORSDOF 15
ENDMDL
MODEL 2
REMARK VINA RESULT:     -11.8      0.263      1.631
REMARK SMILES C[C@H](C(=O)NCCCCCCNC(=O)c1ccc(-c2c3nc(c(-c4c(F)c(F)c(F)c(F)c4F)c4ccc([nH]4)c(-c4c(F)c(F)c(F)c(F)c4F)c4nc(c(-c5c(F)c(F)c(F)c(F)c5F)c5ccc2[nH]5)C=C4)C=C3)cc1)c1ccc2c(c1)OCCO2
REMARK SMILES IDX 9 1 8 4 7 7 6 10 5 13 3 14 4 15 2 17 1 19 78 23 79 24 83 25
REMARK SMILES IDX 80 26 82 28 81 30 84 32 87 33 85 34 86 35 10 40 11 43 12 46
REMARK SMILES IDX 13 47 14 49 15 50 16 51 77 52 17 53 76 55 18 57 19 60 20 61
REMARK SMILES IDX 70 62 21 63 75 64 69 65 71 66 22 67 74 68 68 70 67 72 23 74
REMARK SMILES IDX 55 77 35 78 54 79 36 80 39 81 53 82 72 83 37 84 38 86 52 88
REMARK SMILES IDX 73 89 40 92 24 94 25 95 33 96 26 97 27 98 31 99 34 100
REMARK SMILES IDX 28 101 29 102 32 103 30 104 56 105 57 106 65 107 58 108
REMARK SMILES IDX 59 109 63 110 66 111 60 112 61 113 64 114 62 115 41 116
REMARK SMILES IDX 42 117 50 118 43 119 44 120 48 121 51 122 45 123 46 124
REMARK SMILES IDX 49 125 47 126
REMARK H PARENT 9 2 9 3 8 5 8 6 7 8 7 9 6 11 6 12 5 16 2 18 1 20 1 21 1 22
REMARK H PARENT 79 27 83 29 80 31 85 36 85 37 86 38 86 39 10 41 10 42 11 44
REMARK H PARENT 11 45 12 48 16 54 77 56 17 58 76 59 75 69 69 71 71 73 74 75
REMARK H PARENT 68 76 36 85 39 87 72 90 37 91 73 93
REMARK Flexibility Score: inf
ROOT
ATOM      1  C   UNL A   1      31.403  30.732  26.048  1.00  0.00    -0.052 C 
ATOM      2  H   UNL A   1      30.411  30.352  25.915  1.00  0.00     0.027 H 
ATOM      3  H   UNL A   1      31.993  30.763  25.156  1.00  0.00     0.027 H 
ENDROOT
BRANCH   1   4
ATOM      4  C   UNL A   1      32.143  29.774  26.986  1.00  0.00    -0.052 C 
ATOM      5  H   UNL A   1      33.193  29.908  26.824  1.00  0.00     0.027 H 
ATOM      6  H   UNL A   1      31.806  30.030  27.970  1.00  0.00     0.027 H 
BRANCH   4   7
ATOM      7  C   UNL A   1      31.839  28.281  26.834  1.00  0.00    -0.036 C 
ATOM      8  H   UNL A   1      31.429  27.937  27.760  1.00  0.00     0.028 H 
ATOM      9  H   UNL A   1      31.172  28.213  26.000  1.00  0.00     0.028 H 
BRANCH   7  10
ATOM     10  C   UNL A   1      33.017  27.375  26.482  1.00  0.00     0.017 C 
ATOM     11  H   UNL A   1      33.862  27.997  26.271  1.00  0.00     0.049 H 
ATOM     12  H   UNL A   1      33.163  26.733  27.326  1.00  0.00     0.049 H 
BRANCH  10  13
ATOM     13  N   UNL A   1      32.803  26.502  25.340  1.00  0.00    -0.356 N 
ATOM     14  C   UNL A   1      32.714  26.789  24.003  1.00  0.00     0.227 C 
ATOM     15  O   UNL A   1      32.808  25.828  23.230  1.00  0.00    -0.274 OA
ATOM     16  H   UNL A   1      32.705  25.548  25.563  1.00  0.00     0.163 HD
BRANCH  14  17
ATOM     17  C   UNL A   1      32.391  28.193  23.441  1.00  0.00     0.060 C 
ATOM     18  H   UNL A   1      32.437  28.914  24.231  1.00  0.00     0.045 H 
BRANCH  17  19
ATOM     19  C   UNL A   1      33.460  28.479  22.376  1.00  0.00    -0.049 C 
ATOM     20  H   UNL A   1      33.098  28.173  21.417  1.00  0.00     0.024 H 
ATOM     21  H   UNL A   1      34.352  27.936  22.611  1.00  0.00     0.024 H 
ATOM     22  H   UNL A   1      33.674  29.527  22.359  1.00  0.00     0.024 H 
ENDBRANCH  17  19
BRANCH  17  23
ATOM     23  C   UNL A   1      30.955  28.403  22.972  1.00  0.00    -0.032 A 
ATOM     24  C   UNL A   1      29.899  27.580  23.410  1.00  0.00    -0.054 A 
ATOM     25  C   UNL A   1      30.645  29.530  22.199  1.00  0.00    -0.012 A 
ATOM     26  C   UNL A   1      28.578  28.015  23.321  1.00  0.00    -0.016 A 
ATOM     27  H   UNL A   1      30.106  26.648  23.802  1.00  0.00     0.063 H 
ATOM     28  C   UNL A   1      29.350  30.031  22.233  1.00  0.00     0.161 A 
ATOM     29  H   UNL A   1      31.367  29.981  21.615  1.00  0.00     0.067 H 
ATOM     30  C   UNL A   1      28.333  29.291  22.837  1.00  0.00     0.161 A 
ATOM     31  H   UNL A   1      27.799  27.402  23.607  1.00  0.00     0.066 H 
ATOM     32  O   UNL A   1      29.199  31.333  21.837  1.00  0.00    -0.486 OA
ATOM     33  O   UNL A   1      27.118  29.863  23.124  1.00  0.00    -0.486 OA
ATOM     34  C   UNL A   1      28.056  31.979  22.415  1.00  0.00     0.122 C 
ATOM     35  C   UNL A   1      27.401  31.202  23.551  1.00  0.00     0.122 C 
ATOM     36  H   UNL A   1      27.327  32.122  21.643  1.00  0.00     0.074 H 
ATOM     37  H   UNL A   1      28.403  32.900  22.833  1.00  0.00     0.074 H 
ATOM     38  H   UNL A   1      26.490  31.685  23.833  1.00  0.00     0.074 H 
ATOM     39  H   UNL A   1      28.068  31.172  24.388  1.00  0.00     0.074 H 
ENDBRANCH  17  23
ENDBRANCH  14  17
ENDBRANCH  10  13
ENDBRANCH   7  10
ENDBRANCH   4   7
ENDBRANCH   1   4
BRANCH   1  40
ATOM     40  C   UNL A   1      31.285  32.189  26.504  1.00  0.00    -0.036 C 
ATOM     41  H   UNL A   1      30.567  32.224  27.296  1.00  0.00     0.028 H 
ATOM     42  H   UNL A   1      31.010  32.736  25.627  1.00  0.00     0.028 H 
BRANCH  40  43
ATOM     43  C   UNL A   1      32.565  32.856  27.008  1.00  0.00     0.018 C 
ATOM     44  H   UNL A   1      33.229  32.984  26.178  1.00  0.00     0.049 H 
ATOM     45  H   UNL A   1      32.975  32.217  27.763  1.00  0.00     0.049 H 
BRANCH  43  46
ATOM     46  N   UNL A   1      32.343  34.153  27.624  1.00  0.00    -0.352 N 
ATOM     47  C   UNL A   1      33.005  34.787  28.644  1.00  0.00     0.251 C 
ATOM     48  H   UNL A   1      31.591  34.663  27.245  1.00  0.00     0.163 HD
ATOM     49  O   UNL A   1      32.569  35.863  29.063  1.00  0.00    -0.269 OA
BRANCH  47  50
ATOM     50  C   UNL A   1      34.209  34.204  29.284  1.00  0.00     0.039 A 
ATOM     51  C   UNL A   1      34.028  33.349  30.377  1.00  0.00    -0.049 A 
ATOM     52  C   UNL A   1      35.507  34.513  28.867  1.00  0.00    -0.049 A 
ATOM     53  C   UNL A   1      35.131  32.761  31.005  1.00  0.00    -0.053 A 
ATOM     54  H   UNL A   1      33.076  33.151  30.722  1.00  0.00     0.063 H 
ATOM     55  C   UNL A   1      36.605  33.872  29.449  1.00  0.00    -0.053 A 
ATOM     56  H   UNL A   1      35.656  35.217  28.127  1.00  0.00     0.063 H 
ATOM     57  C   UNL A   1      36.431  32.986  30.523  1.00  0.00    -0.014 A 
ATOM     58  H   UNL A   1      34.988  32.158  31.830  1.00  0.00     0.063 H 
ATOM     59  H   UNL A   1      37.555  34.051  29.085  1.00  0.00     0.063 H 
BRANCH  57  60
ATOM     60  C   UNL A   1      37.593  32.279  31.129  1.00  0.00     0.031 A 
ATOM     61  C   UNL A   1      38.093  32.641  32.501  1.00  0.00     0.074 A 
ATOM     62  C   UNL A   1      38.219  31.315  30.424  1.00  0.00     0.049 A 
ATOM     63  N   UNL A   1      39.089  32.127  33.182  1.00  0.00    -0.248 NA
ATOM     64  C   UNL A   1      37.399  33.736  33.194  1.00  0.00    -0.034 C 
ATOM     65  C   UNL A   1      37.872  30.906  29.062  1.00  0.00    -0.036 A 
ATOM     66  N   UNL A   1      39.279  30.506  30.752  1.00  0.00    -0.354 N 
ATOM     67  C   UNL A   1      39.134  32.828  34.380  1.00  0.00     0.074 A 
ATOM     68  C   UNL A   1      38.109  33.847  34.309  1.00  0.00    -0.034 C 
ATOM     69  H   UNL A   1      36.574  34.278  32.893  1.00  0.00     0.065 H 
ATOM     70  C   UNL A   1      38.686  29.909  28.681  1.00  0.00    -0.036 A 
ATOM     71  H   UNL A   1      37.120  31.319  28.487  1.00  0.00     0.065 H 
ATOM     72  C   UNL A   1      39.633  29.629  29.755  1.00  0.00     0.049 A 
ATOM     73  H   UNL A   1      39.743  30.550  31.620  1.00  0.00     0.167 HD
ATOM     74  C   UNL A   1      39.936  32.623  35.454  1.00  0.00     0.037 A 
ATOM     75  H   UNL A   1      37.951  34.567  35.031  1.00  0.00     0.065 H 
ATOM     76  H   UNL A   1      38.646  29.419  27.773  1.00  0.00     0.065 H 
ATOM     77  C   UNL A   1      40.609  28.703  29.709  1.00  0.00     0.037 A 
ATOM     78  C   UNL A   1      40.954  31.605  35.530  1.00  0.00     0.049 A 
ATOM     79  C   UNL A   1      41.489  28.499  30.913  1.00  0.00     0.074 A 
ATOM     80  C   UNL A   1      41.797  31.304  36.586  1.00  0.00    -0.036 A 
ATOM     81  N   UNL A   1      41.269  30.725  34.506  1.00  0.00    -0.354 N 
ATOM     82  N   UNL A   1      41.476  29.127  32.063  1.00  0.00    -0.248 NA
ATOM     83  C   UNL A   1      42.511  27.448  30.816  1.00  0.00    -0.034 C 
ATOM     84  C   UNL A   1      42.650  30.269  36.187  1.00  0.00    -0.036 A 
ATOM     85  H   UNL A   1      41.797  31.763  37.510  1.00  0.00     0.065 H 
ATOM     86  C   UNL A   1      42.304  29.889  34.900  1.00  0.00     0.049 A 
ATOM     87  H   UNL A   1      40.825  30.696  33.628  1.00  0.00     0.167 HD
ATOM     88  C   UNL A   1      42.467  28.534  32.834  1.00  0.00     0.074 A 
ATOM     89  C   UNL A   1      43.043  27.477  32.029  1.00  0.00    -0.034 C 
ATOM     90  H   UNL A   1      42.751  26.845  30.014  1.00  0.00     0.065 H 
ATOM     91  H   UNL A   1      43.408  29.858  36.753  1.00  0.00     0.065 H 
ATOM     92  C   UNL A   1      42.870  28.840  34.091  1.00  0.00     0.037 A 
ATOM     93  H   UNL A   1      43.774  26.828  32.359  1.00  0.00     0.065 H 
BRANCH  74  94
ATOM     94  C   UNL A   1      39.734  33.507  36.652  1.00  0.00     0.064 A 
ATOM     95  C   UNL A   1      40.373  34.751  36.757  1.00  0.00     0.173 A 
ATOM     96  C   UNL A   1      38.850  33.136  37.678  1.00  0.00     0.173 A 
ATOM     97  F   UNL A   1      41.234  35.150  35.809  1.00  0.00    -0.203 F 
ATOM     98  C   UNL A   1      40.155  35.581  37.855  1.00  0.00     0.198 A 
ATOM     99  C   UNL A   1      38.611  33.981  38.758  1.00  0.00     0.198 A 
ATOM    100  F   UNL A   1      38.207  31.959  37.625  1.00  0.00    -0.203 F 
ATOM    101  F   UNL A   1      40.810  36.746  37.953  1.00  0.00    -0.200 F 
ATOM    102  C   UNL A   1      39.268  35.199  38.850  1.00  0.00     0.200 A 
ATOM    103  F   UNL A   1      37.743  33.617  39.713  1.00  0.00    -0.200 F 
ATOM    104  F   UNL A   1      39.050  36.003  39.899  1.00  0.00    -0.200 F 
ENDBRANCH  74  94
BRANCH  77 105
ATOM    105  C   UNL A   1      40.804  27.885  28.482  1.00  0.00     0.064 A 
ATOM    106  C   UNL A   1      41.624  28.330  27.434  1.00  0.00     0.173 A 
ATOM    107  C   UNL A   1      40.155  26.652  28.319  1.00  0.00     0.173 A 
ATOM    108  F   UNL A   1      42.251  29.513  27.532  1.00  0.00    -0.203 F 
ATOM    109  C   UNL A   1      41.761  27.590  26.262  1.00  0.00     0.198 A 
ATOM    110  C   UNL A   1      40.320  25.897  27.161  1.00  0.00     0.198 A 
ATOM    111  F   UNL A   1      39.365  26.176  29.293  1.00  0.00    -0.203 F 
ATOM    112  F   UNL A   1      42.504  28.068  25.254  1.00  0.00    -0.200 F 
ATOM    113  C   UNL A   1      41.114  26.372  26.128  1.00  0.00     0.200 A 
ATOM    114  F   UNL A   1      39.706  24.712  27.043  1.00  0.00    -0.200 F 
ATOM    115  F   UNL A   1      41.247  25.660  25.001  1.00  0.00    -0.200 F 
ENDBRANCH  77 105
BRANCH  92 116
ATOM    116  C   UNL A   1      43.968  28.003  34.682  1.00  0.00     0.064 A 
ATOM    117  C   UNL A   1      45.318  28.369  34.565  1.00  0.00     0.173 A 
ATOM    118  C   UNL A   1      43.668  26.825  35.384  1.00  0.00     0.173 A 
ATOM    119  F   UNL A   1      45.661  29.478  33.892  1.00  0.00    -0.203 F 
ATOM    120  C   UNL A   1      46.327  27.567  35.092  1.00  0.00     0.198 A 
ATOM    121  C   UNL A   1      44.676  26.044  35.939  1.00  0.00     0.198 A 
ATOM    122  F   UNL A   1      42.394  26.433  35.532  1.00  0.00    -0.203 F 
ATOM    123  F   UNL A   1      47.611  27.905  34.913  1.00  0.00    -0.200 F 
ATOM    124  C   UNL A   1      46.006  26.408  35.783  1.00  0.00     0.200 A 
ATOM    125  F   UNL A   1      44.364  24.932  36.618  1.00  0.00    -0.200 F 
ATOM    126  F   UNL A   1      46.977  25.637  36.290  1.00  0.00    -0.200 F 
ENDBRANCH  92 116
ENDBRANCH  57  60
ENDBRANCH  47  50
ENDBRANCH  43  46
ENDBRANCH  40  43
ENDBRANCH   1  40
TORSDOF 15
ENDMDL
MODEL 3
REMARK VINA RESULT:     -11.7      1.200      7.586
REMARK SMILES C[C@H](C(=O)NCCCCCCNC(=O)c1ccc(-c2c3nc(c(-c4c(F)c(F)c(F)c(F)c4F)c4ccc([nH]4)c(-c4c(F)c(F)c(F)c(F)c4F)c4nc(c(-c5c(F)c(F)c(F)c(F)c5F)c5ccc2[nH]5)C=C4)C=C3)cc1)c1ccc2c(c1)OCCO2
REMARK SMILES IDX 9 1 8 4 7 7 6 10 5 13 3 14 4 15 2 17 1 19 78 23 79 24 83 25
REMARK SMILES IDX 80 26 82 28 81 30 84 32 87 33 85 34 86 35 10 40 11 43 12 46
REMARK SMILES IDX 13 47 14 49 15 50 16 51 77 52 17 53 76 55 18 57 19 60 20 61
REMARK SMILES IDX 70 62 21 63 75 64 69 65 71 66 22 67 74 68 68 70 67 72 23 74
REMARK SMILES IDX 55 77 35 78 54 79 36 80 39 81 53 82 72 83 37 84 38 86 52 88
REMARK SMILES IDX 73 89 40 92 24 94 25 95 33 96 26 97 27 98 31 99 34 100
REMARK SMILES IDX 28 101 29 102 32 103 30 104 56 105 57 106 65 107 58 108
REMARK SMILES IDX 59 109 63 110 66 111 60 112 61 113 64 114 62 115 41 116
REMARK SMILES IDX 42 117 50 118 43 119 44 120 48 121 51 122 45 123 46 124
REMARK SMILES IDX 49 125 47 126
REMARK H PARENT 9 2 9 3 8 5 8 6 7 8 7 9 6 11 6 12 5 16 2 18 1 20 1 21 1 22
REMARK H PARENT 79 27 83 29 80 31 85 36 85 37 86 38 86 39 10 41 10 42 11 44
REMARK H PARENT 11 45 12 48 16 54 77 56 17 58 76 59 75 69 69 71 71 73 74 75
REMARK H PARENT 68 76 36 85 39 87 72 90 37 91 73 93
REMARK Flexibility Score: inf
ROOT
ATOM      1  C   UNL A   1      31.364  30.960  25.812  1.00  0.00    -0.052 C 
ATOM      2  H   UNL A   1      30.458  30.410  25.961  1.00  0.00     0.027 H 
ATOM      3  H   UNL A   1      31.587  31.187  24.791  1.00  0.00     0.027 H 
ENDROOT
BRANCH   1   4
ATOM      4  C   UNL A   1      32.523  30.080  26.290  1.00  0.00    -0.052 C 
ATOM      5  H   UNL A   1      32.982  29.650  25.424  1.00  0.00     0.027 H 
ATOM      6  H   UNL A   1      33.156  30.735  26.854  1.00  0.00     0.027 H 
BRANCH   4   7
ATOM      7  C   UNL A   1      32.176  28.936  27.246  1.00  0.00    -0.036 C 
ATOM      8  H   UNL A   1      32.855  28.984  28.072  1.00  0.00     0.028 H 
ATOM      9  H   UNL A   1      31.149  29.088  27.506  1.00  0.00     0.028 H 
BRANCH   7  10
ATOM     10  C   UNL A   1      32.241  27.521  26.673  1.00  0.00     0.017 C 
ATOM     11  H   UNL A   1      32.471  27.597  25.631  1.00  0.00     0.049 H 
ATOM     12  H   UNL A   1      32.988  27.004  27.238  1.00  0.00     0.049 H 
BRANCH  10  13
ATOM     13  N   UNL A   1      31.019  26.746  26.809  1.00  0.00    -0.356 N 
ATOM     14  C   UNL A   1      30.351  25.967  25.900  1.00  0.00     0.227 C 
ATOM     15  O   UNL A   1      29.496  25.201  26.361  1.00  0.00    -0.274 OA
ATOM     16  H   UNL A   1      30.602  26.787  27.700  1.00  0.00     0.163 HD
BRANCH  14  17
ATOM     17  C   UNL A   1      30.526  26.085  24.369  1.00  0.00     0.060 C 
ATOM     18  H   UNL A   1      31.407  26.654  24.152  1.00  0.00     0.045 H 
BRANCH  17  19
ATOM     19  C   UNL A   1      30.660  24.647  23.846  1.00  0.00    -0.049 C 
ATOM     20  H   UNL A   1      29.943  24.482  23.070  1.00  0.00     0.024 H 
ATOM     21  H   UNL A   1      30.485  23.959  24.646  1.00  0.00     0.024 H 
ATOM     22  H   UNL A   1      31.646  24.500  23.457  1.00  0.00     0.024 H 
ENDBRANCH  17  19
BRANCH  17  23
ATOM     23  C   UNL A   1      29.480  26.928  23.647  1.00  0.00    -0.032 A 
ATOM     24  C   UNL A   1      28.100  26.768  23.883  1.00  0.00    -0.054 A 
ATOM     25  C   UNL A   1      29.898  27.992  22.835  1.00  0.00    -0.012 A 
ATOM     26  C   UNL A   1      27.203  27.784  23.556  1.00  0.00    -0.016 A 
ATOM     27  H   UNL A   1      27.752  25.891  24.302  1.00  0.00     0.063 H 
ATOM     28  C   UNL A   1      29.036  29.062  22.635  1.00  0.00     0.161 A 
ATOM     29  H   UNL A   1      30.831  27.980  22.395  1.00  0.00     0.067 H 
ATOM     30  C   UNL A   1      27.704  28.969  23.041  1.00  0.00     0.161 A 
ATOM     31  H   UNL A   1      26.188  27.656  23.693  1.00  0.00     0.066 H 
ATOM     32  O   UNL A   1      29.616  30.232  22.224  1.00  0.00    -0.486 OA
ATOM     33  O   UNL A   1      26.906  30.084  23.105  1.00  0.00    -0.486 OA
ATOM     34  C   UNL A   1      28.869  31.402  22.587  1.00  0.00     0.122 C 
ATOM     35  C   UNL A   1      27.743  31.145  23.582  1.00  0.00     0.122 C 
ATOM     36  H   UNL A   1      28.442  31.815  21.697  1.00  0.00     0.074 H 
ATOM     37  H   UNL A   1      29.555  32.068  23.066  1.00  0.00     0.074 H 
ATOM     38  H   UNL A   1      27.159  32.034  23.696  1.00  0.00     0.074 H 
ATOM     39  H   UNL A   1      28.163  30.866  24.527  1.00  0.00     0.074 H 
ENDBRANCH  17  23
ENDBRANCH  14  17
ENDBRANCH  10  13
ENDBRANCH   7  10
ENDBRANCH   4   7
ENDBRANCH   1   4
BRANCH   1  40
ATOM     40  C   UNL A   1      31.201  32.318  26.501  1.00  0.00    -0.036 C 
ATOM     41  H   UNL A   1      30.414  32.225  27.220  1.00  0.00     0.028 H 
ATOM     42  H   UNL A   1      31.005  33.012  25.710  1.00  0.00     0.028 H 
BRANCH  40  43
ATOM     43  C   UNL A   1      32.428  32.872  27.226  1.00  0.00     0.018 C 
ATOM     44  H   UNL A   1      33.257  32.854  26.549  1.00  0.00     0.049 H 
ATOM     45  H   UNL A   1      32.590  32.253  28.084  1.00  0.00     0.049 H 
BRANCH  43  46
ATOM     46  N   UNL A   1      32.257  34.232  27.707  1.00  0.00    -0.352 N 
ATOM     47  C   UNL A   1      32.939  34.937  28.666  1.00  0.00     0.251 C 
ATOM     48  H   UNL A   1      31.528  34.731  27.273  1.00  0.00     0.163 HD
ATOM     49  O   UNL A   1      32.545  36.066  28.972  1.00  0.00    -0.269 OA
BRANCH  47  50
ATOM     50  C   UNL A   1      34.116  34.373  29.371  1.00  0.00     0.039 A 
ATOM     51  C   UNL A   1      33.914  33.783  30.624  1.00  0.00    -0.049 A 
ATOM     52  C   UNL A   1      35.412  34.450  28.854  1.00  0.00    -0.049 A 
ATOM     53  C   UNL A   1      34.988  33.222  31.322  1.00  0.00    -0.053 A 
ATOM     54  H   UNL A   1      32.968  33.762  31.035  1.00  0.00     0.063 H 
ATOM     55  C   UNL A   1      36.474  33.829  29.518  1.00  0.00    -0.053 A 
ATOM     56  H   UNL A   1      35.586  34.969  27.978  1.00  0.00     0.063 H 
ATOM     57  C   UNL A   1      36.275  33.205  30.759  1.00  0.00    -0.014 A 
ATOM     58  H   UNL A   1      34.834  32.819  32.259  1.00  0.00     0.063 H 
ATOM     59  H   UNL A   1      37.414  33.828  29.091  1.00  0.00     0.063 H 
BRANCH  57  60
ATOM     60  C   UNL A   1      37.395  32.517  31.458  1.00  0.00     0.031 A 
ATOM     61  C   UNL A   1      38.114  31.359  30.819  1.00  0.00     0.074 A 
ATOM     62  C   UNL A   1      37.754  32.926  32.691  1.00  0.00     0.049 A 
ATOM     63  N   UNL A   1      39.112  30.646  31.284  1.00  0.00    -0.248 NA
ATOM     64  C   UNL A   1      37.639  30.929  29.496  1.00  0.00    -0.034 C 
ATOM     65  C   UNL A   1      37.103  33.998  33.447  1.00  0.00    -0.036 A 
ATOM     66  N   UNL A   1      38.750  32.488  33.530  1.00  0.00    -0.354 N 
ATOM     67  C   UNL A   1      39.387  29.695  30.310  1.00  0.00     0.074 A 
ATOM     68  C   UNL A   1      38.410  29.877  29.257  1.00  0.00    -0.034 C 
ATOM     69  H   UNL A   1      36.899  31.339  28.906  1.00  0.00     0.065 H 
ATOM     70  C   UNL A   1      37.732  34.150  34.623  1.00  0.00    -0.036 A 
ATOM     71  H   UNL A   1      36.293  34.549  33.125  1.00  0.00     0.065 H 
ATOM     72  C   UNL A   1      38.806  33.168  34.722  1.00  0.00     0.049 A 
ATOM     73  H   UNL A   1      39.366  31.755  33.298  1.00  0.00     0.167 HD
ATOM     74  C   UNL A   1      40.380  28.773  30.280  1.00  0.00     0.037 A 
ATOM     75  H   UNL A   1      38.325  29.268  28.429  1.00  0.00     0.065 H 
ATOM     76  H   UNL A   1      37.492  34.852  35.342  1.00  0.00     0.065 H 
ATOM     77  C   UNL A   1      39.629  33.019  35.778  1.00  0.00     0.037 A 
ATOM     78  C   UNL A   1      41.357  28.592  31.324  1.00  0.00     0.049 A 
ATOM     79  C   UNL A   1      40.720  31.984  35.721  1.00  0.00     0.074 A 
ATOM     80  C   UNL A   1      42.418  27.702  31.370  1.00  0.00    -0.036 A 
ATOM     81  N   UNL A   1      41.392  29.313  32.508  1.00  0.00    -0.354 N 
ATOM     82  N   UNL A   1      41.007  31.136  34.764  1.00  0.00    -0.248 NA
ATOM     83  C   UNL A   1      41.610  31.895  36.887  1.00  0.00    -0.034 C 
ATOM     84  C   UNL A   1      43.068  27.856  32.600  1.00  0.00    -0.036 A 
ATOM     85  H   UNL A   1      42.683  27.039  30.626  1.00  0.00     0.065 H 
ATOM     86  C   UNL A   1      42.446  28.878  33.298  1.00  0.00     0.049 A 
ATOM     87  H   UNL A   1      40.761  30.028  32.752  1.00  0.00     0.167 HD
ATOM     88  C   UNL A   1      42.121  30.431  35.200  1.00  0.00     0.074 A 
ATOM     89  C   UNL A   1      42.475  30.971  36.496  1.00  0.00    -0.034 C 
ATOM     90  H   UNL A   1      41.571  32.417  37.777  1.00  0.00     0.065 H 
ATOM     91  H   UNL A   1      43.874  27.304  32.931  1.00  0.00     0.065 H 
ATOM     92  C   UNL A   1      42.788  29.423  34.587  1.00  0.00     0.037 A 
ATOM     93  H   UNL A   1      43.297  30.675  37.045  1.00  0.00     0.065 H 
BRANCH  74  94
ATOM     94  C   UNL A   1      40.477  27.894  29.065  1.00  0.00     0.064 A 
ATOM     95  C   UNL A   1      39.707  26.727  28.945  1.00  0.00     0.173 A 
ATOM     96  C   UNL A   1      41.302  28.247  27.986  1.00  0.00     0.173 A 
ATOM     97  F   UNL A   1      38.909  26.339  29.951  1.00  0.00    -0.203 F 
ATOM     98  C   UNL A   1      39.777  25.934  27.802  1.00  0.00     0.198 A 
ATOM     99  C   UNL A   1      41.346  27.468  26.832  1.00  0.00     0.198 A 
ATOM    100  F   UNL A   1      42.055  29.356  28.045  1.00  0.00    -0.203 F 
ATOM    101  F   UNL A   1      39.064  24.802  27.730  1.00  0.00    -0.200 F 
ATOM    102  C   UNL A   1      40.590  26.310  26.743  1.00  0.00     0.200 A 
ATOM    103  F   UNL A   1      42.121  27.841  25.804  1.00  0.00    -0.200 F 
ATOM    104  F   UNL A   1      40.647  25.553  25.639  1.00  0.00    -0.200 F 
ENDBRANCH  74  94
BRANCH  77 105
ATOM    105  C   UNL A   1      39.463  33.880  36.979  1.00  0.00     0.064 A 
ATOM    106  C   UNL A   1      38.729  33.441  38.092  1.00  0.00     0.173 A 
ATOM    107  C   UNL A   1      40.013  35.169  37.032  1.00  0.00     0.173 A 
ATOM    108  F   UNL A   1      38.166  32.223  38.083  1.00  0.00    -0.203 F 
ATOM    109  C   UNL A   1      38.528  34.269  39.195  1.00  0.00     0.198 A 
ATOM    110  C   UNL A   1      39.839  35.983  38.149  1.00  0.00     0.198 A 
ATOM    111  F   UNL A   1      40.729  35.636  35.998  1.00  0.00    -0.203 F 
ATOM    112  F   UNL A   1      37.773  33.844  40.218  1.00  0.00    -0.200 F 
ATOM    113  C   UNL A   1      39.087  35.537  39.224  1.00  0.00     0.200 A 
ATOM    114  F   UNL A   1      40.395  37.201  38.180  1.00  0.00    -0.200 F 
ATOM    115  F   UNL A   1      38.892  36.332  40.285  1.00  0.00    -0.200 F 
ENDBRANCH  77 105
BRANCH  92 116
ATOM    116  C   UNL A   1      43.984  28.859  35.300  1.00  0.00     0.064 A 
ATOM    117  C   UNL A   1      45.279  29.348  35.067  1.00  0.00     0.173 A 
ATOM    118  C   UNL A   1      43.833  27.824  36.236  1.00  0.00     0.173 A 
ATOM    119  F   UNL A   1      45.480  30.326  34.172  1.00  0.00    -0.203 F 
ATOM    120  C   UNL A   1      46.381  28.795  35.714  1.00  0.00     0.198 A 
ATOM    121  C   UNL A   1      44.933  27.296  36.906  1.00  0.00     0.198 A 
ATOM    122  F   UNL A   1      42.617  27.325  36.502  1.00  0.00    -0.203 F 
ATOM    123  F   UNL A   1      47.614  29.235  35.429  1.00  0.00    -0.200 F 
ATOM    124  C   UNL A   1      46.207  27.774  36.637  1.00  0.00     0.200 A 
ATOM    125  F   UNL A   1      44.762  26.320  37.807  1.00  0.00    -0.200 F 
ATOM    126  F   UNL A   1      47.269  27.242  37.258  1.00  0.00    -0.200 F 
ENDBRANCH  92 116
ENDBRANCH  57  60
ENDBRANCH  47  50
ENDBRANCH  43  46
ENDBRANCH  40  43
ENDBRANCH   1  40
TORSDOF 15
ENDMDL
MODEL 4
REMARK VINA RESULT:     -11.7      1.411      2.458
REMARK SMILES C[C@H](C(=O)NCCCCCCNC(=O)c1ccc(-c2c3nc(c(-c4c(F)c(F)c(F)c(F)c4F)c4ccc([nH]4)c(-c4c(F)c(F)c(F)c(F)c4F)c4nc(c(-c5c(F)c(F)c(F)c(F)c5F)c5ccc2[nH]5)C=C4)C=C3)cc1)c1ccc2c(c1)OCCO2
REMARK SMILES IDX 9 1 8 4 7 7 6 10 5 13 3 14 4 15 2 17 1 19 78 23 79 24 83 25
REMARK SMILES IDX 80 26 82 28 81 30 84 32 87 33 85 34 86 35 10 40 11 43 12 46
REMARK SMILES IDX 13 47 14 49 15 50 16 51 77 52 17 53 76 55 18 57 19 60 20 61
REMARK SMILES IDX 70 62 21 63 75 64 69 65 71 66 22 67 74 68 68 70 67 72 23 74
REMARK SMILES IDX 55 77 35 78 54 79 36 80 39 81 53 82 72 83 37 84 38 86 52 88
REMARK SMILES IDX 73 89 40 92 24 94 25 95 33 96 26 97 27 98 31 99 34 100
REMARK SMILES IDX 28 101 29 102 32 103 30 104 56 105 57 106 65 107 58 108
REMARK SMILES IDX 59 109 63 110 66 111 60 112 61 113 64 114 62 115 41 116
REMARK SMILES IDX 42 117 50 118 43 119 44 120 48 121 51 122 45 123 46 124
REMARK SMILES IDX 49 125 47 126
REMARK H PARENT 9 2 9 3 8 5 8 6 7 8 7 9 6 11 6 12 5 16 2 18 1 20 1 21 1 22
REMARK H PARENT 79 27 83 29 80 31 85 36 85 37 86 38 86 39 10 41 10 42 11 44
REMARK H PARENT 11 45 12 48 16 54 77 56 17 58 76 59 75 69 69 71 71 73 74 75
REMARK H PARENT 68 76 36 85 39 87 72 90 37 91 73 93
REMARK Flexibility Score: inf
ROOT
ATOM      1  C   UNL A   1      32.175  27.678  26.991  1.00  0.00    -0.052 C 
ATOM      2  H   UNL A   1      33.175  27.556  26.632  1.00  0.00     0.027 H 
ATOM      3  H   UNL A   1      32.072  27.632  28.055  1.00  0.00     0.027 H 
ENDROOT
BRANCH   1   4
ATOM      4  C   UNL A   1      31.344  26.507  26.455  1.00  0.00    -0.052 C 
ATOM      5  H   UNL A   1      30.710  26.170  27.248  1.00  0.00     0.027 H 
ATOM      6  H   UNL A   1      30.827  26.898  25.603  1.00  0.00     0.027 H 
BRANCH   4   7
ATOM      7  C   UNL A   1      32.116  25.292  25.933  1.00  0.00    -0.036 C 
ATOM      8  H   UNL A   1      32.419  24.711  26.779  1.00  0.00     0.028 H 
ATOM      9  H   UNL A   1      31.441  24.793  25.270  1.00  0.00     0.028 H 
BRANCH   7  10
ATOM     10  C   UNL A   1      33.362  25.580  25.097  1.00  0.00     0.017 C 
ATOM     11  H   UNL A   1      33.716  26.556  25.355  1.00  0.00     0.049 H 
ATOM     12  H   UNL A   1      34.060  24.802  25.323  1.00  0.00     0.049 H 
BRANCH  10  13
ATOM     13  N   UNL A   1      33.160  25.541  23.658  1.00  0.00    -0.356 N 
ATOM     14  C   UNL A   1      32.921  26.550  22.763  1.00  0.00     0.227 C 
ATOM     15  O   UNL A   1      33.067  26.267  21.568  1.00  0.00    -0.274 OA
ATOM     16  H   UNL A   1      33.202  24.640  23.261  1.00  0.00     0.163 HD
BRANCH  14  17
ATOM     17  C   UNL A   1      32.378  27.942  23.157  1.00  0.00     0.060 C 
ATOM     18  H   UNL A   1      32.316  28.014  24.224  1.00  0.00     0.045 H 
BRANCH  17  19
ATOM     19  C   UNL A   1      33.381  28.962  22.598  1.00  0.00    -0.049 C 
ATOM     20  H   UNL A   1      32.903  29.914  22.496  1.00  0.00     0.024 H 
ATOM     21  H   UNL A   1      33.727  28.633  21.640  1.00  0.00     0.024 H 
ATOM     22  H   UNL A   1      34.211  29.050  23.267  1.00  0.00     0.024 H 
ENDBRANCH  17  19
BRANCH  17  23
ATOM     23  C   UNL A   1      30.923  28.214  22.787  1.00  0.00    -0.032 A 
ATOM     24  C   UNL A   1      29.866  27.435  23.297  1.00  0.00    -0.054 A 
ATOM     25  C   UNL A   1      30.609  29.356  22.038  1.00  0.00    -0.012 A 
ATOM     26  C   UNL A   1      28.561  27.926  23.298  1.00  0.00    -0.016 A 
ATOM     27  H   UNL A   1      30.060  26.494  23.674  1.00  0.00     0.063 H 
ATOM     28  C   UNL A   1      29.341  29.911  22.161  1.00  0.00     0.161 A 
ATOM     29  H   UNL A   1      31.308  29.778  21.406  1.00  0.00     0.067 H 
ATOM     30  C   UNL A   1      28.338  29.213  22.833  1.00  0.00     0.161 A 
ATOM     31  H   UNL A   1      27.779  27.345  23.637  1.00  0.00     0.066 H 
ATOM     32  O   UNL A   1      29.219  31.220  21.777  1.00  0.00    -0.486 OA
ATOM     33  O   UNL A   1      27.171  29.834  23.203  1.00  0.00    -0.486 OA
ATOM     34  C   UNL A   1      28.146  31.911  22.431  1.00  0.00     0.122 C 
ATOM     35  C   UNL A   1      27.539  31.159  23.609  1.00  0.00     0.122 C 
ATOM     36  H   UNL A   1      27.373  32.087  21.712  1.00  0.00     0.074 H 
ATOM     37  H   UNL A   1      28.560  32.815  22.826  1.00  0.00     0.074 H 
ATOM     38  H   UNL A   1      26.670  31.678  23.954  1.00  0.00     0.074 H 
ATOM     39  H   UNL A   1      28.259  31.098  24.399  1.00  0.00     0.074 H 
ENDBRANCH  17  23
ENDBRANCH  14  17
ENDBRANCH  10  13
ENDBRANCH   7  10
ENDBRANCH   4   7
ENDBRANCH   1   4
BRANCH   1  40
ATOM     40  C   UNL A   1      31.711  29.085  26.603  1.00  0.00    -0.036 C 
ATOM     41  H   UNL A   1      31.303  29.545  27.478  1.00  0.00     0.028 H 
ATOM     42  H   UNL A   1      31.012  28.941  25.806  1.00  0.00     0.028 H 
BRANCH  40  43
ATOM     43  C   UNL A   1      32.774  30.027  26.038  1.00  0.00     0.018 C 
ATOM     44  H   UNL A   1      32.709  30.009  24.969  1.00  0.00     0.049 H 
ATOM     45  H   UNL A   1      33.722  29.679  26.393  1.00  0.00     0.049 H 
BRANCH  43  46
ATOM     46  N   UNL A   1      32.632  31.402  26.484  1.00  0.00    -0.352 N 
ATOM     47  C   UNL A   1      33.380  32.142  27.363  1.00  0.00     0.251 C 
ATOM     48  H   UNL A   1      31.869  31.884  26.088  1.00  0.00     0.163 HD
ATOM     49  O   UNL A   1      33.004  33.280  27.659  1.00  0.00    -0.269 OA
BRANCH  47  50
ATOM     50  C   UNL A   1      34.609  31.607  27.998  1.00  0.00     0.039 A 
ATOM     51  C   UNL A   1      35.707  32.463  28.136  1.00  0.00    -0.049 A 
ATOM     52  C   UNL A   1      34.722  30.278  28.416  1.00  0.00    -0.049 A 
ATOM     53  C   UNL A   1      36.883  32.010  28.742  1.00  0.00    -0.053 A 
ATOM     54  H   UNL A   1      35.650  33.433  27.788  1.00  0.00     0.063 H 
ATOM     55  C   UNL A   1      35.872  29.845  29.084  1.00  0.00    -0.053 A 
ATOM     56  H   UNL A   1      33.954  29.613  28.230  1.00  0.00     0.063 H 
ATOM     57  C   UNL A   1      36.966  30.706  29.258  1.00  0.00    -0.014 A 
ATOM     58  H   UNL A   1      37.699  32.640  28.810  1.00  0.00     0.063 H 
ATOM     59  H   UNL A   1      35.916  28.882  29.454  1.00  0.00     0.063 H 
BRANCH  57  60
ATOM     60  C   UNL A   1      38.181  30.261  29.994  1.00  0.00     0.031 A 
ATOM     61  C   UNL A   1      38.463  30.744  31.391  1.00  0.00     0.074 A 
ATOM     62  C   UNL A   1      39.053  29.431  29.387  1.00  0.00     0.049 A 
ATOM     63  N   UNL A   1      39.471  30.455  32.179  1.00  0.00    -0.248 NA
ATOM     64  C   UNL A   1      37.501  31.689  31.975  1.00  0.00    -0.034 C 
ATOM     65  C   UNL A   1      38.928  28.934  28.015  1.00  0.00    -0.036 A 
ATOM     66  N   UNL A   1      40.217  28.860  29.841  1.00  0.00    -0.354 N 
ATOM     67  C   UNL A   1      39.258  31.174  33.348  1.00  0.00     0.074 A 
ATOM     68  C   UNL A   1      38.062  31.963  33.144  1.00  0.00    -0.034 C 
ATOM     69  H   UNL A   1      36.617  32.046  31.579  1.00  0.00     0.065 H 
ATOM     70  C   UNL A   1      39.958  28.115  27.749  1.00  0.00    -0.036 A 
ATOM     71  H   UNL A   1      38.169  29.174  27.359  1.00  0.00     0.065 H 
ATOM     72  C   UNL A   1      40.833  28.053  28.916  1.00  0.00     0.049 A 
ATOM     73  H   UNL A   1      40.575  29.014  30.745  1.00  0.00     0.167 HD
ATOM     74  C   UNL A   1      39.977  31.157  34.498  1.00  0.00     0.037 A 
ATOM     75  H   UNL A   1      37.694  32.650  33.821  1.00  0.00     0.065 H 
ATOM     76  H   UNL A   1      40.107  27.610  26.861  1.00  0.00     0.065 H 
ATOM     77  C   UNL A   1      41.975  27.344  28.994  1.00  0.00     0.037 A 
ATOM     78  C   UNL A   1      41.166  30.369  34.706  1.00  0.00     0.049 A 
ATOM     79  C   UNL A   1      42.757  27.347  30.281  1.00  0.00     0.074 A 
ATOM     80  C   UNL A   1      41.945  30.265  35.845  1.00  0.00    -0.036 A 
ATOM     81  N   UNL A   1      41.749  29.551  33.750  1.00  0.00    -0.354 N 
ATOM     82  N   UNL A   1      42.506  27.981  31.400  1.00  0.00    -0.248 NA
ATOM     83  C   UNL A   1      43.973  26.523  30.318  1.00  0.00    -0.034 C 
ATOM     84  C   UNL A   1      43.023  29.417  35.566  1.00  0.00    -0.036 A 
ATOM     85  H   UNL A   1      41.763  30.733  36.747  1.00  0.00     0.065 H 
ATOM     86  C   UNL A   1      42.886  28.950  34.269  1.00  0.00     0.049 A 
ATOM     87  H   UNL A   1      41.406  29.416  32.837  1.00  0.00     0.167 HD
ATOM     88  C   UNL A   1      43.517  27.616  32.280  1.00  0.00     0.074 A 
ATOM     89  C   UNL A   1      44.368  26.682  31.573  1.00  0.00    -0.034 C 
ATOM     90  H   UNL A   1      44.406  25.966  29.565  1.00  0.00     0.065 H 
ATOM     91  H   UNL A   1      43.789  29.180  36.215  1.00  0.00     0.065 H 
ATOM     92  C   UNL A   1      43.726  28.022  33.556  1.00  0.00     0.037 A 
ATOM     93  H   UNL A   1      45.179  26.201  31.993  1.00  0.00     0.065 H 
BRANCH  74  94
ATOM     94  C   UNL A   1      39.486  32.004  35.638  1.00  0.00     0.064 A 
ATOM     95  C   UNL A   1      38.541  31.519  36.554  1.00  0.00     0.173 A 
ATOM     96  C   UNL A   1      40.005  33.290  35.853  1.00  0.00     0.173 A 
ATOM     97  F   UNL A   1      38.006  30.300  36.390  1.00  0.00    -0.203 F 
ATOM     98  C   UNL A   1      38.115  32.297  37.628  1.00  0.00     0.198 A 
ATOM     99  C   UNL A   1      39.601  34.054  36.945  1.00  0.00     0.198 A 
ATOM    100  F   UNL A   1      40.917  33.802  35.011  1.00  0.00    -0.203 F 
ATOM    101  F   UNL A   1      37.180  31.828  38.464  1.00  0.00    -0.200 F 
ATOM    102  C   UNL A   1      38.651  33.561  37.828  1.00  0.00     0.200 A 
ATOM    103  F   UNL A   1      40.131  35.269  37.144  1.00  0.00    -0.200 F 
ATOM    104  F   UNL A   1      38.250  34.303  38.868  1.00  0.00    -0.200 F 
ENDBRANCH  74  94
BRANCH  77 105
ATOM    105  C   UNL A   1      42.448  26.559  27.822  1.00  0.00     0.064 A 
ATOM    106  C   UNL A   1      43.355  27.103  26.901  1.00  0.00     0.173 A 
ATOM    107  C   UNL A   1      41.983  25.257  27.585  1.00  0.00     0.173 A 
ATOM    108  F   UNL A   1      43.814  28.353  27.073  1.00  0.00    -0.203 F 
ATOM    109  C   UNL A   1      43.755  26.388  25.774  1.00  0.00     0.198 A 
ATOM    110  C   UNL A   1      42.410  24.530  26.476  1.00  0.00     0.198 A 
ATOM    111  F   UNL A   1      41.120  24.686  28.438  1.00  0.00    -0.203 F 
ATOM    112  F   UNL A   1      44.577  26.955  24.881  1.00  0.00    -0.200 F 
ATOM    113  C   UNL A   1      43.285  25.100  25.565  1.00  0.00     0.200 A 
ATOM    114  F   UNL A   1      41.967  23.280  26.287  1.00  0.00    -0.200 F 
ATOM    115  F   UNL A   1      43.670  24.413  24.481  1.00  0.00    -0.200 F 
ENDBRANCH  77 105
BRANCH  92 116
ATOM    116  C   UNL A   1      44.907  27.436  34.277  1.00  0.00     0.064 A 
ATOM    117  C   UNL A   1      44.807  26.237  35.000  1.00  0.00     0.173 A 
ATOM    118  C   UNL A   1      46.156  28.075  34.236  1.00  0.00     0.173 A 
ATOM    119  F   UNL A   1      43.633  25.595  35.083  1.00  0.00    -0.203 F 
ATOM    120  C   UNL A   1      45.903  25.722  35.687  1.00  0.00     0.198 A 
ATOM    121  C   UNL A   1      47.258  27.539  34.896  1.00  0.00     0.198 A 
ATOM    122  F   UNL A   1      46.308  29.218  33.552  1.00  0.00    -0.203 F 
ATOM    123  F   UNL A   1      45.767  24.611  36.423  1.00  0.00    -0.200 F 
ATOM    124  C   UNL A   1      47.128  26.370  35.631  1.00  0.00     0.200 A 
ATOM    125  F   UNL A   1      48.444  28.158  34.829  1.00  0.00    -0.200 F 
ATOM    126  F   UNL A   1      48.182  25.873  36.293  1.00  0.00    -0.200 F 
ENDBRANCH  92 116
ENDBRANCH  57  60
ENDBRANCH  47  50
ENDBRANCH  43  46
ENDBRANCH  40  43
ENDBRANCH   1  40
TORSDOF 15
ENDMDL
MODEL 5
REMARK VINA RESULT:     -11.6      4.198      7.251
REMARK SMILES C[C@H](C(=O)NCCCCCCNC(=O)c1ccc(-c2c3nc(c(-c4c(F)c(F)c(F)c(F)c4F)c4ccc([nH]4)c(-c4c(F)c(F)c(F)c(F)c4F)c4nc(c(-c5c(F)c(F)c(F)c(F)c5F)c5ccc2[nH]5)C=C4)C=C3)cc1)c1ccc2c(c1)OCCO2
REMARK SMILES IDX 9 1 8 4 7 7 6 10 5 13 3 14 4 15 2 17 1 19 78 23 79 24 83 25
REMARK SMILES IDX 80 26 82 28 81 30 84 32 87 33 85 34 86 35 10 40 11 43 12 46
REMARK SMILES IDX 13 47 14 49 15 50 16 51 77 52 17 53 76 55 18 57 19 60 20 61
REMARK SMILES IDX 70 62 21 63 75 64 69 65 71 66 22 67 74 68 68 70 67 72 23 74
REMARK SMILES IDX 55 77 35 78 54 79 36 80 39 81 53 82 72 83 37 84 38 86 52 88
REMARK SMILES IDX 73 89 40 92 24 94 25 95 33 96 26 97 27 98 31 99 34 100
REMARK SMILES IDX 28 101 29 102 32 103 30 104 56 105 57 106 65 107 58 108
REMARK SMILES IDX 59 109 63 110 66 111 60 112 61 113 64 114 62 115 41 116
REMARK SMILES IDX 42 117 50 118 43 119 44 120 48 121 51 122 45 123 46 124
REMARK SMILES IDX 49 125 47 126
REMARK H PARENT 9 2 9 3 8 5 8 6 7 8 7 9 6 11 6 12 5 16 2 18 1 20 1 21 1 22
REMARK H PARENT 79 27 83 29 80 31 85 36 85 37 86 38 86 39 10 41 10 42 11 44
REMARK H PARENT 11 45 12 48 16 54 77 56 17 58 76 59 75 69 69 71 71 73 74 75
REMARK H PARENT 68 76 36 85 39 87 72 90 37 91 73 93
REMARK Flexibility Score: inf
ROOT
ATOM      1  C   UNL A   1      36.404  34.001  28.839  1.00  0.00    -0.052 C 
ATOM      2  H   UNL A   1      36.505  34.942  28.339  1.00  0.00     0.027 H 
ATOM      3  H   UNL A   1      36.091  34.068  29.860  1.00  0.00     0.027 H 
ENDROOT
BRANCH   1   4
ATOM      4  C   UNL A   1      37.790  33.351  28.885  1.00  0.00    -0.052 C 
ATOM      5  H   UNL A   1      37.684  32.394  29.352  1.00  0.00     0.027 H 
ATOM      6  H   UNL A   1      38.118  33.318  27.866  1.00  0.00     0.027 H 
BRANCH   4   7
ATOM      7  C   UNL A   1      38.888  34.111  29.635  1.00  0.00    -0.036 C 
ATOM      8  H   UNL A   1      39.694  33.430  29.811  1.00  0.00     0.028 H 
ATOM      9  H   UNL A   1      39.136  34.941  29.006  1.00  0.00     0.028 H 
BRANCH   7  10
ATOM     10  C   UNL A   1      38.498  34.726  30.978  1.00  0.00     0.017 C 
ATOM     11  H   UNL A   1      38.959  35.689  31.048  1.00  0.00     0.049 H 
ATOM     12  H   UNL A   1      37.429  34.765  30.991  1.00  0.00     0.049 H 
BRANCH  10  13
ATOM     13  N   UNL A   1      38.891  33.954  32.146  1.00  0.00    -0.356 N 
ATOM     14  C   UNL A   1      38.360  32.809  32.677  1.00  0.00     0.227 C 
ATOM     15  O   UNL A   1      39.059  32.215  33.507  1.00  0.00    -0.274 OA
ATOM     16  H   UNL A   1      39.667  34.313  32.634  1.00  0.00     0.163 HD
BRANCH  14  17
ATOM     17  C   UNL A   1      36.926  32.308  32.388  1.00  0.00     0.060 C 
ATOM     18  H   UNL A   1      36.726  32.381  31.339  1.00  0.00     0.045 H 
BRANCH  17  19
ATOM     19  C   UNL A   1      36.887  30.844  32.852  1.00  0.00    -0.049 C 
ATOM     20  H   UNL A   1      36.970  30.805  33.918  1.00  0.00     0.024 H 
ATOM     21  H   UNL A   1      37.702  30.309  32.412  1.00  0.00     0.024 H 
ATOM     22  H   UNL A   1      35.962  30.399  32.550  1.00  0.00     0.024 H 
ENDBRANCH  17  19
BRANCH  17  23
ATOM     23  C   UNL A   1      35.799  33.177  32.936  1.00  0.00    -0.032 A 
ATOM     24  C   UNL A   1      35.897  33.830  34.181  1.00  0.00    -0.054 A 
ATOM     25  C   UNL A   1      34.693  33.458  32.122  1.00  0.00    -0.012 A 
ATOM     26  C   UNL A   1      35.080  34.920  34.476  1.00  0.00    -0.016 A 
ATOM     27  H   UNL A   1      36.582  33.498  34.879  1.00  0.00     0.063 H 
ATOM     28  C   UNL A   1      33.973  34.624  32.348  1.00  0.00     0.161 A 
ATOM     29  H   UNL A   1      34.418  32.810  31.367  1.00  0.00     0.067 H 
ATOM     30  C   UNL A   1      34.206  35.375  33.501  1.00  0.00     0.161 A 
ATOM     31  H   UNL A   1      35.124  35.378  35.400  1.00  0.00     0.066 H 
ATOM     32  O   UNL A   1      33.209  35.071  31.302  1.00  0.00    -0.486 OA
ATOM     33  O   UNL A   1      33.717  36.651  33.624  1.00  0.00    -0.486 OA
ATOM     34  C   UNL A   1      32.976  36.486  31.325  1.00  0.00     0.122 C 
ATOM     35  C   UNL A   1      33.835  37.248  32.327  1.00  0.00     0.122 C 
ATOM     36  H   UNL A   1      31.948  36.651  31.572  1.00  0.00     0.074 H 
ATOM     37  H   UNL A   1      33.235  36.855  30.355  1.00  0.00     0.074 H 
ATOM     38  H   UNL A   1      33.510  38.266  32.373  1.00  0.00     0.074 H 
ATOM     39  H   UNL A   1      34.859  37.212  32.014  1.00  0.00     0.074 H 
ENDBRANCH  17  23
ENDBRANCH  14  17
ENDBRANCH  10  13
ENDBRANCH   7  10
ENDBRANCH   4   7
ENDBRANCH   1   4
BRANCH   1  40
ATOM     40  C   UNL A   1      35.298  33.214  28.130  1.00  0.00    -0.036 C 
ATOM     41  H   UNL A   1      35.761  32.612  27.376  1.00  0.00     0.028 H 
ATOM     42  H   UNL A   1      34.621  33.954  27.759  1.00  0.00     0.028 H 
BRANCH  40  43
ATOM     43  C   UNL A   1      34.446  32.291  29.001  1.00  0.00     0.018 C 
ATOM     44  H   UNL A   1      33.598  32.844  29.351  1.00  0.00     0.049 H 
ATOM     45  H   UNL A   1      35.069  31.952  29.802  1.00  0.00     0.049 H 
BRANCH  43  46
ATOM     46  N   UNL A   1      33.967  31.109  28.305  1.00  0.00    -0.352 N 
ATOM     47  C   UNL A   1      34.631  29.984  27.887  1.00  0.00     0.251 C 
ATOM     48  H   UNL A   1      33.005  31.118  28.097  1.00  0.00     0.163 HD
ATOM     49  O   UNL A   1      34.021  29.141  27.223  1.00  0.00    -0.269 OA
BRANCH  47  50
ATOM     50  C   UNL A   1      36.068  29.762  28.179  1.00  0.00     0.039 A 
ATOM     51  C   UNL A   1      36.419  29.293  29.450  1.00  0.00    -0.049 A 
ATOM     52  C   UNL A   1      37.077  30.047  27.254  1.00  0.00    -0.049 A 
ATOM     53  C   UNL A   1      37.759  29.053  29.769  1.00  0.00    -0.053 A 
ATOM     54  H   UNL A   1      35.686  29.123  30.155  1.00  0.00     0.063 H 
ATOM     55  C   UNL A   1      38.409  29.742  27.548  1.00  0.00    -0.053 A 
ATOM     56  H   UNL A   1      36.837  30.485  26.350  1.00  0.00     0.063 H 
ATOM     57  C   UNL A   1      38.767  29.238  28.808  1.00  0.00    -0.014 A 
ATOM     58  H   UNL A   1      38.011  28.737  30.719  1.00  0.00     0.063 H 
ATOM     59  H   UNL A   1      39.137  29.887  26.831  1.00  0.00     0.063 H 
BRANCH  57  60
ATOM     60  C   UNL A   1      40.179  28.883  29.117  1.00  0.00     0.031 A 
ATOM     61  C   UNL A   1      41.057  29.814  29.909  1.00  0.00     0.074 A 
ATOM     62  C   UNL A   1      40.684  27.720  28.659  1.00  0.00     0.049 A 
ATOM     63  N   UNL A   1      42.309  29.664  30.272  1.00  0.00    -0.248 NA
ATOM     64  C   UNL A   1      40.463  31.090  30.333  1.00  0.00    -0.034 C 
ATOM     65  C   UNL A   1      39.958  26.754  27.832  1.00  0.00    -0.036 A 
ATOM     66  N   UNL A   1      41.924  27.152  28.821  1.00  0.00    -0.354 N 
ATOM     67  C   UNL A   1      42.645  30.817  30.971  1.00  0.00     0.074 A 
ATOM     68  C   UNL A   1      41.488  31.686  30.926  1.00  0.00    -0.034 C 
ATOM     69  H   UNL A   1      39.498  31.433  30.204  1.00  0.00     0.065 H 
ATOM     70  C   UNL A   1      40.756  25.705  27.580  1.00  0.00    -0.036 A 
ATOM     71  H   UNL A   1      38.988  26.863  27.498  1.00  0.00     0.065 H 
ATOM     72  C   UNL A   1      42.058  25.935  28.197  1.00  0.00     0.049 A 
ATOM     73  H   UNL A   1      42.649  27.577  29.334  1.00  0.00     0.167 HD
ATOM     74  C   UNL A   1      43.799  31.112  31.616  1.00  0.00     0.037 A 
ATOM     75  H   UNL A   1      41.465  32.646  31.305  1.00  0.00     0.065 H 
ATOM     76  H   UNL A   1      40.489  24.868  27.036  1.00  0.00     0.065 H 
ATOM     77  C   UNL A   1      43.110  25.097  28.128  1.00  0.00     0.037 A 
ATOM     78  C   UNL A   1      44.951  30.246  31.667  1.00  0.00     0.049 A 
ATOM     79  C   UNL A   1      44.383  25.452  28.849  1.00  0.00     0.074 A 
ATOM     80  C   UNL A   1      46.155  30.448  32.319  1.00  0.00    -0.036 A 
ATOM     81  N   UNL A   1      45.041  29.013  31.038  1.00  0.00    -0.354 N 
ATOM     82  N   UNL A   1      44.661  26.517  29.560  1.00  0.00    -0.248 NA
ATOM     83  C   UNL A   1      45.482  24.481  28.769  1.00  0.00    -0.034 C 
ATOM     84  C   UNL A   1      46.990  29.357  32.051  1.00  0.00    -0.036 A 
ATOM     85  H   UNL A   1      46.397  31.263  32.904  1.00  0.00     0.065 H 
ATOM     86  C   UNL A   1      46.287  28.450  31.275  1.00  0.00     0.049 A 
ATOM     87  H   UNL A   1      44.327  28.599  30.502  1.00  0.00     0.167 HD
ATOM     88  C   UNL A   1      45.955  26.335  30.030  1.00  0.00     0.074 A 
ATOM     89  C   UNL A   1      46.396  25.042  29.547  1.00  0.00    -0.034 C 
ATOM     90  H   UNL A   1      45.530  23.593  28.244  1.00  0.00     0.065 H 
ATOM     91  H   UNL A   1      47.963  29.246  32.375  1.00  0.00     0.065 H 
ATOM     92  C   UNL A   1      46.714  27.163  30.788  1.00  0.00     0.037 A 
ATOM     93  H   UNL A   1      47.305  24.614  29.779  1.00  0.00     0.065 H 
BRANCH  74  94
ATOM     94  C   UNL A   1      43.874  32.425  32.343  1.00  0.00     0.064 A 
ATOM     95  C   UNL A   1      44.332  33.588  31.705  1.00  0.00     0.173 A 
ATOM     96  C   UNL A   1      43.431  32.539  33.669  1.00  0.00     0.173 A 
ATOM     97  F   UNL A   1      44.776  33.533  30.439  1.00  0.00    -0.203 F 
ATOM     98  C   UNL A   1      44.367  34.809  32.374  1.00  0.00     0.198 A 
ATOM     99  C   UNL A   1      43.438  33.767  34.326  1.00  0.00     0.198 A 
ATOM    100  F   UNL A   1      42.976  31.460  34.326  1.00  0.00    -0.203 F 
ATOM    101  F   UNL A   1      44.850  35.896  31.756  1.00  0.00    -0.200 F 
ATOM    102  C   UNL A   1      43.913  34.900  33.681  1.00  0.00     0.200 A 
ATOM    103  F   UNL A   1      42.985  33.856  35.584  1.00  0.00    -0.200 F 
ATOM    104  F   UNL A   1      43.935  36.077  34.319  1.00  0.00    -0.200 F 
ENDBRANCH  74  94
BRANCH  77 105
ATOM    105  C   UNL A   1      43.005  23.831  27.354  1.00  0.00     0.064 A 
ATOM    106  C   UNL A   1      42.522  22.655  27.947  1.00  0.00     0.173 A 
ATOM    107  C   UNL A   1      43.409  23.764  26.012  1.00  0.00     0.173 A 
ATOM    108  F   UNL A   1      42.142  22.662  29.234  1.00  0.00    -0.203 F 
ATOM    109  C   UNL A   1      42.476  21.457  27.237  1.00  0.00     0.198 A 
ATOM    110  C   UNL A   1      43.331  22.573  25.294  1.00  0.00     0.198 A 
ATOM    111  F   UNL A   1      43.872  24.861  25.395  1.00  0.00    -0.203 F 
ATOM    112  F   UNL A   1      42.065  20.336  27.847  1.00  0.00    -0.200 F 
ATOM    113  C   UNL A   1      42.876  21.418  25.911  1.00  0.00     0.200 A 
ATOM    114  F   UNL A   1      43.703  22.544  24.008  1.00  0.00    -0.200 F 
ATOM    115  F   UNL A   1      42.832  20.265  25.229  1.00  0.00    -0.200 F 
ENDBRANCH  77 105
BRANCH  92 116
ATOM    116  C   UNL A   1      48.088  26.685  31.162  1.00  0.00     0.064 A 
ATOM    117  C   UNL A   1      48.315  25.938  32.330  1.00  0.00     0.173 A 
ATOM    118  C   UNL A   1      49.190  26.965  30.340  1.00  0.00     0.173 A 
ATOM    119  F   UNL A   1      47.298  25.655  33.158  1.00  0.00    -0.203 F 
ATOM    120  C   UNL A   1      49.598  25.526  32.679  1.00  0.00     0.198 A 
ATOM    121  C   UNL A   1      50.466  26.523  30.674  1.00  0.00     0.198 A 
ATOM    122  F   UNL A   1      49.028  27.668  29.209  1.00  0.00    -0.203 F 
ATOM    123  F   UNL A   1      49.799  24.871  33.829  1.00  0.00    -0.200 F 
ATOM    124  C   UNL A   1      50.672  25.814  31.849  1.00  0.00     0.200 A 
ATOM    125  F   UNL A   1      51.500  26.789  29.865  1.00  0.00    -0.200 F 
ATOM    126  F   UNL A   1      51.906  25.418  32.187  1.00  0.00    -0.200 F 
ENDBRANCH  92 116
ENDBRANCH  57  60
ENDBRANCH  47  50
ENDBRANCH  43  46
ENDBRANCH  40  43
ENDBRANCH   1  40
TORSDOF 15
ENDMDL
MODEL 6
REMARK VINA RESULT:     -11.5      1.359      2.587
REMARK SMILES C[C@H](C(=O)NCCCCCCNC(=O)c1ccc(-c2c3nc(c(-c4c(F)c(F)c(F)c(F)c4F)c4ccc([nH]4)c(-c4c(F)c(F)c(F)c(F)c4F)c4nc(c(-c5c(F)c(F)c(F)c(F)c5F)c5ccc2[nH]5)C=C4)C=C3)cc1)c1ccc2c(c1)OCCO2
REMARK SMILES IDX 9 1 8 4 7 7 6 10 5 13 3 14 4 15 2 17 1 19 78 23 79 24 83 25
REMARK SMILES IDX 80 26 82 28 81 30 84 32 87 33 85 34 86 35 10 40 11 43 12 46
REMARK SMILES IDX 13 47 14 49 15 50 16 51 77 52 17 53 76 55 18 57 19 60 20 61
REMARK SMILES IDX 70 62 21 63 75 64 69 65 71 66 22 67 74 68 68 70 67 72 23 74
REMARK SMILES IDX 55 77 35 78 54 79 36 80 39 81 53 82 72 83 37 84 38 86 52 88
REMARK SMILES IDX 73 89 40 92 24 94 25 95 33 96 26 97 27 98 31 99 34 100
REMARK SMILES IDX 28 101 29 102 32 103 30 104 56 105 57 106 65 107 58 108
REMARK SMILES IDX 59 109 63 110 66 111 60 112 61 113 64 114 62 115 41 116
REMARK SMILES IDX 42 117 50 118 43 119 44 120 48 121 51 122 45 123 46 124
REMARK SMILES IDX 49 125 47 126
REMARK H PARENT 9 2 9 3 8 5 8 6 7 8 7 9 6 11 6 12 5 16 2 18 1 20 1 21 1 22
REMARK H PARENT 79 27 83 29 80 31 85 36 85 37 86 38 86 39 10 41 10 42 11 44
REMARK H PARENT 11 45 12 48 16 54 77 56 17 58 76 59 75 69 69 71 71 73 74 75
REMARK H PARENT 68 76 36 85 39 87 72 90 37 91 73 93
REMARK Flexibility Score: inf
ROOT
ATOM      1  C   UNL A   1      31.428  30.748  26.106  1.00  0.00    -0.052 C 
ATOM      2  H   UNL A   1      30.444  30.345  25.976  1.00  0.00     0.027 H 
ATOM      3  H   UNL A   1      31.992  30.850  25.203  1.00  0.00     0.027 H 
ENDROOT
BRANCH   1   4
ATOM      4  C   UNL A   1      32.222  29.760  26.966  1.00  0.00    -0.052 C 
ATOM      5  H   UNL A   1      32.396  30.224  27.915  1.00  0.00     0.027 H 
ATOM      6  H   UNL A   1      31.621  28.875  27.003  1.00  0.00     0.027 H 
BRANCH   4   7
ATOM      7  C   UNL A   1      33.578  29.302  26.421  1.00  0.00    -0.036 C 
ATOM      8  H   UNL A   1      33.909  30.034  25.714  1.00  0.00     0.028 H 
ATOM      9  H   UNL A   1      34.207  29.198  27.281  1.00  0.00     0.028 H 
BRANCH   7  10
ATOM     10  C   UNL A   1      33.613  27.940  25.730  1.00  0.00     0.017 C 
ATOM     11  H   UNL A   1      34.581  27.514  25.886  1.00  0.00     0.049 H 
ATOM     12  H   UNL A   1      32.820  27.365  26.163  1.00  0.00     0.049 H 
BRANCH  10  13
ATOM     13  N   UNL A   1      33.359  27.970  24.299  1.00  0.00    -0.356 N 
ATOM     14  C   UNL A   1      32.181  28.044  23.604  1.00  0.00     0.227 C 
ATOM     15  O   UNL A   1      32.271  28.334  22.404  1.00  0.00    -0.274 OA
ATOM     16  H   UNL A   1      34.167  27.931  23.737  1.00  0.00     0.163 HD
BRANCH  14  17
ATOM     17  C   UNL A   1      30.803  27.675  24.199  1.00  0.00     0.060 C 
ATOM     18  H   UNL A   1      30.732  28.052  25.198  1.00  0.00     0.045 H 
BRANCH  17  19
ATOM     19  C   UNL A   1      29.757  28.336  23.289  1.00  0.00    -0.049 C 
ATOM     20  H   UNL A   1      29.226  27.581  22.748  1.00  0.00     0.024 H 
ATOM     21  H   UNL A   1      30.248  28.990  22.598  1.00  0.00     0.024 H 
ATOM     22  H   UNL A   1      29.070  28.898  23.885  1.00  0.00     0.024 H 
ENDBRANCH  17  19
BRANCH  17  23
ATOM     23  C   UNL A   1      30.570  26.190  24.457  1.00  0.00    -0.032 A 
ATOM     24  C   UNL A   1      30.462  25.258  23.407  1.00  0.00    -0.054 A 
ATOM     25  C   UNL A   1      30.610  25.709  25.774  1.00  0.00    -0.012 A 
ATOM     26  C   UNL A   1      30.667  23.899  23.641  1.00  0.00    -0.016 A 
ATOM     27  H   UNL A   1      30.230  25.584  22.455  1.00  0.00     0.063 H 
ATOM     28  C   UNL A   1      30.953  24.381  25.992  1.00  0.00     0.161 A 
ATOM     29  H   UNL A   1      30.388  26.331  26.566  1.00  0.00     0.067 H 
ATOM     30  C   UNL A   1      31.027  23.494  24.917  1.00  0.00     0.161 A 
ATOM     31  H   UNL A   1      30.553  23.209  22.882  1.00  0.00     0.066 H 
ATOM     32  O   UNL A   1      31.398  24.075  27.251  1.00  0.00    -0.486 OA
ATOM     33  O   UNL A   1      31.616  22.262  25.057  1.00  0.00    -0.486 OA
ATOM     34  C   UNL A   1      32.264  22.933  27.291  1.00  0.00     0.122 C 
ATOM     35  C   UNL A   1      32.741  22.456  25.924  1.00  0.00     0.122 C 
ATOM     36  H   UNL A   1      31.736  22.129  27.760  1.00  0.00     0.074 H 
ATOM     37  H   UNL A   1      33.137  23.228  27.834  1.00  0.00     0.074 H 
ATOM     38  H   UNL A   1      33.269  21.532  26.033  1.00  0.00     0.074 H 
ATOM     39  H   UNL A   1      33.391  23.194  25.499  1.00  0.00     0.074 H 
ENDBRANCH  17  23
ENDBRANCH  14  17
ENDBRANCH  10  13
ENDBRANCH   7  10
ENDBRANCH   4   7
ENDBRANCH   1   4
BRANCH   1  40
ATOM     40  C   UNL A   1      31.279  32.171  26.651  1.00  0.00    -0.036 C 
ATOM     41  H   UNL A   1      30.687  32.117  27.541  1.00  0.00     0.028 H 
ATOM     42  H   UNL A   1      30.838  32.732  25.854  1.00  0.00     0.028 H 
BRANCH  40  43
ATOM     43  C   UNL A   1      32.570  32.912  26.997  1.00  0.00     0.018 C 
ATOM     44  H   UNL A   1      33.125  33.065  26.094  1.00  0.00     0.049 H 
ATOM     45  H   UNL A   1      33.100  32.306  27.702  1.00  0.00     0.049 H 
BRANCH  43  46
ATOM     46  N   UNL A   1      32.352  34.203  27.626  1.00  0.00    -0.352 N 
ATOM     47  C   UNL A   1      33.014  34.824  28.655  1.00  0.00     0.251 C 
ATOM     48  H   UNL A   1      31.601  34.719  27.252  1.00  0.00     0.163 HD
ATOM     49  O   UNL A   1      32.580  35.897  29.085  1.00  0.00    -0.269 OA
BRANCH  47  50
ATOM     50  C   UNL A   1      34.215  34.231  29.290  1.00  0.00     0.039 A 
ATOM     51  C   UNL A   1      34.028  33.336  30.350  1.00  0.00    -0.049 A 
ATOM     52  C   UNL A   1      35.516  34.566  28.902  1.00  0.00    -0.049 A 
ATOM     53  C   UNL A   1      35.128  32.737  30.972  1.00  0.00    -0.053 A 
ATOM     54  H   UNL A   1      33.073  33.117  30.674  1.00  0.00     0.063 H 
ATOM     55  C   UNL A   1      36.612  33.916  29.476  1.00  0.00    -0.053 A 
ATOM     56  H   UNL A   1      35.667  35.297  28.189  1.00  0.00     0.063 H 
ATOM     57  C   UNL A   1      36.432  32.991  30.516  1.00  0.00    -0.014 A 
ATOM     58  H   UNL A   1      34.981  32.103  31.773  1.00  0.00     0.063 H 
ATOM     59  H   UNL A   1      37.564  34.117  29.131  1.00  0.00     0.063 H 
BRANCH  57  60
ATOM     60  C   UNL A   1      37.593  32.274  31.112  1.00  0.00     0.031 A 
ATOM     61  C   UNL A   1      38.093  32.617  32.489  1.00  0.00     0.074 A 
ATOM     62  C   UNL A   1      38.218  31.319  30.394  1.00  0.00     0.049 A 
ATOM     63  N   UNL A   1      39.089  32.092  33.163  1.00  0.00    -0.248 NA
ATOM     64  C   UNL A   1      37.401  33.704  33.197  1.00  0.00    -0.034 C 
ATOM     65  C   UNL A   1      37.871  30.930  29.027  1.00  0.00    -0.036 A 
ATOM     66  N   UNL A   1      39.278  30.505  30.712  1.00  0.00    -0.354 N 
ATOM     67  C   UNL A   1      39.134  32.777  34.371  1.00  0.00     0.074 A 
ATOM     68  C   UNL A   1      38.110  33.798  34.313  1.00  0.00    -0.034 C 
ATOM     69  H   UNL A   1      36.577  34.250  32.903  1.00  0.00     0.065 H 
ATOM     70  C   UNL A   1      38.684  29.937  28.633  1.00  0.00    -0.036 A 
ATOM     71  H   UNL A   1      37.121  31.351  28.457  1.00  0.00     0.065 H 
ATOM     72  C   UNL A   1      39.630  29.641  29.704  1.00  0.00     0.049 A 
ATOM     73  H   UNL A   1      39.741  30.537  31.580  1.00  0.00     0.167 HD
ATOM     74  C   UNL A   1      39.935  32.556  35.442  1.00  0.00     0.037 A 
ATOM     75  H   UNL A   1      37.953  34.509  35.046  1.00  0.00     0.065 H 
ATOM     76  H   UNL A   1      38.645  29.459  27.718  1.00  0.00     0.065 H 
ATOM     77  C   UNL A   1      40.606  28.714  29.645  1.00  0.00     0.037 A 
ATOM     78  C   UNL A   1      40.953  31.537  35.505  1.00  0.00     0.049 A 
ATOM     79  C   UNL A   1      41.485  28.493  30.846  1.00  0.00     0.074 A 
ATOM     80  C   UNL A   1      41.795  31.219  36.557  1.00  0.00    -0.036 A 
ATOM     81  N   UNL A   1      41.267  30.670  34.469  1.00  0.00    -0.354 N 
ATOM     82  N   UNL A   1      41.472  29.106  32.005  1.00  0.00    -0.248 NA
ATOM     83  C   UNL A   1      42.506  27.442  30.735  1.00  0.00    -0.034 C 
ATOM     84  C   UNL A   1      42.647  30.189  36.144  1.00  0.00    -0.036 A 
ATOM     85  H   UNL A   1      41.795  31.666  37.487  1.00  0.00     0.065 H 
ATOM     86  C   UNL A   1      42.301  29.827  34.852  1.00  0.00     0.049 A 
ATOM     87  H   UNL A   1      40.822  30.654  33.591  1.00  0.00     0.167 HD
ATOM     88  C   UNL A   1      42.463  28.501  32.767  1.00  0.00     0.074 A 
ATOM     89  C   UNL A   1      43.037  27.453  31.949  1.00  0.00    -0.034 C 
ATOM     90  H   UNL A   1      42.746  26.850  29.925  1.00  0.00     0.065 H 
ATOM     91  H   UNL A   1      43.404  29.770  36.705  1.00  0.00     0.065 H 
ATOM     92  C   UNL A   1      42.865  28.789  34.029  1.00  0.00     0.037 A 
ATOM     93  H   UNL A   1      43.768  26.799  32.270  1.00  0.00     0.065 H 
BRANCH  74  94
ATOM     94  C   UNL A   1      39.734  33.424  36.652  1.00  0.00     0.064 A 
ATOM     95  C   UNL A   1      40.413  34.643  36.798  1.00  0.00     0.173 A 
ATOM     96  C   UNL A   1      38.812  33.066  37.648  1.00  0.00     0.173 A 
ATOM     97  F   UNL A   1      41.311  35.029  35.879  1.00  0.00    -0.203 F 
ATOM     98  C   UNL A   1      40.196  35.459  37.906  1.00  0.00     0.198 A 
ATOM     99  C   UNL A   1      38.575  33.898  38.740  1.00  0.00     0.198 A 
ATOM    100  F   UNL A   1      38.130  31.914  37.556  1.00  0.00    -0.203 F 
ATOM    101  F   UNL A   1      40.889  36.597  38.043  1.00  0.00    -0.200 F 
ATOM    102  C   UNL A   1      39.272  35.090  38.872  1.00  0.00     0.200 A 
ATOM    103  F   UNL A   1      37.671  33.547  39.664  1.00  0.00    -0.200 F 
ATOM    104  F   UNL A   1      39.055  35.881  39.931  1.00  0.00    -0.200 F 
ENDBRANCH  74  94
BRANCH  77 105
ATOM    105  C   UNL A   1      40.800  27.913  28.406  1.00  0.00     0.064 A 
ATOM    106  C   UNL A   1      40.171  26.670  28.239  1.00  0.00     0.173 A 
ATOM    107  C   UNL A   1      41.637  28.363  27.374  1.00  0.00     0.173 A 
ATOM    108  F   UNL A   1      39.377  26.187  29.206  1.00  0.00    -0.203 F 
ATOM    109  C   UNL A   1      40.397  25.896  27.102  1.00  0.00     0.198 A 
ATOM    110  C   UNL A   1      41.835  27.603  26.224  1.00  0.00     0.198 A 
ATOM    111  F   UNL A   1      42.256  29.548  27.480  1.00  0.00    -0.203 F 
ATOM    112  F   UNL A   1      39.830  24.686  26.996  1.00  0.00    -0.200 F 
ATOM    113  C   UNL A   1      41.225  26.365  26.094  1.00  0.00     0.200 A 
ATOM    114  F   UNL A   1      42.622  28.067  25.244  1.00  0.00    -0.200 F 
ATOM    115  F   UNL A   1      41.442  25.619  25.002  1.00  0.00    -0.200 F 
ENDBRANCH  77 105
BRANCH  92 116
ATOM    116  C   UNL A   1      43.962  27.942  34.609  1.00  0.00     0.064 A 
ATOM    117  C   UNL A   1      43.688  26.736  35.273  1.00  0.00     0.173 A 
ATOM    118  C   UNL A   1      45.304  28.335  34.491  1.00  0.00     0.173 A 
ATOM    119  F   UNL A   1      42.422  26.322  35.426  1.00  0.00    -0.203 F 
ATOM    120  C   UNL A   1      44.713  25.976  35.831  1.00  0.00     0.198 A 
ATOM    121  C   UNL A   1      46.329  27.556  35.020  1.00  0.00     0.198 A 
ATOM    122  F   UNL A   1      45.622  29.474  33.860  1.00  0.00    -0.203 F 
ATOM    123  F   UNL A   1      44.422  24.862  36.514  1.00  0.00    -0.200 F 
ATOM    124  C   UNL A   1      46.032  26.384  35.700  1.00  0.00     0.200 A 
ATOM    125  F   UNL A   1      47.604  27.943  34.881  1.00  0.00    -0.200 F 
ATOM    126  F   UNL A   1      47.018  25.652  36.238  1.00  0.00    -0.200 F 
ENDBRANCH  92 116
ENDBRANCH  57  60
ENDBRANCH  47  50
ENDBRANCH  43  46
ENDBRANCH  40  43
ENDBRANCH   1  40
TORSDOF 15
ENDMDL
MODEL 7
REMARK VINA RESULT:     -11.5      6.020     11.482
REMARK SMILES C[C@H](C(=O)NCCCCCCNC(=O)c1ccc(-c2c3nc(c(-c4c(F)c(F)c(F)c(F)c4F)c4ccc([nH]4)c(-c4c(F)c(F)c(F)c(F)c4F)c4nc(c(-c5c(F)c(F)c(F)c(F)c5F)c5ccc2[nH]5)C=C4)C=C3)cc1)c1ccc2c(c1)OCCO2
REMARK SMILES IDX 9 1 8 4 7 7 6 10 5 13 3 14 4 15 2 17 1 19 78 23 79 24 83 25
REMARK SMILES IDX 80 26 82 28 81 30 84 32 87 33 85 34 86 35 10 40 11 43 12 46
REMARK SMILES IDX 13 47 14 49 15 50 16 51 77 52 17 53 76 55 18 57 19 60 20 61
REMARK SMILES IDX 70 62 21 63 75 64 69 65 71 66 22 67 74 68 68 70 67 72 23 74
REMARK SMILES IDX 55 77 35 78 54 79 36 80 39 81 53 82 72 83 37 84 38 86 52 88
REMARK SMILES IDX 73 89 40 92 24 94 25 95 33 96 26 97 27 98 31 99 34 100
REMARK SMILES IDX 28 101 29 102 32 103 30 104 56 105 57 106 65 107 58 108
REMARK SMILES IDX 59 109 63 110 66 111 60 112 61 113 64 114 62 115 41 116
REMARK SMILES IDX 42 117 50 118 43 119 44 120 48 121 51 122 45 123 46 124
REMARK SMILES IDX 49 125 47 126
REMARK H PARENT 9 2 9 3 8 5 8 6 7 8 7 9 6 11 6 12 5 16 2 18 1 20 1 21 1 22
REMARK H PARENT 79 27 83 29 80 31 85 36 85 37 86 38 86 39 10 41 10 42 11 44
REMARK H PARENT 11 45 12 48 16 54 77 56 17 58 76 59 75 69 69 71 71 73 74 75
REMARK H PARENT 68 76 36 85 39 87 72 90 37 91 73 93
REMARK Flexibility Score: inf
ROOT
ATOM      1  C   UNL A   1      36.513  20.444  25.001  1.00  0.00    -0.052 C 
ATOM      2  H   UNL A   1      36.200  20.582  23.987  1.00  0.00     0.027 H 
ATOM      3  H   UNL A   1      35.818  19.910  25.614  1.00  0.00     0.027 H 
ENDROOT
BRANCH   1   4
ATOM      4  C   UNL A   1      36.633  21.830  25.641  1.00  0.00    -0.052 C 
ATOM      5  H   UNL A   1      35.876  21.906  26.394  1.00  0.00     0.027 H 
ATOM      6  H   UNL A   1      37.637  21.882  26.008  1.00  0.00     0.027 H 
BRANCH   4   7
ATOM      7  C   UNL A   1      36.482  23.038  24.712  1.00  0.00    -0.036 C 
ATOM      8  H   UNL A   1      36.050  23.834  25.281  1.00  0.00     0.028 H 
ATOM      9  H   UNL A   1      37.467  23.236  24.345  1.00  0.00     0.028 H 
BRANCH   7  10
ATOM     10  C   UNL A   1      35.622  22.839  23.465  1.00  0.00     0.017 C 
ATOM     11  H   UNL A   1      36.156  23.235  22.627  1.00  0.00     0.049 H 
ATOM     12  H   UNL A   1      35.439  21.787  23.393  1.00  0.00     0.049 H 
BRANCH  10  13
ATOM     13  N   UNL A   1      34.316  23.476  23.509  1.00  0.00    -0.356 N 
ATOM     14  C   UNL A   1      33.283  23.330  24.396  1.00  0.00     0.227 C 
ATOM     15  O   UNL A   1      32.401  24.197  24.357  1.00  0.00    -0.274 OA
ATOM     16  H   UNL A   1      34.148  24.120  22.783  1.00  0.00     0.163 HD
BRANCH  14  17
ATOM     17  C   UNL A   1      33.110  22.108  25.327  1.00  0.00     0.060 C 
ATOM     18  H   UNL A   1      34.072  21.769  25.654  1.00  0.00     0.045 H 
BRANCH  17  19
ATOM     19  C   UNL A   1      32.269  22.596  26.515  1.00  0.00    -0.049 C 
ATOM     20  H   UNL A   1      32.377  21.913  27.332  1.00  0.00     0.024 H 
ATOM     21  H   UNL A   1      31.240  22.647  26.227  1.00  0.00     0.024 H 
ATOM     22  H   UNL A   1      32.604  23.567  26.815  1.00  0.00     0.024 H 
ENDBRANCH  17  19
BRANCH  17  23
ATOM     23  C   UNL A   1      32.592  20.837  24.661  1.00  0.00    -0.032 A 
ATOM     24  C   UNL A   1      32.228  20.803  23.301  1.00  0.00    -0.054 A 
ATOM     25  C   UNL A   1      32.612  19.631  25.376  1.00  0.00    -0.012 A 
ATOM     26  C   UNL A   1      32.161  19.591  22.615  1.00  0.00    -0.016 A 
ATOM     27  H   UNL A   1      32.010  21.683  22.807  1.00  0.00     0.063 H 
ATOM     28  C   UNL A   1      32.685  18.436  24.673  1.00  0.00     0.161 A 
ATOM     29  H   UNL A   1      32.574  19.632  26.407  1.00  0.00     0.067 H 
ATOM     30  C   UNL A   1      32.508  18.430  23.289  1.00  0.00     0.161 A 
ATOM     31  H   UNL A   1      31.860  19.558  21.628  1.00  0.00     0.066 H 
ATOM     32  O   UNL A   1      33.134  17.351  25.378  1.00  0.00    -0.486 OA
ATOM     33  O   UNL A   1      32.836  17.328  22.539  1.00  0.00    -0.486 OA
ATOM     34  C   UNL A   1      33.746  16.347  24.556  1.00  0.00     0.122 C 
ATOM     35  C   UNL A   1      34.028  16.790  23.126  1.00  0.00     0.122 C 
ATOM     36  H   UNL A   1      33.092  15.500  24.522  1.00  0.00     0.074 H 
ATOM     37  H   UNL A   1      34.693  16.122  25.000  1.00  0.00     0.074 H 
ATOM     38  H   UNL A   1      34.358  15.950  22.552  1.00  0.00     0.074 H 
ATOM     39  H   UNL A   1      34.789  17.543  23.133  1.00  0.00     0.074 H 
ENDBRANCH  17  23
ENDBRANCH  14  17
ENDBRANCH  10  13
ENDBRANCH   7  10
ENDBRANCH   4   7
ENDBRANCH   1   4
BRANCH   1  40
ATOM     40  C   UNL A   1      37.779  19.582  24.983  1.00  0.00    -0.036 C 
ATOM     41  H   UNL A   1      38.073  19.458  23.962  1.00  0.00     0.028 H 
ATOM     42  H   UNL A   1      37.509  18.676  25.483  1.00  0.00     0.028 H 
BRANCH  40  43
ATOM     43  C   UNL A   1      38.986  20.120  25.751  1.00  0.00     0.018 C 
ATOM     44  H   UNL A   1      38.684  20.319  26.759  1.00  0.00     0.049 H 
ATOM     45  H   UNL A   1      39.314  21.002  25.242  1.00  0.00     0.049 H 
BRANCH  43  46
ATOM     46  N   UNL A   1      40.113  19.203  25.782  1.00  0.00    -0.352 N 
ATOM     47  C   UNL A   1      41.445  19.427  26.026  1.00  0.00     0.251 C 
ATOM     48  H   UNL A   1      39.883  18.264  25.596  1.00  0.00     0.163 HD
ATOM     49  O   UNL A   1      42.240  18.491  25.904  1.00  0.00    -0.269 OA
BRANCH  47  50
ATOM     50  C   UNL A   1      41.964  20.765  26.398  1.00  0.00     0.039 A 
ATOM     51  C   UNL A   1      42.188  21.694  25.376  1.00  0.00    -0.049 A 
ATOM     52  C   UNL A   1      42.278  21.111  27.715  1.00  0.00    -0.049 A 
ATOM     53  C   UNL A   1      42.662  22.975  25.676  1.00  0.00    -0.053 A 
ATOM     54  H   UNL A   1      42.003  21.433  24.395  1.00  0.00     0.063 H 
ATOM     55  C   UNL A   1      42.685  22.413  28.024  1.00  0.00    -0.053 A 
ATOM     56  H   UNL A   1      42.209  20.402  28.463  1.00  0.00     0.063 H 
ATOM     57  C   UNL A   1      42.879  23.362  27.009  1.00  0.00    -0.014 A 
ATOM     58  H   UNL A   1      42.854  23.642  24.912  1.00  0.00     0.063 H 
ATOM     59  H   UNL A   1      42.843  22.679  29.009  1.00  0.00     0.063 H 
BRANCH  57  60
ATOM     60  C   UNL A   1      43.285  24.757  27.334  1.00  0.00     0.031 A 
ATOM     61  C   UNL A   1      44.691  25.233  27.088  1.00  0.00     0.074 A 
ATOM     62  C   UNL A   1      42.382  25.598  27.877  1.00  0.00     0.049 A 
ATOM     63  N   UNL A   1      45.215  26.416  27.309  1.00  0.00    -0.248 NA
ATOM     64  C   UNL A   1      45.641  24.252  26.544  1.00  0.00    -0.034 C 
ATOM     65  C   UNL A   1      41.002  25.246  28.218  1.00  0.00    -0.036 A 
ATOM     66  N   UNL A   1      42.487  26.918  28.241  1.00  0.00    -0.354 N 
ATOM     67  C   UNL A   1      46.546  26.320  26.923  1.00  0.00     0.074 A 
ATOM     68  C   UNL A   1      46.768  24.949  26.516  1.00  0.00    -0.034 C 
ATOM     69  H   UNL A   1      45.474  23.276  26.256  1.00  0.00     0.065 H 
ATOM     70  C   UNL A   1      40.384  26.328  28.718  1.00  0.00    -0.036 A 
ATOM     71  H   UNL A   1      40.574  24.316  28.094  1.00  0.00     0.065 H 
ATOM     72  C   UNL A   1      41.328  27.440  28.763  1.00  0.00     0.049 A 
ATOM     73  H   UNL A   1      43.314  27.441  28.137  1.00  0.00     0.167 HD
ATOM     74  C   UNL A   1      47.490  27.293  26.883  1.00  0.00     0.037 A 
ATOM     75  H   UNL A   1      47.686  24.564  26.241  1.00  0.00     0.065 H 
ATOM     76  H   UNL A   1      39.397  26.366  29.020  1.00  0.00     0.065 H 
ATOM     77  C   UNL A   1      41.055  28.673  29.229  1.00  0.00     0.037 A 
ATOM     78  C   UNL A   1      47.271  28.660  27.283  1.00  0.00     0.049 A 
ATOM     79  C   UNL A   1      42.122  29.733  29.178  1.00  0.00     0.074 A 
ATOM     80  C   UNL A   1      48.158  29.723  27.252  1.00  0.00    -0.036 A 
ATOM     81  N   UNL A   1      46.078  29.154  27.790  1.00  0.00    -0.354 N 
ATOM     82  N   UNL A   1      43.357  29.643  28.749  1.00  0.00    -0.248 NA
ATOM     83  C   UNL A   1      41.753  31.070  29.663  1.00  0.00    -0.034 C 
ATOM     84  C   UNL A   1      47.516  30.849  27.779  1.00  0.00    -0.036 A 
ATOM     85  H   UNL A   1      49.128  29.690  26.900  1.00  0.00     0.065 H 
ATOM     86  C   UNL A   1      46.211  30.502  28.089  1.00  0.00     0.049 A 
ATOM     87  H   UNL A   1      45.257  28.626  27.919  1.00  0.00     0.167 HD
ATOM     88  C   UNL A   1      43.904  30.912  28.890  1.00  0.00     0.074 A 
ATOM     89  C   UNL A   1      42.856  31.761  29.418  1.00  0.00    -0.034 C 
ATOM     90  H   UNL A   1      40.865  31.387  30.085  1.00  0.00     0.065 H 
ATOM     91  H   UNL A   1      47.941  31.779  27.913  1.00  0.00     0.065 H 
ATOM     92  C   UNL A   1      45.161  31.336  28.615  1.00  0.00     0.037 A 
ATOM     93  H   UNL A   1      42.956  32.774  29.582  1.00  0.00     0.065 H 
BRANCH  74  94
ATOM     94  C   UNL A   1      48.852  26.920  26.368  1.00  0.00     0.064 A 
ATOM     95  C   UNL A   1      49.838  26.403  27.222  1.00  0.00     0.173 A 
ATOM     96  C   UNL A   1      49.157  27.024  25.003  1.00  0.00     0.173 A 
ATOM     97  F   UNL A   1      49.601  26.291  28.538  1.00  0.00    -0.203 F 
ATOM     98  C   UNL A   1      51.087  26.028  26.733  1.00  0.00     0.198 A 
ATOM     99  C   UNL A   1      50.396  26.619  24.512  1.00  0.00     0.198 A 
ATOM    100  F   UNL A   1      48.249  27.506  24.141  1.00  0.00    -0.203 F 
ATOM    101  F   UNL A   1      52.027  25.578  27.575  1.00  0.00    -0.200 F 
ATOM    102  C   UNL A   1      51.363  26.128  25.377  1.00  0.00     0.200 A 
ATOM    103  F   UNL A   1      50.656  26.703  23.200  1.00  0.00    -0.200 F 
ATOM    104  F   UNL A   1      52.560  25.756  24.906  1.00  0.00    -0.200 F 
ENDBRANCH  74  94
BRANCH  77 105
ATOM    105  C   UNL A   1      39.706  28.982  29.775  1.00  0.00     0.064 A 
ATOM    106  C   UNL A   1      39.402  28.762  31.127  1.00  0.00     0.173 A 
ATOM    107  C   UNL A   1      38.685  29.482  28.953  1.00  0.00     0.173 A 
ATOM    108  F   UNL A   1      40.338  28.267  31.951  1.00  0.00    -0.203 F 
ATOM    109  C   UNL A   1      38.123  29.000  31.626  1.00  0.00     0.198 A 
ATOM    110  C   UNL A   1      37.417  29.751  29.460  1.00  0.00     0.198 A 
ATOM    111  F   UNL A   1      38.925  29.717  27.654  1.00  0.00    -0.203 F 
ATOM    112  F   UNL A   1      37.845  28.724  32.908  1.00  0.00    -0.200 F 
ATOM    113  C   UNL A   1      37.133  29.498  30.793  1.00  0.00     0.200 A 
ATOM    114  F   UNL A   1      36.468  30.248  28.656  1.00  0.00    -0.200 F 
ATOM    115  F   UNL A   1      35.903  29.726  31.274  1.00  0.00    -0.200 F 
ENDBRANCH  77 105
BRANCH  92 116
ATOM    116  C   UNL A   1      45.463  32.788  28.854  1.00  0.00     0.064 A 
ATOM    117  C   UNL A   1      45.230  33.761  27.869  1.00  0.00     0.173 A 
ATOM    118  C   UNL A   1      45.981  33.215  30.087  1.00  0.00     0.173 A 
ATOM    119  F   UNL A   1      44.749  33.405  26.669  1.00  0.00    -0.203 F 
ATOM    120  C   UNL A   1      45.542  35.099  28.095  1.00  0.00     0.198 A 
ATOM    121  C   UNL A   1      46.260  34.558  30.322  1.00  0.00     0.198 A 
ATOM    122  F   UNL A   1      46.215  32.329  31.065  1.00  0.00    -0.203 F 
ATOM    123  F   UNL A   1      45.370  35.999  27.118  1.00  0.00    -0.200 F 
ATOM    124  C   UNL A   1      46.051  35.498  29.322  1.00  0.00     0.200 A 
ATOM    125  F   UNL A   1      46.739  34.944  31.511  1.00  0.00    -0.200 F 
ATOM    126  F   UNL A   1      46.352  36.786  29.538  1.00  0.00    -0.200 F 
ENDBRANCH  92 116
ENDBRANCH  57  60
ENDBRANCH  47  50
ENDBRANCH  43  46
ENDBRANCH  40  43
ENDBRANCH   1  40
TORSDOF 15
ENDMDL
MODEL 8
REMARK VINA RESULT:     -11.5      1.583      8.027
REMARK SMILES C[C@H](C(=O)NCCCCCCNC(=O)c1ccc(-c2c3nc(c(-c4c(F)c(F)c(F)c(F)c4F)c4ccc([nH]4)c(-c4c(F)c(F)c(F)c(F)c4F)c4nc(c(-c5c(F)c(F)c(F)c(F)c5F)c5ccc2[nH]5)C=C4)C=C3)cc1)c1ccc2c(c1)OCCO2
REMARK SMILES IDX 9 1 8 4 7 7 6 10 5 13 3 14 4 15 2 17 1 19 78 23 79 24 83 25
REMARK SMILES IDX 80 26 82 28 81 30 84 32 87 33 85 34 86 35 10 40 11 43 12 46
REMARK SMILES IDX 13 47 14 49 15 50 16 51 77 52 17 53 76 55 18 57 19 60 20 61
REMARK SMILES IDX 70 62 21 63 75 64 69 65 71 66 22 67 74 68 68 70 67 72 23 74
REMARK SMILES IDX 55 77 35 78 54 79 36 80 39 81 53 82 72 83 37 84 38 86 52 88
REMARK SMILES IDX 73 89 40 92 24 94 25 95 33 96 26 97 27 98 31 99 34 100
REMARK SMILES IDX 28 101 29 102 32 103 30 104 56 105 57 106 65 107 58 108
REMARK SMILES IDX 59 109 63 110 66 111 60 112 61 113 64 114 62 115 41 116
REMARK SMILES IDX 42 117 50 118 43 119 44 120 48 121 51 122 45 123 46 124
REMARK SMILES IDX 49 125 47 126
REMARK H PARENT 9 2 9 3 8 5 8 6 7 8 7 9 6 11 6 12 5 16 2 18 1 20 1 21 1 22
REMARK H PARENT 79 27 83 29 80 31 85 36 85 37 86 38 86 39 10 41 10 42 11 44
REMARK H PARENT 11 45 12 48 16 54 77 56 17 58 76 59 75 69 69 71 71 73 74 75
REMARK H PARENT 68 76 36 85 39 87 72 90 37 91 73 93
REMARK Flexibility Score: inf
ROOT
ATOM      1  C   UNL A   1      31.404  30.860  25.954  1.00  0.00    -0.052 C 
ATOM      2  H   UNL A   1      30.424  30.506  25.714  1.00  0.00     0.027 H 
ATOM      3  H   UNL A   1      32.064  30.953  25.118  1.00  0.00     0.027 H 
ENDROOT
BRANCH   1   4
ATOM      4  C   UNL A   1      32.060  29.821  26.870  1.00  0.00    -0.052 C 
ATOM      5  H   UNL A   1      32.136  30.252  27.846  1.00  0.00     0.027 H 
ATOM      6  H   UNL A   1      31.430  28.957  26.808  1.00  0.00     0.027 H 
BRANCH   4   7
ATOM      7  C   UNL A   1      33.455  29.330  26.472  1.00  0.00    -0.036 C 
ATOM      8  H   UNL A   1      33.876  30.052  25.805  1.00  0.00     0.028 H 
ATOM      9  H   UNL A   1      33.986  29.213  27.394  1.00  0.00     0.028 H 
BRANCH   7  10
ATOM     10  C   UNL A   1      33.531  27.966  25.788  1.00  0.00     0.017 C 
ATOM     11  H   UNL A   1      34.502  27.557  25.973  1.00  0.00     0.049 H 
ATOM     12  H   UNL A   1      32.737  27.380  26.201  1.00  0.00     0.049 H 
BRANCH  10  13
ATOM     13  N   UNL A   1      33.316  27.986  24.351  1.00  0.00    -0.356 N 
ATOM     14  C   UNL A   1      32.157  28.043  23.623  1.00  0.00     0.227 C 
ATOM     15  O   UNL A   1      32.276  28.328  22.425  1.00  0.00    -0.274 OA
ATOM     16  H   UNL A   1      34.139  27.954  23.811  1.00  0.00     0.163 HD
BRANCH  14  17
ATOM     17  C   UNL A   1      30.767  27.659  24.182  1.00  0.00     0.060 C 
ATOM     18  H   UNL A   1      30.663  28.044  25.176  1.00  0.00     0.045 H 
BRANCH  17  19
ATOM     19  C   UNL A   1      29.739  28.300  23.238  1.00  0.00    -0.049 C 
ATOM     20  H   UNL A   1      28.997  27.575  22.975  1.00  0.00     0.024 H 
ATOM     21  H   UNL A   1      30.233  28.641  22.352  1.00  0.00     0.024 H 
ATOM     22  H   UNL A   1      29.271  29.128  23.728  1.00  0.00     0.024 H 
ENDBRANCH  17  19
BRANCH  17  23
ATOM     23  C   UNL A   1      30.547  26.173  24.446  1.00  0.00    -0.032 A 
ATOM     24  C   UNL A   1      30.448  25.236  23.399  1.00  0.00    -0.054 A 
ATOM     25  C   UNL A   1      30.590  25.698  25.765  1.00  0.00    -0.012 A 
ATOM     26  C   UNL A   1      30.665  23.880  23.639  1.00  0.00    -0.016 A 
ATOM     27  H   UNL A   1      30.214  25.557  22.447  1.00  0.00     0.063 H 
ATOM     28  C   UNL A   1      30.944  24.374  25.989  1.00  0.00     0.161 A 
ATOM     29  H   UNL A   1      30.362  26.322  26.555  1.00  0.00     0.067 H 
ATOM     30  C   UNL A   1      31.027  23.484  24.917  1.00  0.00     0.161 A 
ATOM     31  H   UNL A   1      30.557  23.186  22.883  1.00  0.00     0.066 H 
ATOM     32  O   UNL A   1      31.391  24.077  27.249  1.00  0.00    -0.486 OA
ATOM     33  O   UNL A   1      31.626  22.258  25.063  1.00  0.00    -0.486 OA
ATOM     34  C   UNL A   1      32.267  22.942  27.294  1.00  0.00     0.122 C 
ATOM     35  C   UNL A   1      32.749  22.464  25.930  1.00  0.00     0.122 C 
ATOM     36  H   UNL A   1      31.745  22.135  27.767  1.00  0.00     0.074 H 
ATOM     37  H   UNL A   1      33.137  23.247  27.837  1.00  0.00     0.074 H 
ATOM     38  H   UNL A   1      33.284  21.546  26.043  1.00  0.00     0.074 H 
ATOM     39  H   UNL A   1      33.392  23.206  25.503  1.00  0.00     0.074 H 
ENDBRANCH  17  23
ENDBRANCH  14  17
ENDBRANCH  10  13
ENDBRANCH   7  10
ENDBRANCH   4   7
ENDBRANCH   1   4
BRANCH   1  40
ATOM     40  C   UNL A   1      31.261  32.278  26.514  1.00  0.00    -0.036 C 
ATOM     41  H   UNL A   1      30.510  32.252  27.276  1.00  0.00     0.028 H 
ATOM     42  H   UNL A   1      31.022  32.890  25.670  1.00  0.00     0.028 H 
BRANCH  40  43
ATOM     43  C   UNL A   1      32.516  32.906  27.122  1.00  0.00     0.018 C 
ATOM     44  H   UNL A   1      33.276  32.940  26.369  1.00  0.00     0.049 H 
ATOM     45  H   UNL A   1      32.797  32.299  27.957  1.00  0.00     0.049 H 
BRANCH  43  46
ATOM     46  N   UNL A   1      32.308  34.253  27.626  1.00  0.00    -0.352 N 
ATOM     47  C   UNL A   1      32.949  34.947  28.620  1.00  0.00     0.251 C 
ATOM     48  H   UNL A   1      31.586  34.750  27.179  1.00  0.00     0.163 HD
ATOM     49  O   UNL A   1      32.529  36.064  28.937  1.00  0.00    -0.269 OA
BRANCH  47  50
ATOM     50  C   UNL A   1      34.111  34.386  29.351  1.00  0.00     0.039 A 
ATOM     51  C   UNL A   1      33.871  33.710  30.553  1.00  0.00    -0.049 A 
ATOM     52  C   UNL A   1      35.427  34.546  28.909  1.00  0.00    -0.049 A 
ATOM     53  C   UNL A   1      34.931  33.148  31.271  1.00  0.00    -0.053 A 
ATOM     54  H   UNL A   1      32.907  33.626  30.911  1.00  0.00     0.063 H 
ATOM     55  C   UNL A   1      36.480  33.926  29.590  1.00  0.00    -0.053 A 
ATOM     56  H   UNL A   1      35.624  35.125  28.077  1.00  0.00     0.063 H 
ATOM     57  C   UNL A   1      36.244  33.217  30.778  1.00  0.00    -0.014 A 
ATOM     58  H   UNL A   1      34.747  32.680  32.173  1.00  0.00     0.063 H 
ATOM     59  H   UNL A   1      37.439  33.988  29.214  1.00  0.00     0.063 H 
BRANCH  57  60
ATOM     60  C   UNL A   1      37.356  32.530  31.491  1.00  0.00     0.031 A 
ATOM     61  C   UNL A   1      38.072  31.361  30.870  1.00  0.00     0.074 A 
ATOM     62  C   UNL A   1      37.709  32.949  32.723  1.00  0.00     0.049 A 
ATOM     63  N   UNL A   1      39.063  30.647  31.349  1.00  0.00    -0.248 NA
ATOM     64  C   UNL A   1      37.603  30.919  29.549  1.00  0.00    -0.034 C 
ATOM     65  C   UNL A   1      37.059  34.033  33.462  1.00  0.00    -0.036 A 
ATOM     66  N   UNL A   1      38.696  32.514  33.573  1.00  0.00    -0.354 N 
ATOM     67  C   UNL A   1      39.338  29.684  30.387  1.00  0.00     0.074 A 
ATOM     68  C   UNL A   1      38.370  29.861  29.326  1.00  0.00    -0.034 C 
ATOM     69  H   UNL A   1      36.870  31.327  28.949  1.00  0.00     0.065 H 
ATOM     70  C   UNL A   1      37.680  34.195  34.642  1.00  0.00    -0.036 A 
ATOM     71  H   UNL A   1      36.254  34.585  33.129  1.00  0.00     0.065 H 
ATOM     72  C   UNL A   1      38.748  33.207  34.758  1.00  0.00     0.049 A 
ATOM     73  H   UNL A   1      39.309  31.775  33.354  1.00  0.00     0.167 HD
ATOM     74  C   UNL A   1      40.327  28.756  30.374  1.00  0.00     0.037 A 
ATOM     75  H   UNL A   1      38.287  29.243  28.503  1.00  0.00     0.065 H 
ATOM     76  H   UNL A   1      37.440  34.905  35.352  1.00  0.00     0.065 H 
ATOM     77  C   UNL A   1      39.563  33.065  35.821  1.00  0.00     0.037 A 
ATOM     78  C   UNL A   1      41.296  28.580  31.427  1.00  0.00     0.049 A 
ATOM     79  C   UNL A   1      40.648  32.022  35.783  1.00  0.00     0.074 A 
ATOM     80  C   UNL A   1      42.350  27.685  31.490  1.00  0.00    -0.036 A 
ATOM     81  N   UNL A   1      41.326  29.314  32.603  1.00  0.00    -0.354 N 
ATOM     82  N   UNL A   1      40.937  31.163  34.837  1.00  0.00    -0.248 NA
ATOM     83  C   UNL A   1      41.529  31.941  36.956  1.00  0.00    -0.034 C 
ATOM     84  C   UNL A   1      42.993  27.848  32.722  1.00  0.00    -0.036 A 
ATOM     85  H   UNL A   1      42.617  27.012  30.754  1.00  0.00     0.065 H 
ATOM     86  C   UNL A   1      42.373  28.882  33.405  1.00  0.00     0.049 A 
ATOM     87  H   UNL A   1      40.698  30.035  32.836  1.00  0.00     0.167 HD
ATOM     88  C   UNL A   1      42.044  30.456  35.288  1.00  0.00     0.074 A 
ATOM     89  C   UNL A   1      42.392  31.008  36.581  1.00  0.00    -0.034 C 
ATOM     90  H   UNL A   1      41.488  32.472  37.840  1.00  0.00     0.065 H 
ATOM     91  H   UNL A   1      43.793  27.295  33.064  1.00  0.00     0.065 H 
ATOM     92  C   UNL A   1      42.709  29.438  34.691  1.00  0.00     0.037 A 
ATOM     93  H   UNL A   1      43.208  30.712  37.139  1.00  0.00     0.065 H 
BRANCH  74  94
ATOM     94  C   UNL A   1      40.427  27.863  29.170  1.00  0.00     0.064 A 
ATOM     95  C   UNL A   1      39.680  26.679  29.074  1.00  0.00     0.173 A 
ATOM     96  C   UNL A   1      41.230  28.220  28.076  1.00  0.00     0.173 A 
ATOM     97  F   UNL A   1      38.903  26.287  30.095  1.00  0.00    -0.203 F 
ATOM     98  C   UNL A   1      39.752  25.873  27.940  1.00  0.00     0.198 A 
ATOM     99  C   UNL A   1      41.276  27.427  26.931  1.00  0.00     0.198 A 
ATOM    100  F   UNL A   1      41.961  29.345  28.110  1.00  0.00    -0.203 F 
ATOM    101  F   UNL A   1      39.062  24.725  27.892  1.00  0.00    -0.200 F 
ATOM    102  C   UNL A   1      40.543  26.252  26.866  1.00  0.00     0.200 A 
ATOM    103  F   UNL A   1      42.030  27.802  25.888  1.00  0.00    -0.200 F 
ATOM    104  F   UNL A   1      40.602  25.482  25.772  1.00  0.00    -0.200 F 
ENDBRANCH  74  94
BRANCH  77 105
ATOM    105  C   UNL A   1      39.393  33.939  37.013  1.00  0.00     0.064 A 
ATOM    106  C   UNL A   1      39.973  35.215  37.066  1.00  0.00     0.173 A 
ATOM    107  C   UNL A   1      38.667  33.508  38.133  1.00  0.00     0.173 A 
ATOM    108  F   UNL A   1      40.694  35.666  36.028  1.00  0.00    -0.203 F 
ATOM    109  C   UNL A   1      39.860  36.011  38.205  1.00  0.00     0.198 A 
ATOM    110  C   UNL A   1      38.527  34.318  39.257  1.00  0.00     0.198 A 
ATOM    111  F   UNL A   1      38.086  32.299  38.131  1.00  0.00    -0.203 F 
ATOM    112  F   UNL A   1      40.475  37.201  38.250  1.00  0.00    -0.200 F 
ATOM    113  C   UNL A   1      39.133  35.564  39.297  1.00  0.00     0.200 A 
ATOM    114  F   UNL A   1      37.809  33.889  40.303  1.00  0.00    -0.200 F 
ATOM    115  F   UNL A   1      39.025  36.330  40.391  1.00  0.00    -0.200 F 
ENDBRANCH  77 105
BRANCH  92 116
ATOM    116  C   UNL A   1      43.896  28.874  35.418  1.00  0.00     0.064 A 
ATOM    117  C   UNL A   1      45.195  29.358  35.194  1.00  0.00     0.173 A 
ATOM    118  C   UNL A   1      43.734  27.846  36.359  1.00  0.00     0.173 A 
ATOM    119  F   UNL A   1      45.408  30.329  34.294  1.00  0.00    -0.203 F 
ATOM    120  C   UNL A   1      46.290  28.805  35.854  1.00  0.00     0.198 A 
ATOM    121  C   UNL A   1      44.826  27.319  37.042  1.00  0.00     0.198 A 
ATOM    122  F   UNL A   1      42.514  27.353  36.618  1.00  0.00    -0.203 F 
ATOM    123  F   UNL A   1      47.526  29.239  35.576  1.00  0.00    -0.200 F 
ATOM    124  C   UNL A   1      46.104  27.790  36.781  1.00  0.00     0.200 A 
ATOM    125  F   UNL A   1      44.644  26.349  37.948  1.00  0.00    -0.200 F 
ATOM    126  F   UNL A   1      47.158  27.259  37.415  1.00  0.00    -0.200 F 
ENDBRANCH  92 116
ENDBRANCH  57  60
ENDBRANCH  47  50
ENDBRANCH  43  46
ENDBRANCH  40  43
ENDBRANCH   1  40
TORSDOF 15
ENDMDL
MODEL 9
REMARK VINA RESULT:     -11.4      1.593      2.269
REMARK SMILES C[C@H](C(=O)NCCCCCCNC(=O)c1ccc(-c2c3nc(c(-c4c(F)c(F)c(F)c(F)c4F)c4ccc([nH]4)c(-c4c(F)c(F)c(F)c(F)c4F)c4nc(c(-c5c(F)c(F)c(F)c(F)c5F)c5ccc2[nH]5)C=C4)C=C3)cc1)c1ccc2c(c1)OCCO2
REMARK SMILES IDX 9 1 8 4 7 7 6 10 5 13 3 14 4 15 2 17 1 19 78 23 79 24 83 25
REMARK SMILES IDX 80 26 82 28 81 30 84 32 87 33 85 34 86 35 10 40 11 43 12 46
REMARK SMILES IDX 13 47 14 49 15 50 16 51 77 52 17 53 76 55 18 57 19 60 20 61
REMARK SMILES IDX 70 62 21 63 75 64 69 65 71 66 22 67 74 68 68 70 67 72 23 74
REMARK SMILES IDX 55 77 35 78 54 79 36 80 39 81 53 82 72 83 37 84 38 86 52 88
REMARK SMILES IDX 73 89 40 92 24 94 25 95 33 96 26 97 27 98 31 99 34 100
REMARK SMILES IDX 28 101 29 102 32 103 30 104 56 105 57 106 65 107 58 108
REMARK SMILES IDX 59 109 63 110 66 111 60 112 61 113 64 114 62 115 41 116
REMARK SMILES IDX 42 117 50 118 43 119 44 120 48 121 51 122 45 123 46 124
REMARK SMILES IDX 49 125 47 126
REMARK H PARENT 9 2 9 3 8 5 8 6 7 8 7 9 6 11 6 12 5 16 2 18 1 20 1 21 1 22
REMARK H PARENT 79 27 83 29 80 31 85 36 85 37 86 38 86 39 10 41 10 42 11 44
REMARK H PARENT 11 45 12 48 16 54 77 56 17 58 76 59 75 69 69 71 71 73 74 75
REMARK H PARENT 68 76 36 85 39 87 72 90 37 91 73 93
REMARK Flexibility Score: inf
ROOT
ATOM      1  C   UNL A   1      32.093  27.512  26.504  1.00  0.00    -0.052 C 
ATOM      2  H   UNL A   1      31.784  27.238  27.492  1.00  0.00     0.027 H 
ATOM      3  H   UNL A   1      31.620  26.960  25.719  1.00  0.00     0.027 H 
ENDROOT
BRANCH   1   4
ATOM      4  C   UNL A   1      33.585  27.190  26.379  1.00  0.00    -0.052 C 
ATOM      5  H   UNL A   1      34.126  28.105  26.504  1.00  0.00     0.027 H 
ATOM      6  H   UNL A   1      33.775  26.450  27.130  1.00  0.00     0.027 H 
BRANCH   4   7
ATOM      7  C   UNL A   1      34.049  26.554  25.065  1.00  0.00    -0.036 C 
ATOM      8  H   UNL A   1      33.642  27.134  24.263  1.00  0.00     0.028 H 
ATOM      9  H   UNL A   1      35.118  26.552  25.115  1.00  0.00     0.028 H 
BRANCH   7  10
ATOM     10  C   UNL A   1      33.654  25.097  24.832  1.00  0.00     0.017 C 
ATOM     11  H   UNL A   1      34.288  24.482  25.434  1.00  0.00     0.049 H 
ATOM     12  H   UNL A   1      32.618  25.023  25.092  1.00  0.00     0.049 H 
BRANCH  10  13
ATOM     13  N   UNL A   1      33.761  24.644  23.455  1.00  0.00    -0.356 N 
ATOM     14  C   UNL A   1      32.908  24.804  22.395  1.00  0.00     0.227 C 
ATOM     15  O   UNL A   1      33.376  24.559  21.276  1.00  0.00    -0.274 OA
ATOM     16  H   UNL A   1      34.581  24.138  23.251  1.00  0.00     0.163 HD
BRANCH  14  17
ATOM     17  C   UNL A   1      31.408  25.147  22.538  1.00  0.00     0.060 C 
ATOM     18  H   UNL A   1      30.933  25.081  21.581  1.00  0.00     0.045 H 
BRANCH  17  19
ATOM     19  C   UNL A   1      30.827  24.108  23.509  1.00  0.00    -0.049 C 
ATOM     20  H   UNL A   1      31.541  23.327  23.665  1.00  0.00     0.024 H 
ATOM     21  H   UNL A   1      29.931  23.695  23.095  1.00  0.00     0.024 H 
ATOM     22  H   UNL A   1      30.604  24.579  24.444  1.00  0.00     0.024 H 
ENDBRANCH  17  19
BRANCH  17  23
ATOM     23  C   UNL A   1      31.091  26.596  22.894  1.00  0.00    -0.032 A 
ATOM     24  C   UNL A   1      31.968  27.651  22.574  1.00  0.00    -0.054 A 
ATOM     25  C   UNL A   1      29.831  26.912  23.422  1.00  0.00    -0.012 A 
ATOM     26  C   UNL A   1      31.504  28.965  22.519  1.00  0.00    -0.016 A 
ATOM     27  H   UNL A   1      32.960  27.449  22.377  1.00  0.00     0.063 H 
ATOM     28  C   UNL A   1      29.329  28.193  23.235  1.00  0.00     0.161 A 
ATOM     29  H   UNL A   1      29.287  26.205  23.941  1.00  0.00     0.067 H 
ATOM     30  C   UNL A   1      30.156  29.201  22.738  1.00  0.00     0.161 A 
ATOM     31  H   UNL A   1      32.151  29.745  22.321  1.00  0.00     0.066 H 
ATOM     32  O   UNL A   1      27.972  28.331  23.367  1.00  0.00    -0.486 OA
ATOM     33  O   UNL A   1      29.632  30.389  22.293  1.00  0.00    -0.486 OA
ATOM     34  C   UNL A   1      27.433  29.434  22.626  1.00  0.00     0.122 C 
ATOM     35  C   UNL A   1      28.405  30.058  21.631  1.00  0.00     0.122 C 
ATOM     36  H   UNL A   1      27.134  30.190  23.322  1.00  0.00     0.074 H 
ATOM     37  H   UNL A   1      26.615  29.049  22.055  1.00  0.00     0.074 H 
ATOM     38  H   UNL A   1      27.972  30.946  21.221  1.00  0.00     0.074 H 
ATOM     39  H   UNL A   1      28.605  29.359  20.846  1.00  0.00     0.074 H 
ENDBRANCH  17  23
ENDBRANCH  14  17
ENDBRANCH  10  13
ENDBRANCH   7  10
ENDBRANCH   4   7
ENDBRANCH   1   4
BRANCH   1  40
ATOM     40  C   UNL A   1      31.682  28.970  26.277  1.00  0.00    -0.036 C 
ATOM     41  H   UNL A   1      31.253  29.332  27.188  1.00  0.00     0.028 H 
ATOM     42  H   UNL A   1      31.010  28.945  25.444  1.00  0.00     0.028 H 
BRANCH  40  43
ATOM     43  C   UNL A   1      32.791  29.939  25.869  1.00  0.00     0.018 C 
ATOM     44  H   UNL A   1      32.829  29.980  24.800  1.00  0.00     0.049 H 
ATOM     45  H   UNL A   1      33.701  29.572  26.296  1.00  0.00     0.049 H 
BRANCH  43  46
ATOM     46  N   UNL A   1      32.599  31.289  26.373  1.00  0.00    -0.352 N 
ATOM     47  C   UNL A   1      33.315  32.013  27.292  1.00  0.00     0.251 C 
ATOM     48  H   UNL A   1      31.826  31.763  25.991  1.00  0.00     0.163 HD
ATOM     49  O   UNL A   1      32.899  33.125  27.633  1.00  0.00    -0.269 OA
BRANCH  47  50
ATOM     50  C   UNL A   1      34.554  31.490  27.917  1.00  0.00     0.039 A 
ATOM     51  C   UNL A   1      35.649  32.353  28.035  1.00  0.00    -0.049 A 
ATOM     52  C   UNL A   1      34.680  30.165  28.345  1.00  0.00    -0.049 A 
ATOM     53  C   UNL A   1      36.835  31.912  28.630  1.00  0.00    -0.053 A 
ATOM     54  H   UNL A   1      35.582  33.320  27.680  1.00  0.00     0.063 H 
ATOM     55  C   UNL A   1      35.840  29.744  29.003  1.00  0.00    -0.053 A 
ATOM     56  H   UNL A   1      33.913  29.495  28.174  1.00  0.00     0.063 H 
ATOM     57  C   UNL A   1      36.930  30.613  29.156  1.00  0.00    -0.014 A 
ATOM     58  H   UNL A   1      37.647  32.547  28.684  1.00  0.00     0.063 H 
ATOM     59  H   UNL A   1      35.894  28.785  29.381  1.00  0.00     0.063 H 
BRANCH  57  60
ATOM     60  C   UNL A   1      38.157  30.181  29.881  1.00  0.00     0.031 A 
ATOM     61  C   UNL A   1      38.446  30.667  31.276  1.00  0.00     0.074 A 
ATOM     62  C   UNL A   1      39.032  29.359  29.267  1.00  0.00     0.049 A 
ATOM     63  N   UNL A   1      39.464  30.390  32.055  1.00  0.00    -0.248 NA
ATOM     64  C   UNL A   1      37.480  31.603  31.868  1.00  0.00    -0.034 C 
ATOM     65  C   UNL A   1      38.900  28.860  27.897  1.00  0.00    -0.036 A 
ATOM     66  N   UNL A   1      40.205  28.801  29.711  1.00  0.00    -0.354 N 
ATOM     67  C   UNL A   1      39.255  31.107  33.226  1.00  0.00     0.074 A 
ATOM     68  C   UNL A   1      38.049  31.884  33.032  1.00  0.00    -0.034 C 
ATOM     69  H   UNL A   1      36.589  31.951  31.480  1.00  0.00     0.065 H 
ATOM     70  C   UNL A   1      39.936  28.052  27.622  1.00  0.00    -0.036 A 
ATOM     71  H   UNL A   1      38.133  29.092  27.247  1.00  0.00     0.065 H 
ATOM     72  C   UNL A   1      40.822  28.000  28.781  1.00  0.00     0.049 A 
ATOM     73  H   UNL A   1      40.571  28.959  30.612  1.00  0.00     0.167 HD
ATOM     74  C   UNL A   1      39.984  31.098  34.369  1.00  0.00     0.037 A 
ATOM     75  H   UNL A   1      37.680  32.567  33.712  1.00  0.00     0.065 H 
ATOM     76  H   UNL A   1      40.081  27.547  26.733  1.00  0.00     0.065 H 
ATOM     77  C   UNL A   1      41.972  27.302  28.849  1.00  0.00     0.037 A 
ATOM     78  C   UNL A   1      41.183  30.323  34.566  1.00  0.00     0.049 A 
ATOM     79  C   UNL A   1      42.765  27.314  30.129  1.00  0.00     0.074 A 
ATOM     80  C   UNL A   1      41.973  30.227  35.699  1.00  0.00    -0.036 A 
ATOM     81  N   UNL A   1      41.765  29.510  33.606  1.00  0.00    -0.354 N 
ATOM     82  N   UNL A   1      42.518  27.947  31.250  1.00  0.00    -0.248 NA
ATOM     83  C   UNL A   1      43.990  26.503  30.156  1.00  0.00    -0.034 C 
ATOM     84  C   UNL A   1      43.057  29.390  35.410  1.00  0.00    -0.036 A 
ATOM     85  H   UNL A   1      41.795  30.694  36.602  1.00  0.00     0.065 H 
ATOM     86  C   UNL A   1      42.914  28.921  34.115  1.00  0.00     0.049 A 
ATOM     87  H   UNL A   1      41.416  29.371  32.696  1.00  0.00     0.167 HD
ATOM     88  C   UNL A   1      43.540  27.593  32.121  1.00  0.00     0.074 A 
ATOM     89  C   UNL A   1      44.394  26.667  31.406  1.00  0.00    -0.034 C 
ATOM     90  H   UNL A   1      44.421  25.950  29.399  1.00  0.00     0.065 H 
ATOM     91  H   UNL A   1      43.831  29.161  36.052  1.00  0.00     0.065 H 
ATOM     92  C   UNL A   1      43.757  28.002  33.394  1.00  0.00     0.037 A 
ATOM     93  H   UNL A   1      45.213  26.195  31.820  1.00  0.00     0.065 H 
BRANCH  74  94
ATOM     94  C   UNL A   1      39.495  31.941  35.512  1.00  0.00     0.064 A 
ATOM     95  C   UNL A   1      39.885  33.282  35.650  1.00  0.00     0.173 A 
ATOM     96  C   UNL A   1      38.584  31.426  36.447  1.00  0.00     0.173 A 
ATOM     97  F   UNL A   1      40.761  33.822  34.788  1.00  0.00    -0.203 F 
ATOM     98  C   UNL A   1      39.402  34.068  36.693  1.00  0.00     0.198 A 
ATOM     99  C   UNL A   1      38.079  32.224  37.472  1.00  0.00     0.198 A 
ATOM    100  F   UNL A   1      38.172  30.152  36.360  1.00  0.00    -0.203 F 
ATOM    101  F   UNL A   1      39.823  35.333  36.828  1.00  0.00    -0.200 F 
ATOM    102  C   UNL A   1      38.493  33.541  37.598  1.00  0.00     0.200 A 
ATOM    103  F   UNL A   1      37.190  31.717  38.337  1.00  0.00    -0.200 F 
ATOM    104  F   UNL A   1      38.020  34.302  38.594  1.00  0.00    -0.200 F 
ENDBRANCH  74  94
BRANCH  77 105
ATOM    105  C   UNL A   1      42.442  26.522  27.674  1.00  0.00     0.064 A 
ATOM    106  C   UNL A   1      41.983  25.217  27.437  1.00  0.00     0.173 A 
ATOM    107  C   UNL A   1      43.378  27.055  26.775  1.00  0.00     0.173 A 
ATOM    108  F   UNL A   1      41.102  24.655  28.279  1.00  0.00    -0.203 F 
ATOM    109  C   UNL A   1      42.466  24.467  26.367  1.00  0.00     0.198 A 
ATOM    110  C   UNL A   1      43.834  26.316  25.686  1.00  0.00     0.198 A 
ATOM    111  F   UNL A   1      43.843  28.300  26.951  1.00  0.00    -0.203 F 
ATOM    112  F   UNL A   1      42.054  23.202  26.199  1.00  0.00    -0.200 F 
ATOM    113  C   UNL A   1      43.387  25.018  25.489  1.00  0.00     0.200 A 
ATOM    114  F   UNL A   1      44.711  26.858  24.831  1.00  0.00    -0.200 F 
ATOM    115  F   UNL A   1      43.850  24.296  24.461  1.00  0.00    -0.200 F 
ENDBRANCH  77 105
BRANCH  92 116
ATOM    116  C   UNL A   1      44.950  27.428  34.105  1.00  0.00     0.064 A 
ATOM    117  C   UNL A   1      44.868  26.230  34.832  1.00  0.00     0.173 A 
ATOM    118  C   UNL A   1      46.193  28.078  34.050  1.00  0.00     0.173 A 
ATOM    119  F   UNL A   1      43.701  25.577  34.929  1.00  0.00    -0.203 F 
ATOM    120  C   UNL A   1      45.975  25.727  35.510  1.00  0.00     0.198 A 
ATOM    121  C   UNL A   1      47.306  27.554  34.701  1.00  0.00     0.198 A 
ATOM    122  F   UNL A   1      46.328  29.221  33.363  1.00  0.00    -0.203 F 
ATOM    123  F   UNL A   1      45.858  24.616  36.249  1.00  0.00    -0.200 F 
ATOM    124  C   UNL A   1      47.194  26.385  35.440  1.00  0.00     0.200 A 
ATOM    125  F   UNL A   1      48.485  28.183  34.620  1.00  0.00    -0.200 F 
ATOM    126  F   UNL A   1      48.258  25.900  36.093  1.00  0.00    -0.200 F 
ENDBRANCH  92 116
ENDBRANCH  57  60
ENDBRANCH  47  50
ENDBRANCH  43  46
ENDBRANCH  40  43
ENDBRANCH   1  40
TORSDOF 15
ENDMDL
MODEL 10
REMARK VINA RESULT:     -11.4      6.047     10.250
REMARK SMILES C[C@H](C(=O)NCCCCCCNC(=O)c1ccc(-c2c3nc(c(-c4c(F)c(F)c(F)c(F)c4F)c4ccc([nH]4)c(-c4c(F)c(F)c(F)c(F)c4F)c4nc(c(-c5c(F)c(F)c(F)c(F)c5F)c5ccc2[nH]5)C=C4)C=C3)cc1)c1ccc2c(c1)OCCO2
REMARK SMILES IDX 9 1 8 4 7 7 6 10 5 13 3 14 4 15 2 17 1 19 78 23 79 24 83 25
REMARK SMILES IDX 80 26 82 28 81 30 84 32 87 33 85 34 86 35 10 40 11 43 12 46
REMARK SMILES IDX 13 47 14 49 15 50 16 51 77 52 17 53 76 55 18 57 19 60 20 61
REMARK SMILES IDX 70 62 21 63 75 64 69 65 71 66 22 67 74 68 68 70 67 72 23 74
REMARK SMILES IDX 55 77 35 78 54 79 36 80 39 81 53 82 72 83 37 84 38 86 52 88
REMARK SMILES IDX 73 89 40 92 24 94 25 95 33 96 26 97 27 98 31 99 34 100
REMARK SMILES IDX 28 101 29 102 32 103 30 104 56 105 57 106 65 107 58 108
REMARK SMILES IDX 59 109 63 110 66 111 60 112 61 113 64 114 62 115 41 116
REMARK SMILES IDX 42 117 50 118 43 119 44 120 48 121 51 122 45 123 46 124
REMARK SMILES IDX 49 125 47 126
REMARK H PARENT 9 2 9 3 8 5 8 6 7 8 7 9 6 11 6 12 5 16 2 18 1 20 1 21 1 22
REMARK H PARENT 79 27 83 29 80 31 85 36 85 37 86 38 86 39 10 41 10 42 11 44
REMARK H PARENT 11 45 12 48 16 54 77 56 17 58 76 59 75 69 69 71 71 73 74 75
REMARK H PARENT 68 76 36 85 39 87 72 90 37 91 73 93
REMARK Flexibility Score: inf
ROOT
ATOM      1  C   UNL A   1      36.528  20.414  24.995  1.00  0.00    -0.052 C 
ATOM      2  H   UNL A   1      36.207  20.515  23.980  1.00  0.00     0.027 H 
ATOM      3  H   UNL A   1      35.836  19.906  25.635  1.00  0.00     0.027 H 
ENDROOT
BRANCH   1   4
ATOM      4  C   UNL A   1      36.658  21.823  25.582  1.00  0.00    -0.052 C 
ATOM      5  H   UNL A   1      35.878  21.946  26.305  1.00  0.00     0.027 H 
ATOM      6  H   UNL A   1      37.651  21.868  25.981  1.00  0.00     0.027 H 
BRANCH   4   7
ATOM      7  C   UNL A   1      36.567  22.994  24.600  1.00  0.00    -0.036 C 
ATOM      8  H   UNL A   1      36.227  23.850  25.145  1.00  0.00     0.028 H 
ATOM      9  H   UNL A   1      37.549  23.091  24.186  1.00  0.00     0.028 H 
BRANCH   7  10
ATOM     10  C   UNL A   1      35.641  22.809  23.399  1.00  0.00     0.017 C 
ATOM     11  H   UNL A   1      36.137  23.198  22.535  1.00  0.00     0.049 H 
ATOM     12  H   UNL A   1      35.438  21.760  23.337  1.00  0.00     0.049 H 
BRANCH  10  13
ATOM     13  N   UNL A   1      34.349  23.467  23.512  1.00  0.00    -0.356 N 
ATOM     14  C   UNL A   1      33.355  23.326  24.444  1.00  0.00     0.227 C 
ATOM     15  O   UNL A   1      32.487  24.208  24.456  1.00  0.00    -0.274 OA
ATOM     16  H   UNL A   1      34.158  24.123  22.802  1.00  0.00     0.163 HD
BRANCH  14  17
ATOM     17  C   UNL A   1      33.205  22.094  25.366  1.00  0.00     0.060 C 
ATOM     18  H   UNL A   1      34.174  21.748  25.660  1.00  0.00     0.045 H 
BRANCH  17  19
ATOM     19  C   UNL A   1      32.402  22.572  26.584  1.00  0.00    -0.049 C 
ATOM     20  H   UNL A   1      31.745  21.792  26.907  1.00  0.00     0.024 H 
ATOM     21  H   UNL A   1      31.826  23.434  26.316  1.00  0.00     0.024 H 
ATOM     22  H   UNL A   1      33.074  22.825  27.378  1.00  0.00     0.024 H 
ENDBRANCH  17  19
BRANCH  17  23
ATOM     23  C   UNL A   1      32.661  20.833  24.702  1.00  0.00    -0.032 A 
ATOM     24  C   UNL A   1      32.275  20.810  23.348  1.00  0.00    -0.054 A 
ATOM     25  C   UNL A   1      32.680  19.623  25.411  1.00  0.00    -0.012 A 
ATOM     26  C   UNL A   1      32.184  19.602  22.658  1.00  0.00    -0.016 A 
ATOM     27  H   UNL A   1      32.059  21.695  22.863  1.00  0.00     0.063 H 
ATOM     28  C   UNL A   1      32.728  18.431  24.701  1.00  0.00     0.161 A 
ATOM     29  H   UNL A   1      32.658  19.620  26.443  1.00  0.00     0.067 H 
ATOM     30  C   UNL A   1      32.528  18.434  23.320  1.00  0.00     0.161 A 
ATOM     31  H   UNL A   1      31.866  19.577  21.676  1.00  0.00     0.066 H 
ATOM     32  O   UNL A   1      33.176  17.338  25.393  1.00  0.00    -0.486 OA
ATOM     33  O   UNL A   1      32.832  17.332  22.560  1.00  0.00    -0.486 OA
ATOM     34  C   UNL A   1      33.763  16.330  24.557  1.00  0.00     0.122 C 
ATOM     35  C   UNL A   1      34.027  16.778  23.124  1.00  0.00     0.122 C 
ATOM     36  H   UNL A   1      33.100  15.491  24.529  1.00  0.00     0.074 H 
ATOM     37  H   UNL A   1      34.715  16.093  24.984  1.00  0.00     0.074 H 
ATOM     38  H   UNL A   1      34.338  15.937  22.541  1.00  0.00     0.074 H 
ATOM     39  H   UNL A   1      34.796  17.523  23.122  1.00  0.00     0.074 H 
ENDBRANCH  17  23
ENDBRANCH  14  17
ENDBRANCH  10  13
ENDBRANCH   7  10
ENDBRANCH   4   7
ENDBRANCH   1   4
BRANCH   1  40
ATOM     40  C   UNL A   1      37.790  19.547  24.999  1.00  0.00    -0.036 C 
ATOM     41  H   UNL A   1      38.097  19.416  23.982  1.00  0.00     0.028 H 
ATOM     42  H   UNL A   1      37.510  18.645  25.501  1.00  0.00     0.028 H 
BRANCH  40  43
ATOM     43  C   UNL A   1      38.990  20.084  25.780  1.00  0.00     0.018 C 
ATOM     44  H   UNL A   1      38.667  20.327  26.771  1.00  0.00     0.049 H 
ATOM     45  H   UNL A   1      39.351  20.940  25.249  1.00  0.00     0.049 H 
BRANCH  43  46
ATOM     46  N   UNL A   1      40.094  19.144  25.874  1.00  0.00    -0.352 N 
ATOM     47  C   UNL A   1      41.426  19.348  26.126  1.00  0.00     0.251 C 
ATOM     48  H   UNL A   1      39.843  18.203  25.731  1.00  0.00     0.163 HD
ATOM     49  O   UNL A   1      42.201  18.388  26.063  1.00  0.00    -0.269 OA
BRANCH  47  50
ATOM     50  C   UNL A   1      41.973  20.690  26.439  1.00  0.00     0.039 A 
ATOM     51  C   UNL A   1      42.234  21.562  25.376  1.00  0.00    -0.049 A 
ATOM     52  C   UNL A   1      42.277  21.094  27.743  1.00  0.00    -0.049 A 
ATOM     53  C   UNL A   1      42.735  22.844  25.620  1.00  0.00    -0.053 A 
ATOM     54  H   UNL A   1      42.057  21.256  24.406  1.00  0.00     0.063 H 
ATOM     55  C   UNL A   1      42.711  22.399  27.993  1.00  0.00    -0.053 A 
ATOM     56  H   UNL A   1      42.180  20.426  28.524  1.00  0.00     0.063 H 
ATOM     57  C   UNL A   1      42.943  23.292  26.935  1.00  0.00    -0.014 A 
ATOM     58  H   UNL A   1      42.955  23.467  24.827  1.00  0.00     0.063 H 
ATOM     59  H   UNL A   1      42.862  22.711  28.966  1.00  0.00     0.063 H 
BRANCH  57  60
ATOM     60  C   UNL A   1      43.378  24.692  27.196  1.00  0.00     0.031 A 
ATOM     61  C   UNL A   1      42.420  25.711  27.752  1.00  0.00     0.074 A 
ATOM     62  C   UNL A   1      44.644  25.054  26.907  1.00  0.00     0.049 A 
ATOM     63  N   UNL A   1      42.631  26.973  28.043  1.00  0.00    -0.248 NA
ATOM     64  C   UNL A   1      41.041  25.265  27.995  1.00  0.00    -0.034 C 
ATOM     65  C   UNL A   1      45.656  24.180  26.312  1.00  0.00    -0.036 A 
ATOM     66  N   UNL A   1      45.296  26.252  27.071  1.00  0.00    -0.354 N 
ATOM     67  C   UNL A   1      41.417  27.464  28.508  1.00  0.00     0.074 A 
ATOM     68  C   UNL A   1      40.459  26.385  28.401  1.00  0.00    -0.034 C 
ATOM     69  H   UNL A   1      40.631  24.324  27.881  1.00  0.00     0.065 H 
ATOM     70  C   UNL A   1      46.805  24.862  26.184  1.00  0.00    -0.036 A 
ATOM     71  H   UNL A   1      45.509  23.197  26.036  1.00  0.00     0.065 H 
ATOM     72  C   UNL A   1      46.605  26.229  26.656  1.00  0.00     0.049 A 
ATOM     73  H   UNL A   1      44.865  27.053  27.451  1.00  0.00     0.167 HD
ATOM     74  C   UNL A   1      41.134  28.692  29.007  1.00  0.00     0.037 A 
ATOM     75  H   UNL A   1      39.452  26.476  28.612  1.00  0.00     0.065 H 
ATOM     76  H   UNL A   1      47.689  24.479  25.812  1.00  0.00     0.065 H 
ATOM     77  C   UNL A   1      47.541  27.197  26.653  1.00  0.00     0.037 A 
ATOM     78  C   UNL A   1      42.088  29.767  29.120  1.00  0.00     0.049 A 
ATOM     79  C   UNL A   1      47.199  28.554  27.208  1.00  0.00     0.074 A 
ATOM     80  C   UNL A   1      41.901  31.037  29.639  1.00  0.00    -0.036 A 
ATOM     81  N   UNL A   1      43.410  29.698  28.705  1.00  0.00    -0.354 N 
ATOM     82  N   UNL A   1      46.064  28.982  27.705  1.00  0.00    -0.248 NA
ATOM     83  C   UNL A   1      48.272  29.557  27.214  1.00  0.00    -0.034 C 
ATOM     84  C   UNL A   1      43.097  31.750  29.499  1.00  0.00    -0.036 A 
ATOM     85  H   UNL A   1      41.029  31.397  30.057  1.00  0.00     0.065 H 
ATOM     86  C   UNL A   1      44.046  30.908  28.942  1.00  0.00     0.049 A 
ATOM     87  H   UNL A   1      43.834  28.907  28.302  1.00  0.00     0.167 HD
ATOM     88  C   UNL A   1      46.293  30.293  28.103  1.00  0.00     0.074 A 
ATOM     89  C   UNL A   1      47.683  30.579  27.816  1.00  0.00    -0.034 C 
ATOM     90  H   UNL A   1      49.234  29.484  26.846  1.00  0.00     0.065 H 
ATOM     91  H   UNL A   1      43.248  32.735  29.765  1.00  0.00     0.065 H 
ATOM     92  C   UNL A   1      45.429  31.182  28.651  1.00  0.00     0.037 A 
ATOM     93  H   UNL A   1      48.154  31.466  28.051  1.00  0.00     0.065 H 
BRANCH  74  94
ATOM     94  C   UNL A   1      39.734  28.940  29.493  1.00  0.00     0.064 A 
ATOM     95  C   UNL A   1      39.374  28.714  30.830  1.00  0.00     0.173 A 
ATOM     96  C   UNL A   1      38.757  29.462  28.632  1.00  0.00     0.173 A 
ATOM     97  F   UNL A   1      40.268  28.208  31.693  1.00  0.00    -0.203 F 
ATOM     98  C   UNL A   1      38.083  28.978  31.282  1.00  0.00     0.198 A 
ATOM     99  C   UNL A   1      37.476  29.754  29.094  1.00  0.00     0.198 A 
ATOM    100  F   UNL A   1      39.048  29.703  27.344  1.00  0.00    -0.203 F 
ATOM    101  F   UNL A   1      37.753  28.713  32.553  1.00  0.00    -0.200 F 
ATOM    102  C   UNL A   1      37.137  29.505  30.416  1.00  0.00     0.200 A 
ATOM    103  F   UNL A   1      36.567  30.277  28.259  1.00  0.00    -0.200 F 
ATOM    104  F   UNL A   1      35.900  29.770  30.854  1.00  0.00    -0.200 F 
ENDBRANCH  74  94
BRANCH  77 105
ATOM    105  C   UNL A   1      48.900  26.919  26.116  1.00  0.00     0.064 A 
ATOM    106  C   UNL A   1      49.211  27.152  24.768  1.00  0.00     0.173 A 
ATOM    107  C   UNL A   1      49.911  26.391  26.933  1.00  0.00     0.173 A 
ATOM    108  F   UNL A   1      48.273  27.638  23.940  1.00  0.00    -0.203 F 
ATOM    109  C   UNL A   1      50.467  26.840  24.253  1.00  0.00     0.198 A 
ATOM    110  C   UNL A   1      51.177  26.111  26.425  1.00  0.00     0.198 A 
ATOM    111  F   UNL A   1      49.669  26.155  28.232  1.00  0.00    -0.203 F 
ATOM    112  F   UNL A   1      50.717  27.018  22.948  1.00  0.00    -0.200 F 
ATOM    113  C   UNL A   1      51.450  26.324  25.083  1.00  0.00     0.200 A 
ATOM    114  F   UNL A   1      52.129  25.628  27.235  1.00  0.00    -0.200 F 
ATOM    115  F   UNL A   1      52.658  26.024  24.587  1.00  0.00    -0.200 F 
ENDBRANCH  77 105
BRANCH  92 116
ATOM    116  C   UNL A   1      45.972  32.539  29.000  1.00  0.00     0.064 A 
ATOM    117  C   UNL A   1      45.930  33.605  28.088  1.00  0.00     0.173 A 
ATOM    118  C   UNL A   1      46.532  32.779  30.264  1.00  0.00     0.173 A 
ATOM    119  F   UNL A   1      45.419  33.425  26.862  1.00  0.00    -0.203 F 
ATOM    120  C   UNL A   1      46.463  34.849  28.415  1.00  0.00     0.198 A 
ATOM    121  C   UNL A   1      47.033  34.033  30.600  1.00  0.00     0.198 A 
ATOM    122  F   UNL A   1      46.590  31.798  31.175  1.00  0.00    -0.203 F 
ATOM    123  F   UNL A   1      46.469  35.833  27.507  1.00  0.00    -0.200 F 
ATOM    124  C   UNL A   1      47.010  35.064  29.672  1.00  0.00     0.200 A 
ATOM    125  F   UNL A   1      47.548  34.244  31.818  1.00  0.00    -0.200 F 
ATOM    126  F   UNL A   1      47.524  36.261  29.985  1.00  0.00    -0.200 F 
ENDBRANCH  92 116
ENDBRANCH  57  60
ENDBRANCH  47  50
ENDBRANCH  43  46
ENDBRANCH  40  43
ENDBRANCH   1  40
TORSDOF 15
ENDMDL
