MODEL 1
REMARK VINA RESULT:     -12.3      0.000      0.000
REMARK SMILES CCc1cccc2c3c([nH]c12)[C@](CC)(CC(=O)NCCCCCCNC(=O)c1ccc(-c2c4nc(c(-c5c(F)c(F)c(F)c(F)c5F)c5ccc([nH]5)c(-c5c(F)c(F)c(F)c(F)c5F)c5nc(c(-c6c(F)c(F)c(F)c(F)c6F)c6ccc2[nH]6)C=C5)C=C4)cc1)OCC3
REMARK SMILES IDX 21 1 20 4 19 7 18 10 16 11 17 12 15 14 12 17 3 18 4 19 11 20
REMARK SMILES IDX 5 21 7 23 10 24 6 25 8 27 9 28 93 31 92 32 91 35 2 38 1 41
REMARK SMILES IDX 13 45 14 48 22 52 23 55 24 58 25 61 26 62 27 64 28 65 29 66
REMARK SMILES IDX 90 67 30 68 89 70 31 72 32 75 33 76 83 77 34 78 88 79 82 80
REMARK SMILES IDX 84 81 35 82 87 83 81 85 80 87 36 89 68 92 48 93 67 94 49 95
REMARK SMILES IDX 52 96 66 97 85 98 50 99 51 101 65 103 86 104 53 107 37 109
REMARK SMILES IDX 38 110 46 111 39 112 40 113 44 114 47 115 41 116 42 117
REMARK SMILES IDX 45 118 43 119 69 120 70 121 78 122 71 123 72 124 76 125
REMARK SMILES IDX 79 126 73 127 74 128 77 129 75 130 54 131 55 132 63 133
REMARK SMILES IDX 56 134 57 135 61 136 64 137 58 138 59 139 62 140 60 141
REMARK H PARENT 21 2 21 3 20 5 20 6 19 8 19 9 18 13 15 15 15 16 4 22 5 26
REMARK H PARENT 10 29 6 30 93 33 93 34 92 36 92 37 2 39 2 40 1 42 1 43 1 44
REMARK H PARENT 13 46 13 47 14 49 14 50 14 51 22 53 22 54 23 56 23 57 24 59
REMARK H PARENT 24 60 25 63 29 69 90 71 30 73 89 74 88 84 82 86 84 88 87 90
REMARK H PARENT 81 91 49 100 52 102 85 105 50 106 86 108
REMARK Flexibility Score: inf
ROOT
ATOM      1  C   UNL A   1      40.206  22.115  26.619  1.00  0.00    -0.052 C 
ATOM      2  H   UNL A   1      40.157  22.849  27.394  1.00  0.00     0.027 H 
ATOM      3  H   UNL A   1      40.811  22.418  25.790  1.00  0.00     0.027 H 
ENDROOT
BRANCH   1   4
ATOM      4  C   UNL A   1      38.784  21.904  26.066  1.00  0.00    -0.036 C 
ATOM      5  H   UNL A   1      38.868  21.378  25.137  1.00  0.00     0.028 H 
ATOM      6  H   UNL A   1      38.257  21.368  26.828  1.00  0.00     0.028 H 
BRANCH   4   7
ATOM      7  C   UNL A   1      37.961  23.177  25.813  1.00  0.00     0.017 C 
ATOM      8  H   UNL A   1      37.094  23.142  26.439  1.00  0.00     0.049 H 
ATOM      9  H   UNL A   1      38.608  24.000  26.029  1.00  0.00     0.049 H 
BRANCH   7  10
ATOM     10  N   UNL A   1      37.517  23.359  24.437  1.00  0.00    -0.356 N 
ATOM     11  C   UNL A   1      36.421  22.904  23.757  1.00  0.00     0.223 C 
ATOM     12  O   UNL A   1      36.344  23.164  22.555  1.00  0.00    -0.275 OA
ATOM     13  H   UNL A   1      38.120  23.916  23.894  1.00  0.00     0.163 HD
BRANCH  11  14
ATOM     14  C   UNL A   1      35.313  22.173  24.475  1.00  0.00     0.061 C 
ATOM     15  H   UNL A   1      35.176  21.241  23.970  1.00  0.00     0.040 H 
ATOM     16  H   UNL A   1      35.657  22.128  25.488  1.00  0.00     0.040 H 
BRANCH  14  17
ATOM     17  C   UNL A   1      33.918  22.834  24.592  1.00  0.00     0.117 C 
ATOM     18  C   UNL A   1      33.877  27.901  25.094  1.00  0.00    -0.024 A 
ATOM     19  C   UNL A   1      33.532  28.918  24.171  1.00  0.00    -0.057 A 
ATOM     20  C   UNL A   1      33.879  26.586  24.579  1.00  0.00     0.049 A 
ATOM     21  C   UNL A   1      33.218  28.656  22.840  1.00  0.00    -0.061 A 
ATOM     22  H   UNL A   1      33.513  29.897  24.499  1.00  0.00     0.063 H 
ATOM     23  C   UNL A   1      33.522  26.309  23.260  1.00  0.00     0.003 A 
ATOM     24  N   UNL A   1      34.162  25.363  25.179  1.00  0.00    -0.356 N 
ATOM     25  C   UNL A   1      33.203  27.350  22.374  1.00  0.00    -0.053 A 
ATOM     26  H   UNL A   1      32.994  29.435  22.200  1.00  0.00     0.062 H 
ATOM     27  C   UNL A   1      33.474  24.909  23.136  1.00  0.00    -0.014 A 
ATOM     28  C   UNL A   1      33.901  24.325  24.308  1.00  0.00     0.052 A 
ATOM     29  H   UNL A   1      34.503  25.253  26.096  1.00  0.00     0.166 HD
ATOM     30  H   UNL A   1      32.962  27.146  21.392  1.00  0.00     0.063 H 
ATOM     31  C   UNL A   1      32.922  24.143  22.016  1.00  0.00    -0.002 C 
ATOM     32  C   UNL A   1      32.958  22.660  22.325  1.00  0.00     0.052 C 
ATOM     33  H   UNL A   1      33.501  24.334  21.137  1.00  0.00     0.034 H 
ATOM     34  H   UNL A   1      31.906  24.440  21.857  1.00  0.00     0.034 H 
ATOM     35  O   UNL A   1      32.925  22.258  23.705  1.00  0.00    -0.368 OA
ATOM     36  H   UNL A   1      32.114  22.214  21.843  1.00  0.00     0.057 H 
ATOM     37  H   UNL A   1      33.917  22.338  21.975  1.00  0.00     0.057 H 
BRANCH  18  38
ATOM     38  C   UNL A   1      34.179  28.197  26.543  1.00  0.00    -0.029 C 
ATOM     39  H   UNL A   1      34.091  27.281  27.087  1.00  0.00     0.031 H 
ATOM     40  H   UNL A   1      35.159  28.623  26.549  1.00  0.00     0.031 H 
BRANCH  38  41
ATOM     41  C   UNL A   1      33.283  29.228  27.222  1.00  0.00    -0.061 C 
ATOM     42  H   UNL A   1      32.975  29.960  26.505  1.00  0.00     0.023 H 
ATOM     43  H   UNL A   1      33.824  29.707  28.011  1.00  0.00     0.023 H 
ATOM     44  H   UNL A   1      32.420  28.741  27.626  1.00  0.00     0.023 H 
ENDBRANCH  38  41
ENDBRANCH  18  38
BRANCH  17  45
ATOM     45  C   UNL A   1      33.364  22.559  26.029  1.00  0.00    -0.020 C 
ATOM     46  H   UNL A   1      32.597  21.817  25.950  1.00  0.00     0.030 H 
ATOM     47  H   UNL A   1      33.015  23.503  26.395  1.00  0.00     0.030 H 
BRANCH  45  48
ATOM     48  C   UNL A   1      34.395  22.067  27.051  1.00  0.00    -0.062 C 
ATOM     49  H   UNL A   1      34.922  22.904  27.458  1.00  0.00     0.023 H 
ATOM     50  H   UNL A   1      35.087  21.408  26.569  1.00  0.00     0.023 H 
ATOM     51  H   UNL A   1      33.895  21.543  27.839  1.00  0.00     0.023 H 
ENDBRANCH  45  48
ENDBRANCH  17  45
ENDBRANCH  14  17
ENDBRANCH  11  14
ENDBRANCH   7  10
ENDBRANCH   4   7
ENDBRANCH   1   4
BRANCH   1  52
ATOM     52  C   UNL A   1      40.856  20.865  27.190  1.00  0.00    -0.052 C 
ATOM     53  H   UNL A   1      40.154  20.394  27.848  1.00  0.00     0.027 H 
ATOM     54  H   UNL A   1      41.746  21.181  27.690  1.00  0.00     0.027 H 
BRANCH  52  55
ATOM     55  C   UNL A   1      41.284  19.844  26.137  1.00  0.00    -0.036 C 
ATOM     56  H   UNL A   1      41.267  20.324  25.182  1.00  0.00     0.028 H 
ATOM     57  H   UNL A   1      40.596  19.028  26.214  1.00  0.00     0.028 H 
BRANCH  55  58
ATOM     58  C   UNL A   1      42.681  19.247  26.346  1.00  0.00     0.018 C 
ATOM     59  H   UNL A   1      42.579  18.192  26.490  1.00  0.00     0.049 H 
ATOM     60  H   UNL A   1      43.104  19.738  27.197  1.00  0.00     0.049 H 
BRANCH  58  61
ATOM     61  N   UNL A   1      43.588  19.470  25.239  1.00  0.00    -0.352 N 
ATOM     62  C   UNL A   1      44.327  20.552  24.840  1.00  0.00     0.251 C 
ATOM     63  H   UNL A   1      43.695  18.685  24.655  1.00  0.00     0.163 HD
ATOM     64  O   UNL A   1      45.109  20.382  23.900  1.00  0.00    -0.269 OA
BRANCH  62  65
ATOM     65  C   UNL A   1      44.178  21.921  25.408  1.00  0.00     0.039 A 
ATOM     66  C   UNL A   1      44.741  22.355  26.605  1.00  0.00    -0.049 A 
ATOM     67  C   UNL A   1      43.350  22.811  24.699  1.00  0.00    -0.049 A 
ATOM     68  C   UNL A   1      44.347  23.555  27.170  1.00  0.00    -0.053 A 
ATOM     69  H   UNL A   1      45.456  21.778  27.073  1.00  0.00     0.063 H 
ATOM     70  C   UNL A   1      43.013  24.056  25.224  1.00  0.00    -0.053 A 
ATOM     71  H   UNL A   1      42.987  22.535  23.773  1.00  0.00     0.063 H 
ATOM     72  C   UNL A   1      43.464  24.400  26.490  1.00  0.00    -0.014 A 
ATOM     73  H   UNL A   1      44.706  23.828  28.098  1.00  0.00     0.063 H 
ATOM     74  H   UNL A   1      42.434  24.713  24.678  1.00  0.00     0.063 H 
BRANCH  72  75
ATOM     75  C   UNL A   1      43.178  25.683  27.127  1.00  0.00     0.031 A 
ATOM     76  C   UNL A   1      44.162  26.745  26.784  1.00  0.00     0.074 A 
ATOM     77  C   UNL A   1      42.129  25.931  27.937  1.00  0.00     0.049 A 
ATOM     78  N   UNL A   1      45.009  27.311  27.579  1.00  0.00    -0.248 NA
ATOM     79  C   UNL A   1      44.337  27.106  25.369  1.00  0.00    -0.034 C 
ATOM     80  C   UNL A   1      40.955  25.088  28.168  1.00  0.00    -0.036 A 
ATOM     81  N   UNL A   1      41.857  27.049  28.677  1.00  0.00    -0.354 N 
ATOM     82  C   UNL A   1      45.701  28.239  26.805  1.00  0.00     0.074 A 
ATOM     83  C   UNL A   1      45.350  27.973  25.436  1.00  0.00    -0.034 C 
ATOM     84  H   UNL A   1      43.814  26.778  24.542  1.00  0.00     0.065 H 
ATOM     85  C   UNL A   1      40.000  25.813  28.791  1.00  0.00    -0.036 A 
ATOM     86  H   UNL A   1      40.870  24.095  27.898  1.00  0.00     0.065 H 
ATOM     87  C   UNL A   1      40.552  27.109  29.148  1.00  0.00     0.049 A 
ATOM     88  H   UNL A   1      42.525  27.749  28.859  1.00  0.00     0.167 HD
ATOM     89  C   UNL A   1      46.300  29.310  27.394  1.00  0.00     0.037 A 
ATOM     90  H   UNL A   1      45.818  28.393  24.618  1.00  0.00     0.065 H 
ATOM     91  H   UNL A   1      39.035  25.498  28.982  1.00  0.00     0.065 H 
ATOM     92  C   UNL A   1      39.960  28.162  29.761  1.00  0.00     0.037 A 
ATOM     93  C   UNL A   1      46.462  29.096  28.808  1.00  0.00     0.049 A 
ATOM     94  C   UNL A   1      41.025  28.982  30.380  1.00  0.00     0.074 A 
ATOM     95  C   UNL A   1      47.342  28.441  29.639  1.00  0.00    -0.036 A 
ATOM     96  N   UNL A   1      45.334  29.359  29.534  1.00  0.00    -0.354 N 
ATOM     97  N   UNL A   1      41.755  28.578  31.383  1.00  0.00    -0.248 NA
ATOM     98  C   UNL A   1      41.505  30.179  29.696  1.00  0.00    -0.034 C 
ATOM     99  C   UNL A   1      46.639  28.199  30.859  1.00  0.00    -0.036 A 
ATOM    100  H   UNL A   1      48.316  28.177  29.423  1.00  0.00     0.065 H 
ATOM    101  C   UNL A   1      45.360  28.737  30.751  1.00  0.00     0.049 A 
ATOM    102  H   UNL A   1      44.593  29.925  29.218  1.00  0.00     0.167 HD
ATOM    103  C   UNL A   1      42.971  29.192  31.179  1.00  0.00     0.074 A 
ATOM    104  C   UNL A   1      42.708  30.294  30.264  1.00  0.00    -0.034 C 
ATOM    105  H   UNL A   1      41.047  30.766  28.981  1.00  0.00     0.065 H 
ATOM    106  H   UNL A   1      47.017  27.707  31.683  1.00  0.00     0.065 H 
ATOM    107  C   UNL A   1      44.133  28.552  31.487  1.00  0.00     0.037 A 
ATOM    108  H   UNL A   1      43.367  31.065  30.078  1.00  0.00     0.065 H 
BRANCH  89 109
ATOM    109  C   UNL A   1      46.263  30.718  26.833  1.00  0.00     0.064 A 
ATOM    110  C   UNL A   1      47.454  31.477  26.812  1.00  0.00     0.173 A 
ATOM    111  C   UNL A   1      45.075  31.456  26.646  1.00  0.00     0.173 A 
ATOM    112  F   UNL A   1      48.645  30.889  27.000  1.00  0.00    -0.203 F 
ATOM    113  C   UNL A   1      47.442  32.871  26.691  1.00  0.00     0.198 A 
ATOM    114  C   UNL A   1      45.072  32.841  26.477  1.00  0.00     0.198 A 
ATOM    115  F   UNL A   1      43.864  30.894  26.733  1.00  0.00    -0.203 F 
ATOM    116  F   UNL A   1      48.587  33.560  26.796  1.00  0.00    -0.200 F 
ATOM    117  C   UNL A   1      46.251  33.552  26.530  1.00  0.00     0.200 A 
ATOM    118  F   UNL A   1      43.902  33.485  26.350  1.00  0.00    -0.200 F 
ATOM    119  F   UNL A   1      46.230  34.890  26.474  1.00  0.00    -0.200 F 
ENDBRANCH  89 109
BRANCH  92 120
ATOM    120  C   UNL A   1      38.576  28.669  29.606  1.00  0.00     0.064 A 
ATOM    121  C   UNL A   1      37.781  28.933  30.737  1.00  0.00     0.173 A 
ATOM    122  C   UNL A   1      38.129  29.212  28.387  1.00  0.00     0.173 A 
ATOM    123  F   UNL A   1      38.148  28.472  31.942  1.00  0.00    -0.203 F 
ATOM    124  C   UNL A   1      36.650  29.751  30.664  1.00  0.00     0.198 A 
ATOM    125  C   UNL A   1      36.994  30.023  28.315  1.00  0.00     0.198 A 
ATOM    126  F   UNL A   1      38.840  29.056  27.261  1.00  0.00    -0.203 F 
ATOM    127  F   UNL A   1      35.972  30.054  31.780  1.00  0.00    -0.200 F 
ATOM    128  C   UNL A   1      36.270  30.312  29.456  1.00  0.00     0.200 A 
ATOM    129  F   UNL A   1      36.653  30.583  27.147  1.00  0.00    -0.200 F 
ATOM    130  F   UNL A   1      35.237  31.165  29.401  1.00  0.00    -0.200 F 
ENDBRANCH  92 120
BRANCH 107 131
ATOM    131  C   UNL A   1      44.077  27.478  32.524  1.00  0.00     0.064 A 
ATOM    132  C   UNL A   1      44.033  26.104  32.244  1.00  0.00     0.173 A 
ATOM    133  C   UNL A   1      44.149  27.869  33.868  1.00  0.00     0.173 A 
ATOM    134  F   UNL A   1      44.035  25.657  30.981  1.00  0.00    -0.203 F 
ATOM    135  C   UNL A   1      44.032  25.164  33.273  1.00  0.00     0.198 A 
ATOM    136  C   UNL A   1      44.182  26.929  34.890  1.00  0.00     0.198 A 
ATOM    137  F   UNL A   1      44.227  29.171  34.185  1.00  0.00    -0.203 F 
ATOM    138  F   UNL A   1      43.978  23.855  32.988  1.00  0.00    -0.200 F 
ATOM    139  C   UNL A   1      44.115  25.577  34.594  1.00  0.00     0.200 A 
ATOM    140  F   UNL A   1      44.304  27.333  36.162  1.00  0.00    -0.200 F 
ATOM    141  F   UNL A   1      44.155  24.673  35.583  1.00  0.00    -0.200 F 
ENDBRANCH 107 131
ENDBRANCH  72  75
ENDBRANCH  62  65
ENDBRANCH  58  61
ENDBRANCH  55  58
ENDBRANCH  52  55
ENDBRANCH   1  52
TORSDOF 18
ENDMDL
MODEL 2
REMARK VINA RESULT:     -11.8      3.522      9.253
REMARK SMILES CCc1cccc2c3c([nH]c12)[C@](CC)(CC(=O)NCCCCCCNC(=O)c1ccc(-c2c4nc(c(-c5c(F)c(F)c(F)c(F)c5F)c5ccc([nH]5)c(-c5c(F)c(F)c(F)c(F)c5F)c5nc(c(-c6c(F)c(F)c(F)c(F)c6F)c6ccc2[nH]6)C=C5)C=C4)cc1)OCC3
REMARK SMILES IDX 21 1 20 4 19 7 18 10 16 11 17 12 15 14 12 17 3 18 4 19 11 20
REMARK SMILES IDX 5 21 7 23 10 24 6 25 8 27 9 28 93 31 92 32 91 35 2 38 1 41
REMARK SMILES IDX 13 45 14 48 22 52 23 55 24 58 25 61 26 62 27 64 28 65 29 66
REMARK SMILES IDX 90 67 30 68 89 70 31 72 32 75 33 76 83 77 34 78 88 79 82 80
REMARK SMILES IDX 84 81 35 82 87 83 81 85 80 87 36 89 68 92 48 93 67 94 49 95
REMARK SMILES IDX 52 96 66 97 85 98 50 99 51 101 65 103 86 104 53 107 37 109
REMARK SMILES IDX 38 110 46 111 39 112 40 113 44 114 47 115 41 116 42 117
REMARK SMILES IDX 45 118 43 119 69 120 70 121 78 122 71 123 72 124 76 125
REMARK SMILES IDX 79 126 73 127 74 128 77 129 75 130 54 131 55 132 63 133
REMARK SMILES IDX 56 134 57 135 61 136 64 137 58 138 59 139 62 140 60 141
REMARK H PARENT 21 2 21 3 20 5 20 6 19 8 19 9 18 13 15 15 15 16 4 22 5 26
REMARK H PARENT 10 29 6 30 93 33 93 34 92 36 92 37 2 39 2 40 1 42 1 43 1 44
REMARK H PARENT 13 46 13 47 14 49 14 50 14 51 22 53 22 54 23 56 23 57 24 59
REMARK H PARENT 24 60 25 63 29 69 90 71 30 73 89 74 88 84 82 86 84 88 87 90
REMARK H PARENT 81 91 49 100 52 102 85 105 50 106 86 108
REMARK Flexibility Score: inf
ROOT
ATOM      1  C   UNL A   1      34.463  31.922  27.832  1.00  0.00    -0.052 C 
ATOM      2  H   UNL A   1      33.725  32.036  28.597  1.00  0.00     0.027 H 
ATOM      3  H   UNL A   1      34.054  31.961  26.844  1.00  0.00     0.027 H 
ENDROOT
BRANCH   1   4
ATOM      4  C   UNL A   1      35.102  30.530  27.985  1.00  0.00    -0.036 C 
ATOM      5  H   UNL A   1      36.140  30.616  27.736  1.00  0.00     0.028 H 
ATOM      6  H   UNL A   1      34.917  30.238  28.998  1.00  0.00     0.028 H 
BRANCH   4   7
ATOM      7  C   UNL A   1      34.504  29.411  27.118  1.00  0.00     0.017 C 
ATOM      8  H   UNL A   1      34.190  29.841  26.190  1.00  0.00     0.049 H 
ATOM      9  H   UNL A   1      35.272  28.675  27.007  1.00  0.00     0.049 H 
BRANCH   7  10
ATOM     10  N   UNL A   1      33.362  28.722  27.704  1.00  0.00    -0.356 N 
ATOM     11  C   UNL A   1      32.163  28.320  27.182  1.00  0.00     0.223 C 
ATOM     12  O   UNL A   1      31.344  27.814  27.951  1.00  0.00    -0.275 OA
ATOM     13  H   UNL A   1      33.474  28.503  28.658  1.00  0.00     0.163 HD
BRANCH  11  14
ATOM     14  C   UNL A   1      31.889  28.430  25.702  1.00  0.00     0.061 C 
ATOM     15  H   UNL A   1      30.919  28.868  25.597  1.00  0.00     0.040 H 
ATOM     16  H   UNL A   1      32.718  28.996  25.334  1.00  0.00     0.040 H 
BRANCH  14  17
ATOM     17  C   UNL A   1      31.904  27.151  24.830  1.00  0.00     0.117 C 
ATOM     18  C   UNL A   1      35.168  23.511  26.254  1.00  0.00    -0.024 A 
ATOM     19  C   UNL A   1      34.943  22.262  26.881  1.00  0.00    -0.057 A 
ATOM     20  C   UNL A   1      34.028  24.330  26.100  1.00  0.00     0.049 A 
ATOM     21  C   UNL A   1      33.688  21.856  27.329  1.00  0.00    -0.061 A 
ATOM     22  H   UNL A   1      35.744  21.624  27.015  1.00  0.00     0.063 H 
ATOM     23  C   UNL A   1      32.760  23.914  26.503  1.00  0.00     0.003 A 
ATOM     24  N   UNL A   1      33.872  25.595  25.542  1.00  0.00    -0.356 N 
ATOM     25  C   UNL A   1      32.585  22.675  27.138  1.00  0.00    -0.053 A 
ATOM     26  H   UNL A   1      33.579  20.945  27.802  1.00  0.00     0.062 H 
ATOM     27  C   UNL A   1      31.850  24.890  26.057  1.00  0.00    -0.014 A 
ATOM     28  C   UNL A   1      32.538  25.942  25.495  1.00  0.00     0.052 A 
ATOM     29  H   UNL A   1      34.611  26.165  25.226  1.00  0.00     0.166 HD
ATOM     30  H   UNL A   1      31.650  22.378  27.457  1.00  0.00     0.063 H 
ATOM     31  C   UNL A   1      30.389  24.784  26.033  1.00  0.00    -0.002 C 
ATOM     32  C   UNL A   1      29.786  26.006  25.371  1.00  0.00     0.052 C 
ATOM     33  H   UNL A   1      30.023  24.709  27.035  1.00  0.00     0.034 H 
ATOM     34  H   UNL A   1      30.112  23.914  25.475  1.00  0.00     0.034 H 
ATOM     35  O   UNL A   1      30.586  26.717  24.410  1.00  0.00    -0.368 OA
ATOM     36  H   UNL A   1      28.895  25.689  24.871  1.00  0.00     0.057 H 
ATOM     37  H   UNL A   1      29.647  26.703  26.172  1.00  0.00     0.057 H 
BRANCH  18  38
ATOM     38  C   UNL A   1      36.527  23.921  25.741  1.00  0.00    -0.029 C 
ATOM     39  H   UNL A   1      36.379  24.518  24.866  1.00  0.00     0.031 H 
ATOM     40  H   UNL A   1      36.995  24.435  26.553  1.00  0.00     0.031 H 
BRANCH  38  41
ATOM     41  C   UNL A   1      37.480  22.788  25.374  1.00  0.00    -0.061 C 
ATOM     42  H   UNL A   1      37.123  21.871  25.795  1.00  0.00     0.023 H 
ATOM     43  H   UNL A   1      38.455  23.002  25.760  1.00  0.00     0.023 H 
ATOM     44  H   UNL A   1      37.531  22.695  24.309  1.00  0.00     0.023 H 
ENDBRANCH  38  41
ENDBRANCH  18  38
BRANCH  17  45
ATOM     45  C   UNL A   1      32.652  27.477  23.494  1.00  0.00    -0.020 C 
ATOM     46  H   UNL A   1      31.914  27.672  22.744  1.00  0.00     0.030 H 
ATOM     47  H   UNL A   1      33.265  26.625  23.286  1.00  0.00     0.030 H 
BRANCH  45  48
ATOM     48  C   UNL A   1      33.602  28.679  23.547  1.00  0.00    -0.062 C 
ATOM     49  H   UNL A   1      33.196  29.480  22.967  1.00  0.00     0.023 H 
ATOM     50  H   UNL A   1      34.555  28.396  23.150  1.00  0.00     0.023 H 
ATOM     51  H   UNL A   1      33.719  28.996  24.562  1.00  0.00     0.023 H 
ENDBRANCH  45  48
ENDBRANCH  17  45
ENDBRANCH  14  17
ENDBRANCH  11  14
ENDBRANCH   7  10
ENDBRANCH   4   7
ENDBRANCH   1   4
BRANCH   1  52
ATOM     52  C   UNL A   1      35.439  33.083  27.939  1.00  0.00    -0.052 C 
ATOM     53  H   UNL A   1      35.895  33.226  26.980  1.00  0.00     0.027 H 
ATOM     54  H   UNL A   1      36.145  32.824  28.699  1.00  0.00     0.027 H 
BRANCH  52  55
ATOM     55  C   UNL A   1      34.799  34.403  28.365  1.00  0.00    -0.036 C 
ATOM     56  H   UNL A   1      34.725  35.030  27.502  1.00  0.00     0.028 H 
ATOM     57  H   UNL A   1      35.428  34.807  29.130  1.00  0.00     0.028 H 
BRANCH  55  58
ATOM     58  C   UNL A   1      33.401  34.273  28.983  1.00  0.00     0.018 C 
ATOM     59  H   UNL A   1      33.128  33.239  28.983  1.00  0.00     0.049 H 
ATOM     60  H   UNL A   1      32.743  34.871  28.388  1.00  0.00     0.049 H 
BRANCH  58  61
ATOM     61  N   UNL A   1      33.309  34.770  30.340  1.00  0.00    -0.352 N 
ATOM     62  C   UNL A   1      34.132  34.668  31.430  1.00  0.00     0.251 C 
ATOM     63  H   UNL A   1      32.488  35.285  30.515  1.00  0.00     0.163 HD
ATOM     64  O   UNL A   1      33.819  35.317  32.432  1.00  0.00    -0.269 OA
BRANCH  62  65
ATOM     65  C   UNL A   1      35.314  33.766  31.503  1.00  0.00     0.039 A 
ATOM     66  C   UNL A   1      36.641  34.185  31.498  1.00  0.00    -0.049 A 
ATOM     67  C   UNL A   1      35.052  32.383  31.513  1.00  0.00    -0.049 A 
ATOM     68  C   UNL A   1      37.665  33.272  31.320  1.00  0.00    -0.053 A 
ATOM     69  H   UNL A   1      36.863  35.185  31.629  1.00  0.00     0.063 H 
ATOM     70  C   UNL A   1      36.083  31.453  31.416  1.00  0.00    -0.053 A 
ATOM     71  H   UNL A   1      34.078  32.054  31.595  1.00  0.00     0.063 H 
ATOM     72  C   UNL A   1      37.387  31.903  31.256  1.00  0.00    -0.014 A 
ATOM     73  H   UNL A   1      38.639  33.602  31.233  1.00  0.00     0.063 H 
ATOM     74  H   UNL A   1      35.880  30.442  31.460  1.00  0.00     0.063 H 
BRANCH  72  75
ATOM     75  C   UNL A   1      38.540  31.013  31.156  1.00  0.00     0.031 A 
ATOM     76  C   UNL A   1      39.163  30.703  32.471  1.00  0.00     0.074 A 
ATOM     77  C   UNL A   1      39.017  30.485  30.011  1.00  0.00     0.049 A 
ATOM     78  N   UNL A   1      40.334  31.062  32.885  1.00  0.00    -0.248 NA
ATOM     79  C   UNL A   1      38.335  30.062  33.504  1.00  0.00    -0.034 C 
ATOM     80  C   UNL A   1      38.383  30.485  28.691  1.00  0.00    -0.036 A 
ATOM     81  N   UNL A   1      40.159  29.760  29.805  1.00  0.00    -0.354 N 
ATOM     82  C   UNL A   1      40.469  30.531  34.165  1.00  0.00     0.074 A 
ATOM     83  C   UNL A   1      39.168  30.052  34.548  1.00  0.00    -0.034 C 
ATOM     84  H   UNL A   1      37.367  29.711  33.439  1.00  0.00     0.065 H 
ATOM     85  C   UNL A   1      39.020  29.601  27.891  1.00  0.00    -0.036 A 
ATOM     86  H   UNL A   1      37.578  31.068  28.416  1.00  0.00     0.065 H 
ATOM     87  C   UNL A   1      40.196  29.103  28.582  1.00  0.00     0.049 A 
ATOM     88  H   UNL A   1      40.887  29.706  30.465  1.00  0.00     0.167 HD
ATOM     89  C   UNL A   1      41.706  30.304  34.685  1.00  0.00     0.037 A 
ATOM     90  H   UNL A   1      38.912  29.744  35.499  1.00  0.00     0.065 H 
ATOM     91  H   UNL A   1      38.718  29.325  26.942  1.00  0.00     0.065 H 
ATOM     92  C   UNL A   1      41.114  28.192  28.181  1.00  0.00     0.037 A 
ATOM     93  C   UNL A   1      42.711  31.036  33.961  1.00  0.00     0.049 A 
ATOM     94  C   UNL A   1      42.357  28.434  28.946  1.00  0.00     0.074 A 
ATOM     95  C   UNL A   1      43.210  32.318  33.940  1.00  0.00    -0.036 A 
ATOM     96  N   UNL A   1      43.110  30.423  32.807  1.00  0.00    -0.354 N 
ATOM     97  N   UNL A   1      43.093  29.502  28.808  1.00  0.00    -0.248 NA
ATOM     98  C   UNL A   1      42.658  27.611  30.114  1.00  0.00    -0.034 C 
ATOM     99  C   UNL A   1      43.812  32.494  32.656  1.00  0.00    -0.036 A 
ATOM    100  H   UNL A   1      43.159  33.015  34.700  1.00  0.00     0.065 H 
ATOM    101  C   UNL A   1      43.690  31.306  31.940  1.00  0.00     0.049 A 
ATOM    102  H   UNL A   1      42.993  29.463  32.622  1.00  0.00     0.167 HD
ATOM    103  C   UNL A   1      43.626  29.705  30.062  1.00  0.00     0.074 A 
ATOM    104  C   UNL A   1      43.491  28.433  30.758  1.00  0.00    -0.034 C 
ATOM    105  H   UNL A   1      42.325  26.668  30.369  1.00  0.00     0.065 H 
ATOM    106  H   UNL A   1      44.263  33.357  32.316  1.00  0.00     0.065 H 
ATOM    107  C   UNL A   1      43.811  30.966  30.543  1.00  0.00     0.037 A 
ATOM    108  H   UNL A   1      43.976  28.197  31.637  1.00  0.00     0.065 H 
BRANCH  89 109
ATOM    109  C   UNL A   1      42.082  29.063  35.470  1.00  0.00     0.064 A 
ATOM    110  C   UNL A   1      42.997  29.180  36.540  1.00  0.00     0.173 A 
ATOM    111  C   UNL A   1      41.859  27.747  35.011  1.00  0.00     0.173 A 
ATOM    112  F   UNL A   1      43.305  30.383  37.047  1.00  0.00    -0.203 F 
ATOM    113  C   UNL A   1      43.689  28.076  37.049  1.00  0.00     0.198 A 
ATOM    114  C   UNL A   1      42.516  26.642  35.554  1.00  0.00     0.198 A 
ATOM    115  F   UNL A   1      41.093  27.482  33.946  1.00  0.00    -0.203 F 
ATOM    116  F   UNL A   1      44.636  28.253  37.981  1.00  0.00    -0.200 F 
ATOM    117  C   UNL A   1      43.452  26.809  36.551  1.00  0.00     0.200 A 
ATOM    118  F   UNL A   1      42.291  25.425  35.038  1.00  0.00    -0.200 F 
ATOM    119  F   UNL A   1      44.155  25.758  36.994  1.00  0.00    -0.200 F 
ENDBRANCH  89 109
BRANCH  92 120
ATOM    120  C   UNL A   1      40.910  26.949  27.399  1.00  0.00     0.064 A 
ATOM    121  C   UNL A   1      41.763  26.630  26.327  1.00  0.00     0.173 A 
ATOM    122  C   UNL A   1      40.100  25.905  27.886  1.00  0.00     0.173 A 
ATOM    123  F   UNL A   1      42.584  27.561  25.818  1.00  0.00    -0.203 F 
ATOM    124  C   UNL A   1      41.853  25.330  25.823  1.00  0.00     0.198 A 
ATOM    125  C   UNL A   1      40.187  24.608  27.376  1.00  0.00     0.198 A 
ATOM    126  F   UNL A   1      39.288  26.096  28.935  1.00  0.00    -0.203 F 
ATOM    127  F   UNL A   1      42.745  25.047  24.862  1.00  0.00    -0.200 F 
ATOM    128  C   UNL A   1      41.080  24.316  26.362  1.00  0.00     0.200 A 
ATOM    129  F   UNL A   1      39.455  23.629  27.925  1.00  0.00    -0.200 F 
ATOM    130  F   UNL A   1      41.229  23.053  25.938  1.00  0.00    -0.200 F 
ENDBRANCH  92 120
BRANCH 107 131
ATOM    131  C   UNL A   1      43.969  32.069  29.549  1.00  0.00     0.064 A 
ATOM    132  C   UNL A   1      42.973  33.009  29.240  1.00  0.00     0.173 A 
ATOM    133  C   UNL A   1      45.221  32.220  28.939  1.00  0.00     0.173 A 
ATOM    134  F   UNL A   1      41.775  32.968  29.839  1.00  0.00    -0.203 F 
ATOM    135  C   UNL A   1      43.219  34.039  28.334  1.00  0.00     0.198 A 
ATOM    136  C   UNL A   1      45.474  33.268  28.063  1.00  0.00     0.198 A 
ATOM    137  F   UNL A   1      46.216  31.367  29.229  1.00  0.00    -0.203 F 
ATOM    138  F   UNL A   1      42.253  34.922  28.041  1.00  0.00    -0.200 F 
ATOM    139  C   UNL A   1      44.471  34.173  27.754  1.00  0.00     0.200 A 
ATOM    140  F   UNL A   1      46.698  33.416  27.538  1.00  0.00    -0.200 F 
ATOM    141  F   UNL A   1      44.720  35.187  26.913  1.00  0.00    -0.200 F 
ENDBRANCH 107 131
ENDBRANCH  72  75
ENDBRANCH  62  65
ENDBRANCH  58  61
ENDBRANCH  55  58
ENDBRANCH  52  55
ENDBRANCH   1  52
TORSDOF 18
ENDMDL
MODEL 3
REMARK VINA RESULT:     -11.6      2.327      3.147
REMARK SMILES CCc1cccc2c3c([nH]c12)[C@](CC)(CC(=O)NCCCCCCNC(=O)c1ccc(-c2c4nc(c(-c5c(F)c(F)c(F)c(F)c5F)c5ccc([nH]5)c(-c5c(F)c(F)c(F)c(F)c5F)c5nc(c(-c6c(F)c(F)c(F)c(F)c6F)c6ccc2[nH]6)C=C5)C=C4)cc1)OCC3
REMARK SMILES IDX 21 1 20 4 19 7 18 10 16 11 17 12 15 14 12 17 3 18 4 19 11 20
REMARK SMILES IDX 5 21 7 23 10 24 6 25 8 27 9 28 93 31 92 32 91 35 2 38 1 41
REMARK SMILES IDX 13 45 14 48 22 52 23 55 24 58 25 61 26 62 27 64 28 65 29 66
REMARK SMILES IDX 90 67 30 68 89 70 31 72 32 75 33 76 83 77 34 78 88 79 82 80
REMARK SMILES IDX 84 81 35 82 87 83 81 85 80 87 36 89 68 92 48 93 67 94 49 95
REMARK SMILES IDX 52 96 66 97 85 98 50 99 51 101 65 103 86 104 53 107 37 109
REMARK SMILES IDX 38 110 46 111 39 112 40 113 44 114 47 115 41 116 42 117
REMARK SMILES IDX 45 118 43 119 69 120 70 121 78 122 71 123 72 124 76 125
REMARK SMILES IDX 79 126 73 127 74 128 77 129 75 130 54 131 55 132 63 133
REMARK SMILES IDX 56 134 57 135 61 136 64 137 58 138 59 139 62 140 60 141
REMARK H PARENT 21 2 21 3 20 5 20 6 19 8 19 9 18 13 15 15 15 16 4 22 5 26
REMARK H PARENT 10 29 6 30 93 33 93 34 92 36 92 37 2 39 2 40 1 42 1 43 1 44
REMARK H PARENT 13 46 13 47 14 49 14 50 14 51 22 53 22 54 23 56 23 57 24 59
REMARK H PARENT 24 60 25 63 29 69 90 71 30 73 89 74 88 84 82 86 84 88 87 90
REMARK H PARENT 81 91 49 100 52 102 85 105 50 106 86 108
REMARK Flexibility Score: inf
ROOT
ATOM      1  C   UNL A   1      39.235  24.650  27.803  1.00  0.00    -0.052 C 
ATOM      2  H   UNL A   1      38.390  24.302  28.359  1.00  0.00     0.027 H 
ATOM      3  H   UNL A   1      39.403  25.702  27.908  1.00  0.00     0.027 H 
ENDROOT
BRANCH   1   4
ATOM      4  C   UNL A   1      38.963  24.399  26.309  1.00  0.00    -0.036 C 
ATOM      5  H   UNL A   1      39.001  25.344  25.805  1.00  0.00     0.028 H 
ATOM      6  H   UNL A   1      39.713  23.704  25.993  1.00  0.00     0.028 H 
BRANCH   4   7
ATOM      7  C   UNL A   1      37.618  23.739  25.967  1.00  0.00     0.017 C 
ATOM      8  H   UNL A   1      37.614  22.756  26.388  1.00  0.00     0.049 H 
ATOM      9  H   UNL A   1      36.861  24.377  26.370  1.00  0.00     0.049 H 
BRANCH   7  10
ATOM     10  N   UNL A   1      37.334  23.622  24.542  1.00  0.00    -0.356 N 
ATOM     11  C   UNL A   1      36.376  22.935  23.849  1.00  0.00     0.223 C 
ATOM     12  O   UNL A   1      36.427  22.965  22.619  1.00  0.00    -0.275 OA
ATOM     13  H   UNL A   1      37.949  24.136  23.970  1.00  0.00     0.163 HD
BRANCH  11  14
ATOM     14  C   UNL A   1      35.257  22.227  24.573  1.00  0.00     0.061 C 
ATOM     15  H   UNL A   1      35.132  21.277  24.100  1.00  0.00     0.040 H 
ATOM     16  H   UNL A   1      35.580  22.222  25.593  1.00  0.00     0.040 H 
BRANCH  14  17
ATOM     17  C   UNL A   1      33.857  22.887  24.637  1.00  0.00     0.117 C 
ATOM     18  C   UNL A   1      33.792  27.935  25.304  1.00  0.00    -0.024 A 
ATOM     19  C   UNL A   1      33.496  28.983  24.398  1.00  0.00    -0.057 A 
ATOM     20  C   UNL A   1      33.820  26.637  24.747  1.00  0.00     0.049 A 
ATOM     21  C   UNL A   1      33.254  28.766  23.044  1.00  0.00    -0.061 A 
ATOM     22  H   UNL A   1      33.460  29.950  24.757  1.00  0.00     0.063 H 
ATOM     23  C   UNL A   1      33.534  26.405  23.402  1.00  0.00     0.003 A 
ATOM     24  N   UNL A   1      34.071  25.395  25.319  1.00  0.00    -0.356 N 
ATOM     25  C   UNL A   1      33.263  27.476  22.536  1.00  0.00    -0.053 A 
ATOM     26  H   UNL A   1      33.065  29.566  22.420  1.00  0.00     0.062 H 
ATOM     27  C   UNL A   1      33.492  25.010  23.229  1.00  0.00    -0.014 A 
ATOM     28  C   UNL A   1      33.856  24.387  24.403  1.00  0.00     0.052 A 
ATOM     29  H   UNL A   1      34.363  25.254  26.249  1.00  0.00     0.166 HD
ATOM     30  H   UNL A   1      33.075  27.305  21.535  1.00  0.00     0.063 H 
ATOM     31  C   UNL A   1      33.000  24.283  22.056  1.00  0.00    -0.002 C 
ATOM     32  C   UNL A   1      33.020  22.791  22.318  1.00  0.00     0.052 C 
ATOM     33  H   UNL A   1      33.626  24.502  21.217  1.00  0.00     0.034 H 
ATOM     34  H   UNL A   1      31.995  24.588  21.854  1.00  0.00     0.034 H 
ATOM     35  O   UNL A   1      32.913  22.343  23.680  1.00  0.00    -0.368 OA
ATOM     36  H   UNL A   1      32.202  22.363  21.777  1.00  0.00     0.057 H 
ATOM     37  H   UNL A   1      33.996  22.478  22.009  1.00  0.00     0.057 H 
BRANCH  18  38
ATOM     38  C   UNL A   1      34.016  28.182  26.776  1.00  0.00    -0.029 C 
ATOM     39  H   UNL A   1      33.070  28.424  27.213  1.00  0.00     0.031 H 
ATOM     40  H   UNL A   1      34.460  27.285  27.151  1.00  0.00     0.031 H 
BRANCH  38  41
ATOM     41  C   UNL A   1      34.991  29.299  27.132  1.00  0.00    -0.061 C 
ATOM     42  H   UNL A   1      35.104  29.954  26.293  1.00  0.00     0.023 H 
ATOM     43  H   UNL A   1      35.942  28.876  27.384  1.00  0.00     0.023 H 
ATOM     44  H   UNL A   1      34.614  29.851  27.967  1.00  0.00     0.023 H 
ENDBRANCH  38  41
ENDBRANCH  18  38
BRANCH  17  45
ATOM     45  C   UNL A   1      33.227  22.566  26.033  1.00  0.00    -0.020 C 
ATOM     46  H   UNL A   1      32.522  21.772  25.901  1.00  0.00     0.030 H 
ATOM     47  H   UNL A   1      32.788  23.481  26.374  1.00  0.00     0.030 H 
BRANCH  45  48
ATOM     48  C   UNL A   1      34.219  22.142  27.123  1.00  0.00    -0.062 C 
ATOM     49  H   UNL A   1      34.665  23.012  27.556  1.00  0.00     0.023 H 
ATOM     50  H   UNL A   1      34.980  21.527  26.691  1.00  0.00     0.023 H 
ATOM     51  H   UNL A   1      33.702  21.591  27.880  1.00  0.00     0.023 H 
ENDBRANCH  45  48
ENDBRANCH  17  45
ENDBRANCH  14  17
ENDBRANCH  11  14
ENDBRANCH   7  10
ENDBRANCH   4   7
ENDBRANCH   1   4
BRANCH   1  52
ATOM     52  C   UNL A   1      40.476  23.961  28.346  1.00  0.00    -0.052 C 
ATOM     53  H   UNL A   1      40.320  23.761  29.387  1.00  0.00     0.027 H 
ATOM     54  H   UNL A   1      41.299  24.622  28.170  1.00  0.00     0.027 H 
BRANCH  52  55
ATOM     55  C   UNL A   1      40.816  22.643  27.652  1.00  0.00    -0.036 C 
ATOM     56  H   UNL A   1      40.409  22.674  26.663  1.00  0.00     0.028 H 
ATOM     57  H   UNL A   1      40.397  21.868  28.258  1.00  0.00     0.028 H 
BRANCH  55  58
ATOM     58  C   UNL A   1      42.315  22.339  27.541  1.00  0.00     0.018 C 
ATOM     59  H   UNL A   1      42.459  21.292  27.709  1.00  0.00     0.049 H 
ATOM     60  H   UNL A   1      42.809  22.944  28.273  1.00  0.00     0.049 H 
BRANCH  58  61
ATOM     61  N   UNL A   1      42.892  22.678  26.257  1.00  0.00    -0.352 N 
ATOM     62  C   UNL A   1      43.318  23.858  25.707  1.00  0.00     0.251 C 
ATOM     63  H   UNL A   1      42.999  21.904  25.657  1.00  0.00     0.163 HD
ATOM     64  O   UNL A   1      43.882  23.794  24.610  1.00  0.00    -0.269 OA
BRANCH  62  65
ATOM     65  C   UNL A   1      43.065  25.198  26.304  1.00  0.00     0.039 A 
ATOM     66  C   UNL A   1      43.662  25.682  27.464  1.00  0.00    -0.049 A 
ATOM     67  C   UNL A   1      42.098  25.999  25.669  1.00  0.00    -0.049 A 
ATOM     68  C   UNL A   1      43.184  26.828  28.074  1.00  0.00    -0.053 A 
ATOM     69  H   UNL A   1      44.468  25.182  27.873  1.00  0.00     0.063 H 
ATOM     70  C   UNL A   1      41.668  27.197  26.234  1.00  0.00    -0.053 A 
ATOM     71  H   UNL A   1      41.701  25.693  24.766  1.00  0.00     0.063 H 
ATOM     72  C   UNL A   1      42.170  27.578  27.471  1.00  0.00    -0.014 A 
ATOM     73  H   UNL A   1      43.578  27.132  28.979  1.00  0.00     0.063 H 
ATOM     74  H   UNL A   1      40.985  27.791  25.741  1.00  0.00     0.063 H 
BRANCH  72  75
ATOM     75  C   UNL A   1      41.794  28.818  28.146  1.00  0.00     0.031 A 
ATOM     76  C   UNL A   1      42.781  29.915  27.956  1.00  0.00     0.074 A 
ATOM     77  C   UNL A   1      40.668  29.001  28.863  1.00  0.00     0.049 A 
ATOM     78  N   UNL A   1      43.535  30.451  28.858  1.00  0.00    -0.248 NA
ATOM     79  C   UNL A   1      43.080  30.358  26.586  1.00  0.00    -0.034 C 
ATOM     80  C   UNL A   1      39.498  28.125  28.935  1.00  0.00    -0.036 A 
ATOM     81  N   UNL A   1      40.301  30.071  29.634  1.00  0.00    -0.354 N 
ATOM     82  C   UNL A   1      44.276  31.434  28.205  1.00  0.00     0.074 A 
ATOM     83  C   UNL A   1      44.062  31.238  26.796  1.00  0.00    -0.034 C 
ATOM     84  H   UNL A   1      42.646  30.067  25.696  1.00  0.00     0.065 H 
ATOM     85  C   UNL A   1      38.471  28.797  29.503  1.00  0.00    -0.036 A 
ATOM     86  H   UNL A   1      39.462  27.148  28.606  1.00  0.00     0.065 H 
ATOM     87  C   UNL A   1      38.957  30.080  29.980  1.00  0.00     0.049 A 
ATOM     88  H   UNL A   1      40.932  30.772  29.916  1.00  0.00     0.167 HD
ATOM     89  C   UNL A   1      44.791  32.481  28.905  1.00  0.00     0.037 A 
ATOM     90  H   UNL A   1      44.595  31.712  26.050  1.00  0.00     0.065 H 
ATOM     91  H   UNL A   1      37.500  28.454  29.583  1.00  0.00     0.065 H 
ATOM     92  C   UNL A   1      38.284  31.087  30.589  1.00  0.00     0.037 A 
ATOM     93  C   UNL A   1      44.823  32.192  30.314  1.00  0.00     0.049 A 
ATOM     94  C   UNL A   1      39.266  31.890  31.351  1.00  0.00     0.074 A 
ATOM     95  C   UNL A   1      45.636  31.508  31.189  1.00  0.00    -0.036 A 
ATOM     96  N   UNL A   1      43.626  32.393  30.942  1.00  0.00    -0.354 N 
ATOM     97  N   UNL A   1      39.907  31.445  32.395  1.00  0.00    -0.248 NA
ATOM     98  C   UNL A   1      39.780  33.132  30.781  1.00  0.00    -0.034 C 
ATOM     99  C   UNL A   1      44.827  31.185  32.321  1.00  0.00    -0.036 A 
ATOM    100  H   UNL A   1      46.632  31.274  31.054  1.00  0.00     0.065 H 
ATOM    101  C   UNL A   1      43.552  31.705  32.121  1.00  0.00     0.049 A 
ATOM    102  H   UNL A   1      42.905  32.962  30.588  1.00  0.00     0.167 HD
ATOM    103  C   UNL A   1      41.123  32.091  32.342  1.00  0.00     0.074 A 
ATOM    104  C   UNL A   1      40.921  33.237  31.467  1.00  0.00    -0.034 C 
ATOM    105  H   UNL A   1      39.379  33.750  30.058  1.00  0.00     0.065 H 
ATOM    106  H   UNL A   1      45.136  30.655  33.151  1.00  0.00     0.065 H 
ATOM    107  C   UNL A   1      42.265  31.456  32.726  1.00  0.00     0.037 A 
ATOM    108  H   UNL A   1      41.577  34.030  31.386  1.00  0.00     0.065 H 
BRANCH  89 109
ATOM    109  C   UNL A   1      44.774  33.917  28.420  1.00  0.00     0.064 A 
ATOM    110  C   UNL A   1      45.998  34.609  28.285  1.00  0.00     0.173 A 
ATOM    111  C   UNL A   1      43.620  34.730  28.417  1.00  0.00     0.173 A 
ATOM    112  F   UNL A   1      47.164  33.945  28.295  1.00  0.00    -0.203 F 
ATOM    113  C   UNL A   1      46.059  36.006  28.232  1.00  0.00     0.198 A 
ATOM    114  C   UNL A   1      43.683  36.120  28.316  1.00  0.00     0.198 A 
ATOM    115  F   UNL A   1      42.396  34.233  28.629  1.00  0.00    -0.203 F 
ATOM    116  F   UNL A   1      47.250  36.622  28.226  1.00  0.00    -0.200 F 
ATOM    117  C   UNL A   1      44.902  36.760  28.254  1.00  0.00     0.200 A 
ATOM    118  F   UNL A   1      42.549  36.835  28.366  1.00  0.00    -0.200 F 
ATOM    119  F   UNL A   1      44.958  38.098  28.264  1.00  0.00    -0.200 F 
ENDBRANCH  89 109
BRANCH  92 120
ATOM    120  C   UNL A   1      36.909  31.576  30.330  1.00  0.00     0.064 A 
ATOM    121  C   UNL A   1      36.005  31.762  31.392  1.00  0.00     0.173 A 
ATOM    122  C   UNL A   1      36.567  32.178  29.105  1.00  0.00     0.173 A 
ATOM    123  F   UNL A   1      36.267  31.242  32.601  1.00  0.00    -0.203 F 
ATOM    124  C   UNL A   1      34.868  32.562  31.255  1.00  0.00     0.198 A 
ATOM    125  C   UNL A   1      35.426  32.970  28.968  1.00  0.00     0.198 A 
ATOM    126  F   UNL A   1      37.385  32.097  28.046  1.00  0.00    -0.203 F 
ATOM    127  F   UNL A   1      34.080  32.790  32.316  1.00  0.00    -0.200 F 
ATOM    128  C   UNL A   1      34.590  33.182  30.049  1.00  0.00     0.200 A 
ATOM    129  F   UNL A   1      35.183  33.588  27.804  1.00  0.00    -0.200 F 
ATOM    130  F   UNL A   1      33.548  34.018  29.941  1.00  0.00    -0.200 F 
ENDBRANCH  92 120
BRANCH 107 131
ATOM    131  C   UNL A   1      42.137  30.326  33.693  1.00  0.00     0.064 A 
ATOM    132  C   UNL A   1      41.881  28.994  33.330  1.00  0.00     0.173 A 
ATOM    133  C   UNL A   1      42.361  30.602  35.048  1.00  0.00     0.173 A 
ATOM    134  F   UNL A   1      41.727  28.646  32.046  1.00  0.00    -0.203 F 
ATOM    135  C   UNL A   1      41.825  27.989  34.294  1.00  0.00     0.198 A 
ATOM    136  C   UNL A   1      42.339  29.592  36.002  1.00  0.00     0.198 A 
ATOM    137  F   UNL A   1      42.643  31.854  35.440  1.00  0.00    -0.203 F 
ATOM    138  F   UNL A   1      41.567  26.723  33.932  1.00  0.00    -0.200 F 
ATOM    139  C   UNL A   1      42.062  28.288  35.627  1.00  0.00     0.200 A 
ATOM    140  F   UNL A   1      42.610  29.881  37.283  1.00  0.00    -0.200 F 
ATOM    141  F   UNL A   1      42.048  27.315  36.549  1.00  0.00    -0.200 F 
ENDBRANCH 107 131
ENDBRANCH  72  75
ENDBRANCH  62  65
ENDBRANCH  58  61
ENDBRANCH  55  58
ENDBRANCH  52  55
ENDBRANCH   1  52
TORSDOF 18
ENDMDL
MODEL 4
REMARK VINA RESULT:     -11.6      3.100      8.722
REMARK SMILES CCc1cccc2c3c([nH]c12)[C@](CC)(CC(=O)NCCCCCCNC(=O)c1ccc(-c2c4nc(c(-c5c(F)c(F)c(F)c(F)c5F)c5ccc([nH]5)c(-c5c(F)c(F)c(F)c(F)c5F)c5nc(c(-c6c(F)c(F)c(F)c(F)c6F)c6ccc2[nH]6)C=C5)C=C4)cc1)OCC3
REMARK SMILES IDX 21 1 20 4 19 7 18 10 16 11 17 12 15 14 12 17 3 18 4 19 11 20
REMARK SMILES IDX 5 21 7 23 10 24 6 25 8 27 9 28 93 31 92 32 91 35 2 38 1 41
REMARK SMILES IDX 13 45 14 48 22 52 23 55 24 58 25 61 26 62 27 64 28 65 29 66
REMARK SMILES IDX 90 67 30 68 89 70 31 72 32 75 33 76 83 77 34 78 88 79 82 80
REMARK SMILES IDX 84 81 35 82 87 83 81 85 80 87 36 89 68 92 48 93 67 94 49 95
REMARK SMILES IDX 52 96 66 97 85 98 50 99 51 101 65 103 86 104 53 107 37 109
REMARK SMILES IDX 38 110 46 111 39 112 40 113 44 114 47 115 41 116 42 117
REMARK SMILES IDX 45 118 43 119 69 120 70 121 78 122 71 123 72 124 76 125
REMARK SMILES IDX 79 126 73 127 74 128 77 129 75 130 54 131 55 132 63 133
REMARK SMILES IDX 56 134 57 135 61 136 64 137 58 138 59 139 62 140 60 141
REMARK H PARENT 21 2 21 3 20 5 20 6 19 8 19 9 18 13 15 15 15 16 4 22 5 26
REMARK H PARENT 10 29 6 30 93 33 93 34 92 36 92 37 2 39 2 40 1 42 1 43 1 44
REMARK H PARENT 13 46 13 47 14 49 14 50 14 51 22 53 22 54 23 56 23 57 24 59
REMARK H PARENT 24 60 25 63 29 69 90 71 30 73 89 74 88 84 82 86 84 88 87 90
REMARK H PARENT 81 91 49 100 52 102 85 105 50 106 86 108
REMARK Flexibility Score: inf
ROOT
ATOM      1  C   UNL A   1      36.234  30.906  27.912  1.00  0.00    -0.052 C 
ATOM      2  H   UNL A   1      36.836  31.093  27.048  1.00  0.00     0.027 H 
ATOM      3  H   UNL A   1      36.761  31.055  28.831  1.00  0.00     0.027 H 
ENDROOT
BRANCH   1   4
ATOM      4  C   UNL A   1      35.809  29.426  27.888  1.00  0.00    -0.036 C 
ATOM      5  H   UNL A   1      36.659  28.845  27.594  1.00  0.00     0.028 H 
ATOM      6  H   UNL A   1      35.453  29.214  28.875  1.00  0.00     0.028 H 
BRANCH   4   7
ATOM      7  C   UNL A   1      34.648  29.070  26.946  1.00  0.00     0.017 C 
ATOM      8  H   UNL A   1      34.369  29.955  26.414  1.00  0.00     0.049 H 
ATOM      9  H   UNL A   1      35.007  28.288  26.312  1.00  0.00     0.049 H 
BRANCH   7  10
ATOM     10  N   UNL A   1      33.459  28.546  27.605  1.00  0.00    -0.356 N 
ATOM     11  C   UNL A   1      32.200  28.270  27.147  1.00  0.00     0.223 C 
ATOM     12  O   UNL A   1      31.361  27.896  27.967  1.00  0.00    -0.275 OA
ATOM     13  H   UNL A   1      33.586  28.352  28.562  1.00  0.00     0.163 HD
BRANCH  11  14
ATOM     14  C   UNL A   1      31.877  28.356  25.675  1.00  0.00     0.061 C 
ATOM     15  H   UNL A   1      30.915  28.813  25.593  1.00  0.00     0.040 H 
ATOM     16  H   UNL A   1      32.706  28.894  25.266  1.00  0.00     0.040 H 
BRANCH  14  17
ATOM     17  C   UNL A   1      31.833  27.058  24.831  1.00  0.00     0.117 C 
ATOM     18  C   UNL A   1      35.306  23.517  25.989  1.00  0.00    -0.024 A 
ATOM     19  C   UNL A   1      35.173  22.279  26.661  1.00  0.00    -0.057 A 
ATOM     20  C   UNL A   1      34.138  24.310  25.935  1.00  0.00     0.049 A 
ATOM     21  C   UNL A   1      33.979  21.857  27.241  1.00  0.00    -0.061 A 
ATOM     22  H   UNL A   1      35.997  21.661  26.725  1.00  0.00     0.063 H 
ATOM     23  C   UNL A   1      32.927  23.877  26.472  1.00  0.00     0.003 A 
ATOM     24  N   UNL A   1      33.898  25.559  25.371  1.00  0.00    -0.356 N 
ATOM     25  C   UNL A   1      32.844  22.648  27.146  1.00  0.00    -0.053 A 
ATOM     26  H   UNL A   1      33.939  20.955  27.740  1.00  0.00     0.062 H 
ATOM     27  C   UNL A   1      31.954  24.824  26.102  1.00  0.00    -0.014 A 
ATOM     28  C   UNL A   1      32.559  25.878  25.452  1.00  0.00     0.052 A 
ATOM     29  H   UNL A   1      34.588  26.137  24.971  1.00  0.00     0.166 HD
ATOM     30  H   UNL A   1      31.953  22.340  27.564  1.00  0.00     0.063 H 
ATOM     31  C   UNL A   1      30.501  24.688  26.227  1.00  0.00    -0.002 C 
ATOM     32  C   UNL A   1      29.807  25.882  25.606  1.00  0.00     0.052 C 
ATOM     33  H   UNL A   1      30.240  24.628  27.263  1.00  0.00     0.034 H 
ATOM     34  H   UNL A   1      30.189  23.800  25.718  1.00  0.00     0.034 H 
ATOM     35  O   UNL A   1      30.490  26.588  24.555  1.00  0.00    -0.368 OA
ATOM     36  H   UNL A   1      28.877  25.537  25.205  1.00  0.00     0.057 H 
ATOM     37  H   UNL A   1      29.734  26.593  26.403  1.00  0.00     0.057 H 
BRANCH  18  38
ATOM     38  C   UNL A   1      36.597  23.944  25.334  1.00  0.00    -0.029 C 
ATOM     39  H   UNL A   1      36.730  23.347  24.456  1.00  0.00     0.031 H 
ATOM     40  H   UNL A   1      36.488  24.991  25.144  1.00  0.00     0.031 H 
BRANCH  38  41
ATOM     41  C   UNL A   1      37.859  23.813  26.180  1.00  0.00    -0.061 C 
ATOM     42  H   UNL A   1      37.589  23.740  27.213  1.00  0.00     0.023 H 
ATOM     43  H   UNL A   1      38.479  24.673  26.033  1.00  0.00     0.023 H 
ATOM     44  H   UNL A   1      38.395  22.934  25.889  1.00  0.00     0.023 H 
ENDBRANCH  38  41
ENDBRANCH  18  38
BRANCH  17  45
ATOM     45  C   UNL A   1      32.436  27.370  23.421  1.00  0.00    -0.020 C 
ATOM     46  H   UNL A   1      33.502  27.353  23.507  1.00  0.00     0.030 H 
ATOM     47  H   UNL A   1      32.040  28.324  23.138  1.00  0.00     0.030 H 
BRANCH  45  48
ATOM     48  C   UNL A   1      32.036  26.400  22.303  1.00  0.00    -0.062 C 
ATOM     49  H   UNL A   1      31.778  26.954  21.425  1.00  0.00     0.023 H 
ATOM     50  H   UNL A   1      31.195  25.820  22.619  1.00  0.00     0.023 H 
ATOM     51  H   UNL A   1      32.857  25.749  22.086  1.00  0.00     0.023 H 
ENDBRANCH  45  48
ENDBRANCH  17  45
ENDBRANCH  14  17
ENDBRANCH  11  14
ENDBRANCH   7  10
ENDBRANCH   4   7
ENDBRANCH   1   4
BRANCH   1  52
ATOM     52  C   UNL A   1      35.082  31.897  27.911  1.00  0.00    -0.052 C 
ATOM     53  H   UNL A   1      34.464  31.694  28.761  1.00  0.00     0.027 H 
ATOM     54  H   UNL A   1      34.566  31.770  26.983  1.00  0.00     0.027 H 
BRANCH  52  55
ATOM     55  C   UNL A   1      35.515  33.361  27.974  1.00  0.00    -0.036 C 
ATOM     56  H   UNL A   1      34.641  33.971  27.880  1.00  0.00     0.028 H 
ATOM     57  H   UNL A   1      36.217  33.501  27.179  1.00  0.00     0.028 H 
BRANCH  55  58
ATOM     58  C   UNL A   1      36.241  33.765  29.263  1.00  0.00     0.018 C 
ATOM     59  H   UNL A   1      36.326  34.832  29.281  1.00  0.00     0.049 H 
ATOM     60  H   UNL A   1      37.193  33.278  29.249  1.00  0.00     0.049 H 
BRANCH  58  61
ATOM     61  N   UNL A   1      35.570  33.341  30.474  1.00  0.00    -0.352 N 
ATOM     62  C   UNL A   1      35.920  32.484  31.484  1.00  0.00     0.251 C 
ATOM     63  H   UNL A   1      34.684  33.751  30.597  1.00  0.00     0.163 HD
ATOM     64  O   UNL A   1      35.162  32.424  32.457  1.00  0.00    -0.269 OA
BRANCH  62  65
ATOM     65  C   UNL A   1      37.094  31.569  31.436  1.00  0.00     0.039 A 
ATOM     66  C   UNL A   1      38.423  31.977  31.389  1.00  0.00    -0.049 A 
ATOM     67  C   UNL A   1      36.817  30.191  31.369  1.00  0.00    -0.049 A 
ATOM     68  C   UNL A   1      39.426  31.070  31.098  1.00  0.00    -0.053 A 
ATOM     69  H   UNL A   1      38.663  32.964  31.573  1.00  0.00     0.063 H 
ATOM     70  C   UNL A   1      37.831  29.261  31.156  1.00  0.00    -0.053 A 
ATOM     71  H   UNL A   1      35.844  29.864  31.480  1.00  0.00     0.063 H 
ATOM     72  C   UNL A   1      39.129  29.710  30.958  1.00  0.00    -0.014 A 
ATOM     73  H   UNL A   1      40.398  31.397  30.981  1.00  0.00     0.063 H 
ATOM     74  H   UNL A   1      37.619  28.251  31.145  1.00  0.00     0.063 H 
BRANCH  72  75
ATOM     75  C   UNL A   1      40.266  28.820  30.739  1.00  0.00     0.031 A 
ATOM     76  C   UNL A   1      41.038  28.531  31.978  1.00  0.00     0.074 A 
ATOM     77  C   UNL A   1      40.609  28.275  29.555  1.00  0.00     0.049 A 
ATOM     78  N   UNL A   1      42.247  28.897  32.248  1.00  0.00    -0.248 NA
ATOM     79  C   UNL A   1      40.336  27.906  33.109  1.00  0.00    -0.034 C 
ATOM     80  C   UNL A   1      39.827  28.253  28.318  1.00  0.00    -0.036 A 
ATOM     81  N   UNL A   1      41.721  27.547  29.230  1.00  0.00    -0.354 N 
ATOM     82  C   UNL A   1      42.530  28.386  33.513  1.00  0.00     0.074 A 
ATOM     83  C   UNL A   1      41.284  27.912  34.051  1.00  0.00    -0.034 C 
ATOM     84  H   UNL A   1      39.368  27.552  33.162  1.00  0.00     0.065 H 
ATOM     85  C   UNL A   1      40.369  27.357  27.463  1.00  0.00    -0.036 A 
ATOM     86  H   UNL A   1      38.993  28.831  28.128  1.00  0.00     0.065 H 
ATOM     87  C   UNL A   1      41.619  26.872  28.021  1.00  0.00     0.049 A 
ATOM     88  H   UNL A   1      42.521  27.504  29.802  1.00  0.00     0.167 HD
ATOM     89  C   UNL A   1      43.820  28.169  33.889  1.00  0.00     0.037 A 
ATOM     90  H   UNL A   1      41.141  27.619  35.030  1.00  0.00     0.065 H 
ATOM     91  H   UNL A   1      39.961  27.066  26.560  1.00  0.00     0.065 H 
ATOM     92  C   UNL A   1      42.487  25.954  27.531  1.00  0.00     0.037 A 
ATOM     93  C   UNL A   1      44.733  28.890  33.043  1.00  0.00     0.049 A 
ATOM     94  C   UNL A   1      43.809  26.210  28.144  1.00  0.00     0.074 A 
ATOM     95  C   UNL A   1      45.223  30.173  32.944  1.00  0.00    -0.036 A 
ATOM     96  N   UNL A   1      44.997  28.260  31.860  1.00  0.00    -0.354 N 
ATOM     97  N   UNL A   1      44.521  27.276  27.905  1.00  0.00    -0.248 NA
ATOM     98  C   UNL A   1      44.246  25.406  29.281  1.00  0.00    -0.034 C 
ATOM     99  C   UNL A   1      45.672  30.328  31.597  1.00  0.00    -0.036 A 
ATOM    100  H   UNL A   1      45.258  30.881  33.694  1.00  0.00     0.065 H 
ATOM    101  C   UNL A   1      45.472  29.130  30.919  1.00  0.00     0.049 A 
ATOM    102  H   UNL A   1      44.862  27.297  31.705  1.00  0.00     0.167 HD
ATOM    103  C   UNL A   1      45.195  27.499  29.085  1.00  0.00     0.074 A 
ATOM    104  C   UNL A   1      45.145  26.238  29.812  1.00  0.00    -0.034 C 
ATOM    105  H   UNL A   1      43.946  24.467  29.587  1.00  0.00     0.065 H 
ATOM    106  H   UNL A   1      46.079  31.187  31.194  1.00  0.00     0.065 H 
ATOM    107  C   UNL A   1      45.431  28.768  29.522  1.00  0.00     0.037 A 
ATOM    108  H   UNL A   1      45.729  26.016  30.633  1.00  0.00     0.065 H 
BRANCH  89 109
ATOM    109  C   UNL A   1      44.287  26.940  34.645  1.00  0.00     0.064 A 
ATOM    110  C   UNL A   1      44.970  27.109  35.870  1.00  0.00     0.173 A 
ATOM    111  C   UNL A   1      44.401  25.659  34.065  1.00  0.00     0.173 A 
ATOM    112  F   UNL A   1      44.953  28.290  36.506  1.00  0.00    -0.203 F 
ATOM    113  C   UNL A   1      45.763  26.097  36.423  1.00  0.00     0.198 A 
ATOM    114  C   UNL A   1      45.154  24.638  34.644  1.00  0.00     0.198 A 
ATOM    115  F   UNL A   1      43.890  25.372  32.862  1.00  0.00    -0.203 F 
ATOM    116  F   UNL A   1      46.488  26.344  37.523  1.00  0.00    -0.200 F 
ATOM    117  C   UNL A   1      45.859  24.865  35.805  1.00  0.00     0.200 A 
ATOM    118  F   UNL A   1      45.256  23.458  34.015  1.00  0.00    -0.200 F 
ATOM    119  F   UNL A   1      46.664  23.915  36.298  1.00  0.00    -0.200 F 
ENDBRANCH  89 109
BRANCH  92 120
ATOM    120  C   UNL A   1      42.197  24.699  26.797  1.00  0.00     0.064 A 
ATOM    121  C   UNL A   1      42.977  24.322  25.689  1.00  0.00     0.173 A 
ATOM    122  C   UNL A   1      41.381  23.698  27.358  1.00  0.00     0.173 A 
ATOM    123  F   UNL A   1      43.800  25.209  25.110  1.00  0.00    -0.203 F 
ATOM    124  C   UNL A   1      42.995  23.007  25.218  1.00  0.00     0.198 A 
ATOM    125  C   UNL A   1      41.395  22.386  26.880  1.00  0.00     0.198 A 
ATOM    126  F   UNL A   1      40.635  23.946  28.444  1.00  0.00    -0.203 F 
ATOM    127  F   UNL A   1      43.822  22.666  24.219  1.00  0.00    -0.200 F 
ATOM    128  C   UNL A   1      42.219  22.035  25.828  1.00  0.00     0.200 A 
ATOM    129  F   UNL A   1      40.662  21.449  27.497  1.00  0.00    -0.200 F 
ATOM    130  F   UNL A   1      42.301  20.757  25.433  1.00  0.00    -0.200 F 
ENDBRANCH  92 120
BRANCH 107 131
ATOM    131  C   UNL A   1      45.470  29.855  28.500  1.00  0.00     0.064 A 
ATOM    132  C   UNL A   1      44.352  30.595  28.084  1.00  0.00     0.173 A 
ATOM    133  C   UNL A   1      46.720  30.211  27.977  1.00  0.00     0.173 A 
ATOM    134  F   UNL A   1      43.137  30.357  28.595  1.00  0.00    -0.203 F 
ATOM    135  C   UNL A   1      44.483  31.629  27.158  1.00  0.00     0.198 A 
ATOM    136  C   UNL A   1      46.853  31.264  27.081  1.00  0.00     0.198 A 
ATOM    137  F   UNL A   1      47.823  29.555  28.370  1.00  0.00    -0.203 F 
ATOM    138  F   UNL A   1      43.403  32.318  26.762  1.00  0.00    -0.200 F 
ATOM    139  C   UNL A   1      45.734  31.968  26.664  1.00  0.00     0.200 A 
ATOM    140  F   UNL A   1      48.069  31.613  26.639  1.00  0.00    -0.200 F 
ATOM    141  F   UNL A   1      45.866  32.988  25.805  1.00  0.00    -0.200 F 
ENDBRANCH 107 131
ENDBRANCH  72  75
ENDBRANCH  62  65
ENDBRANCH  58  61
ENDBRANCH  55  58
ENDBRANCH  52  55
ENDBRANCH   1  52
TORSDOF 18
ENDMDL
MODEL 5
REMARK VINA RESULT:     -11.5      2.963      8.649
REMARK SMILES CCc1cccc2c3c([nH]c12)[C@](CC)(CC(=O)NCCCCCCNC(=O)c1ccc(-c2c4nc(c(-c5c(F)c(F)c(F)c(F)c5F)c5ccc([nH]5)c(-c5c(F)c(F)c(F)c(F)c5F)c5nc(c(-c6c(F)c(F)c(F)c(F)c6F)c6ccc2[nH]6)C=C5)C=C4)cc1)OCC3
REMARK SMILES IDX 21 1 20 4 19 7 18 10 16 11 17 12 15 14 12 17 3 18 4 19 11 20
REMARK SMILES IDX 5 21 7 23 10 24 6 25 8 27 9 28 93 31 92 32 91 35 2 38 1 41
REMARK SMILES IDX 13 45 14 48 22 52 23 55 24 58 25 61 26 62 27 64 28 65 29 66
REMARK SMILES IDX 90 67 30 68 89 70 31 72 32 75 33 76 83 77 34 78 88 79 82 80
REMARK SMILES IDX 84 81 35 82 87 83 81 85 80 87 36 89 68 92 48 93 67 94 49 95
REMARK SMILES IDX 52 96 66 97 85 98 50 99 51 101 65 103 86 104 53 107 37 109
REMARK SMILES IDX 38 110 46 111 39 112 40 113 44 114 47 115 41 116 42 117
REMARK SMILES IDX 45 118 43 119 69 120 70 121 78 122 71 123 72 124 76 125
REMARK SMILES IDX 79 126 73 127 74 128 77 129 75 130 54 131 55 132 63 133
REMARK SMILES IDX 56 134 57 135 61 136 64 137 58 138 59 139 62 140 60 141
REMARK H PARENT 21 2 21 3 20 5 20 6 19 8 19 9 18 13 15 15 15 16 4 22 5 26
REMARK H PARENT 10 29 6 30 93 33 93 34 92 36 92 37 2 39 2 40 1 42 1 43 1 44
REMARK H PARENT 13 46 13 47 14 49 14 50 14 51 22 53 22 54 23 56 23 57 24 59
REMARK H PARENT 24 60 25 63 29 69 90 71 30 73 89 74 88 84 82 86 84 88 87 90
REMARK H PARENT 81 91 49 100 52 102 85 105 50 106 86 108
REMARK Flexibility Score: inf
ROOT
ATOM      1  C   UNL A   1      33.096  28.183  27.022  1.00  0.00    -0.052 C 
ATOM      2  H   UNL A   1      33.181  27.202  26.606  1.00  0.00     0.027 H 
ATOM      3  H   UNL A   1      33.129  28.191  28.092  1.00  0.00     0.027 H 
ENDROOT
BRANCH   1   4
ATOM      4  C   UNL A   1      31.722  28.755  26.625  1.00  0.00    -0.036 C 
ATOM      5  H   UNL A   1      31.193  27.994  26.090  1.00  0.00     0.028 H 
ATOM      6  H   UNL A   1      31.257  29.048  27.543  1.00  0.00     0.028 H 
BRANCH   4   7
ATOM      7  C   UNL A   1      31.741  30.017  25.750  1.00  0.00     0.017 C 
ATOM      8  H   UNL A   1      31.241  30.799  26.284  1.00  0.00     0.049 H 
ATOM      9  H   UNL A   1      32.770  30.229  25.553  1.00  0.00     0.049 H 
BRANCH   7  10
ATOM     10  N   UNL A   1      31.098  29.876  24.450  1.00  0.00    -0.356 N 
ATOM     11  C   UNL A   1      31.470  29.225  23.307  1.00  0.00     0.223 C 
ATOM     12  O   UNL A   1      30.745  29.342  22.318  1.00  0.00    -0.275 OA
ATOM     13  H   UNL A   1      30.229  30.335  24.383  1.00  0.00     0.163 HD
BRANCH  11  14
ATOM     14  C   UNL A   1      32.692  28.338  23.284  1.00  0.00     0.061 C 
ATOM     15  H   UNL A   1      33.351  28.735  22.543  1.00  0.00     0.040 H 
ATOM     16  H   UNL A   1      33.035  28.357  24.297  1.00  0.00     0.040 H 
BRANCH  14  17
ATOM     17  C   UNL A   1      32.528  26.828  22.982  1.00  0.00     0.117 C 
ATOM     18  C   UNL A   1      35.380  23.666  25.775  1.00  0.00    -0.024 A 
ATOM     19  C   UNL A   1      35.028  22.798  26.836  1.00  0.00    -0.057 A 
ATOM     20  C   UNL A   1      34.341  24.492  25.292  1.00  0.00     0.049 A 
ATOM     21  C   UNL A   1      33.748  22.754  27.383  1.00  0.00    -0.061 A 
ATOM     22  H   UNL A   1      35.751  22.171  27.223  1.00  0.00     0.063 H 
ATOM     23  C   UNL A   1      33.046  24.423  25.802  1.00  0.00     0.003 A 
ATOM     24  N   UNL A   1      34.319  25.448  24.281  1.00  0.00    -0.356 N 
ATOM     25  C   UNL A   1      32.744  23.560  26.867  1.00  0.00    -0.053 A 
ATOM     26  H   UNL A   1      33.546  22.120  28.172  1.00  0.00     0.062 H 
ATOM     27  C   UNL A   1      32.244  25.250  24.994  1.00  0.00    -0.014 A 
ATOM     28  C   UNL A   1      33.035  25.908  24.078  1.00  0.00     0.052 A 
ATOM     29  H   UNL A   1      35.110  25.755  23.782  1.00  0.00     0.166 HD
ATOM     30  H   UNL A   1      31.790  23.527  27.260  1.00  0.00     0.063 H 
ATOM     31  C   UNL A   1      30.781  25.320  24.986  1.00  0.00    -0.002 C 
ATOM     32  C   UNL A   1      30.307  26.251  23.888  1.00  0.00     0.052 C 
ATOM     33  H   UNL A   1      30.440  25.687  25.931  1.00  0.00     0.034 H 
ATOM     34  H   UNL A   1      30.386  24.342  24.807  1.00  0.00     0.034 H 
ATOM     35  O   UNL A   1      31.156  26.428  22.741  1.00  0.00    -0.368 OA
ATOM     36  H   UNL A   1      29.370  25.875  23.535  1.00  0.00     0.057 H 
ATOM     37  H   UNL A   1      30.276  27.216  24.350  1.00  0.00     0.057 H 
BRANCH  18  38
ATOM     38  C   UNL A   1      36.762  23.676  25.168  1.00  0.00    -0.029 C 
ATOM     39  H   UNL A   1      36.937  22.711  24.740  1.00  0.00     0.031 H 
ATOM     40  H   UNL A   1      36.757  24.479  24.461  1.00  0.00     0.031 H 
BRANCH  38  41
ATOM     41  C   UNL A   1      37.915  23.978  26.119  1.00  0.00    -0.061 C 
ATOM     42  H   UNL A   1      38.824  24.062  25.562  1.00  0.00     0.023 H 
ATOM     43  H   UNL A   1      38.006  23.186  26.833  1.00  0.00     0.023 H 
ATOM     44  H   UNL A   1      37.724  24.899  26.631  1.00  0.00     0.023 H 
ENDBRANCH  38  41
ENDBRANCH  18  38
BRANCH  17  45
ATOM     45  C   UNL A   1      33.268  26.515  21.639  1.00  0.00    -0.020 C 
ATOM     46  H   UNL A   1      34.209  26.065  21.879  1.00  0.00     0.030 H 
ATOM     47  H   UNL A   1      33.356  27.451  21.127  1.00  0.00     0.030 H 
BRANCH  45  48
ATOM     48  C   UNL A   1      32.527  25.577  20.679  1.00  0.00    -0.062 C 
ATOM     49  H   UNL A   1      31.543  25.956  20.500  1.00  0.00     0.023 H 
ATOM     50  H   UNL A   1      32.460  24.602  21.115  1.00  0.00     0.023 H 
ATOM     51  H   UNL A   1      33.061  25.518  19.754  1.00  0.00     0.023 H 
ENDBRANCH  45  48
ENDBRANCH  17  45
ENDBRANCH  14  17
ENDBRANCH  11  14
ENDBRANCH   7  10
ENDBRANCH   4   7
ENDBRANCH   1   4
BRANCH   1  52
ATOM     52  C   UNL A   1      34.285  29.004  26.549  1.00  0.00    -0.052 C 
ATOM     53  H   UNL A   1      33.945  29.679  25.790  1.00  0.00     0.027 H 
ATOM     54  H   UNL A   1      35.015  28.310  26.189  1.00  0.00     0.027 H 
BRANCH  52  55
ATOM     55  C   UNL A   1      34.960  29.821  27.649  1.00  0.00    -0.036 C 
ATOM     56  H   UNL A   1      36.019  29.703  27.548  1.00  0.00     0.028 H 
ATOM     57  H   UNL A   1      34.579  29.448  28.576  1.00  0.00     0.028 H 
BRANCH  55  58
ATOM     58  C   UNL A   1      34.644  31.321  27.626  1.00  0.00     0.018 C 
ATOM     59  H   UNL A   1      33.719  31.462  27.107  1.00  0.00     0.049 H 
ATOM     60  H   UNL A   1      35.466  31.804  27.141  1.00  0.00     0.049 H 
BRANCH  58  61
ATOM     61  N   UNL A   1      34.523  31.917  28.941  1.00  0.00    -0.352 N 
ATOM     62  C   UNL A   1      35.359  31.963  30.025  1.00  0.00     0.251 C 
ATOM     63  H   UNL A   1      33.668  32.384  29.084  1.00  0.00     0.163 HD
ATOM     64  O   UNL A   1      35.005  32.666  30.977  1.00  0.00    -0.269 OA
BRANCH  62  65
ATOM     65  C   UNL A   1      36.604  31.158  30.156  1.00  0.00     0.039 A 
ATOM     66  C   UNL A   1      37.874  31.582  29.778  1.00  0.00    -0.049 A 
ATOM     67  C   UNL A   1      36.458  29.845  30.643  1.00  0.00    -0.049 A 
ATOM     68  C   UNL A   1      38.923  30.682  29.707  1.00  0.00    -0.053 A 
ATOM     69  H   UNL A   1      38.035  32.576  29.549  1.00  0.00     0.063 H 
ATOM     70  C   UNL A   1      37.528  28.956  30.651  1.00  0.00    -0.053 A 
ATOM     71  H   UNL A   1      35.539  29.538  31.001  1.00  0.00     0.063 H 
ATOM     72  C   UNL A   1      38.746  29.359  30.123  1.00  0.00    -0.014 A 
ATOM     73  H   UNL A   1      39.839  30.988  29.344  1.00  0.00     0.063 H 
ATOM     74  H   UNL A   1      37.416  28.008  31.043  1.00  0.00     0.063 H 
BRANCH  72  75
ATOM     75  C   UNL A   1      39.934  28.509  30.094  1.00  0.00     0.031 A 
ATOM     76  C   UNL A   1      40.557  28.319  31.431  1.00  0.00     0.074 A 
ATOM     77  C   UNL A   1      40.440  27.919  28.992  1.00  0.00     0.049 A 
ATOM     78  N   UNL A   1      41.710  28.751  31.824  1.00  0.00    -0.248 NA
ATOM     79  C   UNL A   1      39.746  27.723  32.503  1.00  0.00    -0.034 C 
ATOM     80  C   UNL A   1      39.816  27.799  27.673  1.00  0.00    -0.036 A 
ATOM     81  N   UNL A   1      41.609  27.225  28.846  1.00  0.00    -0.354 N 
ATOM     82  C   UNL A   1      41.855  28.319  33.140  1.00  0.00     0.074 A 
ATOM     83  C   UNL A   1      40.570  27.820  33.550  1.00  0.00    -0.034 C 
ATOM     84  H   UNL A   1      38.792  27.331  32.458  1.00  0.00     0.065 H 
ATOM     85  C   UNL A   1      40.493  26.885  26.941  1.00  0.00    -0.036 A 
ATOM     86  H   UNL A   1      38.992  28.330  27.351  1.00  0.00     0.065 H 
ATOM     87  C   UNL A   1      41.682  26.484  27.674  1.00  0.00     0.049 A 
ATOM     88  H   UNL A   1      42.334  27.247  29.512  1.00  0.00     0.167 HD
ATOM     89  C   UNL A   1      43.095  28.178  33.681  1.00  0.00     0.037 A 
ATOM     90  H   UNL A   1      40.319  27.571  34.519  1.00  0.00     0.065 H 
ATOM     91  H   UNL A   1      40.210  26.530  26.014  1.00  0.00     0.065 H 
ATOM     92  C   UNL A   1      42.637  25.582  27.344  1.00  0.00     0.037 A 
ATOM     93  C   UNL A   1      44.078  28.894  32.912  1.00  0.00     0.049 A 
ATOM     94  C   UNL A   1      43.864  25.926  28.096  1.00  0.00     0.074 A 
ATOM     95  C   UNL A   1      44.528  30.190  32.800  1.00  0.00    -0.036 A 
ATOM     96  N   UNL A   1      44.509  28.216  31.807  1.00  0.00    -0.354 N 
ATOM     97  N   UNL A   1      44.559  27.009  27.885  1.00  0.00    -0.248 NA
ATOM     98  C   UNL A   1      44.186  25.202  29.322  1.00  0.00    -0.034 C 
ATOM     99  C   UNL A   1      45.134  30.295  31.511  1.00  0.00    -0.036 A 
ATOM    100  H   UNL A   1      44.445  30.937  33.508  1.00  0.00     0.065 H 
ATOM    101  C   UNL A   1      45.063  29.056  30.882  1.00  0.00     0.049 A 
ATOM    102  H   UNL A   1      44.430  27.241  31.691  1.00  0.00     0.167 HD
ATOM    103  C   UNL A   1      45.075  27.322  29.124  1.00  0.00     0.074 A 
ATOM    104  C   UNL A   1      44.982  26.099  29.909  1.00  0.00    -0.034 C 
ATOM    105  H   UNL A   1      43.887  24.267  29.642  1.00  0.00     0.065 H 
ATOM    106  H   UNL A   1      45.554  31.149  31.111  1.00  0.00     0.065 H 
ATOM    107  C   UNL A   1      45.207  28.620  29.514  1.00  0.00     0.037 A 
ATOM    108  H   UNL A   1      45.469  25.946  30.806  1.00  0.00     0.065 H 
BRANCH  89 109
ATOM    109  C   UNL A   1      43.512  27.012  34.556  1.00  0.00     0.064 A 
ATOM    110  C   UNL A   1      43.836  27.253  35.910  1.00  0.00     0.173 A 
ATOM    111  C   UNL A   1      43.931  25.763  34.051  1.00  0.00     0.173 A 
ATOM    112  F   UNL A   1      43.508  28.415  36.496  1.00  0.00    -0.203 F 
ATOM    113  C   UNL A   1      44.588  26.347  36.665  1.00  0.00     0.198 A 
ATOM    114  C   UNL A   1      44.639  24.841  34.822  1.00  0.00     0.198 A 
ATOM    115  F   UNL A   1      43.781  25.426  32.764  1.00  0.00    -0.203 F 
ATOM    116  F   UNL A   1      44.975  26.673  37.907  1.00  0.00    -0.200 F 
ATOM    117  C   UNL A   1      44.995  25.145  36.118  1.00  0.00     0.200 A 
ATOM    118  F   UNL A   1      45.047  23.692  34.264  1.00  0.00    -0.200 F 
ATOM    119  F   UNL A   1      45.765  24.302  36.817  1.00  0.00    -0.200 F 
ENDBRANCH  89 109
BRANCH  92 120
ATOM    120  C   UNL A   1      42.486  24.279  26.653  1.00  0.00     0.064 A 
ATOM    121  C   UNL A   1      43.268  23.974  25.524  1.00  0.00     0.173 A 
ATOM    122  C   UNL A   1      41.828  23.198  27.269  1.00  0.00     0.173 A 
ATOM    123  F   UNL A   1      43.947  24.942  24.891  1.00  0.00    -0.203 F 
ATOM    124  C   UNL A   1      43.440  22.658  25.085  1.00  0.00     0.198 A 
ATOM    125  C   UNL A   1      41.995  21.885  26.824  1.00  0.00     0.198 A 
ATOM    126  F   UNL A   1      41.096  23.379  28.378  1.00  0.00    -0.203 F 
ATOM    127  F   UNL A   1      44.267  22.398  24.062  1.00  0.00    -0.200 F 
ATOM    128  C   UNL A   1      42.819  21.613  25.748  1.00  0.00     0.200 A 
ATOM    129  F   UNL A   1      41.412  20.880  27.491  1.00  0.00    -0.200 F 
ATOM    130  F   UNL A   1      43.051  20.345  25.381  1.00  0.00    -0.200 F 
ENDBRANCH  92 120
BRANCH 107 131
ATOM    131  C   UNL A   1      45.331  29.655  28.443  1.00  0.00     0.064 A 
ATOM    132  C   UNL A   1      44.245  30.301  27.834  1.00  0.00     0.173 A 
ATOM    133  C   UNL A   1      46.621  30.059  28.077  1.00  0.00     0.173 A 
ATOM    134  F   UNL A   1      42.984  30.015  28.186  1.00  0.00    -0.203 F 
ATOM    135  C   UNL A   1      44.449  31.293  26.875  1.00  0.00     0.198 A 
ATOM    136  C   UNL A   1      46.822  31.072  27.147  1.00  0.00     0.198 A 
ATOM    137  F   UNL A   1      47.692  29.495  28.657  1.00  0.00    -0.203 F 
ATOM    138  F   UNL A   1      43.400  31.892  26.293  1.00  0.00    -0.200 F 
ATOM    139  C   UNL A   1      45.737  31.682  26.539  1.00  0.00     0.200 A 
ATOM    140  F   UNL A   1      48.068  31.472  26.858  1.00  0.00    -0.200 F 
ATOM    141  F   UNL A   1      45.934  32.663  25.648  1.00  0.00    -0.200 F 
ENDBRANCH 107 131
ENDBRANCH  72  75
ENDBRANCH  62  65
ENDBRANCH  58  61
ENDBRANCH  55  58
ENDBRANCH  52  55
ENDBRANCH   1  52
TORSDOF 18
ENDMDL
MODEL 6
REMARK VINA RESULT:     -11.4      2.783      8.614
REMARK SMILES CCc1cccc2c3c([nH]c12)[C@](CC)(CC(=O)NCCCCCCNC(=O)c1ccc(-c2c4nc(c(-c5c(F)c(F)c(F)c(F)c5F)c5ccc([nH]5)c(-c5c(F)c(F)c(F)c(F)c5F)c5nc(c(-c6c(F)c(F)c(F)c(F)c6F)c6ccc2[nH]6)C=C5)C=C4)cc1)OCC3
REMARK SMILES IDX 21 1 20 4 19 7 18 10 16 11 17 12 15 14 12 17 3 18 4 19 11 20
REMARK SMILES IDX 5 21 7 23 10 24 6 25 8 27 9 28 93 31 92 32 91 35 2 38 1 41
REMARK SMILES IDX 13 45 14 48 22 52 23 55 24 58 25 61 26 62 27 64 28 65 29 66
REMARK SMILES IDX 90 67 30 68 89 70 31 72 32 75 33 76 83 77 34 78 88 79 82 80
REMARK SMILES IDX 84 81 35 82 87 83 81 85 80 87 36 89 68 92 48 93 67 94 49 95
REMARK SMILES IDX 52 96 66 97 85 98 50 99 51 101 65 103 86 104 53 107 37 109
REMARK SMILES IDX 38 110 46 111 39 112 40 113 44 114 47 115 41 116 42 117
REMARK SMILES IDX 45 118 43 119 69 120 70 121 78 122 71 123 72 124 76 125
REMARK SMILES IDX 79 126 73 127 74 128 77 129 75 130 54 131 55 132 63 133
REMARK SMILES IDX 56 134 57 135 61 136 64 137 58 138 59 139 62 140 60 141
REMARK H PARENT 21 2 21 3 20 5 20 6 19 8 19 9 18 13 15 15 15 16 4 22 5 26
REMARK H PARENT 10 29 6 30 93 33 93 34 92 36 92 37 2 39 2 40 1 42 1 43 1 44
REMARK H PARENT 13 46 13 47 14 49 14 50 14 51 22 53 22 54 23 56 23 57 24 59
REMARK H PARENT 24 60 25 63 29 69 90 71 30 73 89 74 88 84 82 86 84 88 87 90
REMARK H PARENT 81 91 49 100 52 102 85 105 50 106 86 108
REMARK Flexibility Score: inf
ROOT
ATOM      1  C   UNL A   1      33.958  29.258  26.426  1.00  0.00    -0.052 C 
ATOM      2  H   UNL A   1      34.140  30.076  25.761  1.00  0.00     0.027 H 
ATOM      3  H   UNL A   1      34.250  28.313  26.019  1.00  0.00     0.027 H 
ENDROOT
BRANCH   1   4
ATOM      4  C   UNL A   1      32.442  29.174  26.680  1.00  0.00    -0.036 C 
ATOM      5  H   UNL A   1      32.154  30.045  27.234  1.00  0.00     0.028 H 
ATOM      6  H   UNL A   1      31.992  29.102  25.712  1.00  0.00     0.028 H 
BRANCH   4   7
ATOM      7  C   UNL A   1      31.952  27.942  27.456  1.00  0.00     0.017 C 
ATOM      8  H   UNL A   1      32.805  27.343  27.701  1.00  0.00     0.049 H 
ATOM      9  H   UNL A   1      31.434  28.314  28.314  1.00  0.00     0.049 H 
BRANCH   7  10
ATOM     10  N   UNL A   1      31.001  27.102  26.740  1.00  0.00    -0.356 N 
ATOM     11  C   UNL A   1      31.129  25.888  26.122  1.00  0.00     0.223 C 
ATOM     12  O   UNL A   1      30.149  25.444  25.523  1.00  0.00    -0.275 OA
ATOM     13  H   UNL A   1      30.093  27.479  26.693  1.00  0.00     0.163 HD
BRANCH  11  14
ATOM     14  C   UNL A   1      32.407  25.094  26.237  1.00  0.00     0.061 C 
ATOM     15  H   UNL A   1      33.018  25.588  26.961  1.00  0.00     0.040 H 
ATOM     16  H   UNL A   1      32.070  24.108  26.479  1.00  0.00     0.040 H 
BRANCH  14  17
ATOM     17  C   UNL A   1      33.284  24.881  24.978  1.00  0.00     0.117 C 
ATOM     18  C   UNL A   1      37.917  22.926  25.784  1.00  0.00    -0.024 A 
ATOM     19  C   UNL A   1      38.430  21.632  25.528  1.00  0.00    -0.057 A 
ATOM     20  C   UNL A   1      36.537  23.095  25.534  1.00  0.00     0.049 A 
ATOM     21  C   UNL A   1      37.640  20.582  25.067  1.00  0.00    -0.061 A 
ATOM     22  H   UNL A   1      39.434  21.457  25.692  1.00  0.00     0.063 H 
ATOM     23  C   UNL A   1      35.747  22.063  25.029  1.00  0.00     0.003 A 
ATOM     24  N   UNL A   1      35.705  24.202  25.669  1.00  0.00    -0.356 N 
ATOM     25  C   UNL A   1      36.294  20.790  24.807  1.00  0.00    -0.053 A 
ATOM     26  H   UNL A   1      38.056  19.649  24.918  1.00  0.00     0.062 H 
ATOM     27  C   UNL A   1      34.484  22.616  24.749  1.00  0.00    -0.014 A 
ATOM     28  C   UNL A   1      34.448  23.926  25.175  1.00  0.00     0.052 A 
ATOM     29  H   UNL A   1      35.976  25.063  26.063  1.00  0.00     0.166 HD
ATOM     30  H   UNL A   1      35.702  20.020  24.455  1.00  0.00     0.063 H 
ATOM     31  C   UNL A   1      33.398  21.991  23.991  1.00  0.00    -0.002 C 
ATOM     32  C   UNL A   1      32.250  22.965  23.818  1.00  0.00     0.052 C 
ATOM     33  H   UNL A   1      33.051  21.127  24.518  1.00  0.00     0.034 H 
ATOM     34  H   UNL A   1      33.764  21.709  23.026  1.00  0.00     0.034 H 
ATOM     35  O   UNL A   1      32.551  24.371  23.837  1.00  0.00    -0.368 OA
ATOM     36  H   UNL A   1      31.791  22.750  22.876  1.00  0.00     0.057 H 
ATOM     37  H   UNL A   1      31.636  22.810  24.681  1.00  0.00     0.057 H 
BRANCH  18  38
ATOM     38  C   UNL A   1      38.794  24.063  26.248  1.00  0.00    -0.029 C 
ATOM     39  H   UNL A   1      39.807  23.807  26.020  1.00  0.00     0.031 H 
ATOM     40  H   UNL A   1      38.431  24.930  25.739  1.00  0.00     0.031 H 
BRANCH  38  41
ATOM     41  C   UNL A   1      38.724  24.405  27.733  1.00  0.00    -0.061 C 
ATOM     42  H   UNL A   1      39.716  24.472  28.130  1.00  0.00     0.023 H 
ATOM     43  H   UNL A   1      38.183  23.640  28.251  1.00  0.00     0.023 H 
ATOM     44  H   UNL A   1      38.225  25.343  27.861  1.00  0.00     0.023 H 
ENDBRANCH  38  41
ENDBRANCH  18  38
BRANCH  17  45
ATOM     45  C   UNL A   1      33.815  26.277  24.509  1.00  0.00    -0.020 C 
ATOM     46  H   UNL A   1      34.861  26.180  24.306  1.00  0.00     0.030 H 
ATOM     47  H   UNL A   1      33.591  26.958  25.305  1.00  0.00     0.030 H 
BRANCH  45  48
ATOM     48  C   UNL A   1      33.141  26.854  23.259  1.00  0.00    -0.062 C 
ATOM     49  H   UNL A   1      32.233  27.344  23.537  1.00  0.00     0.023 H 
ATOM     50  H   UNL A   1      32.924  26.061  22.574  1.00  0.00     0.023 H 
ATOM     51  H   UNL A   1      33.798  27.557  22.792  1.00  0.00     0.023 H 
ENDBRANCH  45  48
ENDBRANCH  17  45
ENDBRANCH  14  17
ENDBRANCH  11  14
ENDBRANCH   7  10
ENDBRANCH   4   7
ENDBRANCH   1   4
BRANCH   1  52
ATOM     52  C   UNL A   1      34.800  29.467  27.674  1.00  0.00    -0.052 C 
ATOM     53  H   UNL A   1      35.376  28.580  27.842  1.00  0.00     0.027 H 
ATOM     54  H   UNL A   1      34.121  29.678  28.473  1.00  0.00     0.027 H 
BRANCH  52  55
ATOM     55  C   UNL A   1      35.760  30.653  27.592  1.00  0.00    -0.036 C 
ATOM     56  H   UNL A   1      36.175  30.676  26.606  1.00  0.00     0.028 H 
ATOM     57  H   UNL A   1      36.492  30.499  28.356  1.00  0.00     0.028 H 
BRANCH  55  58
ATOM     58  C   UNL A   1      35.125  32.020  27.874  1.00  0.00     0.018 C 
ATOM     59  H   UNL A   1      34.220  32.093  27.308  1.00  0.00     0.049 H 
ATOM     60  H   UNL A   1      35.845  32.760  27.595  1.00  0.00     0.049 H 
BRANCH  58  61
ATOM     61  N   UNL A   1      34.809  32.246  29.269  1.00  0.00    -0.352 N 
ATOM     62  C   UNL A   1      35.499  32.021  30.431  1.00  0.00     0.251 C 
ATOM     63  H   UNL A   1      33.919  32.641  29.412  1.00  0.00     0.163 HD
ATOM     64  O   UNL A   1      34.992  32.441  31.475  1.00  0.00    -0.269 OA
BRANCH  62  65
ATOM     65  C   UNL A   1      36.761  31.235  30.515  1.00  0.00     0.039 A 
ATOM     66  C   UNL A   1      38.033  31.734  30.251  1.00  0.00    -0.049 A 
ATOM     67  C   UNL A   1      36.632  29.868  30.824  1.00  0.00    -0.049 A 
ATOM     68  C   UNL A   1      39.109  30.875  30.115  1.00  0.00    -0.053 A 
ATOM     69  H   UNL A   1      38.175  32.752  30.158  1.00  0.00     0.063 H 
ATOM     70  C   UNL A   1      37.727  29.009  30.768  1.00  0.00    -0.053 A 
ATOM     71  H   UNL A   1      35.709  29.496  31.098  1.00  0.00     0.063 H 
ATOM     72  C   UNL A   1      38.954  29.506  30.351  1.00  0.00    -0.014 A 
ATOM     73  H   UNL A   1      40.031  31.246  29.836  1.00  0.00     0.063 H 
ATOM     74  H   UNL A   1      37.626  28.017  31.032  1.00  0.00     0.063 H 
BRANCH  72  75
ATOM     75  C   UNL A   1      40.166  28.694  30.269  1.00  0.00     0.031 A 
ATOM     76  C   UNL A   1      40.846  28.514  31.579  1.00  0.00     0.074 A 
ATOM     77  C   UNL A   1      40.647  28.130  29.143  1.00  0.00     0.049 A 
ATOM     78  N   UNL A   1      41.999  28.979  31.931  1.00  0.00    -0.248 NA
ATOM     79  C   UNL A   1      40.097  27.883  32.676  1.00  0.00    -0.034 C 
ATOM     80  C   UNL A   1      39.977  28.000  27.848  1.00  0.00    -0.036 A 
ATOM     81  N   UNL A   1      41.832  27.474  28.945  1.00  0.00    -0.354 N 
ATOM     82  C   UNL A   1      42.208  28.542  33.237  1.00  0.00     0.074 A 
ATOM     83  C   UNL A   1      40.957  27.998  33.691  1.00  0.00    -0.034 C 
ATOM     84  H   UNL A   1      39.155  27.461  32.665  1.00  0.00     0.065 H 
ATOM     85  C   UNL A   1      40.653  27.114  27.082  1.00  0.00    -0.036 A 
ATOM     86  H   UNL A   1      39.125  28.507  27.563  1.00  0.00     0.065 H 
ATOM     87  C   UNL A   1      41.882  26.746  27.765  1.00  0.00     0.049 A 
ATOM     88  H   UNL A   1      42.581  27.514  29.583  1.00  0.00     0.167 HD
ATOM     89  C   UNL A   1      43.473  28.436  33.729  1.00  0.00     0.037 A 
ATOM     90  H   UNL A   1      40.751  27.734  34.667  1.00  0.00     0.065 H 
ATOM     91  H   UNL A   1      40.346  26.758  26.163  1.00  0.00     0.065 H 
ATOM     92  C   UNL A   1      42.852  25.877  27.390  1.00  0.00     0.037 A 
ATOM     93  C   UNL A   1      44.401  29.189  32.929  1.00  0.00     0.049 A 
ATOM     94  C   UNL A   1      44.095  26.255  28.098  1.00  0.00     0.074 A 
ATOM     95  C   UNL A   1      44.806  30.500  32.812  1.00  0.00    -0.036 A 
ATOM     96  N   UNL A   1      44.811  28.534  31.802  1.00  0.00    -0.354 N 
ATOM     97  N   UNL A   1      44.747  27.361  27.870  1.00  0.00    -0.248 NA
ATOM     98  C   UNL A   1      44.488  25.531  29.304  1.00  0.00    -0.034 C 
ATOM     99  C   UNL A   1      45.358  30.635  31.501  1.00  0.00    -0.036 A 
ATOM    100  H   UNL A   1      44.726  31.238  33.529  1.00  0.00     0.065 H 
ATOM    101  C   UNL A   1      45.301  29.399  30.864  1.00  0.00     0.049 A 
ATOM    102  H   UNL A   1      44.758  27.558  31.680  1.00  0.00     0.167 HD
ATOM    103  C   UNL A   1      45.300  27.680  29.091  1.00  0.00     0.074 A 
ATOM    104  C   UNL A   1      45.277  26.449  29.868  1.00  0.00    -0.034 C 
ATOM    105  H   UNL A   1      44.231  24.585  29.627  1.00  0.00     0.065 H 
ATOM    106  H   UNL A   1      45.735  31.504  31.094  1.00  0.00     0.065 H 
ATOM    107  C   UNL A   1      45.407  28.979  29.487  1.00  0.00     0.037 A 
ATOM    108  H   UNL A   1      45.803  26.304  30.744  1.00  0.00     0.065 H 
BRANCH  89 109
ATOM    109  C   UNL A   1      43.959  27.277  34.576  1.00  0.00     0.064 A 
ATOM    110  C   UNL A   1      44.549  27.547  35.831  1.00  0.00     0.173 A 
ATOM    111  C   UNL A   1      44.184  25.977  34.073  1.00  0.00     0.173 A 
ATOM    112  F   UNL A   1      44.423  28.754  36.401  1.00  0.00    -0.203 F 
ATOM    113  C   UNL A   1      45.361  26.613  36.485  1.00  0.00     0.198 A 
ATOM    114  C   UNL A   1      44.954  25.034  34.752  1.00  0.00     0.198 A 
ATOM    115  F   UNL A   1      43.770  25.601  32.858  1.00  0.00    -0.203 F 
ATOM    116  F   UNL A   1      45.997  26.957  37.614  1.00  0.00    -0.200 F 
ATOM    117  C   UNL A   1      45.568  25.361  35.941  1.00  0.00     0.200 A 
ATOM    118  F   UNL A   1      45.165  23.832  34.193  1.00  0.00    -0.200 F 
ATOM    119  F   UNL A   1      46.392  24.486  36.533  1.00  0.00    -0.200 F 
ENDBRANCH  89 109
BRANCH  92 120
ATOM    120  C   UNL A   1      42.715  24.576  26.694  1.00  0.00     0.064 A 
ATOM    121  C   UNL A   1      43.287  24.382  25.423  1.00  0.00     0.173 A 
ATOM    122  C   UNL A   1      42.320  23.415  27.386  1.00  0.00     0.173 A 
ATOM    123  F   UNL A   1      43.712  25.433  24.706  1.00  0.00    -0.203 F 
ATOM    124  C   UNL A   1      43.516  23.102  24.909  1.00  0.00     0.198 A 
ATOM    125  C   UNL A   1      42.543  22.138  26.867  1.00  0.00     0.198 A 
ATOM    126  F   UNL A   1      41.807  23.492  28.622  1.00  0.00    -0.203 F 
ATOM    127  F   UNL A   1      44.148  22.958  23.735  1.00  0.00    -0.200 F 
ATOM    128  C   UNL A   1      43.162  21.982  25.641  1.00  0.00     0.200 A 
ATOM    129  F   UNL A   1      42.223  21.061  27.597  1.00  0.00    -0.200 F 
ATOM    130  F   UNL A   1      43.460  20.755  25.188  1.00  0.00    -0.200 F 
ENDBRANCH  92 120
BRANCH 107 131
ATOM    131  C   UNL A   1      45.456  30.025  28.423  1.00  0.00     0.064 A 
ATOM    132  C   UNL A   1      44.328  30.656  27.875  1.00  0.00     0.173 A 
ATOM    133  C   UNL A   1      46.718  30.458  27.996  1.00  0.00     0.173 A 
ATOM    134  F   UNL A   1      43.093  30.341  28.288  1.00  0.00    -0.203 F 
ATOM    135  C   UNL A   1      44.465  31.659  26.918  1.00  0.00     0.198 A 
ATOM    136  C   UNL A   1      46.852  31.483  27.067  1.00  0.00     0.198 A 
ATOM    137  F   UNL A   1      47.828  29.910  28.516  1.00  0.00    -0.203 F 
ATOM    138  F   UNL A   1      43.376  32.243  26.395  1.00  0.00    -0.200 F 
ATOM    139  C   UNL A   1      45.726  32.077  26.521  1.00  0.00     0.200 A 
ATOM    140  F   UNL A   1      48.073  31.911  26.720  1.00  0.00    -0.200 F 
ATOM    141  F   UNL A   1      45.858  33.070  25.630  1.00  0.00    -0.200 F 
ENDBRANCH 107 131
ENDBRANCH  72  75
ENDBRANCH  62  65
ENDBRANCH  58  61
ENDBRANCH  55  58
ENDBRANCH  52  55
ENDBRANCH   1  52
TORSDOF 18
ENDMDL
MODEL 7
REMARK VINA RESULT:     -11.3      4.739     11.156
REMARK SMILES CCc1cccc2c3c([nH]c12)[C@](CC)(CC(=O)NCCCCCCNC(=O)c1ccc(-c2c4nc(c(-c5c(F)c(F)c(F)c(F)c5F)c5ccc([nH]5)c(-c5c(F)c(F)c(F)c(F)c5F)c5nc(c(-c6c(F)c(F)c(F)c(F)c6F)c6ccc2[nH]6)C=C5)C=C4)cc1)OCC3
REMARK SMILES IDX 21 1 20 4 19 7 18 10 16 11 17 12 15 14 12 17 3 18 4 19 11 20
REMARK SMILES IDX 5 21 7 23 10 24 6 25 8 27 9 28 93 31 92 32 91 35 2 38 1 41
REMARK SMILES IDX 13 45 14 48 22 52 23 55 24 58 25 61 26 62 27 64 28 65 29 66
REMARK SMILES IDX 90 67 30 68 89 70 31 72 32 75 33 76 83 77 34 78 88 79 82 80
REMARK SMILES IDX 84 81 35 82 87 83 81 85 80 87 36 89 68 92 48 93 67 94 49 95
REMARK SMILES IDX 52 96 66 97 85 98 50 99 51 101 65 103 86 104 53 107 37 109
REMARK SMILES IDX 38 110 46 111 39 112 40 113 44 114 47 115 41 116 42 117
REMARK SMILES IDX 45 118 43 119 69 120 70 121 78 122 71 123 72 124 76 125
REMARK SMILES IDX 79 126 73 127 74 128 77 129 75 130 54 131 55 132 63 133
REMARK SMILES IDX 56 134 57 135 61 136 64 137 58 138 59 139 62 140 60 141
REMARK H PARENT 21 2 21 3 20 5 20 6 19 8 19 9 18 13 15 15 15 16 4 22 5 26
REMARK H PARENT 10 29 6 30 93 33 93 34 92 36 92 37 2 39 2 40 1 42 1 43 1 44
REMARK H PARENT 13 46 13 47 14 49 14 50 14 51 22 53 22 54 23 56 23 57 24 59
REMARK H PARENT 24 60 25 63 29 69 90 71 30 73 89 74 88 84 82 86 84 88 87 90
REMARK H PARENT 81 91 49 100 52 102 85 105 50 106 86 108
REMARK Flexibility Score: inf
ROOT
ATOM      1  C   UNL A   1      36.689  30.873  32.608  1.00  0.00    -0.052 C 
ATOM      2  H   UNL A   1      36.248  30.063  33.150  1.00  0.00     0.027 H 
ATOM      3  H   UNL A   1      36.683  30.723  31.549  1.00  0.00     0.027 H 
ENDROOT
BRANCH   1   4
ATOM      4  C   UNL A   1      38.168  30.979  33.025  1.00  0.00    -0.036 C 
ATOM      5  H   UNL A   1      38.690  30.150  32.593  1.00  0.00     0.028 H 
ATOM      6  H   UNL A   1      38.498  31.935  32.674  1.00  0.00     0.028 H 
BRANCH   4   7
ATOM      7  C   UNL A   1      38.448  30.974  34.535  1.00  0.00     0.017 C 
ATOM      8  H   UNL A   1      37.869  31.754  34.983  1.00  0.00     0.049 H 
ATOM      9  H   UNL A   1      38.188  29.997  34.885  1.00  0.00     0.049 H 
BRANCH   7  10
ATOM     10  N   UNL A   1      39.843  31.180  34.903  1.00  0.00    -0.356 N 
ATOM     11  C   UNL A   1      40.520  32.274  35.367  1.00  0.00     0.223 C 
ATOM     12  O   UNL A   1      41.737  32.170  35.526  1.00  0.00    -0.275 OA
ATOM     13  H   UNL A   1      40.405  30.378  34.801  1.00  0.00     0.163 HD
BRANCH  11  14
ATOM     14  C   UNL A   1      39.784  33.539  35.735  1.00  0.00     0.061 C 
ATOM     15  H   UNL A   1      38.745  33.293  35.784  1.00  0.00     0.040 H 
ATOM     16  H   UNL A   1      40.252  33.847  36.647  1.00  0.00     0.040 H 
BRANCH  14  17
ATOM     17  C   UNL A   1      39.909  34.784  34.822  1.00  0.00     0.117 C 
ATOM     18  C   UNL A   1      43.671  34.672  31.391  1.00  0.00    -0.024 A 
ATOM     19  C   UNL A   1      43.636  34.487  29.989  1.00  0.00    -0.057 A 
ATOM     20  C   UNL A   1      42.432  34.535  32.056  1.00  0.00     0.049 A 
ATOM     21  C   UNL A   1      42.467  34.184  29.295  1.00  0.00    -0.061 A 
ATOM     22  H   UNL A   1      44.515  34.579  29.456  1.00  0.00     0.063 H 
ATOM     23  C   UNL A   1      41.249  34.277  31.365  1.00  0.00     0.003 A 
ATOM     24  N   UNL A   1      42.090  34.644  33.400  1.00  0.00    -0.356 N 
ATOM     25  C   UNL A   1      41.263  34.084  29.974  1.00  0.00    -0.053 A 
ATOM     26  H   UNL A   1      42.497  34.036  28.273  1.00  0.00     0.062 H 
ATOM     27  C   UNL A   1      40.202  34.368  32.300  1.00  0.00    -0.014 A 
ATOM     28  C   UNL A   1      40.723  34.560  33.561  1.00  0.00     0.052 A 
ATOM     29  H   UNL A   1      42.735  34.763  34.135  1.00  0.00     0.166 HD
ATOM     30  H   UNL A   1      40.390  33.869  29.467  1.00  0.00     0.063 H 
ATOM     31  C   UNL A   1      38.766  34.409  32.012  1.00  0.00    -0.002 C 
ATOM     32  C   UNL A   1      37.981  34.626  33.290  1.00  0.00     0.052 C 
ATOM     33  H   UNL A   1      38.468  33.484  31.568  1.00  0.00     0.034 H 
ATOM     34  H   UNL A   1      38.569  35.219  31.342  1.00  0.00     0.034 H 
ATOM     35  O   UNL A   1      38.634  35.308  34.375  1.00  0.00    -0.368 OA
ATOM     36  H   UNL A   1      37.110  35.192  33.036  1.00  0.00     0.057 H 
ATOM     37  H   UNL A   1      37.802  33.639  33.664  1.00  0.00     0.057 H 
BRANCH  18  38
ATOM     38  C   UNL A   1      44.939  35.036  32.125  1.00  0.00    -0.029 C 
ATOM     39  H   UNL A   1      44.937  36.095  32.273  1.00  0.00     0.031 H 
ATOM     40  H   UNL A   1      44.921  34.463  33.027  1.00  0.00     0.031 H 
BRANCH  38  41
ATOM     41  C   UNL A   1      46.248  34.666  31.434  1.00  0.00    -0.061 C 
ATOM     42  H   UNL A   1      46.918  35.500  31.471  1.00  0.00     0.023 H 
ATOM     43  H   UNL A   1      46.053  34.411  30.413  1.00  0.00     0.023 H 
ATOM     44  H   UNL A   1      46.691  33.829  31.932  1.00  0.00     0.023 H 
ENDBRANCH  38  41
ENDBRANCH  18  38
BRANCH  17  45
ATOM     45  C   UNL A   1      40.537  35.946  35.662  1.00  0.00    -0.020 C 
ATOM     46  H   UNL A   1      40.380  36.860  35.127  1.00  0.00     0.030 H 
ATOM     47  H   UNL A   1      41.569  35.691  35.789  1.00  0.00     0.030 H 
BRANCH  45  48
ATOM     48  C   UNL A   1      39.969  36.121  37.075  1.00  0.00    -0.062 C 
ATOM     49  H   UNL A   1      39.039  35.599  37.153  1.00  0.00     0.023 H 
ATOM     50  H   UNL A   1      39.813  37.161  37.269  1.00  0.00     0.023 H 
ATOM     51  H   UNL A   1      40.661  35.726  37.789  1.00  0.00     0.023 H 
ENDBRANCH  45  48
ENDBRANCH  17  45
ENDBRANCH  14  17
ENDBRANCH  11  14
ENDBRANCH   7  10
ENDBRANCH   4   7
ENDBRANCH   1   4
BRANCH   1  52
ATOM     52  C   UNL A   1      35.866  32.124  32.870  1.00  0.00    -0.052 C 
ATOM     53  H   UNL A   1      36.523  32.969  32.842  1.00  0.00     0.027 H 
ATOM     54  H   UNL A   1      35.399  31.992  33.824  1.00  0.00     0.027 H 
BRANCH  52  55
ATOM     55  C   UNL A   1      34.742  32.357  31.861  1.00  0.00    -0.036 C 
ATOM     56  H   UNL A   1      33.865  32.646  32.401  1.00  0.00     0.028 H 
ATOM     57  H   UNL A   1      34.627  31.440  31.324  1.00  0.00     0.028 H 
BRANCH  55  58
ATOM     58  C   UNL A   1      35.032  33.437  30.810  1.00  0.00     0.018 C 
ATOM     59  H   UNL A   1      36.065  33.706  30.881  1.00  0.00     0.049 H 
ATOM     60  H   UNL A   1      34.378  34.257  31.020  1.00  0.00     0.049 H 
BRANCH  58  61
ATOM     61  N   UNL A   1      34.762  33.021  29.450  1.00  0.00    -0.352 N 
ATOM     62  C   UNL A   1      35.313  32.065  28.638  1.00  0.00     0.251 C 
ATOM     63  H   UNL A   1      34.034  33.527  29.021  1.00  0.00     0.163 HD
ATOM     64  O   UNL A   1      34.768  31.873  27.546  1.00  0.00    -0.269 OA
BRANCH  62  65
ATOM     65  C   UNL A   1      36.562  31.319  28.954  1.00  0.00     0.039 A 
ATOM     66  C   UNL A   1      37.786  31.904  29.264  1.00  0.00    -0.049 A 
ATOM     67  C   UNL A   1      36.498  29.916  28.866  1.00  0.00    -0.049 A 
ATOM     68  C   UNL A   1      38.940  31.142  29.299  1.00  0.00    -0.053 A 
ATOM     69  H   UNL A   1      37.833  32.915  29.469  1.00  0.00     0.063 H 
ATOM     70  C   UNL A   1      37.643  29.133  28.981  1.00  0.00    -0.053 A 
ATOM     71  H   UNL A   1      35.584  29.460  28.714  1.00  0.00     0.063 H 
ATOM     72  C   UNL A   1      38.874  29.755  29.135  1.00  0.00    -0.014 A 
ATOM     73  H   UNL A   1      39.854  31.598  29.445  1.00  0.00     0.063 H 
ATOM     74  H   UNL A   1      37.577  28.103  28.950  1.00  0.00     0.063 H 
BRANCH  72  75
ATOM     75  C   UNL A   1      40.133  29.027  29.277  1.00  0.00     0.031 A 
ATOM     76  C   UNL A   1      40.562  28.858  30.691  1.00  0.00     0.074 A 
ATOM     77  C   UNL A   1      40.858  28.525  28.257  1.00  0.00     0.049 A 
ATOM     78  N   UNL A   1      41.591  29.389  31.264  1.00  0.00    -0.248 NA
ATOM     79  C   UNL A   1      39.662  28.151  31.615  1.00  0.00    -0.034 C 
ATOM     80  C   UNL A   1      40.459  28.385  26.856  1.00  0.00    -0.036 A 
ATOM     81  N   UNL A   1      42.101  27.954  28.283  1.00  0.00    -0.354 N 
ATOM     82  C   UNL A   1      41.577  28.932  32.580  1.00  0.00     0.074 A 
ATOM     83  C   UNL A   1      40.302  28.296  32.778  1.00  0.00    -0.034 C 
ATOM     84  H   UNL A   1      38.771  27.668  31.418  1.00  0.00     0.065 H 
ATOM     85  C   UNL A   1      41.328  27.566  26.224  1.00  0.00    -0.036 A 
ATOM     86  H   UNL A   1      39.643  28.842  26.419  1.00  0.00     0.065 H 
ATOM     87  C   UNL A   1      42.427  27.261  27.124  1.00  0.00     0.049 A 
ATOM     88  H   UNL A   1      42.710  28.026  29.053  1.00  0.00     0.167 HD
ATOM     89  C   UNL A   1      42.728  28.897  33.304  1.00  0.00     0.037 A 
ATOM     90  H   UNL A   1      39.933  27.993  33.693  1.00  0.00     0.065 H 
ATOM     91  H   UNL A   1      41.228  27.214  25.258  1.00  0.00     0.065 H 
ATOM     92  C   UNL A   1      43.508  26.468  26.932  1.00  0.00     0.037 A 
ATOM     93  C   UNL A   1      43.738  29.731  32.708  1.00  0.00     0.049 A 
ATOM     94  C   UNL A   1      44.564  26.908  27.871  1.00  0.00     0.074 A 
ATOM     95  C   UNL A   1      44.065  31.067  32.687  1.00  0.00    -0.036 A 
ATOM     96  N   UNL A   1      44.400  29.133  31.672  1.00  0.00    -0.354 N 
ATOM     97  N   UNL A   1      45.169  28.060  27.787  1.00  0.00    -0.248 NA
ATOM     98  C   UNL A   1      44.769  26.181  29.120  1.00  0.00    -0.034 C 
ATOM     99  C   UNL A   1      44.846  31.272  31.509  1.00  0.00    -0.036 A 
ATOM    100  H   UNL A   1      43.799  31.780  33.385  1.00  0.00     0.065 H 
ATOM    101  C   UNL A   1      44.999  30.052  30.857  1.00  0.00     0.049 A 
ATOM    102  H   UNL A   1      44.439  28.159  31.530  1.00  0.00     0.167 HD
ATOM    103  C   UNL A   1      45.456  28.384  29.095  1.00  0.00     0.074 A 
ATOM    104  C   UNL A   1      45.370  27.134  29.837  1.00  0.00    -0.034 C 
ATOM    105  H   UNL A   1      44.521  25.212  29.375  1.00  0.00     0.065 H 
ATOM    106  H   UNL A   1      45.233  32.175  31.193  1.00  0.00     0.065 H 
ATOM    107  C   UNL A   1      45.394  29.676  29.521  1.00  0.00     0.037 A 
ATOM    108  H   UNL A   1      45.728  27.001  30.796  1.00  0.00     0.065 H 
BRANCH  89 109
ATOM    109  C   UNL A   1      43.124  27.751  34.215  1.00  0.00     0.064 A 
ATOM    110  C   UNL A   1      43.420  26.493  33.643  1.00  0.00     0.173 A 
ATOM    111  C   UNL A   1      42.892  27.739  35.607  1.00  0.00     0.173 A 
ATOM    112  F   UNL A   1      43.638  26.375  32.325  1.00  0.00    -0.203 F 
ATOM    113  C   UNL A   1      43.405  25.314  34.396  1.00  0.00     0.198 A 
ATOM    114  C   UNL A   1      42.926  26.567  36.362  1.00  0.00     0.198 A 
ATOM    115  F   UNL A   1      42.509  28.833  36.276  1.00  0.00    -0.203 F 
ATOM    116  F   UNL A   1      43.573  24.132  33.788  1.00  0.00    -0.200 F 
ATOM    117  C   UNL A   1      43.151  25.352  35.753  1.00  0.00     0.200 A 
ATOM    118  F   UNL A   1      42.650  26.623  37.674  1.00  0.00    -0.200 F 
ATOM    119  F   UNL A   1      43.077  24.221  36.467  1.00  0.00    -0.200 F 
ENDBRANCH  89 109
BRANCH  92 120
ATOM    120  C   UNL A   1      43.598  25.179  26.206  1.00  0.00     0.064 A 
ATOM    121  C   UNL A   1      44.581  24.982  25.218  1.00  0.00     0.173 A 
ATOM    122  C   UNL A   1      42.954  24.023  26.687  1.00  0.00     0.173 A 
ATOM    123  F   UNL A   1      45.258  26.028  24.722  1.00  0.00    -0.203 F 
ATOM    124  C   UNL A   1      44.948  23.702  24.794  1.00  0.00     0.198 A 
ATOM    125  C   UNL A   1      43.317  22.746  26.255  1.00  0.00     0.198 A 
ATOM    126  F   UNL A   1      42.036  24.101  27.661  1.00  0.00    -0.203 F 
ATOM    127  F   UNL A   1      45.952  23.551  23.919  1.00  0.00    -0.200 F 
ATOM    128  C   UNL A   1      44.329  22.584  25.328  1.00  0.00     0.200 A 
ATOM    129  F   UNL A   1      42.732  21.671  26.801  1.00  0.00    -0.200 F 
ATOM    130  F   UNL A   1      44.739  21.355  24.985  1.00  0.00    -0.200 F 
ENDBRANCH  92 120
BRANCH 107 131
ATOM    131  C   UNL A   1      45.573  30.750  28.499  1.00  0.00     0.064 A 
ATOM    132  C   UNL A   1      44.520  31.399  27.836  1.00  0.00     0.173 A 
ATOM    133  C   UNL A   1      46.877  31.191  28.241  1.00  0.00     0.173 A 
ATOM    134  F   UNL A   1      43.244  31.078  28.086  1.00  0.00    -0.203 F 
ATOM    135  C   UNL A   1      44.772  32.428  26.930  1.00  0.00     0.198 A 
ATOM    136  C   UNL A   1      47.123  32.240  27.364  1.00  0.00     0.198 A 
ATOM    137  F   UNL A   1      47.915  30.625  28.877  1.00  0.00    -0.203 F 
ATOM    138  F   UNL A   1      43.755  33.030  26.295  1.00  0.00    -0.200 F 
ATOM    139  C   UNL A   1      46.072  32.852  26.701  1.00  0.00     0.200 A 
ATOM    140  F   UNL A   1      48.378  32.672  27.179  1.00  0.00    -0.200 F 
ATOM    141  F   UNL A   1      46.312  33.868  25.861  1.00  0.00    -0.200 F 
ENDBRANCH 107 131
ENDBRANCH  72  75
ENDBRANCH  62  65
ENDBRANCH  58  61
ENDBRANCH  55  58
ENDBRANCH  52  55
ENDBRANCH   1  52
TORSDOF 18
ENDMDL
MODEL 8
REMARK VINA RESULT:     -11.2      2.897      8.792
REMARK SMILES CCc1cccc2c3c([nH]c12)[C@](CC)(CC(=O)NCCCCCCNC(=O)c1ccc(-c2c4nc(c(-c5c(F)c(F)c(F)c(F)c5F)c5ccc([nH]5)c(-c5c(F)c(F)c(F)c(F)c5F)c5nc(c(-c6c(F)c(F)c(F)c(F)c6F)c6ccc2[nH]6)C=C5)C=C4)cc1)OCC3
REMARK SMILES IDX 21 1 20 4 19 7 18 10 16 11 17 12 15 14 12 17 3 18 4 19 11 20
REMARK SMILES IDX 5 21 7 23 10 24 6 25 8 27 9 28 93 31 92 32 91 35 2 38 1 41
REMARK SMILES IDX 13 45 14 48 22 52 23 55 24 58 25 61 26 62 27 64 28 65 29 66
REMARK SMILES IDX 90 67 30 68 89 70 31 72 32 75 33 76 83 77 34 78 88 79 82 80
REMARK SMILES IDX 84 81 35 82 87 83 81 85 80 87 36 89 68 92 48 93 67 94 49 95
REMARK SMILES IDX 52 96 66 97 85 98 50 99 51 101 65 103 86 104 53 107 37 109
REMARK SMILES IDX 38 110 46 111 39 112 40 113 44 114 47 115 41 116 42 117
REMARK SMILES IDX 45 118 43 119 69 120 70 121 78 122 71 123 72 124 76 125
REMARK SMILES IDX 79 126 73 127 74 128 77 129 75 130 54 131 55 132 63 133
REMARK SMILES IDX 56 134 57 135 61 136 64 137 58 138 59 139 62 140 60 141
REMARK H PARENT 21 2 21 3 20 5 20 6 19 8 19 9 18 13 15 15 15 16 4 22 5 26
REMARK H PARENT 10 29 6 30 93 33 93 34 92 36 92 37 2 39 2 40 1 42 1 43 1 44
REMARK H PARENT 13 46 13 47 14 49 14 50 14 51 22 53 22 54 23 56 23 57 24 59
REMARK H PARENT 24 60 25 63 29 69 90 71 30 73 89 74 88 84 82 86 84 88 87 90
REMARK H PARENT 81 91 49 100 52 102 85 105 50 106 86 108
REMARK Flexibility Score: inf
ROOT
ATOM      1  C   UNL A   1      31.227  29.430  24.978  1.00  0.00    -0.052 C 
ATOM      2  H   UNL A   1      30.662  28.575  25.284  1.00  0.00     0.027 H 
ATOM      3  H   UNL A   1      30.769  30.357  25.252  1.00  0.00     0.027 H 
ENDROOT
BRANCH   1   4
ATOM      4  C   UNL A   1      31.311  29.423  23.440  1.00  0.00    -0.036 C 
ATOM      5  H   UNL A   1      30.658  30.188  23.073  1.00  0.00     0.028 H 
ATOM      6  H   UNL A   1      32.344  29.580  23.208  1.00  0.00     0.028 H 
BRANCH   4   7
ATOM      7  C   UNL A   1      30.928  28.106  22.747  1.00  0.00     0.017 C 
ATOM      8  H   UNL A   1      30.639  27.405  23.501  1.00  0.00     0.049 H 
ATOM      9  H   UNL A   1      30.140  28.345  22.065  1.00  0.00     0.049 H 
BRANCH   7  10
ATOM     10  N   UNL A   1      31.986  27.500  21.949  1.00  0.00    -0.356 N 
ATOM     11  C   UNL A   1      32.415  26.208  21.820  1.00  0.00     0.223 C 
ATOM     12  O   UNL A   1      33.401  25.999  21.111  1.00  0.00    -0.275 OA
ATOM     13  H   UNL A   1      32.487  28.143  21.396  1.00  0.00     0.163 HD
BRANCH  11  14
ATOM     14  C   UNL A   1      31.659  25.074  22.468  1.00  0.00     0.061 C 
ATOM     15  H   UNL A   1      30.623  25.336  22.443  1.00  0.00     0.040 H 
ATOM     16  H   UNL A   1      31.956  24.217  21.901  1.00  0.00     0.040 H 
BRANCH  14  17
ATOM     17  C   UNL A   1      31.988  24.679  23.929  1.00  0.00     0.117 C 
ATOM     18  C   UNL A   1      33.795  19.968  24.617  1.00  0.00    -0.024 A 
ATOM     19  C   UNL A   1      35.103  19.515  24.916  1.00  0.00    -0.057 A 
ATOM     20  C   UNL A   1      33.669  21.355  24.383  1.00  0.00     0.049 A 
ATOM     21  C   UNL A   1      36.203  20.366  24.974  1.00  0.00    -0.061 A 
ATOM     22  H   UNL A   1      35.247  18.509  25.098  1.00  0.00     0.063 H 
ATOM     23  C   UNL A   1      34.756  22.222  24.483  1.00  0.00     0.003 A 
ATOM     24  N   UNL A   1      32.564  22.139  24.068  1.00  0.00    -0.356 N 
ATOM     25  C   UNL A   1      36.039  21.727  24.765  1.00  0.00    -0.053 A 
ATOM     26  H   UNL A   1      37.141  19.984  25.173  1.00  0.00     0.062 H 
ATOM     27  C   UNL A   1      34.250  23.528  24.354  1.00  0.00    -0.014 A 
ATOM     28  C   UNL A   1      32.904  23.476  24.064  1.00  0.00     0.052 A 
ATOM     29  H   UNL A   1      31.664  21.789  23.874  1.00  0.00     0.166 HD
ATOM     30  H   UNL A   1      36.848  22.367  24.815  1.00  0.00     0.063 H 
ATOM     31  C   UNL A   1      34.963  24.779  24.623  1.00  0.00    -0.002 C 
ATOM     32  C   UNL A   1      34.026  25.960  24.473  1.00  0.00     0.052 C 
ATOM     33  H   UNL A   1      35.772  24.881  23.931  1.00  0.00     0.034 H 
ATOM     34  H   UNL A   1      35.338  24.757  25.625  1.00  0.00     0.034 H 
ATOM     35  O   UNL A   1      32.621  25.738  24.690  1.00  0.00    -0.368 OA
ATOM     36  H   UNL A   1      34.341  26.707  25.171  1.00  0.00     0.057 H 
ATOM     37  H   UNL A   1      34.098  26.229  23.440  1.00  0.00     0.057 H 
BRANCH  18  38
ATOM     38  C   UNL A   1      32.606  19.038  24.595  1.00  0.00    -0.029 C 
ATOM     39  H   UNL A   1      32.737  18.322  25.378  1.00  0.00     0.031 H 
ATOM     40  H   UNL A   1      31.750  19.668  24.710  1.00  0.00     0.031 H 
BRANCH  38  41
ATOM     41  C   UNL A   1      32.375  18.270  23.298  1.00  0.00    -0.061 C 
ATOM     42  H   UNL A   1      32.629  18.892  22.465  1.00  0.00     0.023 H 
ATOM     43  H   UNL A   1      31.344  17.987  23.230  1.00  0.00     0.023 H 
ATOM     44  H   UNL A   1      32.987  17.393  23.288  1.00  0.00     0.023 H 
ENDBRANCH  38  41
ENDBRANCH  18  38
BRANCH  17  45
ATOM     45  C   UNL A   1      30.642  24.410  24.679  1.00  0.00    -0.020 C 
ATOM     46  H   UNL A   1      30.832  23.691  25.449  1.00  0.00     0.030 H 
ATOM     47  H   UNL A   1      29.953  24.071  23.933  1.00  0.00     0.030 H 
BRANCH  45  48
ATOM     48  C   UNL A   1      29.990  25.637  25.327  1.00  0.00    -0.062 C 
ATOM     49  H   UNL A   1      29.663  26.311  24.565  1.00  0.00     0.023 H 
ATOM     50  H   UNL A   1      30.703  26.127  25.957  1.00  0.00     0.023 H 
ATOM     51  H   UNL A   1      29.151  25.327  25.914  1.00  0.00     0.023 H 
ENDBRANCH  45  48
ENDBRANCH  17  45
ENDBRANCH  14  17
ENDBRANCH  11  14
ENDBRANCH   7  10
ENDBRANCH   4   7
ENDBRANCH   1   4
BRANCH   1  52
ATOM     52  C   UNL A   1      32.571  29.388  25.686  1.00  0.00    -0.052 C 
ATOM     53  H   UNL A   1      33.322  29.726  25.001  1.00  0.00     0.027 H 
ATOM     54  H   UNL A   1      32.723  28.378  26.002  1.00  0.00     0.027 H 
BRANCH  52  55
ATOM     55  C   UNL A   1      32.645  30.256  26.942  1.00  0.00    -0.036 C 
ATOM     56  H   UNL A   1      32.040  29.799  27.697  1.00  0.00     0.028 H 
ATOM     57  H   UNL A   1      32.304  31.228  26.655  1.00  0.00     0.028 H 
BRANCH  55  58
ATOM     58  C   UNL A   1      34.056  30.447  27.513  1.00  0.00     0.018 C 
ATOM     59  H   UNL A   1      34.723  30.649  26.701  1.00  0.00     0.049 H 
ATOM     60  H   UNL A   1      34.304  29.547  28.034  1.00  0.00     0.049 H 
BRANCH  58  61
ATOM     61  N   UNL A   1      34.162  31.529  28.469  1.00  0.00    -0.352 N 
ATOM     62  C   UNL A   1      35.173  31.956  29.289  1.00  0.00     0.251 C 
ATOM     63  H   UNL A   1      33.341  32.068  28.545  1.00  0.00     0.163 HD
ATOM     64  O   UNL A   1      34.984  33.004  29.914  1.00  0.00    -0.269 OA
BRANCH  62  65
ATOM     65  C   UNL A   1      36.428  31.193  29.535  1.00  0.00     0.039 A 
ATOM     66  C   UNL A   1      37.714  31.706  29.397  1.00  0.00    -0.049 A 
ATOM     67  C   UNL A   1      36.285  29.834  29.869  1.00  0.00    -0.049 A 
ATOM     68  C   UNL A   1      38.811  30.862  29.404  1.00  0.00    -0.053 A 
ATOM     69  H   UNL A   1      37.852  32.723  29.289  1.00  0.00     0.063 H 
ATOM     70  C   UNL A   1      37.390  28.993  29.959  1.00  0.00    -0.053 A 
ATOM     71  H   UNL A   1      35.342  29.454  30.051  1.00  0.00     0.063 H 
ATOM     72  C   UNL A   1      38.649  29.498  29.664  1.00  0.00    -0.014 A 
ATOM     73  H   UNL A   1      39.752  31.241  29.217  1.00  0.00     0.063 H 
ATOM     74  H   UNL A   1      37.275  28.007  30.239  1.00  0.00     0.063 H 
BRANCH  72  75
ATOM     75  C   UNL A   1      39.874  28.705  29.738  1.00  0.00     0.031 A 
ATOM     76  C   UNL A   1      40.409  28.573  31.120  1.00  0.00     0.074 A 
ATOM     77  C   UNL A   1      40.483  28.116  28.689  1.00  0.00     0.049 A 
ATOM     78  N   UNL A   1      41.510  29.068  31.582  1.00  0.00    -0.248 NA
ATOM     79  C   UNL A   1      39.552  27.962  32.147  1.00  0.00    -0.034 C 
ATOM     80  C   UNL A   1      39.961  27.938  27.333  1.00  0.00    -0.036 A 
ATOM     81  N   UNL A   1      41.691  27.475  28.642  1.00  0.00    -0.354 N 
ATOM     82  C   UNL A   1      41.580  28.672  32.915  1.00  0.00     0.074 A 
ATOM     83  C   UNL A   1      40.294  28.120  33.246  1.00  0.00    -0.034 C 
ATOM     84  H   UNL A   1      38.623  27.524  32.046  1.00  0.00     0.065 H 
ATOM     85  C   UNL A   1      40.729  27.042  26.674  1.00  0.00    -0.036 A 
ATOM     86  H   UNL A   1      39.138  28.422  26.942  1.00  0.00     0.065 H 
ATOM     87  C   UNL A   1      41.880  26.714  27.497  1.00  0.00     0.049 A 
ATOM     88  H   UNL A   1      42.365  27.546  29.356  1.00  0.00     0.167 HD
ATOM     89  C   UNL A   1      42.785  28.601  33.545  1.00  0.00     0.037 A 
ATOM     90  H   UNL A   1      39.987  27.881  34.202  1.00  0.00     0.065 H 
ATOM     91  H   UNL A   1      40.529  26.654  25.738  1.00  0.00     0.065 H 
ATOM     92  C   UNL A   1      42.897  25.851  27.256  1.00  0.00     0.037 A 
ATOM     93  C   UNL A   1      43.785  29.347  32.828  1.00  0.00     0.049 A 
ATOM     94  C   UNL A   1      44.050  26.270  28.084  1.00  0.00     0.074 A 
ATOM     95  C   UNL A   1      44.182  30.660  32.716  1.00  0.00    -0.036 A 
ATOM     96  N   UNL A   1      44.325  28.666  31.773  1.00  0.00    -0.354 N 
ATOM     97  N   UNL A   1      44.708  27.380  27.896  1.00  0.00    -0.248 NA
ATOM     98  C   UNL A   1      44.318  25.588  29.347  1.00  0.00    -0.034 C 
ATOM     99  C   UNL A   1      44.872  30.767  31.470  1.00  0.00    -0.036 A 
ATOM    100  H   UNL A   1      44.015  31.417  33.398  1.00  0.00     0.065 H 
ATOM    101  C   UNL A   1      44.903  29.512  30.869  1.00  0.00     0.049 A 
ATOM    102  H   UNL A   1      44.299  27.687  31.676  1.00  0.00     0.167 HD
ATOM    103  C   UNL A   1      45.119  27.743  29.159  1.00  0.00     0.074 A 
ATOM    104  C   UNL A   1      45.027  26.535  29.966  1.00  0.00    -0.034 C 
ATOM    105  H   UNL A   1      44.040  24.648  29.669  1.00  0.00     0.065 H 
ATOM    106  H   UNL A   1      45.280  31.631  31.080  1.00  0.00     0.065 H 
ATOM    107  C   UNL A   1      45.164  29.055  29.525  1.00  0.00     0.037 A 
ATOM    108  H   UNL A   1      45.456  26.424  30.898  1.00  0.00     0.065 H 
BRANCH  89 109
ATOM    109  C   UNL A   1      43.191  27.475  34.475  1.00  0.00     0.064 A 
ATOM    110  C   UNL A   1      43.455  27.769  35.831  1.00  0.00     0.173 A 
ATOM    111  C   UNL A   1      43.659  26.220  34.030  1.00  0.00     0.173 A 
ATOM    112  F   UNL A   1      43.077  28.941  36.363  1.00  0.00    -0.203 F 
ATOM    113  C   UNL A   1      44.196  26.907  36.647  1.00  0.00     0.198 A 
ATOM    114  C   UNL A   1      44.356  25.343  34.860  1.00  0.00     0.198 A 
ATOM    115  F   UNL A   1      43.569  25.838  32.751  1.00  0.00    -0.203 F 
ATOM    116  F   UNL A   1      44.524  27.283  37.891  1.00  0.00    -0.200 F 
ATOM    117  C   UNL A   1      44.651  25.698  36.158  1.00  0.00     0.200 A 
ATOM    118  F   UNL A   1      44.812  24.185  34.358  1.00  0.00    -0.200 F 
ATOM    119  F   UNL A   1      45.411  24.897  36.916  1.00  0.00    -0.200 F 
ENDBRANCH  89 109
BRANCH  92 120
ATOM    120  C   UNL A   1      42.855  24.528  26.589  1.00  0.00     0.064 A 
ATOM    121  C   UNL A   1      43.518  24.324  25.365  1.00  0.00     0.173 A 
ATOM    122  C   UNL A   1      42.457  23.372  27.286  1.00  0.00     0.173 A 
ATOM    123  F   UNL A   1      43.951  25.372  24.649  1.00  0.00    -0.203 F 
ATOM    124  C   UNL A   1      43.828  23.042  24.904  1.00  0.00     0.198 A 
ATOM    125  C   UNL A   1      42.760  22.092  26.819  1.00  0.00     0.198 A 
ATOM    126  F   UNL A   1      41.859  23.460  28.483  1.00  0.00    -0.203 F 
ATOM    127  F   UNL A   1      44.541  22.892  23.779  1.00  0.00    -0.200 F 
ATOM    128  C   UNL A   1      43.466  21.927  25.642  1.00  0.00     0.200 A 
ATOM    129  F   UNL A   1      42.431  21.022  27.556  1.00  0.00    -0.200 F 
ATOM    130  F   UNL A   1      43.838  20.703  25.244  1.00  0.00    -0.200 F 
ENDBRANCH  92 120
BRANCH 107 131
ATOM    131  C   UNL A   1      45.316  30.071  28.441  1.00  0.00     0.064 A 
ATOM    132  C   UNL A   1      44.246  30.681  27.769  1.00  0.00     0.173 A 
ATOM    133  C   UNL A   1      46.613  30.496  28.126  1.00  0.00     0.173 A 
ATOM    134  F   UNL A   1      42.976  30.374  28.069  1.00  0.00    -0.203 F 
ATOM    135  C   UNL A   1      44.473  31.658  26.801  1.00  0.00     0.198 A 
ATOM    136  C   UNL A   1      46.835  31.495  27.186  1.00  0.00     0.198 A 
ATOM    137  F   UNL A   1      47.667  29.967  28.766  1.00  0.00    -0.203 F 
ATOM    138  F   UNL A   1      43.440  32.223  26.159  1.00  0.00    -0.200 F 
ATOM    139  C   UNL A   1      45.767  32.070  26.517  1.00  0.00     0.200 A 
ATOM    140  F   UNL A   1      48.084  31.917  26.946  1.00  0.00    -0.200 F 
ATOM    141  F   UNL A   1      45.984  33.037  25.615  1.00  0.00    -0.200 F 
ENDBRANCH 107 131
ENDBRANCH  72  75
ENDBRANCH  62  65
ENDBRANCH  58  61
ENDBRANCH  55  58
ENDBRANCH  52  55
ENDBRANCH   1  52
TORSDOF 18
ENDMDL
MODEL 9
REMARK VINA RESULT:     -11.1      4.343      9.947
REMARK SMILES CCc1cccc2c3c([nH]c12)[C@](CC)(CC(=O)NCCCCCCNC(=O)c1ccc(-c2c4nc(c(-c5c(F)c(F)c(F)c(F)c5F)c5ccc([nH]5)c(-c5c(F)c(F)c(F)c(F)c5F)c5nc(c(-c6c(F)c(F)c(F)c(F)c6F)c6ccc2[nH]6)C=C5)C=C4)cc1)OCC3
REMARK SMILES IDX 21 1 20 4 19 7 18 10 16 11 17 12 15 14 12 17 3 18 4 19 11 20
REMARK SMILES IDX 5 21 7 23 10 24 6 25 8 27 9 28 93 31 92 32 91 35 2 38 1 41
REMARK SMILES IDX 13 45 14 48 22 52 23 55 24 58 25 61 26 62 27 64 28 65 29 66
REMARK SMILES IDX 90 67 30 68 89 70 31 72 32 75 33 76 83 77 34 78 88 79 82 80
REMARK SMILES IDX 84 81 35 82 87 83 81 85 80 87 36 89 68 92 48 93 67 94 49 95
REMARK SMILES IDX 52 96 66 97 85 98 50 99 51 101 65 103 86 104 53 107 37 109
REMARK SMILES IDX 38 110 46 111 39 112 40 113 44 114 47 115 41 116 42 117
REMARK SMILES IDX 45 118 43 119 69 120 70 121 78 122 71 123 72 124 76 125
REMARK SMILES IDX 79 126 73 127 74 128 77 129 75 130 54 131 55 132 63 133
REMARK SMILES IDX 56 134 57 135 61 136 64 137 58 138 59 139 62 140 60 141
REMARK H PARENT 21 2 21 3 20 5 20 6 19 8 19 9 18 13 15 15 15 16 4 22 5 26
REMARK H PARENT 10 29 6 30 93 33 93 34 92 36 92 37 2 39 2 40 1 42 1 43 1 44
REMARK H PARENT 13 46 13 47 14 49 14 50 14 51 22 53 22 54 23 56 23 57 24 59
REMARK H PARENT 24 60 25 63 29 69 90 71 30 73 89 74 88 84 82 86 84 88 87 90
REMARK H PARENT 81 91 49 100 52 102 85 105 50 106 86 108
REMARK Flexibility Score: inf
ROOT
ATOM      1  C   UNL A   1      34.425  33.906  28.190  1.00  0.00    -0.052 C 
ATOM      2  H   UNL A   1      34.498  34.147  27.151  1.00  0.00     0.027 H 
ATOM      3  H   UNL A   1      35.263  34.249  28.761  1.00  0.00     0.027 H 
ENDROOT
BRANCH   1   4
ATOM      4  C   UNL A   1      34.404  32.372  28.327  1.00  0.00    -0.036 C 
ATOM      5  H   UNL A   1      35.401  32.015  28.170  1.00  0.00     0.028 H 
ATOM      6  H   UNL A   1      34.017  32.176  29.306  1.00  0.00     0.028 H 
BRANCH   4   7
ATOM      7  C   UNL A   1      33.478  31.619  27.359  1.00  0.00     0.017 C 
ATOM      8  H   UNL A   1      32.523  32.101  27.370  1.00  0.00     0.049 H 
ATOM      9  H   UNL A   1      33.957  31.647  26.404  1.00  0.00     0.049 H 
BRANCH   7  10
ATOM     10  N   UNL A   1      33.276  30.210  27.672  1.00  0.00    -0.356 N 
ATOM     11  C   UNL A   1      32.509  29.240  27.088  1.00  0.00     0.223 C 
ATOM     12  O   UNL A   1      32.479  28.132  27.626  1.00  0.00    -0.275 OA
ATOM     13  H   UNL A   1      33.790  29.897  28.451  1.00  0.00     0.163 HD
BRANCH  11  14
ATOM     14  C   UNL A   1      31.785  29.503  25.790  1.00  0.00     0.061 C 
ATOM     15  H   UNL A   1      30.743  29.357  25.980  1.00  0.00     0.040 H 
ATOM     16  H   UNL A   1      32.094  30.492  25.526  1.00  0.00     0.040 H 
BRANCH  14  17
ATOM     17  C   UNL A   1      32.138  28.662  24.539  1.00  0.00     0.117 C 
ATOM     18  C   UNL A   1      33.750  23.912  25.419  1.00  0.00    -0.024 A 
ATOM     19  C   UNL A   1      33.101  22.668  25.236  1.00  0.00    -0.057 A 
ATOM     20  C   UNL A   1      32.958  25.056  25.171  1.00  0.00     0.049 A 
ATOM     21  C   UNL A   1      31.769  22.561  24.843  1.00  0.00    -0.061 A 
ATOM     22  H   UNL A   1      33.637  21.802  25.401  1.00  0.00     0.063 H 
ATOM     23  C   UNL A   1      31.638  24.958  24.735  1.00  0.00     0.003 A 
ATOM     24  N   UNL A   1      33.252  26.414  25.248  1.00  0.00    -0.356 N 
ATOM     25  C   UNL A   1      31.028  23.703  24.583  1.00  0.00    -0.053 A 
ATOM     26  H   UNL A   1      31.333  21.630  24.746  1.00  0.00     0.062 H 
ATOM     27  C   UNL A   1      31.210  26.264  24.434  1.00  0.00    -0.014 A 
ATOM     28  C   UNL A   1      32.193  27.165  24.782  1.00  0.00     0.052 A 
ATOM     29  H   UNL A   1      34.097  26.787  25.589  1.00  0.00     0.166 HD
ATOM     30  H   UNL A   1      30.043  23.633  24.282  1.00  0.00     0.063 H 
ATOM     31  C   UNL A   1      29.989  26.648  23.723  1.00  0.00    -0.002 C 
ATOM     32  C   UNL A   1      29.959  28.147  23.502  1.00  0.00     0.052 C 
ATOM     33  H   UNL A   1      29.137  26.360  24.303  1.00  0.00     0.034 H 
ATOM     34  H   UNL A   1      29.969  26.157  22.773  1.00  0.00     0.034 H 
ATOM     35  O   UNL A   1      31.215  28.844  23.436  1.00  0.00    -0.368 OA
ATOM     36  H   UNL A   1      29.448  28.322  22.579  1.00  0.00     0.057 H 
ATOM     37  H   UNL A   1      29.482  28.537  24.378  1.00  0.00     0.057 H 
BRANCH  18  38
ATOM     38  C   UNL A   1      35.205  24.012  25.808  1.00  0.00    -0.029 C 
ATOM     39  H   UNL A   1      35.400  25.028  26.081  1.00  0.00     0.031 H 
ATOM     40  H   UNL A   1      35.337  23.308  26.602  1.00  0.00     0.031 H 
BRANCH  38  41
ATOM     41  C   UNL A   1      36.218  23.616  24.740  1.00  0.00    -0.061 C 
ATOM     42  H   UNL A   1      36.117  22.573  24.522  1.00  0.00     0.023 H 
ATOM     43  H   UNL A   1      37.209  23.810  25.097  1.00  0.00     0.023 H 
ATOM     44  H   UNL A   1      36.042  24.185  23.851  1.00  0.00     0.023 H 
ENDBRANCH  38  41
ENDBRANCH  18  38
BRANCH  17  45
ATOM     45  C   UNL A   1      33.513  29.163  23.985  1.00  0.00    -0.020 C 
ATOM     46  H   UNL A   1      34.268  28.911  24.701  1.00  0.00     0.030 H 
ATOM     47  H   UNL A   1      33.401  30.216  23.828  1.00  0.00     0.030 H 
BRANCH  45  48
ATOM     48  C   UNL A   1      33.932  28.578  22.631  1.00  0.00    -0.062 C 
ATOM     49  H   UNL A   1      34.273  29.365  21.993  1.00  0.00     0.023 H 
ATOM     50  H   UNL A   1      33.093  28.090  22.180  1.00  0.00     0.023 H 
ATOM     51  H   UNL A   1      34.720  27.869  22.777  1.00  0.00     0.023 H 
ENDBRANCH  45  48
ENDBRANCH  17  45
ENDBRANCH  14  17
ENDBRANCH  11  14
ENDBRANCH   7  10
ENDBRANCH   4   7
ENDBRANCH   1   4
BRANCH   1  52
ATOM     52  C   UNL A   1      33.202  34.610  28.756  1.00  0.00    -0.052 C 
ATOM     53  H   UNL A   1      33.084  34.308  29.776  1.00  0.00     0.027 H 
ATOM     54  H   UNL A   1      32.373  34.330  28.141  1.00  0.00     0.027 H 
BRANCH  52  55
ATOM     55  C   UNL A   1      33.283  36.135  28.715  1.00  0.00    -0.036 C 
ATOM     56  H   UNL A   1      32.426  36.499  28.188  1.00  0.00     0.028 H 
ATOM     57  H   UNL A   1      34.209  36.374  28.236  1.00  0.00     0.028 H 
BRANCH  55  58
ATOM     58  C   UNL A   1      33.322  36.817  30.089  1.00  0.00     0.018 C 
ATOM     59  H   UNL A   1      32.956  37.816  29.979  1.00  0.00     0.049 H 
ATOM     60  H   UNL A   1      34.338  36.786  30.422  1.00  0.00     0.049 H 
BRANCH  58  61
ATOM     61  N   UNL A   1      32.528  36.150  31.100  1.00  0.00    -0.352 N 
ATOM     62  C   UNL A   1      32.835  35.248  32.084  1.00  0.00     0.251 C 
ATOM     63  H   UNL A   1      31.574  36.393  31.074  1.00  0.00     0.163 HD
ATOM     64  O   UNL A   1      31.935  34.953  32.876  1.00  0.00    -0.269 OA
BRANCH  62  65
ATOM     65  C   UNL A   1      34.145  34.549  32.199  1.00  0.00     0.039 A 
ATOM     66  C   UNL A   1      35.372  35.177  32.396  1.00  0.00    -0.049 A 
ATOM     67  C   UNL A   1      34.131  33.153  32.028  1.00  0.00    -0.049 A 
ATOM     68  C   UNL A   1      36.553  34.473  32.243  1.00  0.00    -0.053 A 
ATOM     69  H   UNL A   1      35.400  36.174  32.660  1.00  0.00     0.063 H 
ATOM     70  C   UNL A   1      35.315  32.423  31.952  1.00  0.00    -0.053 A 
ATOM     71  H   UNL A   1      33.227  32.661  31.957  1.00  0.00     0.063 H 
ATOM     72  C   UNL A   1      36.528  33.097  31.998  1.00  0.00    -0.014 A 
ATOM     73  H   UNL A   1      37.457  34.966  32.307  1.00  0.00     0.063 H 
ATOM     74  H   UNL A   1      35.290  31.396  31.862  1.00  0.00     0.063 H 
BRANCH  72  75
ATOM     75  C   UNL A   1      37.824  32.427  31.939  1.00  0.00     0.031 A 
ATOM     76  C   UNL A   1      38.560  32.450  33.232  1.00  0.00     0.074 A 
ATOM     77  C   UNL A   1      38.336  31.820  30.849  1.00  0.00     0.049 A 
ATOM     78  N   UNL A   1      39.659  33.077  33.494  1.00  0.00    -0.248 NA
ATOM     79  C   UNL A   1      37.924  31.842  34.410  1.00  0.00    -0.034 C 
ATOM     80  C   UNL A   1      37.648  31.493  29.599  1.00  0.00    -0.036 A 
ATOM     81  N   UNL A   1      39.584  31.290  30.663  1.00  0.00    -0.354 N 
ATOM     82  C   UNL A   1      39.958  32.790  34.824  1.00  0.00     0.074 A 
ATOM     83  C   UNL A   1      38.794  32.150  35.375  1.00  0.00    -0.034 C 
ATOM     84  H   UNL A   1      37.039  31.314  34.474  1.00  0.00     0.065 H 
ATOM     85  C   UNL A   1      38.402  30.624  28.889  1.00  0.00    -0.036 A 
ATOM     86  H   UNL A   1      36.733  31.868  29.305  1.00  0.00     0.065 H 
ATOM     87  C   UNL A   1      39.685  30.465  29.551  1.00  0.00     0.049 A 
ATOM     88  H   UNL A   1      40.341  31.476  31.264  1.00  0.00     0.167 HD
ATOM     89  C   UNL A   1      41.240  32.878  35.271  1.00  0.00     0.037 A 
ATOM     90  H   UNL A   1      38.650  31.956  36.378  1.00  0.00     0.065 H 
ATOM     91  H   UNL A   1      38.112  30.150  28.019  1.00  0.00     0.065 H 
ATOM     92  C   UNL A   1      40.740  29.684  29.216  1.00  0.00     0.037 A 
ATOM     93  C   UNL A   1      42.048  33.656  34.371  1.00  0.00     0.049 A 
ATOM     94  C   UNL A   1      41.950  30.267  29.837  1.00  0.00     0.074 A 
ATOM     95  C   UNL A   1      42.290  34.987  34.121  1.00  0.00    -0.036 A 
ATOM     96  N   UNL A   1      42.499  32.950  33.291  1.00  0.00    -0.354 N 
ATOM     97  N   UNL A   1      42.459  31.415  29.486  1.00  0.00    -0.248 NA
ATOM     98  C   UNL A   1      42.462  29.710  31.086  1.00  0.00    -0.034 C 
ATOM     99  C   UNL A   1      42.782  35.063  32.782  1.00  0.00    -0.036 A 
ATOM    100  H   UNL A   1      42.144  35.775  34.772  1.00  0.00     0.065 H 
ATOM    101  C   UNL A   1      42.855  33.774  32.261  1.00  0.00     0.049 A 
ATOM    102  H   UNL A   1      42.559  31.967  33.259  1.00  0.00     0.167 HD
ATOM    103  C   UNL A   1      43.006  31.909  30.649  1.00  0.00     0.074 A 
ATOM    104  C   UNL A   1      43.152  30.761  31.533  1.00  0.00    -0.034 C 
ATOM    105  H   UNL A   1      42.329  28.775  31.502  1.00  0.00     0.065 H 
ATOM    106  H   UNL A   1      43.041  35.928  32.284  1.00  0.00     0.065 H 
ATOM    107  C   UNL A   1      42.968  33.243  30.924  1.00  0.00     0.037 A 
ATOM    108  H   UNL A   1      43.717  30.761  32.397  1.00  0.00     0.065 H 
BRANCH  89 109
ATOM    109  C   UNL A   1      41.886  31.867  36.198  1.00  0.00     0.064 A 
ATOM    110  C   UNL A   1      42.598  32.331  37.327  1.00  0.00     0.173 A 
ATOM    111  C   UNL A   1      42.127  30.522  35.847  1.00  0.00     0.173 A 
ATOM    112  F   UNL A   1      42.467  33.599  37.745  1.00  0.00    -0.203 F 
ATOM    113  C   UNL A   1      43.532  31.531  37.995  1.00  0.00     0.198 A 
ATOM    114  C   UNL A   1      43.023  29.713  36.545  1.00  0.00     0.198 A 
ATOM    115  F   UNL A   1      41.600  29.966  34.749  1.00  0.00    -0.203 F 
ATOM    116  F   UNL A   1      44.271  32.053  38.984  1.00  0.00    -0.200 F 
ATOM    117  C   UNL A   1      43.748  30.226  37.599  1.00  0.00     0.200 A 
ATOM    118  F   UNL A   1      43.238  28.457  36.127  1.00  0.00    -0.200 F 
ATOM    119  F   UNL A   1      44.683  29.476  38.196  1.00  0.00    -0.200 F 
ENDBRANCH  89 109
BRANCH  92 120
ATOM    120  C   UNL A   1      40.739  28.316  28.645  1.00  0.00     0.064 A 
ATOM    121  C   UNL A   1      39.990  27.290  29.249  1.00  0.00     0.173 A 
ATOM    122  C   UNL A   1      41.193  28.071  27.336  1.00  0.00     0.173 A 
ATOM    123  F   UNL A   1      39.499  27.451  30.487  1.00  0.00    -0.203 F 
ATOM    124  C   UNL A   1      39.653  26.123  28.558  1.00  0.00     0.198 A 
ATOM    125  C   UNL A   1      40.862  26.901  26.650  1.00  0.00     0.198 A 
ATOM    126  F   UNL A   1      41.876  29.005  26.658  1.00  0.00    -0.203 F 
ATOM    127  F   UNL A   1      38.859  25.210  29.136  1.00  0.00    -0.200 F 
ATOM    128  C   UNL A   1      40.073  25.939  27.251  1.00  0.00     0.200 A 
ATOM    129  F   UNL A   1      41.249  26.747  25.376  1.00  0.00    -0.200 F 
ATOM    130  F   UNL A   1      39.679  24.861  26.559  1.00  0.00    -0.200 F 
ENDBRANCH  92 120
BRANCH 107 131
ATOM    131  C   UNL A   1      42.861  34.184  29.769  1.00  0.00     0.064 A 
ATOM    132  C   UNL A   1      43.951  34.640  29.011  1.00  0.00     0.173 A 
ATOM    133  C   UNL A   1      41.577  34.578  29.369  1.00  0.00     0.173 A 
ATOM    134  F   UNL A   1      45.200  34.246  29.293  1.00  0.00    -0.203 F 
ATOM    135  C   UNL A   1      43.759  35.480  27.916  1.00  0.00     0.198 A 
ATOM    136  C   UNL A   1      41.387  35.387  28.256  1.00  0.00     0.198 A 
ATOM    137  F   UNL A   1      40.501  34.140  30.041  1.00  0.00    -0.203 F 
ATOM    138  F   UNL A   1      44.812  35.917  27.210  1.00  0.00    -0.200 F 
ATOM    139  C   UNL A   1      42.477  35.846  27.535  1.00  0.00     0.200 A 
ATOM    140  F   UNL A   1      40.143  35.703  27.868  1.00  0.00    -0.200 F 
ATOM    141  F   UNL A   1      42.289  36.621  26.458  1.00  0.00    -0.200 F 
ENDBRANCH 107 131
ENDBRANCH  72  75
ENDBRANCH  62  65
ENDBRANCH  58  61
ENDBRANCH  55  58
ENDBRANCH  52  55
ENDBRANCH   1  52
TORSDOF 18
ENDMDL
MODEL 10
REMARK VINA RESULT:     -10.8      3.958      7.807
REMARK SMILES CCc1cccc2c3c([nH]c12)[C@](CC)(CC(=O)NCCCCCCNC(=O)c1ccc(-c2c4nc(c(-c5c(F)c(F)c(F)c(F)c5F)c5ccc([nH]5)c(-c5c(F)c(F)c(F)c(F)c5F)c5nc(c(-c6c(F)c(F)c(F)c(F)c6F)c6ccc2[nH]6)C=C5)C=C4)cc1)OCC3
REMARK SMILES IDX 21 1 20 4 19 7 18 10 16 11 17 12 15 14 12 17 3 18 4 19 11 20
REMARK SMILES IDX 5 21 7 23 10 24 6 25 8 27 9 28 93 31 92 32 91 35 2 38 1 41
REMARK SMILES IDX 13 45 14 48 22 52 23 55 24 58 25 61 26 62 27 64 28 65 29 66
REMARK SMILES IDX 90 67 30 68 89 70 31 72 32 75 33 76 83 77 34 78 88 79 82 80
REMARK SMILES IDX 84 81 35 82 87 83 81 85 80 87 36 89 68 92 48 93 67 94 49 95
REMARK SMILES IDX 52 96 66 97 85 98 50 99 51 101 65 103 86 104 53 107 37 109
REMARK SMILES IDX 38 110 46 111 39 112 40 113 44 114 47 115 41 116 42 117
REMARK SMILES IDX 45 118 43 119 69 120 70 121 78 122 71 123 72 124 76 125
REMARK SMILES IDX 79 126 73 127 74 128 77 129 75 130 54 131 55 132 63 133
REMARK SMILES IDX 56 134 57 135 61 136 64 137 58 138 59 139 62 140 60 141
REMARK H PARENT 21 2 21 3 20 5 20 6 19 8 19 9 18 13 15 15 15 16 4 22 5 26
REMARK H PARENT 10 29 6 30 93 33 93 34 92 36 92 37 2 39 2 40 1 42 1 43 1 44
REMARK H PARENT 13 46 13 47 14 49 14 50 14 51 22 53 22 54 23 56 23 57 24 59
REMARK H PARENT 24 60 25 63 29 69 90 71 30 73 89 74 88 84 82 86 84 88 87 90
REMARK H PARENT 81 91 49 100 52 102 85 105 50 106 86 108
REMARK Flexibility Score: inf
ROOT
ATOM      1  C   UNL A   1      43.652  25.207  25.000  1.00  0.00    -0.052 C 
ATOM      2  H   UNL A   1      43.348  25.254  23.976  1.00  0.00     0.027 H 
ATOM      3  H   UNL A   1      42.862  24.911  25.659  1.00  0.00     0.027 H 
ENDROOT
BRANCH   1   4
ATOM      4  C   UNL A   1      44.080  26.619  25.439  1.00  0.00    -0.036 C 
ATOM      5  H   UNL A   1      43.617  27.322  24.777  1.00  0.00     0.028 H 
ATOM      6  H   UNL A   1      43.770  26.709  26.460  1.00  0.00     0.028 H 
BRANCH   4   7
ATOM      7  C   UNL A   1      45.590  26.899  25.440  1.00  0.00     0.017 C 
ATOM      8  H   UNL A   1      46.092  26.017  25.780  1.00  0.00     0.049 H 
ATOM      9  H   UNL A   1      45.845  27.172  24.438  1.00  0.00     0.049 H 
BRANCH   7  10
ATOM     10  N   UNL A   1      46.010  28.011  26.284  1.00  0.00    -0.356 N 
ATOM     11  C   UNL A   1      47.106  28.198  27.080  1.00  0.00     0.223 C 
ATOM     12  O   UNL A   1      47.160  29.232  27.748  1.00  0.00    -0.275 OA
ATOM     13  H   UNL A   1      45.386  28.773  26.279  1.00  0.00     0.163 HD
BRANCH  11  14
ATOM     14  C   UNL A   1      48.240  27.202  27.081  1.00  0.00     0.061 C 
ATOM     15  H   UNL A   1      48.159  26.637  26.177  1.00  0.00     0.040 H 
ATOM     16  H   UNL A   1      49.111  27.813  27.193  1.00  0.00     0.040 H 
BRANCH  14  17
ATOM     17  C   UNL A   1      48.356  26.184  28.242  1.00  0.00     0.117 C 
ATOM     18  C   UNL A   1      46.227  27.573  32.655  1.00  0.00    -0.024 A 
ATOM     19  C   UNL A   1      45.040  27.131  33.287  1.00  0.00    -0.057 A 
ATOM     20  C   UNL A   1      46.465  27.045  31.366  1.00  0.00     0.049 A 
ATOM     21  C   UNL A   1      44.152  26.240  32.689  1.00  0.00    -0.061 A 
ATOM     22  H   UNL A   1      44.822  27.485  34.231  1.00  0.00     0.063 H 
ATOM     23  C   UNL A   1      45.605  26.118  30.778  1.00  0.00     0.003 A 
ATOM     24  N   UNL A   1      47.504  27.249  30.464  1.00  0.00    -0.356 N 
ATOM     25  C   UNL A   1      44.429  25.720  31.434  1.00  0.00    -0.053 A 
ATOM     26  H   UNL A   1      43.287  25.965  33.182  1.00  0.00     0.062 H 
ATOM     27  C   UNL A   1      46.220  25.688  29.588  1.00  0.00    -0.014 A 
ATOM     28  C   UNL A   1      47.375  26.410  29.378  1.00  0.00     0.052 A 
ATOM     29  H   UNL A   1      48.231  27.903  30.584  1.00  0.00     0.166 HD
ATOM     30  H   UNL A   1      43.782  25.052  30.988  1.00  0.00     0.063 H 
ATOM     31  C   UNL A   1      45.821  24.555  28.751  1.00  0.00    -0.002 C 
ATOM     32  C   UNL A   1      46.814  24.360  27.624  1.00  0.00     0.052 C 
ATOM     33  H   UNL A   1      44.852  24.745  28.338  1.00  0.00     0.034 H 
ATOM     34  H   UNL A   1      45.797  23.670  29.351  1.00  0.00     0.034 H 
ATOM     35  O   UNL A   1      48.165  24.808  27.830  1.00  0.00    -0.368 OA
ATOM     36  H   UNL A   1      46.854  23.312  27.414  1.00  0.00     0.057 H 
ATOM     37  H   UNL A   1      46.445  24.979  26.832  1.00  0.00     0.057 H 
BRANCH  18  38
ATOM     38  C   UNL A   1      47.199  28.510  33.330  1.00  0.00    -0.029 C 
ATOM     39  H   UNL A   1      48.071  27.946  33.585  1.00  0.00     0.031 H 
ATOM     40  H   UNL A   1      47.370  29.298  32.628  1.00  0.00     0.031 H 
BRANCH  38  41
ATOM     41  C   UNL A   1      46.703  29.197  34.598  1.00  0.00    -0.061 C 
ATOM     42  H   UNL A   1      46.569  28.467  35.370  1.00  0.00     0.023 H 
ATOM     43  H   UNL A   1      45.769  29.681  34.400  1.00  0.00     0.023 H 
ATOM     44  H   UNL A   1      47.421  29.923  34.916  1.00  0.00     0.023 H 
ENDBRANCH  38  41
ENDBRANCH  18  38
BRANCH  17  45
ATOM     45  C   UNL A   1      49.822  26.229  28.788  1.00  0.00    -0.020 C 
ATOM     46  H   UNL A   1      49.993  27.206  29.190  1.00  0.00     0.030 H 
ATOM     47  H   UNL A   1      50.452  25.988  27.957  1.00  0.00     0.030 H 
BRANCH  45  48
ATOM     48  C   UNL A   1      50.152  25.203  29.879  1.00  0.00    -0.062 C 
ATOM     49  H   UNL A   1      49.259  24.692  30.168  1.00  0.00     0.023 H 
ATOM     50  H   UNL A   1      50.566  25.707  30.727  1.00  0.00     0.023 H 
ATOM     51  H   UNL A   1      50.862  24.497  29.502  1.00  0.00     0.023 H 
ENDBRANCH  45  48
ENDBRANCH  17  45
ENDBRANCH  14  17
ENDBRANCH  11  14
ENDBRANCH   7  10
ENDBRANCH   4   7
ENDBRANCH   1   4
BRANCH   1  52
ATOM     52  C   UNL A   1      44.735  24.148  25.125  1.00  0.00    -0.052 C 
ATOM     53  H   UNL A   1      45.344  24.390  25.972  1.00  0.00     0.027 H 
ATOM     54  H   UNL A   1      45.282  24.156  24.206  1.00  0.00     0.027 H 
BRANCH  52  55
ATOM     55  C   UNL A   1      44.205  22.727  25.308  1.00  0.00    -0.036 C 
ATOM     56  H   UNL A   1      44.373  22.437  26.324  1.00  0.00     0.028 H 
ATOM     57  H   UNL A   1      44.729  22.118  24.601  1.00  0.00     0.028 H 
BRANCH  55  58
ATOM     58  C   UNL A   1      42.712  22.550  25.002  1.00  0.00     0.018 C 
ATOM     59  H   UNL A   1      42.616  21.895  24.162  1.00  0.00     0.049 H 
ATOM     60  H   UNL A   1      42.317  23.525  24.811  1.00  0.00     0.049 H 
BRANCH  58  61
ATOM     61  N   UNL A   1      41.949  21.996  26.101  1.00  0.00    -0.352 N 
ATOM     62  C   UNL A   1      41.218  22.564  27.111  1.00  0.00     0.251 C 
ATOM     63  H   UNL A   1      41.955  21.011  26.128  1.00  0.00     0.163 HD
ATOM     64  O   UNL A   1      40.575  21.800  27.837  1.00  0.00    -0.269 OA
BRANCH  62  65
ATOM     65  C   UNL A   1      41.227  24.017  27.434  1.00  0.00     0.039 A 
ATOM     66  C   UNL A   1      42.119  24.638  28.304  1.00  0.00    -0.049 A 
ATOM     67  C   UNL A   1      40.210  24.798  26.854  1.00  0.00    -0.049 A 
ATOM     68  C   UNL A   1      41.896  25.936  28.729  1.00  0.00    -0.053 A 
ATOM     69  H   UNL A   1      42.952  24.126  28.634  1.00  0.00     0.063 H 
ATOM     70  C   UNL A   1      40.028  26.130  27.216  1.00  0.00    -0.053 A 
ATOM     71  H   UNL A   1      39.587  24.375  26.148  1.00  0.00     0.063 H 
ATOM     72  C   UNL A   1      40.836  26.679  28.202  1.00  0.00    -0.014 A 
ATOM     73  H   UNL A   1      42.515  26.357  29.440  1.00  0.00     0.063 H 
ATOM     74  H   UNL A   1      39.300  26.701  26.758  1.00  0.00     0.063 H 
BRANCH  72  75
ATOM     75  C   UNL A   1      40.736  28.067  28.647  1.00  0.00     0.031 A 
ATOM     76  C   UNL A   1      41.809  28.940  28.100  1.00  0.00     0.074 A 
ATOM     77  C   UNL A   1      39.774  28.556  29.455  1.00  0.00     0.049 A 
ATOM     78  N   UNL A   1      42.762  29.511  28.760  1.00  0.00    -0.248 NA
ATOM     79  C   UNL A   1      41.934  29.066  26.640  1.00  0.00    -0.034 C 
ATOM     80  C   UNL A   1      38.530  27.903  29.866  1.00  0.00    -0.036 A 
ATOM     81  N   UNL A   1      39.676  29.795  30.027  1.00  0.00    -0.354 N 
ATOM     82  C   UNL A   1      43.504  30.225  27.822  1.00  0.00     0.074 A 
ATOM     83  C   UNL A   1      43.040  29.805  26.527  1.00  0.00    -0.034 C 
ATOM     84  H   UNL A   1      41.326  28.684  25.898  1.00  0.00     0.065 H 
ATOM     85  C   UNL A   1      37.703  28.822  30.413  1.00  0.00    -0.036 A 
ATOM     86  H   UNL A   1      38.318  26.899  29.756  1.00  0.00     0.065 H 
ATOM     87  C   UNL A   1      38.419  30.080  30.542  1.00  0.00     0.049 A 
ATOM     88  H   UNL A   1      40.429  30.429  30.068  1.00  0.00     0.167 HD
ATOM     89  C   UNL A   1      44.255  31.291  28.212  1.00  0.00     0.037 A 
ATOM     90  H   UNL A   1      43.500  30.040  25.634  1.00  0.00     0.065 H 
ATOM     91  H   UNL A   1      36.723  28.657  30.694  1.00  0.00     0.065 H 
ATOM     92  C   UNL A   1      37.988  31.276  31.011  1.00  0.00     0.037 A 
ATOM     93  C   UNL A   1      44.480  31.271  29.633  1.00  0.00     0.049 A 
ATOM     94  C   UNL A   1      39.175  32.044  31.448  1.00  0.00     0.074 A 
ATOM     95  C   UNL A   1      45.332  30.644  30.513  1.00  0.00    -0.036 A 
ATOM     96  N   UNL A   1      43.437  31.771  30.360  1.00  0.00    -0.354 N 
ATOM     97  N   UNL A   1      39.917  31.707  32.467  1.00  0.00    -0.248 NA
ATOM     98  C   UNL A   1      39.742  33.061  30.567  1.00  0.00    -0.034 C 
ATOM     99  C   UNL A   1      44.685  30.671  31.787  1.00  0.00    -0.036 A 
ATOM    100  H   UNL A   1      46.255  30.236  30.297  1.00  0.00     0.065 H 
ATOM    101  C   UNL A   1      43.470  31.337  31.656  1.00  0.00     0.049 A 
ATOM    102  H   UNL A   1      42.746  32.370  29.995  1.00  0.00     0.167 HD
ATOM    103  C   UNL A   1      41.179  32.134  32.117  1.00  0.00     0.074 A 
ATOM    104  C   UNL A   1      40.983  33.112  31.056  1.00  0.00    -0.034 C 
ATOM    105  H   UNL A   1      39.309  33.587  29.792  1.00  0.00     0.065 H 
ATOM    106  H   UNL A   1      45.056  30.263  32.659  1.00  0.00     0.065 H 
ATOM    107  C   UNL A   1      42.279  31.411  32.467  1.00  0.00     0.037 A 
ATOM    108  H   UNL A   1      41.712  33.763  30.724  1.00  0.00     0.065 H 
BRANCH  89 109
ATOM    109  C   UNL A   1      44.341  32.595  27.444  1.00  0.00     0.064 A 
ATOM    110  C   UNL A   1      45.423  32.799  26.559  1.00  0.00     0.173 A 
ATOM    111  C   UNL A   1      43.620  33.758  27.790  1.00  0.00     0.173 A 
ATOM    112  F   UNL A   1      46.195  31.772  26.174  1.00  0.00    -0.203 F 
ATOM    113  C   UNL A   1      45.796  34.076  26.124  1.00  0.00     0.198 A 
ATOM    114  C   UNL A   1      43.966  35.024  27.316  1.00  0.00     0.198 A 
ATOM    115  F   UNL A   1      42.629  33.743  28.688  1.00  0.00    -0.203 F 
ATOM    116  F   UNL A   1      46.902  34.232  25.384  1.00  0.00    -0.200 F 
ATOM    117  C   UNL A   1      45.071  35.187  26.509  1.00  0.00     0.200 A 
ATOM    118  F   UNL A   1      43.265  36.092  27.722  1.00  0.00    -0.200 F 
ATOM    119  F   UNL A   1      45.459  36.416  26.144  1.00  0.00    -0.200 F 
ENDBRANCH  89 109
BRANCH  92 120
ATOM    120  C   UNL A   1      36.662  31.917  30.843  1.00  0.00     0.064 A 
ATOM    121  C   UNL A   1      35.838  32.158  31.958  1.00  0.00     0.173 A 
ATOM    122  C   UNL A   1      36.325  32.597  29.658  1.00  0.00     0.173 A 
ATOM    123  F   UNL A   1      36.104  31.567  33.133  1.00  0.00    -0.203 F 
ATOM    124  C   UNL A   1      34.788  33.078  31.909  1.00  0.00     0.198 A 
ATOM    125  C   UNL A   1      35.270  33.510  29.609  1.00  0.00     0.198 A 
ATOM    126  F   UNL A   1      37.075  32.470  28.554  1.00  0.00    -0.203 F 
ATOM    127  F   UNL A   1      34.084  33.348  33.018  1.00  0.00    -0.200 F 
ATOM    128  C   UNL A   1      34.518  33.769  30.740  1.00  0.00     0.200 A 
ATOM    129  F   UNL A   1      35.037  34.194  28.481  1.00  0.00    -0.200 F 
ATOM    130  F   UNL A   1      33.567  34.713  30.716  1.00  0.00    -0.200 F 
ENDBRANCH  92 120
BRANCH 107 131
ATOM    131  C   UNL A   1      42.168  30.516  33.658  1.00  0.00     0.064 A 
ATOM    132  C   UNL A   1      42.306  30.943  34.987  1.00  0.00     0.173 A 
ATOM    133  C   UNL A   1      41.830  29.175  33.434  1.00  0.00     0.173 A 
ATOM    134  F   UNL A   1      42.559  32.226  35.278  1.00  0.00    -0.203 F 
ATOM    135  C   UNL A   1      42.139  30.051  36.046  1.00  0.00     0.198 A 
ATOM    136  C   UNL A   1      41.630  28.297  34.491  1.00  0.00     0.198 A 
ATOM    137  F   UNL A   1      41.653  28.728  32.181  1.00  0.00    -0.203 F 
ATOM    138  F   UNL A   1      42.286  30.473  37.310  1.00  0.00    -0.200 F 
ATOM    139  C   UNL A   1      41.793  28.732  35.797  1.00  0.00     0.200 A 
ATOM    140  F   UNL A   1      41.255  27.034  34.246  1.00  0.00    -0.200 F 
ATOM    141  F   UNL A   1      41.593  27.884  36.815  1.00  0.00    -0.200 F 
ENDBRANCH 107 131
ENDBRANCH  72  75
ENDBRANCH  62  65
ENDBRANCH  58  61
ENDBRANCH  55  58
ENDBRANCH  52  55
ENDBRANCH   1  52
TORSDOF 18
ENDMDL
