MODEL 1
REMARK VINA RESULT:     -11.7      0.000      0.000
REMARK SMILES C/C(=N\Nc1nc(-c2ccc(Cl)cc2)cs1)c1nnn(-c2ccc(C(=O)NCCCCCCNC(=O)c3ccc(-c4c5nc(c(-c6c(F)c(F)c(F)c(F)c6F)c6ccc([nH]6)c(-c6c(F)c(F)c(F)c(F)c6F)c6nc(c(-c7c(F)c(F)c(F)c(F)c7F)c7ccc4[nH]7)C=C6)C=C5)cc3)cc2)c1C
REMARK SMILES IDX 29 1 28 4 27 7 25 8 26 9 24 11 21 12 22 13 101 14 23 15
REMARK SMILES IDX 100 17 20 21 17 22 18 23 102 24 19 25 2 26 3 27 1 28 4 32
REMARK SMILES IDX 5 34 6 35 16 36 7 37 15 38 8 40 9 41 14 42 10 43 13 45 11 47
REMARK SMILES IDX 12 50 103 51 30 55 31 58 32 61 33 64 34 67 35 68 36 70 37 71
REMARK SMILES IDX 38 72 99 73 39 74 98 76 40 78 41 81 42 82 92 83 43 84 97 85
REMARK SMILES IDX 91 86 93 87 44 88 96 89 90 91 89 93 45 95 77 98 57 99 76 100
REMARK SMILES IDX 58 101 61 102 75 103 94 104 59 105 60 107 74 109 95 110
REMARK SMILES IDX 62 113 46 115 47 116 55 117 48 118 49 119 53 120 56 121
REMARK SMILES IDX 50 122 51 123 54 124 52 125 78 126 79 127 87 128 80 129
REMARK SMILES IDX 81 130 85 131 88 132 82 133 83 134 86 135 84 136 63 137
REMARK SMILES IDX 64 138 72 139 65 140 66 141 70 142 73 143 67 144 68 145
REMARK SMILES IDX 71 146 69 147
REMARK H PARENT 29 2 29 3 28 5 28 6 27 10 22 16 101 18 23 19 100 20 1 29 1 30
REMARK H PARENT 1 31 4 33 15 39 9 44 14 46 10 48 13 49 103 52 103 53 103 54
REMARK H PARENT 30 56 30 57 31 59 31 60 32 62 32 63 33 65 33 66 34 69 38 75
REMARK H PARENT 99 77 39 79 98 80 97 90 91 92 93 94 96 96 90 97 58 106 61 108
REMARK H PARENT 94 111 59 112 95 114
REMARK Flexibility Score: inf
ROOT
ATOM      1  C   UNL A   1      33.285  29.543  25.196  1.00  0.00    -0.036 C 
ATOM      2  H   UNL A   1      33.808  30.464  25.047  1.00  0.00     0.028 H 
ATOM      3  H   UNL A   1      33.118  29.017  24.280  1.00  0.00     0.028 H 
ENDROOT
BRANCH   1   4
ATOM      4  C   UNL A   1      31.911  29.858  25.792  1.00  0.00     0.018 C 
ATOM      5  H   UNL A   1      31.596  29.040  26.405  1.00  0.00     0.049 H 
ATOM      6  H   UNL A   1      31.984  30.751  26.377  1.00  0.00     0.049 H 
BRANCH   4   7
ATOM      7  N   UNL A   1      30.936  30.068  24.736  1.00  0.00    -0.352 N 
ATOM      8  C   UNL A   1      30.470  29.272  23.719  1.00  0.00     0.251 C 
ATOM      9  O   UNL A   1      29.600  29.735  22.981  1.00  0.00    -0.269 OA
ATOM     10  H   UNL A   1      30.526  30.963  24.752  1.00  0.00     0.163 HD
BRANCH   8  11
ATOM     11  C   UNL A   1      30.904  27.860  23.527  1.00  0.00     0.039 A 
ATOM     12  C   UNL A   1      31.923  25.268  23.528  1.00  0.00     0.067 A 
ATOM     13  C   UNL A   1      30.912  25.590  24.431  1.00  0.00    -0.036 A 
ATOM     14  C   UNL A   1      32.328  26.174  22.545  1.00  0.00    -0.036 A 
ATOM     15  C   UNL A   1      30.425  26.901  24.440  1.00  0.00    -0.047 A 
ATOM     16  H   UNL A   1      30.533  24.880  25.077  1.00  0.00     0.065 H 
ATOM     17  C   UNL A   1      31.776  27.452  22.516  1.00  0.00    -0.047 A 
ATOM     18  H   UNL A   1      33.033  25.898  21.843  1.00  0.00     0.065 H 
ATOM     19  H   UNL A   1      29.702  27.170  25.127  1.00  0.00     0.063 H 
ATOM     20  H   UNL A   1      32.011  28.097  21.747  1.00  0.00     0.063 H 
BRANCH  12  21
ATOM     21  N   UNL A   1      32.676  24.096  23.707  1.00  0.00    -0.217 N 
ATOM     22  C   UNL A   1      34.182  22.648  24.309  1.00  0.00     0.132 A 
ATOM     23  N   UNL A   1      33.254  22.020  23.519  1.00  0.00    -0.128 NA
ATOM     24  C   UNL A   1      33.831  23.980  24.455  1.00  0.00     0.071 A 
ATOM     25  N   UNL A   1      32.290  22.894  23.241  1.00  0.00    -0.061 NA
BRANCH  22  26
ATOM     26  C   UNL A   1      35.289  21.973  24.975  1.00  0.00     0.087 C 
ATOM     27  N   UNL A   1      36.444  22.033  24.373  1.00  0.00    -0.176 NA
BRANCH  26  28
ATOM     28  C   UNL A   1      34.952  21.365  26.313  1.00  0.00    -0.018 C 
ATOM     29  H   UNL A   1      35.475  21.892  27.085  1.00  0.00     0.030 H 
ATOM     30  H   UNL A   1      35.246  20.336  26.322  1.00  0.00     0.030 H 
ATOM     31  H   UNL A   1      33.898  21.438  26.483  1.00  0.00     0.030 H 
ENDBRANCH  26  28
BRANCH  27  32
ATOM     32  N   UNL A   1      37.635  21.601  24.917  1.00  0.00    -0.252 N 
ATOM     33  H   UNL A   1      37.942  20.728  24.582  1.00  0.00     0.193 HD
BRANCH  32  34
ATOM     34  C   UNL A   1      38.457  22.173  25.832  1.00  0.00     0.203 A 
ATOM     35  N   UNL A   1      38.315  23.364  26.363  1.00  0.00    -0.219 NA
ATOM     36  S   UNL A   1      39.898  21.360  26.337  1.00  0.00    -0.103 S 
ATOM     37  C   UNL A   1      39.505  23.797  26.909  1.00  0.00     0.084 A 
ATOM     38  C   UNL A   1      40.493  22.839  26.984  1.00  0.00     0.021 A 
ATOM     39  H   UNL A   1      41.440  22.985  27.368  1.00  0.00     0.076 H 
BRANCH  37  40
ATOM     40  C   UNL A   1      39.666  25.196  27.264  1.00  0.00     0.001 A 
ATOM     41  C   UNL A   1      40.426  26.034  26.438  1.00  0.00    -0.051 A 
ATOM     42  C   UNL A   1      39.170  25.694  28.478  1.00  0.00    -0.051 A 
ATOM     43  C   UNL A   1      40.659  27.362  26.799  1.00  0.00    -0.043 A 
ATOM     44  H   UNL A   1      40.817  25.666  25.556  1.00  0.00     0.063 H 
ATOM     45  C   UNL A   1      39.415  27.021  28.846  1.00  0.00    -0.043 A 
ATOM     46  H   UNL A   1      38.624  25.080  29.101  1.00  0.00     0.063 H 
ATOM     47  C   UNL A   1      40.150  27.852  28.001  1.00  0.00     0.041 A 
ATOM     48  H   UNL A   1      41.207  27.981  26.180  1.00  0.00     0.064 H 
ATOM     49  H   UNL A   1      39.050  27.386  29.740  1.00  0.00     0.064 H 
ATOM     50  Cl  UNL A   1      40.444  29.484  28.454  1.00  0.00    -0.084 Cl
ENDBRANCH  37  40
ENDBRANCH  32  34
ENDBRANCH  27  32
ENDBRANCH  22  26
BRANCH  24  51
ATOM     51  C   UNL A   1      34.391  25.070  25.299  1.00  0.00    -0.020 C 
ATOM     52  H   UNL A   1      34.157  24.880  26.326  1.00  0.00     0.030 H 
ATOM     53  H   UNL A   1      33.964  26.005  25.003  1.00  0.00     0.030 H 
ATOM     54  H   UNL A   1      35.453  25.106  25.176  1.00  0.00     0.030 H 
ENDBRANCH  24  51
ENDBRANCH  12  21
ENDBRANCH   8  11
ENDBRANCH   4   7
ENDBRANCH   1   4
BRANCH   1  55
ATOM     55  C   UNL A   1      34.145  28.635  26.087  1.00  0.00    -0.052 C 
ATOM     56  H   UNL A   1      35.109  28.545  25.630  1.00  0.00     0.027 H 
ATOM     57  H   UNL A   1      33.612  27.711  26.161  1.00  0.00     0.027 H 
BRANCH  55  58
ATOM     58  C   UNL A   1      34.350  29.118  27.533  1.00  0.00    -0.052 C 
ATOM     59  H   UNL A   1      33.876  28.411  28.181  1.00  0.00     0.027 H 
ATOM     60  H   UNL A   1      33.930  30.102  27.566  1.00  0.00     0.027 H 
BRANCH  58  61
ATOM     61  C   UNL A   1      35.803  29.282  28.003  1.00  0.00    -0.036 C 
ATOM     62  H   UNL A   1      36.380  28.474  27.604  1.00  0.00     0.028 H 
ATOM     63  H   UNL A   1      35.789  29.282  29.073  1.00  0.00     0.028 H 
BRANCH  61  64
ATOM     64  C   UNL A   1      36.442  30.589  27.568  1.00  0.00     0.018 C 
ATOM     65  H   UNL A   1      36.727  30.505  26.539  1.00  0.00     0.049 H 
ATOM     66  H   UNL A   1      37.289  30.764  28.199  1.00  0.00     0.049 H 
BRANCH  64  67
ATOM     67  N   UNL A   1      35.536  31.736  27.712  1.00  0.00    -0.352 N 
ATOM     68  C   UNL A   1      35.150  32.391  28.863  1.00  0.00     0.251 C 
ATOM     69  H   UNL A   1      35.153  32.084  26.874  1.00  0.00     0.163 HD
ATOM     70  O   UNL A   1      34.119  33.070  28.893  1.00  0.00    -0.269 OA
BRANCH  68  71
ATOM     71  C   UNL A   1      35.996  32.284  30.058  1.00  0.00     0.039 A 
ATOM     72  C   UNL A   1      35.800  31.316  31.048  1.00  0.00    -0.049 A 
ATOM     73  C   UNL A   1      37.047  33.186  30.150  1.00  0.00    -0.049 A 
ATOM     74  C   UNL A   1      36.717  31.244  32.095  1.00  0.00    -0.053 A 
ATOM     75  H   UNL A   1      34.996  30.670  31.003  1.00  0.00     0.063 H 
ATOM     76  C   UNL A   1      38.074  32.937  31.008  1.00  0.00    -0.053 A 
ATOM     77  H   UNL A   1      37.050  34.041  29.571  1.00  0.00     0.063 H 
ATOM     78  C   UNL A   1      37.857  32.061  32.056  1.00  0.00    -0.014 A 
ATOM     79  H   UNL A   1      36.559  30.600  32.886  1.00  0.00     0.063 H 
ATOM     80  H   UNL A   1      38.992  33.390  30.878  1.00  0.00     0.063 H 
BRANCH  78  81
ATOM     81  C   UNL A   1      38.912  31.988  33.053  1.00  0.00     0.031 A 
ATOM     82  C   UNL A   1      38.659  32.823  34.250  1.00  0.00     0.074 A 
ATOM     83  C   UNL A   1      39.888  31.052  32.998  1.00  0.00     0.049 A 
ATOM     84  N   UNL A   1      39.304  33.877  34.620  1.00  0.00    -0.248 NA
ATOM     85  C   UNL A   1      37.448  32.554  35.045  1.00  0.00    -0.034 C 
ATOM     86  C   UNL A   1      40.054  29.954  32.033  1.00  0.00    -0.036 A 
ATOM     87  N   UNL A   1      40.899  30.818  33.875  1.00  0.00    -0.354 N 
ATOM     88  C   UNL A   1      38.720  34.275  35.817  1.00  0.00     0.074 A 
ATOM     89  C   UNL A   1      37.471  33.568  35.911  1.00  0.00    -0.034 C 
ATOM     90  H   UNL A   1      36.765  31.786  34.956  1.00  0.00     0.065 H 
ATOM     91  C   UNL A   1      40.944  29.054  32.508  1.00  0.00    -0.036 A 
ATOM     92  H   UNL A   1      39.565  29.881  31.127  1.00  0.00     0.065 H 
ATOM     93  C   UNL A   1      41.540  29.592  33.714  1.00  0.00     0.049 A 
ATOM     94  H   UNL A   1      41.159  31.465  34.571  1.00  0.00     0.167 HD
ATOM     95  C   UNL A   1      39.456  34.932  36.755  1.00  0.00     0.037 A 
ATOM     96  H   UNL A   1      36.703  33.810  36.557  1.00  0.00     0.065 H 
ATOM     97  H   UNL A   1      41.162  28.140  32.083  1.00  0.00     0.065 H 
ATOM     98  C   UNL A   1      42.477  29.058  34.539  1.00  0.00     0.037 A 
ATOM     99  C   UNL A   1      40.674  35.454  36.178  1.00  0.00     0.049 A 
ATOM    100  C   UNL A   1      43.028  30.176  35.347  1.00  0.00     0.074 A 
ATOM    101  C   UNL A   1      40.962  36.332  35.150  1.00  0.00    -0.036 A 
ATOM    102  N   UNL A   1      41.835  34.754  36.401  1.00  0.00    -0.354 N 
ATOM    103  N   UNL A   1      43.739  31.148  34.844  1.00  0.00    -0.248 NA
ATOM    104  C   UNL A   1      42.373  30.470  36.613  1.00  0.00    -0.034 C 
ATOM    105  C   UNL A   1      42.099  35.772  34.494  1.00  0.00    -0.036 A 
ATOM    106  H   UNL A   1      40.463  37.204  34.910  1.00  0.00     0.065 H 
ATOM    107  C   UNL A   1      42.491  34.637  35.204  1.00  0.00     0.049 A 
ATOM    108  H   UNL A   1      42.141  34.400  37.268  1.00  0.00     0.167 HD
ATOM    109  C   UNL A   1      43.271  32.289  35.479  1.00  0.00     0.074 A 
ATOM    110  C   UNL A   1      42.485  31.801  36.609  1.00  0.00    -0.034 C 
ATOM    111  H   UNL A   1      41.948  29.836  37.308  1.00  0.00     0.065 H 
ATOM    112  H   UNL A   1      42.552  36.143  33.644  1.00  0.00     0.065 H 
ATOM    113  C   UNL A   1      43.315  33.503  34.854  1.00  0.00     0.037 A 
ATOM    114  H   UNL A   1      42.063  32.415  37.324  1.00  0.00     0.065 H 
BRANCH  95 115
ATOM    115  C   UNL A   1      39.299  34.744  38.246  1.00  0.00     0.064 A 
ATOM    116  C   UNL A   1      39.266  35.886  39.071  1.00  0.00     0.173 A 
ATOM    117  C   UNL A   1      39.496  33.517  38.918  1.00  0.00     0.173 A 
ATOM    118  F   UNL A   1      39.095  37.106  38.540  1.00  0.00    -0.203 F 
ATOM    119  C   UNL A   1      39.510  35.813  40.444  1.00  0.00     0.198 A 
ATOM    120  C   UNL A   1      39.685  33.443  40.296  1.00  0.00     0.198 A 
ATOM    121  F   UNL A   1      39.631  32.354  38.271  1.00  0.00    -0.203 F 
ATOM    122  F   UNL A   1      39.608  36.940  41.161  1.00  0.00    -0.200 F 
ATOM    123  C   UNL A   1      39.729  34.592  41.054  1.00  0.00     0.200 A 
ATOM    124  F   UNL A   1      39.912  32.250  40.865  1.00  0.00    -0.200 F 
ATOM    125  F   UNL A   1      40.033  34.525  42.357  1.00  0.00    -0.200 F 
ENDBRANCH  95 115
BRANCH  98 126
ATOM    126  C   UNL A   1      42.688  27.638  34.912  1.00  0.00     0.064 A 
ATOM    127  C   UNL A   1      41.859  27.005  35.853  1.00  0.00     0.173 A 
ATOM    128  C   UNL A   1      43.508  26.794  34.137  1.00  0.00     0.173 A 
ATOM    129  F   UNL A   1      41.013  27.730  36.602  1.00  0.00    -0.203 F 
ATOM    130  C   UNL A   1      41.826  25.612  35.988  1.00  0.00     0.198 A 
ATOM    131  C   UNL A   1      43.478  25.404  34.275  1.00  0.00     0.198 A 
ATOM    132  F   UNL A   1      44.280  27.294  33.161  1.00  0.00    -0.203 F 
ATOM    133  F   UNL A   1      40.971  25.042  36.850  1.00  0.00    -0.200 F 
ATOM    134  C   UNL A   1      42.627  24.812  35.188  1.00  0.00     0.200 A 
ATOM    135  F   UNL A   1      44.227  24.641  33.466  1.00  0.00    -0.200 F 
ATOM    136  F   UNL A   1      42.546  23.477  35.267  1.00  0.00    -0.200 F 
ENDBRANCH  98 126
BRANCH 113 137
ATOM    137  C   UNL A   1      44.118  33.611  33.587  1.00  0.00     0.064 A 
ATOM    138  C   UNL A   1      45.514  33.775  33.540  1.00  0.00     0.173 A 
ATOM    139  C   UNL A   1      43.457  33.400  32.369  1.00  0.00     0.173 A 
ATOM    140  F   UNL A   1      46.234  33.887  34.662  1.00  0.00    -0.203 F 
ATOM    141  C   UNL A   1      46.204  33.770  32.328  1.00  0.00     0.198 A 
ATOM    142  C   UNL A   1      44.152  33.359  31.165  1.00  0.00     0.198 A 
ATOM    143  F   UNL A   1      42.132  33.183  32.356  1.00  0.00    -0.203 F 
ATOM    144  F   UNL A   1      47.535  33.942  32.312  1.00  0.00    -0.200 F 
ATOM    145  C   UNL A   1      45.523  33.555  31.143  1.00  0.00     0.200 A 
ATOM    146  F   UNL A   1      43.494  33.101  30.026  1.00  0.00    -0.200 F 
ATOM    147  F   UNL A   1      46.191  33.511  29.981  1.00  0.00    -0.200 F 
ENDBRANCH 113 137
ENDBRANCH  78  81
ENDBRANCH  68  71
ENDBRANCH  64  67
ENDBRANCH  61  64
ENDBRANCH  58  61
ENDBRANCH  55  58
ENDBRANCH   1  55
TORSDOF 20
ENDMDL
MODEL 2
REMARK VINA RESULT:     -11.6      3.937      8.906
REMARK SMILES C/C(=N\Nc1nc(-c2ccc(Cl)cc2)cs1)c1nnn(-c2ccc(C(=O)NCCCCCCNC(=O)c3ccc(-c4c5nc(c(-c6c(F)c(F)c(F)c(F)c6F)c6ccc([nH]6)c(-c6c(F)c(F)c(F)c(F)c6F)c6nc(c(-c7c(F)c(F)c(F)c(F)c7F)c7ccc4[nH]7)C=C6)C=C5)cc3)cc2)c1C
REMARK SMILES IDX 29 1 28 4 27 7 25 8 26 9 24 11 21 12 22 13 101 14 23 15
REMARK SMILES IDX 100 17 20 21 17 22 18 23 102 24 19 25 2 26 3 27 1 28 4 32
REMARK SMILES IDX 5 34 6 35 16 36 7 37 15 38 8 40 9 41 14 42 10 43 13 45 11 47
REMARK SMILES IDX 12 50 103 51 30 55 31 58 32 61 33 64 34 67 35 68 36 70 37 71
REMARK SMILES IDX 38 72 99 73 39 74 98 76 40 78 41 81 42 82 92 83 43 84 97 85
REMARK SMILES IDX 91 86 93 87 44 88 96 89 90 91 89 93 45 95 77 98 57 99 76 100
REMARK SMILES IDX 58 101 61 102 75 103 94 104 59 105 60 107 74 109 95 110
REMARK SMILES IDX 62 113 46 115 47 116 55 117 48 118 49 119 53 120 56 121
REMARK SMILES IDX 50 122 51 123 54 124 52 125 78 126 79 127 87 128 80 129
REMARK SMILES IDX 81 130 85 131 88 132 82 133 83 134 86 135 84 136 63 137
REMARK SMILES IDX 64 138 72 139 65 140 66 141 70 142 73 143 67 144 68 145
REMARK SMILES IDX 71 146 69 147
REMARK H PARENT 29 2 29 3 28 5 28 6 27 10 22 16 101 18 23 19 100 20 1 29 1 30
REMARK H PARENT 1 31 4 33 15 39 9 44 14 46 10 48 13 49 103 52 103 53 103 54
REMARK H PARENT 30 56 30 57 31 59 31 60 32 62 32 63 33 65 33 66 34 69 38 75
REMARK H PARENT 99 77 39 79 98 80 97 90 91 92 93 94 96 96 90 97 58 106 61 108
REMARK H PARENT 94 111 59 112 95 114
REMARK Flexibility Score: inf
ROOT
ATOM      1  C   UNL A   1      42.514  35.891  27.089  1.00  0.00    -0.036 C 
ATOM      2  H   UNL A   1      42.703  35.679  28.121  1.00  0.00     0.028 H 
ATOM      3  H   UNL A   1      41.573  35.501  26.760  1.00  0.00     0.028 H 
ENDROOT
BRANCH   1   4
ATOM      4  C   UNL A   1      43.601  35.212  26.251  1.00  0.00     0.018 C 
ATOM      5  H   UNL A   1      43.199  34.328  25.803  1.00  0.00     0.049 H 
ATOM      6  H   UNL A   1      43.928  35.893  25.493  1.00  0.00     0.049 H 
BRANCH   4   7
ATOM      7  N   UNL A   1      44.735  34.854  27.084  1.00  0.00    -0.352 N 
ATOM      8  C   UNL A   1      45.057  33.725  27.795  1.00  0.00     0.251 C 
ATOM      9  O   UNL A   1      46.131  33.713  28.397  1.00  0.00    -0.269 OA
ATOM     10  H   UNL A   1      45.412  35.567  27.153  1.00  0.00     0.163 HD
BRANCH   8  11
ATOM     11  C   UNL A   1      44.212  32.498  27.799  1.00  0.00     0.039 A 
ATOM     12  C   UNL A   1      42.902  30.058  28.089  1.00  0.00     0.067 A 
ATOM     13  C   UNL A   1      42.815  30.991  29.120  1.00  0.00    -0.036 A 
ATOM     14  C   UNL A   1      43.512  30.379  26.874  1.00  0.00    -0.036 A 
ATOM     15  C   UNL A   1      43.497  32.204  28.976  1.00  0.00    -0.047 A 
ATOM     16  H   UNL A   1      42.262  30.793  29.968  1.00  0.00     0.065 H 
ATOM     17  C   UNL A   1      44.120  31.622  26.717  1.00  0.00    -0.047 A 
ATOM     18  H   UNL A   1      43.514  29.700  26.098  1.00  0.00     0.065 H 
ATOM     19  H   UNL A   1      43.475  32.893  29.744  1.00  0.00     0.063 H 
ATOM     20  H   UNL A   1      44.501  31.896  25.798  1.00  0.00     0.063 H 
BRANCH  12  21
ATOM     21  N   UNL A   1      42.540  28.720  28.321  1.00  0.00    -0.217 N 
ATOM     22  C   UNL A   1      41.449  26.847  28.491  1.00  0.00     0.132 A 
ATOM     23  N   UNL A   1      42.745  26.645  28.892  1.00  0.00    -0.128 NA
ATOM     24  C   UNL A   1      41.292  28.170  28.109  1.00  0.00     0.071 A 
ATOM     25  N   UNL A   1      43.421  27.773  28.690  1.00  0.00    -0.061 NA
BRANCH  22  26
ATOM     26  C   UNL A   1      40.447  25.795  28.379  1.00  0.00     0.087 C 
ATOM     27  N   UNL A   1      40.798  24.737  27.702  1.00  0.00    -0.176 NA
BRANCH  26  28
ATOM     28  C   UNL A   1      39.169  26.050  29.137  1.00  0.00    -0.018 C 
ATOM     29  H   UNL A   1      39.276  25.704  30.145  1.00  0.00     0.030 H 
ATOM     30  H   UNL A   1      38.363  25.527  28.664  1.00  0.00     0.030 H 
ATOM     31  H   UNL A   1      38.960  27.100  29.141  1.00  0.00     0.030 H 
ENDBRANCH  26  28
BRANCH  27  32
ATOM     32  N   UNL A   1      40.058  23.577  27.622  1.00  0.00    -0.252 N 
ATOM     33  H   UNL A   1      40.103  23.009  28.424  1.00  0.00     0.193 HD
BRANCH  32  34
ATOM     34  C   UNL A   1      39.276  23.084  26.628  1.00  0.00     0.203 A 
ATOM     35  N   UNL A   1      38.310  23.725  26.013  1.00  0.00    -0.219 NA
ATOM     36  S   UNL A   1      39.442  21.438  26.123  1.00  0.00    -0.103 S 
ATOM     37  C   UNL A   1      37.465  22.837  25.381  1.00  0.00     0.084 A 
ATOM     38  C   UNL A   1      37.916  21.535  25.337  1.00  0.00     0.021 A 
ATOM     39  H   UNL A   1      37.417  20.745  24.900  1.00  0.00     0.076 H 
BRANCH  37  40
ATOM     40  C   UNL A   1      36.168  23.292  24.911  1.00  0.00     0.001 A 
ATOM     41  C   UNL A   1      35.734  22.932  23.629  1.00  0.00    -0.051 A 
ATOM     42  C   UNL A   1      35.394  24.179  25.674  1.00  0.00    -0.051 A 
ATOM     43  C   UNL A   1      34.527  23.422  23.126  1.00  0.00    -0.043 A 
ATOM     44  H   UNL A   1      36.312  22.301  23.051  1.00  0.00     0.063 H 
ATOM     45  C   UNL A   1      34.191  24.680  25.165  1.00  0.00    -0.043 A 
ATOM     46  H   UNL A   1      35.714  24.464  26.613  1.00  0.00     0.063 H 
ATOM     47  C   UNL A   1      33.759  24.292  23.898  1.00  0.00     0.041 A 
ATOM     48  H   UNL A   1      34.204  23.141  22.186  1.00  0.00     0.064 H 
ATOM     49  H   UNL A   1      33.624  25.333  25.728  1.00  0.00     0.064 H 
ATOM     50  Cl  UNL A   1      32.277  24.904  23.277  1.00  0.00    -0.084 Cl
ENDBRANCH  37  40
ENDBRANCH  32  34
ENDBRANCH  27  32
ENDBRANCH  22  26
BRANCH  24  51
ATOM     51  C   UNL A   1      40.158  28.893  27.473  1.00  0.00    -0.020 C 
ATOM     52  H   UNL A   1      40.009  29.829  27.970  1.00  0.00     0.030 H 
ATOM     53  H   UNL A   1      39.269  28.302  27.552  1.00  0.00     0.030 H 
ATOM     54  H   UNL A   1      40.381  29.068  26.441  1.00  0.00     0.030 H 
ENDBRANCH  24  51
ENDBRANCH  12  21
ENDBRANCH   8  11
ENDBRANCH   4   7
ENDBRANCH   1   4
BRANCH   1  55
ATOM     55  C   UNL A   1      42.461  37.414  26.908  1.00  0.00    -0.052 C 
ATOM     56  H   UNL A   1      41.618  37.641  26.288  1.00  0.00     0.027 H 
ATOM     57  H   UNL A   1      43.402  37.689  26.479  1.00  0.00     0.027 H 
BRANCH  55  58
ATOM     58  C   UNL A   1      42.334  38.237  28.201  1.00  0.00    -0.052 C 
ATOM     59  H   UNL A   1      42.318  37.550  29.022  1.00  0.00     0.027 H 
ATOM     60  H   UNL A   1      41.438  38.811  28.085  1.00  0.00     0.027 H 
BRANCH  58  61
ATOM     61  C   UNL A   1      43.442  39.265  28.473  1.00  0.00    -0.036 C 
ATOM     62  H   UNL A   1      43.208  40.162  27.939  1.00  0.00     0.028 H 
ATOM     63  H   UNL A   1      44.362  38.827  28.148  1.00  0.00     0.028 H 
BRANCH  61  64
ATOM     64  C   UNL A   1      43.609  39.609  29.943  1.00  0.00     0.018 C 
ATOM     65  H   UNL A   1      42.811  39.155  30.494  1.00  0.00     0.049 H 
ATOM     66  H   UNL A   1      43.592  40.676  30.031  1.00  0.00     0.049 H 
BRANCH  64  67
ATOM     67  N   UNL A   1      44.887  39.138  30.492  1.00  0.00    -0.352 N 
ATOM     68  C   UNL A   1      45.121  38.083  31.349  1.00  0.00     0.251 C 
ATOM     69  H   UNL A   1      45.683  39.643  30.210  1.00  0.00     0.163 HD
ATOM     70  O   UNL A   1      46.155  38.027  32.022  1.00  0.00    -0.269 OA
BRANCH  68  71
ATOM     71  C   UNL A   1      44.125  37.008  31.440  1.00  0.00     0.039 A 
ATOM     72  C   UNL A   1      43.986  36.012  30.469  1.00  0.00    -0.049 A 
ATOM     73  C   UNL A   1      43.329  37.002  32.578  1.00  0.00    -0.049 A 
ATOM     74  C   UNL A   1      43.071  34.986  30.698  1.00  0.00    -0.053 A 
ATOM     75  H   UNL A   1      44.547  36.036  29.603  1.00  0.00     0.063 H 
ATOM     76  C   UNL A   1      42.652  35.872  32.919  1.00  0.00    -0.053 A 
ATOM     77  H   UNL A   1      43.253  37.849  33.162  1.00  0.00     0.063 H 
ATOM     78  C   UNL A   1      42.415  34.927  31.937  1.00  0.00    -0.014 A 
ATOM     79  H   UNL A   1      42.880  34.282  29.969  1.00  0.00     0.063 H 
ATOM     80  H   UNL A   1      42.325  35.724  33.886  1.00  0.00     0.063 H 
BRANCH  78  81
ATOM     81  C   UNL A   1      41.516  33.843  32.301  1.00  0.00     0.031 A 
ATOM     82  C   UNL A   1      40.215  33.886  31.595  1.00  0.00     0.074 A 
ATOM     83  C   UNL A   1      41.937  32.771  33.012  1.00  0.00     0.049 A 
ATOM     84  N   UNL A   1      39.054  34.122  32.105  1.00  0.00    -0.248 NA
ATOM     85  C   UNL A   1      40.218  33.819  30.123  1.00  0.00    -0.034 C 
ATOM     86  C   UNL A   1      43.293  32.458  33.486  1.00  0.00    -0.036 A 
ATOM     87  N   UNL A   1      41.242  31.661  33.377  1.00  0.00    -0.354 N 
ATOM     88  C   UNL A   1      38.150  34.012  31.054  1.00  0.00     0.074 A 
ATOM     89  C   UNL A   1      38.931  34.041  29.846  1.00  0.00    -0.034 C 
ATOM     90  H   UNL A   1      41.004  33.646  29.477  1.00  0.00     0.065 H 
ATOM     91  C   UNL A   1      43.363  31.160  33.856  1.00  0.00    -0.036 A 
ATOM     92  H   UNL A   1      44.076  33.129  33.530  1.00  0.00     0.065 H 
ATOM     93  C   UNL A   1      42.028  30.599  33.816  1.00  0.00     0.049 A 
ATOM     94  H   UNL A   1      40.259  31.612  33.334  1.00  0.00     0.167 HD
ATOM     95  C   UNL A   1      36.869  33.618  31.289  1.00  0.00     0.037 A 
ATOM     96  H   UNL A   1      38.551  34.209  28.902  1.00  0.00     0.065 H 
ATOM     97  H   UNL A   1      44.222  30.654  34.123  1.00  0.00     0.065 H 
ATOM     98  C   UNL A   1      41.598  29.343  34.101  1.00  0.00     0.037 A 
ATOM     99  C   UNL A   1      36.545  33.738  32.692  1.00  0.00     0.049 A 
ATOM    100  C   UNL A   1      40.131  29.427  34.315  1.00  0.00     0.074 A 
ATOM    101  C   UNL A   1      36.525  34.783  33.598  1.00  0.00    -0.036 A 
ATOM    102  N   UNL A   1      36.565  32.593  33.451  1.00  0.00    -0.354 N 
ATOM    103  N   UNL A   1      39.584  30.054  35.320  1.00  0.00    -0.248 NA
ATOM    104  C   UNL A   1      39.275  29.239  33.154  1.00  0.00    -0.034 C 
ATOM    105  C   UNL A   1      37.032  34.228  34.811  1.00  0.00    -0.036 A 
ATOM    106  H   UNL A   1      36.212  35.753  33.431  1.00  0.00     0.065 H 
ATOM    107  C   UNL A   1      37.252  32.866  34.605  1.00  0.00     0.049 A 
ATOM    108  H   UNL A   1      36.158  31.730  33.209  1.00  0.00     0.167 HD
ATOM    109  C   UNL A   1      38.497  30.717  34.769  1.00  0.00     0.074 A 
ATOM    110  C   UNL A   1      38.315  30.118  33.449  1.00  0.00    -0.034 C 
ATOM    111  H   UNL A   1      39.381  28.610  32.341  1.00  0.00     0.065 H 
ATOM    112  H   UNL A   1      37.206  34.745  35.687  1.00  0.00     0.065 H 
ATOM    113  C   UNL A   1      38.046  31.888  35.310  1.00  0.00     0.037 A 
ATOM    114  H   UNL A   1      37.532  30.348  32.816  1.00  0.00     0.065 H 
BRANCH  95 115
ATOM    115  C   UNL A   1      36.065  32.741  30.359  1.00  0.00     0.064 A 
ATOM    116  C   UNL A   1      36.624  31.520  29.929  1.00  0.00     0.173 A 
ATOM    117  C   UNL A   1      34.935  33.178  29.632  1.00  0.00     0.173 A 
ATOM    118  F   UNL A   1      37.707  31.014  30.538  1.00  0.00    -0.203 F 
ATOM    119  C   UNL A   1      36.150  30.847  28.801  1.00  0.00     0.198 A 
ATOM    120  C   UNL A   1      34.430  32.474  28.541  1.00  0.00     0.198 A 
ATOM    121  F   UNL A   1      34.339  34.353  29.864  1.00  0.00    -0.203 F 
ATOM    122  F   UNL A   1      36.802  29.767  28.349  1.00  0.00    -0.200 F 
ATOM    123  C   UNL A   1      35.059  31.329  28.102  1.00  0.00     0.200 A 
ATOM    124  F   UNL A   1      33.382  32.969  27.867  1.00  0.00    -0.200 F 
ATOM    125  F   UNL A   1      34.645  30.725  26.981  1.00  0.00    -0.200 F 
ENDBRANCH  95 115
BRANCH  98 126
ATOM    126  C   UNL A   1      42.289  28.049  33.873  1.00  0.00     0.064 A 
ATOM    127  C   UNL A   1      42.989  27.802  32.681  1.00  0.00     0.173 A 
ATOM    128  C   UNL A   1      42.529  27.154  34.934  1.00  0.00     0.173 A 
ATOM    129  F   UNL A   1      42.854  28.632  31.635  1.00  0.00    -0.203 F 
ATOM    130  C   UNL A   1      43.900  26.744  32.567  1.00  0.00     0.198 A 
ATOM    131  C   UNL A   1      43.434  26.097  34.818  1.00  0.00     0.198 A 
ATOM    132  F   UNL A   1      41.966  27.347  36.136  1.00  0.00    -0.203 F 
ATOM    133  F   UNL A   1      44.600  26.582  31.434  1.00  0.00    -0.200 F 
ATOM    134  C   UNL A   1      44.131  25.901  33.641  1.00  0.00     0.200 A 
ATOM    135  F   UNL A   1      43.679  25.313  35.879  1.00  0.00    -0.200 F 
ATOM    136  F   UNL A   1      45.052  24.932  33.556  1.00  0.00    -0.200 F 
ENDBRANCH  98 126
BRANCH 113 137
ATOM    137  C   UNL A   1      38.580  32.289  36.658  1.00  0.00     0.064 A 
ATOM    138  C   UNL A   1      39.712  33.101  36.856  1.00  0.00     0.173 A 
ATOM    139  C   UNL A   1      37.829  31.950  37.791  1.00  0.00     0.173 A 
ATOM    140  F   UNL A   1      40.430  33.549  35.820  1.00  0.00    -0.203 F 
ATOM    141  C   UNL A   1      40.094  33.513  38.132  1.00  0.00     0.198 A 
ATOM    142  C   UNL A   1      38.192  32.393  39.060  1.00  0.00     0.198 A 
ATOM    143  F   UNL A   1      36.709  31.223  37.658  1.00  0.00    -0.203 F 
ATOM    144  F   UNL A   1      41.186  34.276  38.294  1.00  0.00    -0.200 F 
ATOM    145  C   UNL A   1      39.329  33.164  39.232  1.00  0.00     0.200 A 
ATOM    146  F   UNL A   1      37.419  32.093  40.114  1.00  0.00    -0.200 F 
ATOM    147  F   UNL A   1      39.672  33.593  40.455  1.00  0.00    -0.200 F 
ENDBRANCH 113 137
ENDBRANCH  78  81
ENDBRANCH  68  71
ENDBRANCH  64  67
ENDBRANCH  61  64
ENDBRANCH  58  61
ENDBRANCH  55  58
ENDBRANCH   1  55
TORSDOF 20
ENDMDL
MODEL 3
REMARK VINA RESULT:     -11.6      1.709      2.560
REMARK SMILES C/C(=N\Nc1nc(-c2ccc(Cl)cc2)cs1)c1nnn(-c2ccc(C(=O)NCCCCCCNC(=O)c3ccc(-c4c5nc(c(-c6c(F)c(F)c(F)c(F)c6F)c6ccc([nH]6)c(-c6c(F)c(F)c(F)c(F)c6F)c6nc(c(-c7c(F)c(F)c(F)c(F)c7F)c7ccc4[nH]7)C=C6)C=C5)cc3)cc2)c1C
REMARK SMILES IDX 29 1 28 4 27 7 25 8 26 9 24 11 21 12 22 13 101 14 23 15
REMARK SMILES IDX 100 17 20 21 17 22 18 23 102 24 19 25 2 26 3 27 1 28 4 32
REMARK SMILES IDX 5 34 6 35 16 36 7 37 15 38 8 40 9 41 14 42 10 43 13 45 11 47
REMARK SMILES IDX 12 50 103 51 30 55 31 58 32 61 33 64 34 67 35 68 36 70 37 71
REMARK SMILES IDX 38 72 99 73 39 74 98 76 40 78 41 81 42 82 92 83 43 84 97 85
REMARK SMILES IDX 91 86 93 87 44 88 96 89 90 91 89 93 45 95 77 98 57 99 76 100
REMARK SMILES IDX 58 101 61 102 75 103 94 104 59 105 60 107 74 109 95 110
REMARK SMILES IDX 62 113 46 115 47 116 55 117 48 118 49 119 53 120 56 121
REMARK SMILES IDX 50 122 51 123 54 124 52 125 78 126 79 127 87 128 80 129
REMARK SMILES IDX 81 130 85 131 88 132 82 133 83 134 86 135 84 136 63 137
REMARK SMILES IDX 64 138 72 139 65 140 66 141 70 142 73 143 67 144 68 145
REMARK SMILES IDX 71 146 69 147
REMARK H PARENT 29 2 29 3 28 5 28 6 27 10 22 16 101 18 23 19 100 20 1 29 1 30
REMARK H PARENT 1 31 4 33 15 39 9 44 14 46 10 48 13 49 103 52 103 53 103 54
REMARK H PARENT 30 56 30 57 31 59 31 60 32 62 32 63 33 65 33 66 34 69 38 75
REMARK H PARENT 99 77 39 79 98 80 97 90 91 92 93 94 96 96 90 97 58 106 61 108
REMARK H PARENT 94 111 59 112 95 114
REMARK Flexibility Score: inf
ROOT
ATOM      1  C   UNL A   1      31.875  29.521  26.955  1.00  0.00    -0.036 C 
ATOM      2  H   UNL A   1      30.988  28.957  26.755  1.00  0.00     0.028 H 
ATOM      3  H   UNL A   1      31.766  30.158  27.809  1.00  0.00     0.028 H 
ENDROOT
BRANCH   1   4
ATOM      4  C   UNL A   1      32.155  30.425  25.752  1.00  0.00     0.018 C 
ATOM      5  H   UNL A   1      32.387  31.410  26.098  1.00  0.00     0.049 H 
ATOM      6  H   UNL A   1      32.981  30.023  25.202  1.00  0.00     0.049 H 
BRANCH   4   7
ATOM      7  N   UNL A   1      30.995  30.485  24.880  1.00  0.00    -0.352 N 
ATOM      8  C   UNL A   1      30.468  29.614  23.959  1.00  0.00     0.251 C 
ATOM      9  O   UNL A   1      29.432  29.945  23.383  1.00  0.00    -0.269 OA
ATOM     10  H   UNL A   1      30.481  31.321  24.967  1.00  0.00     0.163 HD
BRANCH   8  11
ATOM     11  C   UNL A   1      31.043  28.265  23.694  1.00  0.00     0.039 A 
ATOM     12  C   UNL A   1      32.191  25.729  23.610  1.00  0.00     0.067 A 
ATOM     13  C   UNL A   1      30.922  25.871  24.166  1.00  0.00    -0.036 A 
ATOM     14  C   UNL A   1      32.827  26.802  22.979  1.00  0.00    -0.036 A 
ATOM     15  C   UNL A   1      30.364  27.152  24.227  1.00  0.00    -0.047 A 
ATOM     16  H   UNL A   1      30.407  25.052  24.524  1.00  0.00     0.065 H 
ATOM     17  C   UNL A   1      32.222  28.056  22.978  1.00  0.00    -0.047 A 
ATOM     18  H   UNL A   1      33.739  26.666  22.516  1.00  0.00     0.065 H 
ATOM     19  H   UNL A   1      29.440  27.283  24.669  1.00  0.00     0.063 H 
ATOM     20  H   UNL A   1      32.647  28.832  22.447  1.00  0.00     0.063 H 
BRANCH  12  21
ATOM     21  N   UNL A   1      32.929  24.555  23.835  1.00  0.00    -0.217 N 
ATOM     22  C   UNL A   1      34.277  23.053  24.644  1.00  0.00     0.132 A 
ATOM     23  N   UNL A   1      33.662  22.544  23.530  1.00  0.00    -0.128 NA
ATOM     24  C   UNL A   1      33.817  24.341  24.869  1.00  0.00     0.071 A 
ATOM     25  N   UNL A   1      32.771  23.435  23.105  1.00  0.00    -0.061 NA
BRANCH  22  26
ATOM     26  C   UNL A   1      35.178  22.299  25.506  1.00  0.00     0.087 C 
ATOM     27  N   UNL A   1      36.453  22.462  25.287  1.00  0.00    -0.176 NA
BRANCH  26  28
ATOM     28  C   UNL A   1      34.501  21.494  26.586  1.00  0.00    -0.018 C 
ATOM     29  H   UNL A   1      33.516  21.223  26.265  1.00  0.00     0.030 H 
ATOM     30  H   UNL A   1      34.436  22.079  27.480  1.00  0.00     0.030 H 
ATOM     31  H   UNL A   1      35.068  20.607  26.779  1.00  0.00     0.030 H 
ENDBRANCH  26  28
BRANCH  27  32
ATOM     32  N   UNL A   1      37.456  21.967  26.093  1.00  0.00    -0.252 N 
ATOM     33  H   UNL A   1      37.163  21.276  26.729  1.00  0.00     0.193 HD
BRANCH  32  34
ATOM     34  C   UNL A   1      38.778  22.268  26.159  1.00  0.00     0.203 A 
ATOM     35  N   UNL A   1      39.752  21.610  25.577  1.00  0.00    -0.219 NA
ATOM     36  S   UNL A   1      39.326  23.574  27.153  1.00  0.00    -0.103 S 
ATOM     37  C   UNL A   1      40.961  21.906  26.171  1.00  0.00     0.084 A 
ATOM     38  C   UNL A   1      40.928  22.956  27.062  1.00  0.00     0.021 A 
ATOM     39  H   UNL A   1      41.738  23.317  27.591  1.00  0.00     0.076 H 
BRANCH  37  40
ATOM     40  C   UNL A   1      42.116  21.067  25.905  1.00  0.00     0.001 A 
ATOM     41  C   UNL A   1      42.031  19.686  26.126  1.00  0.00    -0.051 A 
ATOM     42  C   UNL A   1      43.348  21.630  25.541  1.00  0.00    -0.051 A 
ATOM     43  C   UNL A   1      43.151  18.871  25.953  1.00  0.00    -0.043 A 
ATOM     44  H   UNL A   1      41.134  19.269  26.420  1.00  0.00     0.063 H 
ATOM     45  C   UNL A   1      44.474  20.815  25.380  1.00  0.00    -0.043 A 
ATOM     46  H   UNL A   1      43.425  22.648  25.394  1.00  0.00     0.063 H 
ATOM     47  C   UNL A   1      44.368  19.438  25.578  1.00  0.00     0.041 A 
ATOM     48  H   UNL A   1      43.080  17.852  26.102  1.00  0.00     0.064 H 
ATOM     49  H   UNL A   1      45.380  21.231  25.114  1.00  0.00     0.064 H 
ATOM     50  Cl  UNL A   1      45.752  18.438  25.373  1.00  0.00    -0.084 Cl
ENDBRANCH  37  40
ENDBRANCH  32  34
ENDBRANCH  27  32
ENDBRANCH  22  26
BRANCH  24  51
ATOM     51  C   UNL A   1      34.036  25.293  25.991  1.00  0.00    -0.020 C 
ATOM     52  H   UNL A   1      34.989  25.102  26.440  1.00  0.00     0.030 H 
ATOM     53  H   UNL A   1      33.266  25.165  26.723  1.00  0.00     0.030 H 
ATOM     54  H   UNL A   1      34.013  26.296  25.618  1.00  0.00     0.030 H 
ENDBRANCH  24  51
ENDBRANCH  12  21
ENDBRANCH   8  11
ENDBRANCH   4   7
ENDBRANCH   1   4
BRANCH   1  55
ATOM     55  C   UNL A   1      33.014  28.541  27.265  1.00  0.00    -0.052 C 
ATOM     56  H   UNL A   1      32.815  27.629  26.743  1.00  0.00     0.027 H 
ATOM     57  H   UNL A   1      33.028  28.438  28.330  1.00  0.00     0.027 H 
BRANCH  55  58
ATOM     58  C   UNL A   1      34.426  29.013  26.873  1.00  0.00    -0.052 C 
ATOM     59  H   UNL A   1      34.317  29.851  26.218  1.00  0.00     0.027 H 
ATOM     60  H   UNL A   1      34.896  28.160  26.430  1.00  0.00     0.027 H 
BRANCH  58  61
ATOM     61  C   UNL A   1      35.352  29.435  28.023  1.00  0.00    -0.036 C 
ATOM     62  H   UNL A   1      36.111  28.689  28.138  1.00  0.00     0.028 H 
ATOM     63  H   UNL A   1      34.743  29.533  28.897  1.00  0.00     0.028 H 
BRANCH  61  64
ATOM     64  C   UNL A   1      36.029  30.777  27.800  1.00  0.00     0.018 C 
ATOM     65  H   UNL A   1      36.399  30.811  26.796  1.00  0.00     0.049 H 
ATOM     66  H   UNL A   1      36.820  30.865  28.515  1.00  0.00     0.049 H 
BRANCH  64  67
ATOM     67  N   UNL A   1      35.117  31.910  28.005  1.00  0.00    -0.352 N 
ATOM     68  C   UNL A   1      34.772  32.538  29.184  1.00  0.00     0.251 C 
ATOM     69  H   UNL A   1      34.696  32.269  27.191  1.00  0.00     0.163 HD
ATOM     70  O   UNL A   1      33.736  33.204  29.270  1.00  0.00    -0.269 OA
BRANCH  68  71
ATOM     71  C   UNL A   1      35.669  32.418  30.340  1.00  0.00     0.039 A 
ATOM     72  C   UNL A   1      35.531  31.424  31.313  1.00  0.00    -0.049 A 
ATOM     73  C   UNL A   1      36.707  33.337  30.411  1.00  0.00    -0.049 A 
ATOM     74  C   UNL A   1      36.492  31.344  32.319  1.00  0.00    -0.053 A 
ATOM     75  H   UNL A   1      34.737  30.765  31.286  1.00  0.00     0.063 H 
ATOM     76  C   UNL A   1      37.773  33.086  31.219  1.00  0.00    -0.053 A 
ATOM     77  H   UNL A   1      36.672  34.204  29.853  1.00  0.00     0.063 H 
ATOM     78  C   UNL A   1      37.615  32.181  32.253  1.00  0.00    -0.014 A 
ATOM     79  H   UNL A   1      36.378  30.679  33.101  1.00  0.00     0.063 H 
ATOM     80  H   UNL A   1      38.677  33.558  31.063  1.00  0.00     0.063 H 
BRANCH  78  81
ATOM     81  C   UNL A   1      38.712  32.104  33.205  1.00  0.00     0.031 A 
ATOM     82  C   UNL A   1      38.510  32.932  34.416  1.00  0.00     0.074 A 
ATOM     83  C   UNL A   1      39.685  31.169  33.102  1.00  0.00     0.049 A 
ATOM     84  N   UNL A   1      39.168  33.985  34.764  1.00  0.00    -0.248 NA
ATOM     85  C   UNL A   1      37.334  32.657  35.260  1.00  0.00    -0.034 C 
ATOM     86  C   UNL A   1      39.812  30.078  32.124  1.00  0.00    -0.036 A 
ATOM     87  N   UNL A   1      40.734  30.931  33.934  1.00  0.00    -0.354 N 
ATOM     88  C   UNL A   1      38.636  34.375  35.988  1.00  0.00     0.074 A 
ATOM     89  C   UNL A   1      37.392  33.666  36.131  1.00  0.00    -0.034 C 
ATOM     90  H   UNL A   1      36.648  31.888  35.196  1.00  0.00     0.065 H 
ATOM     91  C   UNL A   1      40.722  29.176  32.556  1.00  0.00    -0.036 A 
ATOM     92  H   UNL A   1      39.284  30.010  31.240  1.00  0.00     0.065 H 
ATOM     93  C   UNL A   1      41.368  29.708  33.739  1.00  0.00     0.049 A 
ATOM     94  H   UNL A   1      41.022  31.575  34.622  1.00  0.00     0.167 HD
ATOM     95  C   UNL A   1      39.411  35.028  36.897  1.00  0.00     0.037 A 
ATOM     96  H   UNL A   1      36.652  33.904  36.810  1.00  0.00     0.065 H 
ATOM     97  H   UNL A   1      40.922  28.264  32.117  1.00  0.00     0.065 H 
ATOM     98  C   UNL A   1      42.340  29.170  34.520  1.00  0.00     0.037 A 
ATOM     99  C   UNL A   1      40.602  35.554  36.271  1.00  0.00     0.049 A 
ATOM    100  C   UNL A   1      42.923  30.284  35.310  1.00  0.00     0.074 A 
ATOM    101  C   UNL A   1      40.845  36.439  35.237  1.00  0.00    -0.036 A 
ATOM    102  N   UNL A   1      41.772  34.854  36.441  1.00  0.00    -0.354 N 
ATOM    103  N   UNL A   1      43.611  31.259  34.783  1.00  0.00    -0.248 NA
ATOM    104  C   UNL A   1      42.323  30.570  36.605  1.00  0.00    -0.034 C 
ATOM    105  C   UNL A   1      41.954  35.884  34.531  1.00  0.00    -0.036 A 
ATOM    106  H   UNL A   1      40.336  37.311  35.024  1.00  0.00     0.065 H 
ATOM    107  C   UNL A   1      42.377  34.745  35.216  1.00  0.00     0.049 A 
ATOM    108  H   UNL A   1      42.115  34.496  37.292  1.00  0.00     0.167 HD
ATOM    109  C   UNL A   1      43.170  32.396  35.444  1.00  0.00     0.074 A 
ATOM    110  C   UNL A   1      42.433  31.901  36.604  1.00  0.00    -0.034 C 
ATOM    111  H   UNL A   1      41.928  29.931  37.313  1.00  0.00     0.065 H 
ATOM    112  H   UNL A   1      42.370  36.260  33.664  1.00  0.00     0.065 H 
ATOM    113  C   UNL A   1      43.186  33.614  34.825  1.00  0.00     0.037 A 
ATOM    114  H   UNL A   1      42.042  32.510  37.340  1.00  0.00     0.065 H 
BRANCH  95 115
ATOM    115  C   UNL A   1      39.317  34.831  38.392  1.00  0.00     0.064 A 
ATOM    116  C   UNL A   1      39.270  35.969  39.221  1.00  0.00     0.173 A 
ATOM    117  C   UNL A   1      39.588  33.611  39.052  1.00  0.00     0.173 A 
ATOM    118  F   UNL A   1      39.031  37.183  38.701  1.00  0.00    -0.203 F 
ATOM    119  C   UNL A   1      39.569  35.903  40.584  1.00  0.00     0.198 A 
ATOM    120  C   UNL A   1      39.831  33.542  40.422  1.00  0.00     0.198 A 
ATOM    121  F   UNL A   1      39.744  32.456  38.396  1.00  0.00    -0.203 F 
ATOM    122  F   UNL A   1      39.649  37.032  41.301  1.00  0.00    -0.200 F 
ATOM    123  C   UNL A   1      39.858  34.691  41.182  1.00  0.00     0.200 A 
ATOM    124  F   UNL A   1      40.126  32.358  40.978  1.00  0.00    -0.200 F 
ATOM    125  F   UNL A   1      40.213  34.634  42.471  1.00  0.00    -0.200 F 
ENDBRANCH  95 115
BRANCH  98 126
ATOM    126  C   UNL A   1      42.567  27.748  34.876  1.00  0.00     0.064 A 
ATOM    127  C   UNL A   1      41.744  27.092  35.806  1.00  0.00     0.173 A 
ATOM    128  C   UNL A   1      43.401  26.924  34.093  1.00  0.00     0.173 A 
ATOM    129  F   UNL A   1      40.886  27.796  36.560  1.00  0.00    -0.203 F 
ATOM    130  C   UNL A   1      41.728  25.697  35.922  1.00  0.00     0.198 A 
ATOM    131  C   UNL A   1      43.388  25.533  34.213  1.00  0.00     0.198 A 
ATOM    132  F   UNL A   1      44.170  27.447  33.126  1.00  0.00    -0.203 F 
ATOM    133  F   UNL A   1      40.878  25.105  36.774  1.00  0.00    -0.200 F 
ATOM    134  C   UNL A   1      42.542  24.918  35.115  1.00  0.00     0.200 A 
ATOM    135  F   UNL A   1      44.150  24.790  33.397  1.00  0.00    -0.200 F 
ATOM    136  F   UNL A   1      42.478  23.581  35.176  1.00  0.00    -0.200 F 
ENDBRANCH  98 126
BRANCH 113 137
ATOM    137  C   UNL A   1      43.934  33.730  33.525  1.00  0.00     0.064 A 
ATOM    138  C   UNL A   1      43.362  33.526  32.257  1.00  0.00     0.173 A 
ATOM    139  C   UNL A   1      45.252  34.205  33.565  1.00  0.00     0.173 A 
ATOM    140  F   UNL A   1      42.080  33.166  32.127  1.00  0.00    -0.203 F 
ATOM    141  C   UNL A   1      44.092  33.747  31.088  1.00  0.00     0.198 A 
ATOM    142  C   UNL A   1      45.966  34.458  32.397  1.00  0.00     0.198 A 
ATOM    143  F   UNL A   1      45.833  34.470  34.746  1.00  0.00    -0.203 F 
ATOM    144  F   UNL A   1      43.525  33.532  29.891  1.00  0.00    -0.200 F 
ATOM    145  C   UNL A   1      45.391  34.219  31.161  1.00  0.00     0.200 A 
ATOM    146  F   UNL A   1      47.206  34.963  32.473  1.00  0.00    -0.200 F 
ATOM    147  F   UNL A   1      46.080  34.468  30.038  1.00  0.00    -0.200 F 
ENDBRANCH 113 137
ENDBRANCH  78  81
ENDBRANCH  68  71
ENDBRANCH  64  67
ENDBRANCH  61  64
ENDBRANCH  58  61
ENDBRANCH  55  58
ENDBRANCH   1  55
TORSDOF 20
ENDMDL
MODEL 4
REMARK VINA RESULT:     -11.4      5.298     11.137
REMARK SMILES C/C(=N\Nc1nc(-c2ccc(Cl)cc2)cs1)c1nnn(-c2ccc(C(=O)NCCCCCCNC(=O)c3ccc(-c4c5nc(c(-c6c(F)c(F)c(F)c(F)c6F)c6ccc([nH]6)c(-c6c(F)c(F)c(F)c(F)c6F)c6nc(c(-c7c(F)c(F)c(F)c(F)c7F)c7ccc4[nH]7)C=C6)C=C5)cc3)cc2)c1C
REMARK SMILES IDX 29 1 28 4 27 7 25 8 26 9 24 11 21 12 22 13 101 14 23 15
REMARK SMILES IDX 100 17 20 21 17 22 18 23 102 24 19 25 2 26 3 27 1 28 4 32
REMARK SMILES IDX 5 34 6 35 16 36 7 37 15 38 8 40 9 41 14 42 10 43 13 45 11 47
REMARK SMILES IDX 12 50 103 51 30 55 31 58 32 61 33 64 34 67 35 68 36 70 37 71
REMARK SMILES IDX 38 72 99 73 39 74 98 76 40 78 41 81 42 82 92 83 43 84 97 85
REMARK SMILES IDX 91 86 93 87 44 88 96 89 90 91 89 93 45 95 77 98 57 99 76 100
REMARK SMILES IDX 58 101 61 102 75 103 94 104 59 105 60 107 74 109 95 110
REMARK SMILES IDX 62 113 46 115 47 116 55 117 48 118 49 119 53 120 56 121
REMARK SMILES IDX 50 122 51 123 54 124 52 125 78 126 79 127 87 128 80 129
REMARK SMILES IDX 81 130 85 131 88 132 82 133 83 134 86 135 84 136 63 137
REMARK SMILES IDX 64 138 72 139 65 140 66 141 70 142 73 143 67 144 68 145
REMARK SMILES IDX 71 146 69 147
REMARK H PARENT 29 2 29 3 28 5 28 6 27 10 22 16 101 18 23 19 100 20 1 29 1 30
REMARK H PARENT 1 31 4 33 15 39 9 44 14 46 10 48 13 49 103 52 103 53 103 54
REMARK H PARENT 30 56 30 57 31 59 31 60 32 62 32 63 33 65 33 66 34 69 38 75
REMARK H PARENT 99 77 39 79 98 80 97 90 91 92 93 94 96 96 90 97 58 106 61 108
REMARK H PARENT 94 111 59 112 95 114
REMARK Flexibility Score: inf
ROOT
ATOM      1  C   UNL A   1      37.313  30.889  33.222  1.00  0.00    -0.036 C 
ATOM      2  H   UNL A   1      36.295  30.847  33.547  1.00  0.00     0.028 H 
ATOM      3  H   UNL A   1      37.518  30.191  32.437  1.00  0.00     0.028 H 
ENDROOT
BRANCH   1   4
ATOM      4  C   UNL A   1      38.213  30.517  34.403  1.00  0.00     0.018 C 
ATOM      5  H   UNL A   1      38.124  29.469  34.597  1.00  0.00     0.049 H 
ATOM      6  H   UNL A   1      39.226  30.761  34.156  1.00  0.00     0.049 H 
BRANCH   4   7
ATOM      7  N   UNL A   1      37.827  31.258  35.590  1.00  0.00    -0.352 N 
ATOM      8  C   UNL A   1      38.335  32.375  36.205  1.00  0.00     0.251 C 
ATOM      9  O   UNL A   1      37.757  32.791  37.209  1.00  0.00    -0.269 OA
ATOM     10  H   UNL A   1      37.039  30.884  36.047  1.00  0.00     0.163 HD
BRANCH   8  11
ATOM     11  C   UNL A   1      39.492  33.145  35.666  1.00  0.00     0.039 A 
ATOM     12  C   UNL A   1      41.478  34.525  34.284  1.00  0.00     0.067 A 
ATOM     13  C   UNL A   1      40.225  35.119  34.427  1.00  0.00    -0.036 A 
ATOM     14  C   UNL A   1      41.786  33.327  34.934  1.00  0.00    -0.036 A 
ATOM     15  C   UNL A   1      39.227  34.407  35.101  1.00  0.00    -0.047 A 
ATOM     16  H   UNL A   1      40.039  36.059  34.046  1.00  0.00     0.065 H 
ATOM     17  C   UNL A   1      40.803  32.668  35.668  1.00  0.00    -0.047 A 
ATOM     18  H   UNL A   1      42.738  32.931  34.870  1.00  0.00     0.065 H 
ATOM     19  H   UNL A   1      38.282  34.815  35.185  1.00  0.00     0.063 H 
ATOM     20  H   UNL A   1      41.045  31.827  36.214  1.00  0.00     0.063 H 
BRANCH  12  21
ATOM     21  N   UNL A   1      42.388  35.026  33.339  1.00  0.00    -0.217 N 
ATOM     22  C   UNL A   1      43.520  35.411  31.523  1.00  0.00     0.132 A 
ATOM     23  N   UNL A   1      43.995  36.220  32.523  1.00  0.00    -0.128 NA
ATOM     24  C   UNL A   1      42.480  34.640  32.017  1.00  0.00     0.071 A 
ATOM     25  N   UNL A   1      43.231  36.043  33.597  1.00  0.00    -0.061 NA
BRANCH  22  26
ATOM     26  C   UNL A   1      43.973  35.458  30.139  1.00  0.00     0.087 C 
ATOM     27  N   UNL A   1      43.332  36.277  29.352  1.00  0.00    -0.176 NA
BRANCH  26  28
ATOM     28  C   UNL A   1      45.179  34.606  29.835  1.00  0.00    -0.018 C 
ATOM     29  H   UNL A   1      45.911  34.734  30.606  1.00  0.00     0.030 H 
ATOM     30  H   UNL A   1      45.597  34.901  28.895  1.00  0.00     0.030 H 
ATOM     31  H   UNL A   1      44.887  33.577  29.789  1.00  0.00     0.030 H 
ENDBRANCH  26  28
BRANCH  27  32
ATOM     32  N   UNL A   1      43.711  36.582  28.062  1.00  0.00    -0.252 N 
ATOM     33  H   UNL A   1      43.385  35.949  27.382  1.00  0.00     0.193 HD
BRANCH  32  34
ATOM     34  C   UNL A   1      44.453  37.605  27.568  1.00  0.00     0.203 A 
ATOM     35  N   UNL A   1      44.026  38.819  27.314  1.00  0.00    -0.219 NA
ATOM     36  S   UNL A   1      46.104  37.347  27.122  1.00  0.00    -0.103 S 
ATOM     37  C   UNL A   1      44.887  39.466  26.452  1.00  0.00     0.084 A 
ATOM     38  C   UNL A   1      46.081  38.815  26.226  1.00  0.00     0.021 A 
ATOM     39  H   UNL A   1      46.841  39.155  25.616  1.00  0.00     0.076 H 
BRANCH  37  40
ATOM     40  C   UNL A   1      44.459  40.686  25.792  1.00  0.00     0.001 A 
ATOM     41  C   UNL A   1      43.090  40.952  25.654  1.00  0.00    -0.051 A 
ATOM     42  C   UNL A   1      45.389  41.544  25.187  1.00  0.00    -0.051 A 
ATOM     43  C   UNL A   1      42.655  42.079  24.954  1.00  0.00    -0.043 A 
ATOM     44  H   UNL A   1      42.399  40.310  26.073  1.00  0.00     0.063 H 
ATOM     45  C   UNL A   1      44.952  42.666  24.475  1.00  0.00    -0.043 A 
ATOM     46  H   UNL A   1      46.399  41.347  25.267  1.00  0.00     0.063 H 
ATOM     47  C   UNL A   1      43.588  42.933  24.369  1.00  0.00     0.041 A 
ATOM     48  H   UNL A   1      41.645  42.279  24.869  1.00  0.00     0.064 H 
ATOM     49  H   UNL A   1      45.638  43.295  24.030  1.00  0.00     0.064 H 
ATOM     50  Cl  UNL A   1      43.054  44.316  23.498  1.00  0.00    -0.084 Cl
ENDBRANCH  37  40
ENDBRANCH  32  34
ENDBRANCH  27  32
ENDBRANCH  22  26
BRANCH  24  51
ATOM     51  C   UNL A   1      41.529  33.710  31.352  1.00  0.00    -0.020 C 
ATOM     52  H   UNL A   1      40.909  33.245  32.090  1.00  0.00     0.030 H 
ATOM     53  H   UNL A   1      42.077  32.958  30.823  1.00  0.00     0.030 H 
ATOM     54  H   UNL A   1      40.916  34.257  30.665  1.00  0.00     0.030 H 
ENDBRANCH  24  51
ENDBRANCH  12  21
ENDBRANCH   8  11
ENDBRANCH   4   7
ENDBRANCH   1   4
BRANCH   1  55
ATOM     55  C   UNL A   1      37.586  32.292  32.661  1.00  0.00    -0.052 C 
ATOM     56  H   UNL A   1      37.760  32.197  31.609  1.00  0.00     0.027 H 
ATOM     57  H   UNL A   1      38.427  32.665  33.208  1.00  0.00     0.027 H 
BRANCH  55  58
ATOM     58  C   UNL A   1      36.463  33.323  32.865  1.00  0.00    -0.052 C 
ATOM     59  H   UNL A   1      36.920  34.250  33.145  1.00  0.00     0.027 H 
ATOM     60  H   UNL A   1      35.822  32.900  33.610  1.00  0.00     0.027 H 
BRANCH  58  61
ATOM     61  C   UNL A   1      35.555  33.597  31.657  1.00  0.00    -0.036 C 
ATOM     62  H   UNL A   1      36.170  33.889  30.831  1.00  0.00     0.028 H 
ATOM     63  H   UNL A   1      34.871  34.367  31.946  1.00  0.00     0.028 H 
BRANCH  61  64
ATOM     64  C   UNL A   1      34.722  32.398  31.235  1.00  0.00     0.018 C 
ATOM     65  H   UNL A   1      33.781  32.438  31.744  1.00  0.00     0.049 H 
ATOM     66  H   UNL A   1      35.271  31.516  31.489  1.00  0.00     0.049 H 
BRANCH  64  67
ATOM     67  N   UNL A   1      34.472  32.365  29.788  1.00  0.00    -0.352 N 
ATOM     68  C   UNL A   1      35.344  32.041  28.769  1.00  0.00     0.251 C 
ATOM     69  H   UNL A   1      33.560  32.607  29.508  1.00  0.00     0.163 HD
ATOM     70  O   UNL A   1      35.134  32.412  27.610  1.00  0.00    -0.269 OA
BRANCH  68  71
ATOM     71  C   UNL A   1      36.527  31.228  29.079  1.00  0.00     0.039 A 
ATOM     72  C   UNL A   1      36.494  29.833  29.159  1.00  0.00    -0.049 A 
ATOM     73  C   UNL A   1      37.717  31.919  29.259  1.00  0.00    -0.049 A 
ATOM     74  C   UNL A   1      37.692  29.153  29.368  1.00  0.00    -0.053 A 
ATOM     75  H   UNL A   1      35.604  29.319  29.066  1.00  0.00     0.063 H 
ATOM     76  C   UNL A   1      38.900  31.250  29.186  1.00  0.00    -0.053 A 
ATOM     77  H   UNL A   1      37.706  32.934  29.446  1.00  0.00     0.063 H 
ATOM     78  C   UNL A   1      38.893  29.879  29.372  1.00  0.00    -0.014 A 
ATOM     79  H   UNL A   1      37.697  28.132  29.517  1.00  0.00     0.063 H 
ATOM     80  H   UNL A   1      39.781  31.753  28.997  1.00  0.00     0.063 H 
BRANCH  78  81
ATOM     81  C   UNL A   1      40.196  29.246  29.489  1.00  0.00     0.031 A 
ATOM     82  C   UNL A   1      40.625  29.018  30.888  1.00  0.00     0.074 A 
ATOM     83  C   UNL A   1      40.821  28.691  28.425  1.00  0.00     0.049 A 
ATOM     84  N   UNL A   1      41.595  29.594  31.514  1.00  0.00    -0.248 NA
ATOM     85  C   UNL A   1      39.779  28.172  31.748  1.00  0.00    -0.034 C 
ATOM     86  C   UNL A   1      40.340  28.561  27.041  1.00  0.00    -0.036 A 
ATOM     87  N   UNL A   1      42.001  28.017  28.382  1.00  0.00    -0.354 N 
ATOM     88  C   UNL A   1      41.623  29.018  32.779  1.00  0.00     0.074 A 
ATOM     89  C   UNL A   1      40.372  28.325  32.934  1.00  0.00    -0.034 C 
ATOM     90  H   UNL A   1      38.950  27.610  31.500  1.00  0.00     0.065 H 
ATOM     91  C   UNL A   1      41.098  27.664  26.372  1.00  0.00    -0.036 A 
ATOM     92  H   UNL A   1      39.542  29.078  26.640  1.00  0.00     0.065 H 
ATOM     93  C   UNL A   1      42.217  27.292  27.213  1.00  0.00     0.049 A 
ATOM     94  H   UNL A   1      42.653  28.040  29.120  1.00  0.00     0.167 HD
ATOM     95  C   UNL A   1      42.795  28.928  33.466  1.00  0.00     0.037 A 
ATOM     96  H   UNL A   1      39.989  27.993  33.833  1.00  0.00     0.065 H 
ATOM     97  H   UNL A   1      40.912  27.306  25.422  1.00  0.00     0.065 H 
ATOM     98  C   UNL A   1      43.239  26.429  26.978  1.00  0.00     0.037 A 
ATOM     99  C   UNL A   1      43.789  29.811  32.902  1.00  0.00     0.049 A 
ATOM    100  C   UNL A   1      44.306  26.745  27.961  1.00  0.00     0.074 A 
ATOM    101  C   UNL A   1      43.869  31.175  32.692  1.00  0.00    -0.036 A 
ATOM    102  N   UNL A   1      44.743  29.255  32.083  1.00  0.00    -0.354 N 
ATOM    103  N   UNL A   1      44.985  27.860  27.954  1.00  0.00    -0.248 NA
ATOM    104  C   UNL A   1      44.272  26.040  29.233  1.00  0.00    -0.034 C 
ATOM    105  C   UNL A   1      44.502  31.316  31.421  1.00  0.00    -0.036 A 
ATOM    106  H   UNL A   1      43.542  31.928  33.319  1.00  0.00     0.065 H 
ATOM    107  C   UNL A   1      44.847  30.043  30.966  1.00  0.00     0.049 A 
ATOM    108  H   UNL A   1      45.259  28.438  32.266  1.00  0.00     0.167 HD
ATOM    109  C   UNL A   1      45.083  28.217  29.291  1.00  0.00     0.074 A 
ATOM    110  C   UNL A   1      44.691  27.022  30.035  1.00  0.00    -0.034 C 
ATOM    111  H   UNL A   1      44.002  25.067  29.450  1.00  0.00     0.065 H 
ATOM    112  H   UNL A   1      44.673  32.205  30.924  1.00  0.00     0.065 H 
ATOM    113  C   UNL A   1      45.178  29.530  29.658  1.00  0.00     0.037 A 
ATOM    114  H   UNL A   1      44.733  26.946  31.063  1.00  0.00     0.065 H 
BRANCH  95 115
ATOM    115  C   UNL A   1      43.173  27.764  34.352  1.00  0.00     0.064 A 
ATOM    116  C   UNL A   1      43.479  28.017  35.705  1.00  0.00     0.173 A 
ATOM    117  C   UNL A   1      43.554  26.490  33.873  1.00  0.00     0.173 A 
ATOM    118  F   UNL A   1      43.174  29.198  36.263  1.00  0.00    -0.203 F 
ATOM    119  C   UNL A   1      44.195  27.106  36.483  1.00  0.00     0.198 A 
ATOM    120  C   UNL A   1      44.219  25.562  34.670  1.00  0.00     0.198 A 
ATOM    121  F   UNL A   1      43.406  26.128  32.595  1.00  0.00    -0.203 F 
ATOM    122  F   UNL A   1      44.584  27.449  37.719  1.00  0.00    -0.200 F 
ATOM    123  C   UNL A   1      44.573  25.882  35.962  1.00  0.00     0.200 A 
ATOM    124  F   UNL A   1      44.592  24.388  34.139  1.00  0.00    -0.200 F 
ATOM    125  F   UNL A   1      45.320  25.035  36.683  1.00  0.00    -0.200 F 
ENDBRANCH  95 115
BRANCH  98 126
ATOM    126  C   UNL A   1      43.226  25.159  26.209  1.00  0.00     0.064 A 
ATOM    127  C   UNL A   1      44.214  24.883  25.250  1.00  0.00     0.173 A 
ATOM    128  C   UNL A   1      42.427  24.071  26.611  1.00  0.00     0.173 A 
ATOM    129  F   UNL A   1      45.049  25.852  24.844  1.00  0.00    -0.203 F 
ATOM    130  C   UNL A   1      44.414  23.591  24.748  1.00  0.00     0.198 A 
ATOM    131  C   UNL A   1      42.624  22.783  26.107  1.00  0.00     0.198 A 
ATOM    132  F   UNL A   1      41.506  24.215  27.576  1.00  0.00    -0.203 F 
ATOM    133  F   UNL A   1      45.412  23.355  23.884  1.00  0.00    -0.200 F 
ATOM    134  C   UNL A   1      43.627  22.540  25.188  1.00  0.00     0.200 A 
ATOM    135  F   UNL A   1      41.882  21.768  26.573  1.00  0.00    -0.200 F 
ATOM    136  F   UNL A   1      43.861  21.292  24.762  1.00  0.00    -0.200 F 
ENDBRANCH  98 126
BRANCH 113 137
ATOM    137  C   UNL A   1      45.441  30.542  28.577  1.00  0.00     0.064 A 
ATOM    138  C   UNL A   1      44.439  31.182  27.824  1.00  0.00     0.173 A 
ATOM    139  C   UNL A   1      46.758  30.983  28.394  1.00  0.00     0.173 A 
ATOM    140  F   UNL A   1      43.146  30.890  28.006  1.00  0.00    -0.203 F 
ATOM    141  C   UNL A   1      44.751  32.183  26.904  1.00  0.00     0.198 A 
ATOM    142  C   UNL A   1      47.063  32.006  27.502  1.00  0.00     0.198 A 
ATOM    143  F   UNL A   1      47.750  30.447  29.123  1.00  0.00    -0.203 F 
ATOM    144  F   UNL A   1      43.777  32.768  26.191  1.00  0.00    -0.200 F 
ATOM    145  C   UNL A   1      46.062  32.598  26.750  1.00  0.00     0.200 A 
ATOM    146  F   UNL A   1      48.328  32.438  27.393  1.00  0.00    -0.200 F 
ATOM    147  F   UNL A   1      46.359  33.587  25.895  1.00  0.00    -0.200 F 
ENDBRANCH 113 137
ENDBRANCH  78  81
ENDBRANCH  68  71
ENDBRANCH  64  67
ENDBRANCH  61  64
ENDBRANCH  58  61
ENDBRANCH  55  58
ENDBRANCH   1  55
TORSDOF 20
ENDMDL
MODEL 5
REMARK VINA RESULT:     -11.4      3.643      6.911
REMARK SMILES C/C(=N\Nc1nc(-c2ccc(Cl)cc2)cs1)c1nnn(-c2ccc(C(=O)NCCCCCCNC(=O)c3ccc(-c4c5nc(c(-c6c(F)c(F)c(F)c(F)c6F)c6ccc([nH]6)c(-c6c(F)c(F)c(F)c(F)c6F)c6nc(c(-c7c(F)c(F)c(F)c(F)c7F)c7ccc4[nH]7)C=C6)C=C5)cc3)cc2)c1C
REMARK SMILES IDX 29 1 28 4 27 7 25 8 26 9 24 11 21 12 22 13 101 14 23 15
REMARK SMILES IDX 100 17 20 21 17 22 18 23 102 24 19 25 2 26 3 27 1 28 4 32
REMARK SMILES IDX 5 34 6 35 16 36 7 37 15 38 8 40 9 41 14 42 10 43 13 45 11 47
REMARK SMILES IDX 12 50 103 51 30 55 31 58 32 61 33 64 34 67 35 68 36 70 37 71
REMARK SMILES IDX 38 72 99 73 39 74 98 76 40 78 41 81 42 82 92 83 43 84 97 85
REMARK SMILES IDX 91 86 93 87 44 88 96 89 90 91 89 93 45 95 77 98 57 99 76 100
REMARK SMILES IDX 58 101 61 102 75 103 94 104 59 105 60 107 74 109 95 110
REMARK SMILES IDX 62 113 46 115 47 116 55 117 48 118 49 119 53 120 56 121
REMARK SMILES IDX 50 122 51 123 54 124 52 125 78 126 79 127 87 128 80 129
REMARK SMILES IDX 81 130 85 131 88 132 82 133 83 134 86 135 84 136 63 137
REMARK SMILES IDX 64 138 72 139 65 140 66 141 70 142 73 143 67 144 68 145
REMARK SMILES IDX 71 146 69 147
REMARK H PARENT 29 2 29 3 28 5 28 6 27 10 22 16 101 18 23 19 100 20 1 29 1 30
REMARK H PARENT 1 31 4 33 15 39 9 44 14 46 10 48 13 49 103 52 103 53 103 54
REMARK H PARENT 30 56 30 57 31 59 31 60 32 62 32 63 33 65 33 66 34 69 38 75
REMARK H PARENT 99 77 39 79 98 80 97 90 91 92 93 94 96 96 90 97 58 106 61 108
REMARK H PARENT 94 111 59 112 95 114
REMARK Flexibility Score: inf
ROOT
ATOM      1  C   UNL A   1      37.182  21.209  24.842  1.00  0.00    -0.036 C 
ATOM      2  H   UNL A   1      37.196  22.181  24.395  1.00  0.00     0.028 H 
ATOM      3  H   UNL A   1      37.209  20.426  24.113  1.00  0.00     0.028 H 
ENDROOT
BRANCH   1   4
ATOM      4  C   UNL A   1      35.874  21.054  25.622  1.00  0.00     0.018 C 
ATOM      5  H   UNL A   1      36.097  20.829  26.643  1.00  0.00     0.049 H 
ATOM      6  H   UNL A   1      35.322  21.969  25.558  1.00  0.00     0.049 H 
BRANCH   4   7
ATOM      7  N   UNL A   1      35.072  19.981  25.059  1.00  0.00    -0.352 N 
ATOM      8  C   UNL A   1      33.796  19.929  24.557  1.00  0.00     0.251 C 
ATOM      9  O   UNL A   1      33.396  18.851  24.116  1.00  0.00    -0.269 OA
ATOM     10  H   UNL A   1      35.539  19.115  25.033  1.00  0.00     0.163 HD
BRANCH   8  11
ATOM     11  C   UNL A   1      32.916  21.127  24.445  1.00  0.00     0.039 A 
ATOM     12  C   UNL A   1      31.627  23.586  24.227  1.00  0.00     0.067 A 
ATOM     13  C   UNL A   1      32.292  23.078  23.113  1.00  0.00    -0.036 A 
ATOM     14  C   UNL A   1      31.484  22.826  25.391  1.00  0.00    -0.036 A 
ATOM     15  C   UNL A   1      32.958  21.854  23.239  1.00  0.00    -0.047 A 
ATOM     16  H   UNL A   1      32.293  23.591  22.218  1.00  0.00     0.065 H 
ATOM     17  C   UNL A   1      32.087  21.574  25.474  1.00  0.00    -0.047 A 
ATOM     18  H   UNL A   1      30.935  23.191  26.185  1.00  0.00     0.065 H 
ATOM     19  H   UNL A   1      33.487  21.478  22.436  1.00  0.00     0.063 H 
ATOM     20  H   UNL A   1      31.919  20.975  26.297  1.00  0.00     0.063 H 
BRANCH  12  21
ATOM     21  N   UNL A   1      31.250  24.939  24.262  1.00  0.00    -0.217 N 
ATOM     22  C   UNL A   1      31.205  27.092  24.559  1.00  0.00     0.132 A 
ATOM     23  N   UNL A   1      30.021  26.698  23.993  1.00  0.00    -0.128 NA
ATOM     24  C   UNL A   1      32.018  25.983  24.734  1.00  0.00     0.071 A 
ATOM     25  N   UNL A   1      30.102  25.396  23.728  1.00  0.00    -0.061 NA
BRANCH  22  26
ATOM     26  C   UNL A   1      31.574  28.478  24.817  1.00  0.00     0.087 C 
ATOM     27  N   UNL A   1      32.634  28.663  25.555  1.00  0.00    -0.176 NA
BRANCH  26  28
ATOM     28  C   UNL A   1      30.716  29.505  24.123  1.00  0.00    -0.018 C 
ATOM     29  H   UNL A   1      30.955  30.480  24.496  1.00  0.00     0.030 H 
ATOM     30  H   UNL A   1      29.684  29.295  24.311  1.00  0.00     0.030 H 
ATOM     31  H   UNL A   1      30.902  29.473  23.069  1.00  0.00     0.030 H 
ENDBRANCH  26  28
BRANCH  27  32
ATOM     32  N   UNL A   1      33.232  29.885  25.775  1.00  0.00    -0.252 N 
ATOM     33  H   UNL A   1      33.257  30.474  24.987  1.00  0.00     0.193 HD
BRANCH  32  34
ATOM     34  C   UNL A   1      33.792  30.417  26.891  1.00  0.00     0.203 A 
ATOM     35  N   UNL A   1      33.315  31.416  27.595  1.00  0.00    -0.219 NA
ATOM     36  S   UNL A   1      35.322  29.841  27.458  1.00  0.00    -0.103 S 
ATOM     37  C   UNL A   1      34.302  31.969  28.383  1.00  0.00     0.084 A 
ATOM     38  C   UNL A   1      35.475  31.247  28.437  1.00  0.00     0.021 A 
ATOM     39  H   UNL A   1      36.313  31.508  28.980  1.00  0.00     0.076 H 
BRANCH  37  40
ATOM     40  C   UNL A   1      34.087  33.266  28.999  1.00  0.00     0.001 A 
ATOM     41  C   UNL A   1      34.552  33.498  30.300  1.00  0.00    -0.051 A 
ATOM     42  C   UNL A   1      33.322  34.251  28.357  1.00  0.00    -0.051 A 
ATOM     43  C   UNL A   1      34.288  34.710  30.941  1.00  0.00    -0.043 A 
ATOM     44  H   UNL A   1      35.092  32.767  30.788  1.00  0.00     0.063 H 
ATOM     45  C   UNL A   1      33.046  35.460  29.004  1.00  0.00    -0.043 A 
ATOM     46  H   UNL A   1      32.960  34.083  27.406  1.00  0.00     0.063 H 
ATOM     47  C   UNL A   1      33.538  35.687  30.289  1.00  0.00     0.041 A 
ATOM     48  H   UNL A   1      34.646  34.882  31.894  1.00  0.00     0.064 H 
ATOM     49  H   UNL A   1      32.482  36.183  28.531  1.00  0.00     0.064 H 
ATOM     50  Cl  UNL A   1      33.203  37.177  31.080  1.00  0.00    -0.084 Cl
ENDBRANCH  37  40
ENDBRANCH  32  34
ENDBRANCH  27  32
ENDBRANCH  22  26
BRANCH  24  51
ATOM     51  C   UNL A   1      33.434  25.847  25.169  1.00  0.00    -0.020 C 
ATOM     52  H   UNL A   1      33.963  25.230  24.474  1.00  0.00     0.030 H 
ATOM     53  H   UNL A   1      33.467  25.400  26.141  1.00  0.00     0.030 H 
ATOM     54  H   UNL A   1      33.890  26.815  25.205  1.00  0.00     0.030 H 
ENDBRANCH  24  51
ENDBRANCH  12  21
ENDBRANCH   8  11
ENDBRANCH   4   7
ENDBRANCH   1   4
BRANCH   1  55
ATOM     55  C   UNL A   1      38.437  21.058  25.713  1.00  0.00    -0.052 C 
ATOM     56  H   UNL A   1      39.127  20.430  25.190  1.00  0.00     0.027 H 
ATOM     57  H   UNL A   1      38.098  20.651  26.643  1.00  0.00     0.027 H 
BRANCH  55  58
ATOM     58  C   UNL A   1      39.164  22.366  26.070  1.00  0.00    -0.052 C 
ATOM     59  H   UNL A   1      39.681  22.700  25.194  1.00  0.00     0.027 H 
ATOM     60  H   UNL A   1      39.800  22.121  26.895  1.00  0.00     0.027 H 
BRANCH  58  61
ATOM     61  C   UNL A   1      38.287  23.526  26.565  1.00  0.00    -0.036 C 
ATOM     62  H   UNL A   1      37.828  23.234  27.486  1.00  0.00     0.028 H 
ATOM     63  H   UNL A   1      37.568  23.726  25.798  1.00  0.00     0.028 H 
BRANCH  61  64
ATOM     64  C   UNL A   1      39.056  24.815  26.800  1.00  0.00     0.018 C 
ATOM     65  H   UNL A   1      39.373  24.844  27.822  1.00  0.00     0.049 H 
ATOM     66  H   UNL A   1      38.403  25.631  26.566  1.00  0.00     0.049 H 
BRANCH  64  67
ATOM     67  N   UNL A   1      40.239  24.932  25.937  1.00  0.00    -0.352 N 
ATOM     68  C   UNL A   1      41.162  25.956  25.873  1.00  0.00     0.251 C 
ATOM     69  H   UNL A   1      40.394  24.179  25.323  1.00  0.00     0.163 HD
ATOM     70  O   UNL A   1      41.869  26.113  24.872  1.00  0.00    -0.269 OA
BRANCH  68  71
ATOM     71  C   UNL A   1      41.307  26.854  27.025  1.00  0.00     0.039 A 
ATOM     72  C   UNL A   1      41.846  26.446  28.249  1.00  0.00    -0.049 A 
ATOM     73  C   UNL A   1      40.907  28.170  26.833  1.00  0.00    -0.049 A 
ATOM     74  C   UNL A   1      42.024  27.402  29.246  1.00  0.00    -0.053 A 
ATOM     75  H   UNL A   1      42.106  25.460  28.408  1.00  0.00     0.063 H 
ATOM     76  C   UNL A   1      41.332  29.134  27.694  1.00  0.00    -0.053 A 
ATOM     77  H   UNL A   1      40.293  28.415  26.041  1.00  0.00     0.063 H 
ATOM     78  C   UNL A   1      41.767  28.749  28.949  1.00  0.00    -0.014 A 
ATOM     79  H   UNL A   1      42.339  27.124  30.189  1.00  0.00     0.063 H 
ATOM     80  H   UNL A   1      41.329  30.128  27.417  1.00  0.00     0.063 H 
BRANCH  78  81
ATOM     81  C   UNL A   1      42.013  29.825  29.895  1.00  0.00     0.031 A 
ATOM     82  C   UNL A   1      40.828  30.189  30.706  1.00  0.00     0.074 A 
ATOM     83  C   UNL A   1      43.263  30.259  30.179  1.00  0.00     0.049 A 
ATOM     84  N   UNL A   1      40.154  31.288  30.658  1.00  0.00    -0.248 NA
ATOM     85  C   UNL A   1      40.217  29.150  31.553  1.00  0.00    -0.034 C 
ATOM     86  C   UNL A   1      44.549  29.745  29.681  1.00  0.00    -0.036 A 
ATOM     87  N   UNL A   1      43.659  31.204  31.073  1.00  0.00    -0.354 N 
ATOM     88  C   UNL A   1      39.168  31.168  31.631  1.00  0.00     0.074 A 
ATOM     89  C   UNL A   1      39.121  29.775  31.988  1.00  0.00    -0.034 C 
ATOM     90  H   UNL A   1      40.548  28.194  31.757  1.00  0.00     0.065 H 
ATOM     91  C   UNL A   1      45.560  30.216  30.446  1.00  0.00    -0.036 A 
ATOM     92  H   UNL A   1      44.663  29.119  28.869  1.00  0.00     0.065 H 
ATOM     93  C   UNL A   1      45.020  31.196  31.366  1.00  0.00     0.049 A 
ATOM     94  H   UNL A   1      43.031  31.844  31.481  1.00  0.00     0.167 HD
ATOM     95  C   UNL A   1      38.683  32.275  32.257  1.00  0.00     0.037 A 
ATOM     96  H   UNL A   1      38.351  29.324  32.506  1.00  0.00     0.065 H 
ATOM     97  H   UNL A   1      46.548  29.927  30.384  1.00  0.00     0.065 H 
ATOM     98  C   UNL A   1      45.641  31.933  32.322  1.00  0.00     0.037 A 
ATOM     99  C   UNL A   1      39.021  33.470  31.519  1.00  0.00     0.049 A 
ATOM    100  C   UNL A   1      44.732  33.057  32.660  1.00  0.00     0.074 A 
ATOM    101  C   UNL A   1      38.766  33.925  30.239  1.00  0.00    -0.036 A 
ATOM    102  N   UNL A   1      40.077  34.222  31.974  1.00  0.00    -0.354 N 
ATOM    103  N   UNL A   1      44.435  34.020  31.830  1.00  0.00    -0.248 NA
ATOM    104  C   UNL A   1      43.775  32.841  33.736  1.00  0.00    -0.034 C 
ATOM    105  C   UNL A   1      39.976  34.558  29.825  1.00  0.00    -0.036 A 
ATOM    106  H   UNL A   1      37.891  33.828  29.700  1.00  0.00     0.065 H 
ATOM    107  C   UNL A   1      40.868  34.529  30.898  1.00  0.00     0.049 A 
ATOM    108  H   UNL A   1      40.238  34.492  32.908  1.00  0.00     0.167 HD
ATOM    109  C   UNL A   1      43.076  34.228  32.007  1.00  0.00     0.074 A 
ATOM    110  C   UNL A   1      42.740  33.527  33.244  1.00  0.00    -0.034 C 
ATOM    111  H   UNL A   1      43.871  32.314  34.618  1.00  0.00     0.065 H 
ATOM    112  H   UNL A   1      40.160  34.965  28.894  1.00  0.00     0.065 H 
ATOM    113  C   UNL A   1      42.300  34.689  30.981  1.00  0.00     0.037 A 
ATOM    114  H   UNL A   1      41.808  33.557  33.688  1.00  0.00     0.065 H 
BRANCH  95 115
ATOM    115  C   UNL A   1      38.288  32.324  33.714  1.00  0.00     0.064 A 
ATOM    116  C   UNL A   1      37.059  32.922  34.061  1.00  0.00     0.173 A 
ATOM    117  C   UNL A   1      39.180  32.106  34.788  1.00  0.00     0.173 A 
ATOM    118  F   UNL A   1      36.140  33.187  33.120  1.00  0.00    -0.203 F 
ATOM    119  C   UNL A   1      36.790  33.356  35.361  1.00  0.00     0.198 A 
ATOM    120  C   UNL A   1      38.884  32.490  36.095  1.00  0.00     0.198 A 
ATOM    121  F   UNL A   1      40.414  31.621  34.613  1.00  0.00    -0.203 F 
ATOM    122  F   UNL A   1      35.669  34.045  35.611  1.00  0.00    -0.200 F 
ATOM    123  C   UNL A   1      37.706  33.148  36.375  1.00  0.00     0.200 A 
ATOM    124  F   UNL A   1      39.794  32.294  37.059  1.00  0.00    -0.200 F 
ATOM    125  F   UNL A   1      37.481  33.624  37.606  1.00  0.00    -0.200 F 
ENDBRANCH  95 115
BRANCH  98 126
ATOM    126  C   UNL A   1      46.787  31.559  33.188  1.00  0.00     0.064 A 
ATOM    127  C   UNL A   1      46.680  30.513  34.120  1.00  0.00     0.173 A 
ATOM    128  C   UNL A   1      48.091  32.014  32.910  1.00  0.00     0.173 A 
ATOM    129  F   UNL A   1      45.479  29.988  34.409  1.00  0.00    -0.203 F 
ATOM    130  C   UNL A   1      47.809  29.934  34.711  1.00  0.00     0.198 A 
ATOM    131  C   UNL A   1      49.217  31.440  33.504  1.00  0.00     0.198 A 
ATOM    132  F   UNL A   1      48.305  32.958  31.981  1.00  0.00    -0.203 F 
ATOM    133  F   UNL A   1      47.669  28.892  35.544  1.00  0.00    -0.200 F 
ATOM    134  C   UNL A   1      49.078  30.390  34.392  1.00  0.00     0.200 A 
ATOM    135  F   UNL A   1      50.440  31.863  33.155  1.00  0.00    -0.200 F 
ATOM    136  F   UNL A   1      50.162  29.792  34.904  1.00  0.00    -0.200 F 
ENDBRANCH  98 126
BRANCH 113 137
ATOM    137  C   UNL A   1      42.999  35.213  29.756  1.00  0.00     0.064 A 
ATOM    138  C   UNL A   1      43.551  36.502  29.643  1.00  0.00     0.173 A 
ATOM    139  C   UNL A   1      43.238  34.320  28.703  1.00  0.00     0.173 A 
ATOM    140  F   UNL A   1      43.452  37.385  30.643  1.00  0.00    -0.203 F 
ATOM    141  C   UNL A   1      44.270  36.886  28.511  1.00  0.00     0.198 A 
ATOM    142  C   UNL A   1      43.986  34.694  27.591  1.00  0.00     0.198 A 
ATOM    143  F   UNL A   1      42.782  33.059  28.778  1.00  0.00    -0.203 F 
ATOM    144  F   UNL A   1      44.776  38.126  28.425  1.00  0.00    -0.200 F 
ATOM    145  C   UNL A   1      44.492  35.979  27.490  1.00  0.00     0.200 A 
ATOM    146  F   UNL A   1      44.240  33.796  26.628  1.00  0.00    -0.200 F 
ATOM    147  F   UNL A   1      45.217  36.335  26.419  1.00  0.00    -0.200 F 
ENDBRANCH 113 137
ENDBRANCH  78  81
ENDBRANCH  68  71
ENDBRANCH  64  67
ENDBRANCH  61  64
ENDBRANCH  58  61
ENDBRANCH  55  58
ENDBRANCH   1  55
TORSDOF 20
ENDMDL
MODEL 6
REMARK VINA RESULT:     -11.3      2.342      6.361
REMARK SMILES C/C(=N\Nc1nc(-c2ccc(Cl)cc2)cs1)c1nnn(-c2ccc(C(=O)NCCCCCCNC(=O)c3ccc(-c4c5nc(c(-c6c(F)c(F)c(F)c(F)c6F)c6ccc([nH]6)c(-c6c(F)c(F)c(F)c(F)c6F)c6nc(c(-c7c(F)c(F)c(F)c(F)c7F)c7ccc4[nH]7)C=C6)C=C5)cc3)cc2)c1C
REMARK SMILES IDX 29 1 28 4 27 7 25 8 26 9 24 11 21 12 22 13 101 14 23 15
REMARK SMILES IDX 100 17 20 21 17 22 18 23 102 24 19 25 2 26 3 27 1 28 4 32
REMARK SMILES IDX 5 34 6 35 16 36 7 37 15 38 8 40 9 41 14 42 10 43 13 45 11 47
REMARK SMILES IDX 12 50 103 51 30 55 31 58 32 61 33 64 34 67 35 68 36 70 37 71
REMARK SMILES IDX 38 72 99 73 39 74 98 76 40 78 41 81 42 82 92 83 43 84 97 85
REMARK SMILES IDX 91 86 93 87 44 88 96 89 90 91 89 93 45 95 77 98 57 99 76 100
REMARK SMILES IDX 58 101 61 102 75 103 94 104 59 105 60 107 74 109 95 110
REMARK SMILES IDX 62 113 46 115 47 116 55 117 48 118 49 119 53 120 56 121
REMARK SMILES IDX 50 122 51 123 54 124 52 125 78 126 79 127 87 128 80 129
REMARK SMILES IDX 81 130 85 131 88 132 82 133 83 134 86 135 84 136 63 137
REMARK SMILES IDX 64 138 72 139 65 140 66 141 70 142 73 143 67 144 68 145
REMARK SMILES IDX 71 146 69 147
REMARK H PARENT 29 2 29 3 28 5 28 6 27 10 22 16 101 18 23 19 100 20 1 29 1 30
REMARK H PARENT 1 31 4 33 15 39 9 44 14 46 10 48 13 49 103 52 103 53 103 54
REMARK H PARENT 30 56 30 57 31 59 31 60 32 62 32 63 33 65 33 66 34 69 38 75
REMARK H PARENT 99 77 39 79 98 80 97 90 91 92 93 94 96 96 90 97 58 106 61 108
REMARK H PARENT 94 111 59 112 95 114
REMARK Flexibility Score: inf
ROOT
ATOM      1  C   UNL A   1      31.809  29.443  26.913  1.00  0.00    -0.036 C 
ATOM      2  H   UNL A   1      30.874  28.949  26.751  1.00  0.00     0.028 H 
ATOM      3  H   UNL A   1      31.818  30.007  27.823  1.00  0.00     0.028 H 
ENDROOT
BRANCH   1   4
ATOM      4  C   UNL A   1      32.040  30.432  25.767  1.00  0.00     0.018 C 
ATOM      5  H   UNL A   1      32.142  31.418  26.169  1.00  0.00     0.049 H 
ATOM      6  H   UNL A   1      32.930  30.152  25.243  1.00  0.00     0.049 H 
BRANCH   4   7
ATOM      7  N   UNL A   1      30.921  30.406  24.842  1.00  0.00    -0.352 N 
ATOM      8  C   UNL A   1      30.584  29.576  23.801  1.00  0.00     0.251 C 
ATOM      9  O   UNL A   1      29.531  29.802  23.205  1.00  0.00    -0.269 OA
ATOM     10  H   UNL A   1      30.271  31.131  24.991  1.00  0.00     0.163 HD
BRANCH   8  11
ATOM     11  C   UNL A   1      31.387  28.380  23.422  1.00  0.00     0.039 A 
ATOM     12  C   UNL A   1      32.908  26.065  23.124  1.00  0.00     0.067 A 
ATOM     13  C   UNL A   1      31.568  25.944  23.489  1.00  0.00    -0.036 A 
ATOM     14  C   UNL A   1      33.451  27.305  22.777  1.00  0.00    -0.036 A 
ATOM     15  C   UNL A   1      30.820  27.113  23.660  1.00  0.00    -0.047 A 
ATOM     16  H   UNL A   1      31.140  25.016  23.628  1.00  0.00     0.065 H 
ATOM     17  C   UNL A   1      32.670  28.452  22.877  1.00  0.00    -0.047 A 
ATOM     18  H   UNL A   1      34.428  27.370  22.449  1.00  0.00     0.065 H 
ATOM     19  H   UNL A   1      29.835  27.046  23.966  1.00  0.00     0.063 H 
ATOM     20  H   UNL A   1      33.039  29.358  22.547  1.00  0.00     0.063 H 
BRANCH  12  21
ATOM     21  N   UNL A   1      33.777  24.973  23.276  1.00  0.00    -0.217 N 
ATOM     22  C   UNL A   1      35.164  23.496  24.067  1.00  0.00     0.132 A 
ATOM     23  N   UNL A   1      34.911  23.208  22.750  1.00  0.00    -0.128 NA
ATOM     24  C   UNL A   1      34.441  24.620  24.434  1.00  0.00     0.071 A 
ATOM     25  N   UNL A   1      33.989  24.061  22.310  1.00  0.00    -0.061 NA
BRANCH  22  26
ATOM     26  C   UNL A   1      35.975  22.669  24.950  1.00  0.00     0.087 C 
ATOM     27  N   UNL A   1      37.178  23.105  25.202  1.00  0.00    -0.176 NA
BRANCH  26  28
ATOM     28  C   UNL A   1      35.273  21.458  25.512  1.00  0.00    -0.018 C 
ATOM     29  H   UNL A   1      34.463  21.185  24.866  1.00  0.00     0.030 H 
ATOM     30  H   UNL A   1      34.891  21.687  26.485  1.00  0.00     0.030 H 
ATOM     31  H   UNL A   1      35.964  20.644  25.581  1.00  0.00     0.030 H 
ENDBRANCH  26  28
BRANCH  27  32
ATOM     32  N   UNL A   1      38.032  22.555  26.134  1.00  0.00    -0.252 N 
ATOM     33  H   UNL A   1      37.740  21.685  26.490  1.00  0.00     0.193 HD
BRANCH  32  34
ATOM     34  C   UNL A   1      39.206  23.005  26.644  1.00  0.00     0.203 A 
ATOM     35  N   UNL A   1      39.404  24.164  27.225  1.00  0.00    -0.219 NA
ATOM     36  S   UNL A   1      40.647  22.063  26.476  1.00  0.00    -0.103 S 
ATOM     37  C   UNL A   1      40.747  24.476  27.242  1.00  0.00     0.084 A 
ATOM     38  C   UNL A   1      41.587  23.449  26.867  1.00  0.00     0.021 A 
ATOM     39  H   UNL A   1      42.617  23.504  26.828  1.00  0.00     0.076 H 
BRANCH  37  40
ATOM     40  C   UNL A   1      41.165  25.833  27.545  1.00  0.00     0.001 A 
ATOM     41  C   UNL A   1      41.815  26.100  28.757  1.00  0.00    -0.051 A 
ATOM     42  C   UNL A   1      40.826  26.899  26.699  1.00  0.00    -0.051 A 
ATOM     43  C   UNL A   1      42.156  27.409  29.105  1.00  0.00    -0.043 A 
ATOM     44  H   UNL A   1      42.043  25.323  29.398  1.00  0.00     0.063 H 
ATOM     45  C   UNL A   1      41.156  28.211  27.053  1.00  0.00    -0.043 A 
ATOM     46  H   UNL A   1      40.332  26.715  25.812  1.00  0.00     0.063 H 
ATOM     47  C   UNL A   1      41.827  28.459  28.250  1.00  0.00     0.041 A 
ATOM     48  H   UNL A   1      42.649  27.599  29.992  1.00  0.00     0.064 H 
ATOM     49  H   UNL A   1      40.905  28.994  26.429  1.00  0.00     0.064 H 
ATOM     50  Cl  UNL A   1      42.237  30.073  28.680  1.00  0.00    -0.084 Cl
ENDBRANCH  37  40
ENDBRANCH  32  34
ENDBRANCH  27  32
ENDBRANCH  22  26
BRANCH  24  51
ATOM     51  C   UNL A   1      34.232  25.281  25.750  1.00  0.00    -0.020 C 
ATOM     52  H   UNL A   1      35.097  25.860  25.999  1.00  0.00     0.030 H 
ATOM     53  H   UNL A   1      34.074  24.537  26.502  1.00  0.00     0.030 H 
ATOM     54  H   UNL A   1      33.377  25.923  25.695  1.00  0.00     0.030 H 
ENDBRANCH  24  51
ENDBRANCH  12  21
ENDBRANCH   8  11
ENDBRANCH   4   7
ENDBRANCH   1   4
BRANCH   1  55
ATOM     55  C   UNL A   1      32.906  28.377  27.033  1.00  0.00    -0.052 C 
ATOM     56  H   UNL A   1      32.751  27.656  26.258  1.00  0.00     0.027 H 
ATOM     57  H   UNL A   1      32.817  27.977  28.022  1.00  0.00     0.027 H 
BRANCH  55  58
ATOM     58  C   UNL A   1      34.352  28.890  26.920  1.00  0.00    -0.052 C 
ATOM     59  H   UNL A   1      34.424  29.461  26.017  1.00  0.00     0.027 H 
ATOM     60  H   UNL A   1      34.967  28.014  26.942  1.00  0.00     0.027 H 
BRANCH  58  61
ATOM     61  C   UNL A   1      34.860  29.772  28.071  1.00  0.00    -0.036 C 
ATOM     62  H   UNL A   1      35.668  29.263  28.554  1.00  0.00     0.028 H 
ATOM     63  H   UNL A   1      34.033  29.937  28.728  1.00  0.00     0.028 H 
BRANCH  61  64
ATOM     64  C   UNL A   1      35.352  31.137  27.623  1.00  0.00     0.018 C 
ATOM     65  H   UNL A   1      35.238  31.211  26.561  1.00  0.00     0.049 H 
ATOM     66  H   UNL A   1      36.378  31.226  27.916  1.00  0.00     0.049 H 
BRANCH  64  67
ATOM     67  N   UNL A   1      34.613  32.239  28.253  1.00  0.00    -0.352 N 
ATOM     68  C   UNL A   1      34.812  32.816  29.490  1.00  0.00     0.251 C 
ATOM     69  H   UNL A   1      33.876  32.616  27.720  1.00  0.00     0.163 HD
ATOM     70  O   UNL A   1      33.912  33.451  30.048  1.00  0.00    -0.269 OA
BRANCH  68  71
ATOM     71  C   UNL A   1      36.124  32.678  30.134  1.00  0.00     0.039 A 
ATOM     72  C   UNL A   1      36.285  32.263  31.460  1.00  0.00    -0.049 A 
ATOM     73  C   UNL A   1      37.230  32.951  29.340  1.00  0.00    -0.049 A 
ATOM     74  C   UNL A   1      37.578  32.076  31.944  1.00  0.00    -0.053 A 
ATOM     75  H   UNL A   1      35.464  32.098  32.064  1.00  0.00     0.063 H 
ATOM     76  C   UNL A   1      38.459  32.509  29.724  1.00  0.00    -0.053 A 
ATOM     77  H   UNL A   1      37.121  33.485  28.464  1.00  0.00     0.063 H 
ATOM     78  C   UNL A   1      38.659  32.197  31.057  1.00  0.00    -0.014 A 
ATOM     79  H   UNL A   1      37.738  31.853  32.939  1.00  0.00     0.063 H 
ATOM     80  H   UNL A   1      39.222  32.408  29.037  1.00  0.00     0.063 H 
BRANCH  78  81
ATOM     81  C   UNL A   1      40.033  31.929  31.449  1.00  0.00     0.031 A 
ATOM     82  C   UNL A   1      40.238  30.577  32.017  1.00  0.00     0.074 A 
ATOM     83  C   UNL A   1      41.053  32.742  31.087  1.00  0.00     0.049 A 
ATOM     84  N   UNL A   1      40.539  30.276  33.234  1.00  0.00    -0.248 NA
ATOM     85  C   UNL A   1      39.912  29.411  31.176  1.00  0.00    -0.034 C 
ATOM     86  C   UNL A   1      41.014  33.942  30.238  1.00  0.00    -0.036 A 
ATOM     87  N   UNL A   1      42.384  32.599  31.322  1.00  0.00    -0.354 N 
ATOM     88  C   UNL A   1      40.661  28.891  33.261  1.00  0.00     0.074 A 
ATOM     89  C   UNL A   1      40.061  28.410  32.045  1.00  0.00    -0.034 C 
ATOM     90  H   UNL A   1      39.641  29.378  30.181  1.00  0.00     0.065 H 
ATOM     91  C   UNL A   1      42.266  34.268  29.845  1.00  0.00    -0.036 A 
ATOM     92  H   UNL A   1      40.159  34.459  29.980  1.00  0.00     0.065 H 
ATOM     93  C   UNL A   1      43.204  33.419  30.550  1.00  0.00     0.049 A 
ATOM     94  H   UNL A   1      42.741  31.965  31.986  1.00  0.00     0.167 HD
ATOM     95  C   UNL A   1      41.503  28.294  34.149  1.00  0.00     0.037 A 
ATOM     96  H   UNL A   1      39.787  27.430  31.871  1.00  0.00     0.065 H 
ATOM     97  H   UNL A   1      42.512  34.999  29.159  1.00  0.00     0.065 H 
ATOM     98  C   UNL A   1      44.560  33.372  30.489  1.00  0.00     0.037 A 
ATOM     99  C   UNL A   1      41.867  29.209  35.206  1.00  0.00     0.049 A 
ATOM    100  C   UNL A   1      45.022  32.649  31.700  1.00  0.00     0.074 A 
ATOM    101  C   UNL A   1      41.163  29.923  36.157  1.00  0.00    -0.036 A 
ATOM    102  N   UNL A   1      43.098  29.814  35.127  1.00  0.00    -0.354 N 
ATOM    103  N   UNL A   1      44.897  33.117  32.912  1.00  0.00    -0.248 NA
ATOM    104  C   UNL A   1      45.171  31.205  31.598  1.00  0.00    -0.034 C 
ATOM    105  C   UNL A   1      41.816  31.189  36.227  1.00  0.00    -0.036 A 
ATOM    106  H   UNL A   1      40.342  29.607  36.700  1.00  0.00     0.065 H 
ATOM    107  C   UNL A   1      42.926  31.149  35.382  1.00  0.00     0.049 A 
ATOM    108  H   UNL A   1      43.952  29.367  34.924  1.00  0.00     0.167 HD
ATOM    109  C   UNL A   1      44.508  32.023  33.671  1.00  0.00     0.074 A 
ATOM    110  C   UNL A   1      44.767  30.860  32.824  1.00  0.00    -0.034 C 
ATOM    111  H   UNL A   1      45.494  30.620  30.811  1.00  0.00     0.065 H 
ATOM    112  H   UNL A   1      41.520  31.994  36.801  1.00  0.00     0.065 H 
ATOM    113  C   UNL A   1      43.737  32.185  34.786  1.00  0.00     0.037 A 
ATOM    114  H   UNL A   1      44.650  29.883  33.136  1.00  0.00     0.065 H 
BRANCH  95 115
ATOM    115  C   UNL A   1      42.319  27.059  33.848  1.00  0.00     0.064 A 
ATOM    116  C   UNL A   1      42.267  25.978  34.751  1.00  0.00     0.173 A 
ATOM    117  C   UNL A   1      43.373  27.011  32.907  1.00  0.00     0.173 A 
ATOM    118  F   UNL A   1      41.315  25.924  35.695  1.00  0.00    -0.203 F 
ATOM    119  C   UNL A   1      43.248  24.984  34.772  1.00  0.00     0.198 A 
ATOM    120  C   UNL A   1      44.318  25.988  32.896  1.00  0.00     0.198 A 
ATOM    121  F   UNL A   1      43.606  27.999  32.037  1.00  0.00    -0.203 F 
ATOM    122  F   UNL A   1      43.232  24.056  35.739  1.00  0.00    -0.200 F 
ATOM    123  C   UNL A   1      44.279  24.995  33.850  1.00  0.00     0.200 A 
ATOM    124  F   UNL A   1      45.319  26.028  32.005  1.00  0.00    -0.200 F 
ATOM    125  F   UNL A   1      45.258  24.085  33.912  1.00  0.00    -0.200 F 
ENDBRANCH  95 115
BRANCH  98 126
ATOM    126  C   UNL A   1      45.446  33.603  29.321  1.00  0.00     0.064 A 
ATOM    127  C   UNL A   1      45.527  32.668  28.276  1.00  0.00     0.173 A 
ATOM    128  C   UNL A   1      45.997  34.874  29.063  1.00  0.00     0.173 A 
ATOM    129  F   UNL A   1      44.986  31.448  28.420  1.00  0.00    -0.203 F 
ATOM    130  C   UNL A   1      46.092  32.993  27.037  1.00  0.00     0.198 A 
ATOM    131  C   UNL A   1      46.565  35.197  27.829  1.00  0.00     0.198 A 
ATOM    132  F   UNL A   1      45.904  35.859  29.969  1.00  0.00    -0.203 F 
ATOM    133  F   UNL A   1      46.088  32.094  26.042  1.00  0.00    -0.200 F 
ATOM    134  C   UNL A   1      46.599  34.262  26.811  1.00  0.00     0.200 A 
ATOM    135  F   UNL A   1      47.014  36.441  27.610  1.00  0.00    -0.200 F 
ATOM    136  F   UNL A   1      47.077  34.597  25.605  1.00  0.00    -0.200 F 
ENDBRANCH  98 126
BRANCH 113 137
ATOM    137  C   UNL A   1      43.549  33.582  35.312  1.00  0.00     0.064 A 
ATOM    138  C   UNL A   1      42.527  34.456  34.901  1.00  0.00     0.173 A 
ATOM    139  C   UNL A   1      44.359  33.999  36.377  1.00  0.00     0.173 A 
ATOM    140  F   UNL A   1      41.649  34.098  33.957  1.00  0.00    -0.203 F 
ATOM    141  C   UNL A   1      42.355  35.703  35.502  1.00  0.00     0.198 A 
ATOM    142  C   UNL A   1      44.162  35.228  36.999  1.00  0.00     0.198 A 
ATOM    143  F   UNL A   1      45.317  33.184  36.848  1.00  0.00    -0.203 F 
ATOM    144  F   UNL A   1      41.378  36.523  35.083  1.00  0.00    -0.200 F 
ATOM    145  C   UNL A   1      43.168  36.084  36.555  1.00  0.00     0.200 A 
ATOM    146  F   UNL A   1      44.921  35.570  38.049  1.00  0.00    -0.200 F 
ATOM    147  F   UNL A   1      42.979  37.266  37.159  1.00  0.00    -0.200 F 
ENDBRANCH 113 137
ENDBRANCH  78  81
ENDBRANCH  68  71
ENDBRANCH  64  67
ENDBRANCH  61  64
ENDBRANCH  58  61
ENDBRANCH  55  58
ENDBRANCH   1  55
TORSDOF 20
ENDMDL
MODEL 7
REMARK VINA RESULT:     -11.3      1.100      1.829
REMARK SMILES C/C(=N\Nc1nc(-c2ccc(Cl)cc2)cs1)c1nnn(-c2ccc(C(=O)NCCCCCCNC(=O)c3ccc(-c4c5nc(c(-c6c(F)c(F)c(F)c(F)c6F)c6ccc([nH]6)c(-c6c(F)c(F)c(F)c(F)c6F)c6nc(c(-c7c(F)c(F)c(F)c(F)c7F)c7ccc4[nH]7)C=C6)C=C5)cc3)cc2)c1C
REMARK SMILES IDX 29 1 28 4 27 7 25 8 26 9 24 11 21 12 22 13 101 14 23 15
REMARK SMILES IDX 100 17 20 21 17 22 18 23 102 24 19 25 2 26 3 27 1 28 4 32
REMARK SMILES IDX 5 34 6 35 16 36 7 37 15 38 8 40 9 41 14 42 10 43 13 45 11 47
REMARK SMILES IDX 12 50 103 51 30 55 31 58 32 61 33 64 34 67 35 68 36 70 37 71
REMARK SMILES IDX 38 72 99 73 39 74 98 76 40 78 41 81 42 82 92 83 43 84 97 85
REMARK SMILES IDX 91 86 93 87 44 88 96 89 90 91 89 93 45 95 77 98 57 99 76 100
REMARK SMILES IDX 58 101 61 102 75 103 94 104 59 105 60 107 74 109 95 110
REMARK SMILES IDX 62 113 46 115 47 116 55 117 48 118 49 119 53 120 56 121
REMARK SMILES IDX 50 122 51 123 54 124 52 125 78 126 79 127 87 128 80 129
REMARK SMILES IDX 81 130 85 131 88 132 82 133 83 134 86 135 84 136 63 137
REMARK SMILES IDX 64 138 72 139 65 140 66 141 70 142 73 143 67 144 68 145
REMARK SMILES IDX 71 146 69 147
REMARK H PARENT 29 2 29 3 28 5 28 6 27 10 22 16 101 18 23 19 100 20 1 29 1 30
REMARK H PARENT 1 31 4 33 15 39 9 44 14 46 10 48 13 49 103 52 103 53 103 54
REMARK H PARENT 30 56 30 57 31 59 31 60 32 62 32 63 33 65 33 66 34 69 38 75
REMARK H PARENT 99 77 39 79 98 80 97 90 91 92 93 94 96 96 90 97 58 106 61 108
REMARK H PARENT 94 111 59 112 95 114
REMARK Flexibility Score: inf
ROOT
ATOM      1  C   UNL A   1      32.412  28.467  25.800  1.00  0.00    -0.036 C 
ATOM      2  H   UNL A   1      31.850  27.799  26.418  1.00  0.00     0.028 H 
ATOM      3  H   UNL A   1      32.176  29.493  25.992  1.00  0.00     0.028 H 
ENDROOT
BRANCH   1   4
ATOM      4  C   UNL A   1      32.056  28.189  24.337  1.00  0.00     0.018 C 
ATOM      5  H   UNL A   1      32.194  29.082  23.765  1.00  0.00     0.049 H 
ATOM      6  H   UNL A   1      32.694  27.412  23.968  1.00  0.00     0.049 H 
BRANCH   4   7
ATOM      7  N   UNL A   1      30.675  27.756  24.224  1.00  0.00    -0.352 N 
ATOM      8  C   UNL A   1      30.081  26.520  24.164  1.00  0.00     0.251 C 
ATOM      9  O   UNL A   1      28.853  26.476  24.095  1.00  0.00    -0.269 OA
ATOM     10  H   UNL A   1      30.032  28.502  24.181  1.00  0.00     0.163 HD
BRANCH   8  11
ATOM     11  C   UNL A   1      30.846  25.245  24.264  1.00  0.00     0.039 A 
ATOM     12  C   UNL A   1      32.579  23.094  24.618  1.00  0.00     0.067 A 
ATOM     13  C   UNL A   1      31.970  23.654  25.739  1.00  0.00    -0.036 A 
ATOM     14  C   UNL A   1      32.230  23.501  23.328  1.00  0.00    -0.036 A 
ATOM     15  C   UNL A   1      31.120  24.750  25.553  1.00  0.00    -0.047 A 
ATOM     16  H   UNL A   1      32.141  23.271  26.681  1.00  0.00     0.065 H 
ATOM     17  C   UNL A   1      31.322  24.542  23.157  1.00  0.00    -0.047 A 
ATOM     18  H   UNL A   1      32.644  23.033  22.506  1.00  0.00     0.065 H 
ATOM     19  H   UNL A   1      30.688  25.203  26.375  1.00  0.00     0.063 H 
ATOM     20  H   UNL A   1      31.000  24.794  22.209  1.00  0.00     0.063 H 
BRANCH  12  21
ATOM     21  N   UNL A   1      33.684  22.241  24.774  1.00  0.00    -0.217 N 
ATOM     22  C   UNL A   1      35.690  21.439  25.019  1.00  0.00     0.132 A 
ATOM     23  N   UNL A   1      34.798  20.399  24.973  1.00  0.00    -0.128 NA
ATOM     24  C   UNL A   1      35.001  22.635  24.903  1.00  0.00     0.071 A 
ATOM     25  N   UNL A   1      33.570  20.909  24.921  1.00  0.00    -0.061 NA
BRANCH  22  26
ATOM     26  C   UNL A   1      37.118  21.289  25.270  1.00  0.00     0.087 C 
ATOM     27  N   UNL A   1      37.695  22.272  25.904  1.00  0.00    -0.176 NA
BRANCH  26  28
ATOM     28  C   UNL A   1      37.708  19.975  24.827  1.00  0.00    -0.018 C 
ATOM     29  H   UNL A   1      37.019  19.184  25.042  1.00  0.00     0.030 H 
ATOM     30  H   UNL A   1      38.625  19.800  25.352  1.00  0.00     0.030 H 
ATOM     31  H   UNL A   1      37.899  20.005  23.775  1.00  0.00     0.030 H 
ENDBRANCH  26  28
BRANCH  27  32
ATOM     32  N   UNL A   1      38.991  22.248  26.374  1.00  0.00    -0.252 N 
ATOM     33  H   UNL A   1      39.488  21.426  26.155  1.00  0.00     0.193 HD
BRANCH  32  34
ATOM     34  C   UNL A   1      39.700  23.160  27.086  1.00  0.00     0.203 A 
ATOM     35  N   UNL A   1      39.222  24.246  27.645  1.00  0.00    -0.219 NA
ATOM     36  S   UNL A   1      41.415  22.999  27.246  1.00  0.00    -0.103 S 
ATOM     37  C   UNL A   1      40.236  25.141  27.912  1.00  0.00     0.084 A 
ATOM     38  C   UNL A   1      41.510  24.640  27.754  1.00  0.00     0.021 A 
ATOM     39  H   UNL A   1      42.384  25.165  27.916  1.00  0.00     0.076 H 
BRANCH  37  40
ATOM     40  C   UNL A   1      39.912  26.520  28.233  1.00  0.00     0.001 A 
ATOM     41  C   UNL A   1      39.135  26.799  29.365  1.00  0.00    -0.051 A 
ATOM     42  C   UNL A   1      40.265  27.565  27.367  1.00  0.00    -0.051 A 
ATOM     43  C   UNL A   1      38.744  28.110  29.649  1.00  0.00    -0.043 A 
ATOM     44  H   UNL A   1      38.848  26.031  29.992  1.00  0.00     0.063 H 
ATOM     45  C   UNL A   1      39.863  28.876  27.645  1.00  0.00    -0.043 A 
ATOM     46  H   UNL A   1      40.822  27.367  26.522  1.00  0.00     0.063 H 
ATOM     47  C   UNL A   1      39.112  29.143  28.790  1.00  0.00     0.041 A 
ATOM     48  H   UNL A   1      38.185  28.313  30.493  1.00  0.00     0.064 H 
ATOM     49  H   UNL A   1      40.123  29.643  27.006  1.00  0.00     0.064 H 
ATOM     50  Cl  UNL A   1      38.625  30.756  29.132  1.00  0.00    -0.084 Cl
ENDBRANCH  37  40
ENDBRANCH  32  34
ENDBRANCH  27  32
ENDBRANCH  22  26
BRANCH  24  51
ATOM     51  C   UNL A   1      35.440  24.051  25.026  1.00  0.00    -0.020 C 
ATOM     52  H   UNL A   1      36.509  24.092  25.052  1.00  0.00     0.030 H 
ATOM     53  H   UNL A   1      35.045  24.470  25.927  1.00  0.00     0.030 H 
ATOM     54  H   UNL A   1      35.082  24.609  24.185  1.00  0.00     0.030 H 
ENDBRANCH  24  51
ENDBRANCH  12  21
ENDBRANCH   8  11
ENDBRANCH   4   7
ENDBRANCH   1   4
BRANCH   1  55
ATOM     55  C   UNL A   1      33.902  28.281  26.115  1.00  0.00    -0.052 C 
ATOM     56  H   UNL A   1      34.464  28.715  25.314  1.00  0.00     0.027 H 
ATOM     57  H   UNL A   1      34.047  27.227  26.226  1.00  0.00     0.027 H 
BRANCH  55  58
ATOM     58  C   UNL A   1      34.391  28.911  27.431  1.00  0.00    -0.052 C 
ATOM     59  H   UNL A   1      35.106  28.243  27.864  1.00  0.00     0.027 H 
ATOM     60  H   UNL A   1      33.509  29.059  28.019  1.00  0.00     0.027 H 
BRANCH  58  61
ATOM     61  C   UNL A   1      35.047  30.296  27.328  1.00  0.00    -0.036 C 
ATOM     62  H   UNL A   1      34.382  30.946  26.800  1.00  0.00     0.028 H 
ATOM     63  H   UNL A   1      35.978  30.164  26.818  1.00  0.00     0.028 H 
BRANCH  61  64
ATOM     64  C   UNL A   1      35.363  30.923  28.675  1.00  0.00     0.018 C 
ATOM     65  H   UNL A   1      36.422  31.065  28.748  1.00  0.00     0.049 H 
ATOM     66  H   UNL A   1      35.000  30.263  29.435  1.00  0.00     0.049 H 
BRANCH  64  67
ATOM     67  N   UNL A   1      34.701  32.221  28.862  1.00  0.00    -0.352 N 
ATOM     68  C   UNL A   1      34.627  32.996  30.001  1.00  0.00     0.251 C 
ATOM     69  H   UNL A   1      34.250  32.587  28.068  1.00  0.00     0.163 HD
ATOM     70  O   UNL A   1      33.746  33.850  30.134  1.00  0.00    -0.269 OA
BRANCH  68  71
ATOM     71  C   UNL A   1      35.629  32.802  31.057  1.00  0.00     0.039 A 
ATOM     72  C   UNL A   1      35.577  31.748  31.975  1.00  0.00    -0.049 A 
ATOM     73  C   UNL A   1      36.676  33.713  31.087  1.00  0.00    -0.049 A 
ATOM     74  C   UNL A   1      36.628  31.603  32.878  1.00  0.00    -0.053 A 
ATOM     75  H   UNL A   1      34.779  31.093  31.982  1.00  0.00     0.063 H 
ATOM     76  C   UNL A   1      37.812  33.410  31.772  1.00  0.00    -0.053 A 
ATOM     77  H   UNL A   1      36.594  34.614  30.591  1.00  0.00     0.063 H 
ATOM     78  C   UNL A   1      37.747  32.442  32.758  1.00  0.00    -0.014 A 
ATOM     79  H   UNL A   1      36.584  30.890  33.623  1.00  0.00     0.063 H 
ATOM     80  H   UNL A   1      38.700  33.890  31.561  1.00  0.00     0.063 H 
BRANCH  78  81
ATOM     81  C   UNL A   1      38.928  32.303  33.594  1.00  0.00     0.031 A 
ATOM     82  C   UNL A   1      38.901  33.149  34.809  1.00  0.00     0.074 A 
ATOM     83  C   UNL A   1      39.828  31.310  33.404  1.00  0.00     0.049 A 
ATOM     84  N   UNL A   1      39.654  34.161  35.076  1.00  0.00    -0.248 NA
ATOM     85  C   UNL A   1      37.803  32.951  35.771  1.00  0.00    -0.034 C 
ATOM     86  C   UNL A   1      39.787  30.207  32.432  1.00  0.00    -0.036 A 
ATOM     87  N   UNL A   1      40.939  31.013  34.128  1.00  0.00    -0.354 N 
ATOM     88  C   UNL A   1      39.274  34.591  36.342  1.00  0.00     0.074 A 
ATOM     89  C   UNL A   1      38.011  33.960  36.619  1.00  0.00    -0.034 C 
ATOM     90  H   UNL A   1      37.069  32.226  35.787  1.00  0.00     0.065 H 
ATOM     91  C   UNL A   1      40.680  29.253  32.780  1.00  0.00    -0.036 A 
ATOM     92  H   UNL A   1      39.169  30.166  31.606  1.00  0.00     0.065 H 
ATOM     93  C   UNL A   1      41.475  29.751  33.884  1.00  0.00     0.049 A 
ATOM     94  H   UNL A   1      41.335  31.642  34.775  1.00  0.00     0.167 HD
ATOM     95  C   UNL A   1      40.176  35.200  37.160  1.00  0.00     0.037 A 
ATOM     96  H   UNL A   1      37.360  34.247  37.368  1.00  0.00     0.065 H 
ATOM     97  H   UNL A   1      40.780  28.329  32.333  1.00  0.00     0.065 H 
ATOM     98  C   UNL A   1      42.487  29.160  34.569  1.00  0.00     0.037 A 
ATOM     99  C   UNL A   1      41.326  35.649  36.410  1.00  0.00     0.049 A 
ATOM    100  C   UNL A   1      43.215  30.241  35.282  1.00  0.00     0.074 A 
ATOM    101  C   UNL A   1      41.516  36.510  35.346  1.00  0.00    -0.036 A 
ATOM    102  N   UNL A   1      42.463  34.879  36.469  1.00  0.00    -0.354 N 
ATOM    103  N   UNL A   1      43.903  31.169  34.676  1.00  0.00    -0.248 NA
ATOM    104  C   UNL A   1      42.768  30.570  36.627  1.00  0.00    -0.034 C 
ATOM    105  C   UNL A   1      42.511  35.885  34.537  1.00  0.00    -0.036 A 
ATOM    106  H   UNL A   1      41.040  37.411  35.175  1.00  0.00     0.065 H 
ATOM    107  C   UNL A   1      42.932  34.726  35.190  1.00  0.00     0.049 A 
ATOM    108  H   UNL A   1      42.869  34.505  37.284  1.00  0.00     0.167 HD
ATOM    109  C   UNL A   1      43.601  32.335  35.364  1.00  0.00     0.074 A 
ATOM    110  C   UNL A   1      42.958  31.892  36.599  1.00  0.00    -0.034 C 
ATOM    111  H   UNL A   1      42.410  29.961  37.380  1.00  0.00     0.065 H 
ATOM    112  H   UNL A   1      42.858  36.229  33.628  1.00  0.00     0.065 H 
ATOM    113  C   UNL A   1      43.627  33.546  34.732  1.00  0.00     0.037 A 
ATOM    114  H   UNL A   1      42.681  32.528  37.364  1.00  0.00     0.065 H 
BRANCH  95 115
ATOM    115  C   UNL A   1      40.223  35.018  38.659  1.00  0.00     0.064 A 
ATOM    116  C   UNL A   1      40.303  33.710  39.178  1.00  0.00     0.173 A 
ATOM    117  C   UNL A   1      39.880  36.020  39.593  1.00  0.00     0.173 A 
ATOM    118  F   UNL A   1      40.610  32.677  38.379  1.00  0.00    -0.203 F 
ATOM    119  C   UNL A   1      39.967  33.419  40.502  1.00  0.00     0.198 A 
ATOM    120  C   UNL A   1      39.600  35.733  40.928  1.00  0.00     0.198 A 
ATOM    121  F   UNL A   1      39.686  37.296  39.243  1.00  0.00    -0.203 F 
ATOM    122  F   UNL A   1      39.922  32.143  40.910  1.00  0.00    -0.200 F 
ATOM    123  C   UNL A   1      39.607  34.429  41.374  1.00  0.00     0.200 A 
ATOM    124  F   UNL A   1      39.236  36.726  41.751  1.00  0.00    -0.200 F 
ATOM    125  F   UNL A   1      39.218  34.146  42.623  1.00  0.00    -0.200 F 
ENDBRANCH  95 115
BRANCH  98 126
ATOM    126  C   UNL A   1      42.664  27.728  34.917  1.00  0.00     0.064 A 
ATOM    127  C   UNL A   1      41.832  27.104  35.861  1.00  0.00     0.173 A 
ATOM    128  C   UNL A   1      43.449  26.874  34.116  1.00  0.00     0.173 A 
ATOM    129  F   UNL A   1      41.018  27.840  36.633  1.00  0.00    -0.203 F 
ATOM    130  C   UNL A   1      41.762  25.710  35.974  1.00  0.00     0.198 A 
ATOM    131  C   UNL A   1      43.382  25.484  34.233  1.00  0.00     0.198 A 
ATOM    132  F   UNL A   1      44.219  27.369  33.136  1.00  0.00    -0.203 F 
ATOM    133  F   UNL A   1      40.905  25.150  36.840  1.00  0.00    -0.200 F 
ATOM    134  C   UNL A   1      42.528  24.901  35.150  1.00  0.00     0.200 A 
ATOM    135  F   UNL A   1      44.097  24.714  33.401  1.00  0.00    -0.200 F 
ATOM    136  F   UNL A   1      42.411  23.568  35.209  1.00  0.00    -0.200 F 
ENDBRANCH  98 126
BRANCH 113 137
ATOM    137  C   UNL A   1      44.244  33.608  33.362  1.00  0.00     0.064 A 
ATOM    138  C   UNL A   1      45.626  33.689  33.114  1.00  0.00     0.173 A 
ATOM    139  C   UNL A   1      43.404  33.438  32.254  1.00  0.00     0.173 A 
ATOM    140  F   UNL A   1      46.506  33.756  34.120  1.00  0.00    -0.203 F 
ATOM    141  C   UNL A   1      46.133  33.646  31.815  1.00  0.00     0.198 A 
ATOM    142  C   UNL A   1      43.915  33.358  30.962  1.00  0.00     0.198 A 
ATOM    143  F   UNL A   1      42.080  33.301  32.432  1.00  0.00    -0.203 F 
ATOM    144  F   UNL A   1      47.456  33.738  31.606  1.00  0.00    -0.200 F 
ATOM    145  C   UNL A   1      45.277  33.473  30.741  1.00  0.00     0.200 A 
ATOM    146  F   UNL A   1      43.085  33.142  29.931  1.00  0.00    -0.200 F 
ATOM    147  F   UNL A   1      45.767  33.391  29.496  1.00  0.00    -0.200 F 
ENDBRANCH 113 137
ENDBRANCH  78  81
ENDBRANCH  68  71
ENDBRANCH  64  67
ENDBRANCH  61  64
ENDBRANCH  58  61
ENDBRANCH  55  58
ENDBRANCH   1  55
TORSDOF 20
ENDMDL
MODEL 8
REMARK VINA RESULT:     -11.3      5.848     12.542
REMARK SMILES C/C(=N\Nc1nc(-c2ccc(Cl)cc2)cs1)c1nnn(-c2ccc(C(=O)NCCCCCCNC(=O)c3ccc(-c4c5nc(c(-c6c(F)c(F)c(F)c(F)c6F)c6ccc([nH]6)c(-c6c(F)c(F)c(F)c(F)c6F)c6nc(c(-c7c(F)c(F)c(F)c(F)c7F)c7ccc4[nH]7)C=C6)C=C5)cc3)cc2)c1C
REMARK SMILES IDX 29 1 28 4 27 7 25 8 26 9 24 11 21 12 22 13 101 14 23 15
REMARK SMILES IDX 100 17 20 21 17 22 18 23 102 24 19 25 2 26 3 27 1 28 4 32
REMARK SMILES IDX 5 34 6 35 16 36 7 37 15 38 8 40 9 41 14 42 10 43 13 45 11 47
REMARK SMILES IDX 12 50 103 51 30 55 31 58 32 61 33 64 34 67 35 68 36 70 37 71
REMARK SMILES IDX 38 72 99 73 39 74 98 76 40 78 41 81 42 82 92 83 43 84 97 85
REMARK SMILES IDX 91 86 93 87 44 88 96 89 90 91 89 93 45 95 77 98 57 99 76 100
REMARK SMILES IDX 58 101 61 102 75 103 94 104 59 105 60 107 74 109 95 110
REMARK SMILES IDX 62 113 46 115 47 116 55 117 48 118 49 119 53 120 56 121
REMARK SMILES IDX 50 122 51 123 54 124 52 125 78 126 79 127 87 128 80 129
REMARK SMILES IDX 81 130 85 131 88 132 82 133 83 134 86 135 84 136 63 137
REMARK SMILES IDX 64 138 72 139 65 140 66 141 70 142 73 143 67 144 68 145
REMARK SMILES IDX 71 146 69 147
REMARK H PARENT 29 2 29 3 28 5 28 6 27 10 22 16 101 18 23 19 100 20 1 29 1 30
REMARK H PARENT 1 31 4 33 15 39 9 44 14 46 10 48 13 49 103 52 103 53 103 54
REMARK H PARENT 30 56 30 57 31 59 31 60 32 62 32 63 33 65 33 66 34 69 38 75
REMARK H PARENT 99 77 39 79 98 80 97 90 91 92 93 94 96 96 90 97 58 106 61 108
REMARK H PARENT 94 111 59 112 95 114
REMARK Flexibility Score: inf
ROOT
ATOM      1  C   UNL A   1      45.015  26.077  26.842  1.00  0.00    -0.036 C 
ATOM      2  H   UNL A   1      44.178  26.479  27.373  1.00  0.00     0.028 H 
ATOM      3  H   UNL A   1      45.270  25.091  27.173  1.00  0.00     0.028 H 
ENDROOT
BRANCH   1   4
ATOM      4  C   UNL A   1      46.231  26.969  27.107  1.00  0.00     0.018 C 
ATOM      5  H   UNL A   1      46.445  27.542  26.230  1.00  0.00     0.049 H 
ATOM      6  H   UNL A   1      46.010  27.620  27.927  1.00  0.00     0.049 H 
BRANCH   4   7
ATOM      7  N   UNL A   1      47.389  26.162  27.446  1.00  0.00    -0.352 N 
ATOM      8  C   UNL A   1      47.901  25.710  28.637  1.00  0.00     0.251 C 
ATOM      9  O   UNL A   1      48.909  25.004  28.598  1.00  0.00    -0.269 OA
ATOM     10  H   UNL A   1      47.915  25.881  26.662  1.00  0.00     0.163 HD
BRANCH   8  11
ATOM     11  C   UNL A   1      47.247  25.963  29.952  1.00  0.00     0.039 A 
ATOM     12  C   UNL A   1      46.316  26.183  32.567  1.00  0.00     0.067 A 
ATOM     13  C   UNL A   1      47.508  26.819  32.225  1.00  0.00    -0.036 A 
ATOM     14  C   UNL A   1      45.525  25.563  31.597  1.00  0.00    -0.036 A 
ATOM     15  C   UNL A   1      47.980  26.682  30.916  1.00  0.00    -0.047 A 
ATOM     16  H   UNL A   1      48.028  27.377  32.920  1.00  0.00     0.065 H 
ATOM     17  C   UNL A   1      45.971  25.503  30.280  1.00  0.00    -0.047 A 
ATOM     18  H   UNL A   1      44.614  25.151  31.855  1.00  0.00     0.065 H 
ATOM     19  H   UNL A   1      48.880  27.115  30.652  1.00  0.00     0.063 H 
ATOM     20  H   UNL A   1      45.357  25.118  29.545  1.00  0.00     0.063 H 
BRANCH  12  21
ATOM     21  N   UNL A   1      45.984  25.998  33.919  1.00  0.00    -0.217 N 
ATOM     22  C   UNL A   1      45.841  25.249  35.956  1.00  0.00     0.132 A 
ATOM     23  N   UNL A   1      45.036  26.352  35.831  1.00  0.00    -0.128 NA
ATOM     24  C   UNL A   1      46.470  25.005  34.745  1.00  0.00     0.071 A 
ATOM     25  N   UNL A   1      45.209  26.854  34.611  1.00  0.00    -0.061 NA
BRANCH  22  26
ATOM     26  C   UNL A   1      46.073  24.536  37.205  1.00  0.00     0.087 C 
ATOM     27  N   UNL A   1      45.461  23.392  37.336  1.00  0.00    -0.176 NA
BRANCH  26  28
ATOM     28  C   UNL A   1      47.058  25.192  38.139  1.00  0.00    -0.018 C 
ATOM     29  H   UNL A   1      48.019  25.241  37.668  1.00  0.00     0.030 H 
ATOM     30  H   UNL A   1      47.133  24.618  39.040  1.00  0.00     0.030 H 
ATOM     31  H   UNL A   1      46.725  26.182  38.373  1.00  0.00     0.030 H 
ENDBRANCH  26  28
BRANCH  27  32
ATOM     32  N   UNL A   1      45.678  22.500  38.364  1.00  0.00    -0.252 N 
ATOM     33  H   UNL A   1      45.324  22.789  39.235  1.00  0.00     0.193 HD
BRANCH  32  34
ATOM     34  C   UNL A   1      46.294  21.291  38.382  1.00  0.00     0.203 A 
ATOM     35  N   UNL A   1      45.987  20.277  39.156  1.00  0.00    -0.219 NA
ATOM     36  S   UNL A   1      47.679  21.003  37.385  1.00  0.00    -0.103 S 
ATOM     37  C   UNL A   1      47.036  19.385  39.227  1.00  0.00     0.084 A 
ATOM     38  C   UNL A   1      48.057  19.617  38.330  1.00  0.00     0.021 A 
ATOM     39  H   UNL A   1      48.914  19.048  38.240  1.00  0.00     0.076 H 
BRANCH  37  40
ATOM     40  C   UNL A   1      47.042  18.364  40.259  1.00  0.00     0.001 A 
ATOM     41  C   UNL A   1      46.416  17.135  40.018  1.00  0.00    -0.051 A 
ATOM     42  C   UNL A   1      47.564  18.631  41.534  1.00  0.00    -0.051 A 
ATOM     43  C   UNL A   1      46.341  16.169  41.023  1.00  0.00    -0.043 A 
ATOM     44  H   UNL A   1      46.006  16.943  39.090  1.00  0.00     0.063 H 
ATOM     45  C   UNL A   1      47.477  17.668  42.545  1.00  0.00    -0.043 A 
ATOM     46  H   UNL A   1      48.011  19.540  41.727  1.00  0.00     0.063 H 
ATOM     47  C   UNL A   1      46.874  16.438  42.282  1.00  0.00     0.041 A 
ATOM     48  H   UNL A   1      45.892  15.258  40.835  1.00  0.00     0.064 H 
ATOM     49  H   UNL A   1      47.860  17.866  43.482  1.00  0.00     0.064 H 
ATOM     50  Cl  UNL A   1      46.775  15.254  43.525  1.00  0.00    -0.084 Cl
ENDBRANCH  37  40
ENDBRANCH  32  34
ENDBRANCH  27  32
ENDBRANCH  22  26
BRANCH  24  51
ATOM     51  C   UNL A   1      47.534  24.041  34.354  1.00  0.00    -0.020 C 
ATOM     52  H   UNL A   1      47.238  23.051  34.633  1.00  0.00     0.030 H 
ATOM     53  H   UNL A   1      48.446  24.294  34.854  1.00  0.00     0.030 H 
ATOM     54  H   UNL A   1      47.682  24.084  33.295  1.00  0.00     0.030 H 
ENDBRANCH  24  51
ENDBRANCH  12  21
ENDBRANCH   8  11
ENDBRANCH   4   7
ENDBRANCH   1   4
BRANCH   1  55
ATOM     55  C   UNL A   1      44.643  25.972  25.357  1.00  0.00    -0.052 C 
ATOM     56  H   UNL A   1      45.495  25.594  24.831  1.00  0.00     0.027 H 
ATOM     57  H   UNL A   1      44.351  26.957  25.060  1.00  0.00     0.027 H 
BRANCH  55  58
ATOM     58  C   UNL A   1      43.445  25.064  25.031  1.00  0.00    -0.052 C 
ATOM     59  H   UNL A   1      42.905  25.516  24.225  1.00  0.00     0.027 H 
ATOM     60  H   UNL A   1      42.894  24.983  25.945  1.00  0.00     0.027 H 
BRANCH  58  61
ATOM     61  C   UNL A   1      43.769  23.619  24.623  1.00  0.00    -0.036 C 
ATOM     62  H   UNL A   1      44.826  23.538  24.479  1.00  0.00     0.028 H 
ATOM     63  H   UNL A   1      43.219  23.414  23.729  1.00  0.00     0.028 H 
BRANCH  61  64
ATOM     64  C   UNL A   1      43.344  22.585  25.652  1.00  0.00     0.018 C 
ATOM     65  H   UNL A   1      43.480  22.998  26.630  1.00  0.00     0.049 H 
ATOM     66  H   UNL A   1      43.947  21.713  25.505  1.00  0.00     0.049 H 
BRANCH  64  67
ATOM     67  N   UNL A   1      41.939  22.184  25.503  1.00  0.00    -0.352 N 
ATOM     68  C   UNL A   1      40.854  22.533  26.281  1.00  0.00     0.251 C 
ATOM     69  H   UNL A   1      41.745  21.585  24.746  1.00  0.00     0.163 HD
ATOM     70  O   UNL A   1      39.828  21.848  26.285  1.00  0.00    -0.269 OA
BRANCH  68  71
ATOM     71  C   UNL A   1      40.931  23.751  27.098  1.00  0.00     0.039 A 
ATOM     72  C   UNL A   1      41.829  23.903  28.159  1.00  0.00    -0.049 A 
ATOM     73  C   UNL A   1      40.075  24.784  26.742  1.00  0.00    -0.049 A 
ATOM     74  C   UNL A   1      41.882  25.134  28.810  1.00  0.00    -0.053 A 
ATOM     75  H   UNL A   1      42.438  23.123  28.452  1.00  0.00     0.063 H 
ATOM     76  C   UNL A   1      40.321  26.046  27.190  1.00  0.00    -0.053 A 
ATOM     77  H   UNL A   1      39.257  24.598  26.141  1.00  0.00     0.063 H 
ATOM     78  C   UNL A   1      41.123  26.202  28.306  1.00  0.00    -0.014 A 
ATOM     79  H   UNL A   1      42.470  25.258  29.649  1.00  0.00     0.063 H 
ATOM     80  H   UNL A   1      39.920  26.865  26.708  1.00  0.00     0.063 H 
BRANCH  78  81
ATOM     81  C   UNL A   1      41.187  27.544  28.862  1.00  0.00     0.031 A 
ATOM     82  C   UNL A   1      42.250  28.386  28.267  1.00  0.00     0.074 A 
ATOM     83  C   UNL A   1      40.205  28.040  29.651  1.00  0.00     0.049 A 
ATOM     84  N   UNL A   1      43.319  28.821  28.843  1.00  0.00    -0.248 NA
ATOM     85  C   UNL A   1      42.207  28.642  26.817  1.00  0.00    -0.034 C 
ATOM     86  C   UNL A   1      38.935  27.411  30.042  1.00  0.00    -0.036 A 
ATOM     87  N   UNL A   1      40.090  29.281  30.194  1.00  0.00    -0.354 N 
ATOM     88  C   UNL A   1      43.973  29.594  27.890  1.00  0.00     0.074 A 
ATOM     89  C   UNL A   1      43.367  29.273  26.626  1.00  0.00    -0.034 C 
ATOM     90  H   UNL A   1      41.475  28.399  26.131  1.00  0.00     0.065 H 
ATOM     91  C   UNL A   1      38.096  28.344  30.547  1.00  0.00    -0.036 A 
ATOM     92  H   UNL A   1      38.715  26.407  29.945  1.00  0.00     0.065 H 
ATOM     93  C   UNL A   1      38.823  29.589  30.682  1.00  0.00     0.049 A 
ATOM     94  H   UNL A   1      40.845  29.913  30.239  1.00  0.00     0.167 HD
ATOM     95  C   UNL A   1      44.757  30.638  28.274  1.00  0.00     0.037 A 
ATOM     96  H   UNL A   1      43.771  29.499  25.703  1.00  0.00     0.065 H 
ATOM     97  H   UNL A   1      37.106  28.193  30.795  1.00  0.00     0.065 H 
ATOM     98  C   UNL A   1      38.409  30.799  31.139  1.00  0.00     0.037 A 
ATOM     99  C   UNL A   1      45.089  30.541  29.677  1.00  0.00     0.049 A 
ATOM    100  C   UNL A   1      39.630  31.578  31.465  1.00  0.00     0.074 A 
ATOM    101  C   UNL A   1      45.735  29.601  30.459  1.00  0.00    -0.036 A 
ATOM    102  N   UNL A   1      44.383  31.328  30.554  1.00  0.00    -0.354 N 
ATOM    103  N   UNL A   1      40.445  31.270  32.436  1.00  0.00    -0.248 NA
ATOM    104  C   UNL A   1      40.198  32.400  30.407  1.00  0.00    -0.034 C 
ATOM    105  C   UNL A   1      44.998  29.568  31.680  1.00  0.00    -0.036 A 
ATOM    106  H   UNL A   1      46.570  29.046  30.212  1.00  0.00     0.065 H 
ATOM    107  C   UNL A   1      44.001  30.541  31.609  1.00  0.00     0.049 A 
ATOM    108  H   UNL A   1      44.187  32.287  30.445  1.00  0.00     0.167 HD
ATOM    109  C   UNL A   1      41.711  31.471  31.907  1.00  0.00     0.074 A 
ATOM    110  C   UNL A   1      41.495  32.238  30.682  1.00  0.00    -0.034 C 
ATOM    111  H   UNL A   1      39.735  32.947  29.664  1.00  0.00     0.065 H 
ATOM    112  H   UNL A   1      45.171  28.933  32.475  1.00  0.00     0.065 H 
ATOM    113  C   UNL A   1      42.778  30.741  32.350  1.00  0.00     0.037 A 
ATOM    114  H   UNL A   1      42.258  32.612  30.095  1.00  0.00     0.065 H 
BRANCH  95 115
ATOM    115  C   UNL A   1      44.870  31.941  27.518  1.00  0.00     0.064 A 
ATOM    116  C   UNL A   1      46.060  32.212  26.812  1.00  0.00     0.173 A 
ATOM    117  C   UNL A   1      44.014  33.049  27.710  1.00  0.00     0.173 A 
ATOM    118  F   UNL A   1      46.952  31.237  26.581  1.00  0.00    -0.203 F 
ATOM    119  C   UNL A   1      46.408  33.506  26.421  1.00  0.00     0.198 A 
ATOM    120  C   UNL A   1      44.341  34.330  27.268  1.00  0.00     0.198 A 
ATOM    121  F   UNL A   1      42.888  32.974  28.427  1.00  0.00    -0.203 F 
ATOM    122  F   UNL A   1      47.613  33.734  25.880  1.00  0.00    -0.200 F 
ATOM    123  C   UNL A   1      45.553  34.566  26.657  1.00  0.00     0.200 A 
ATOM    124  F   UNL A   1      43.504  35.345  27.523  1.00  0.00    -0.200 F 
ATOM    125  F   UNL A   1      45.914  35.817  26.346  1.00  0.00    -0.200 F 
ENDBRANCH  95 115
BRANCH  98 126
ATOM    126  C   UNL A   1      37.078  31.440  31.000  1.00  0.00     0.064 A 
ATOM    127  C   UNL A   1      36.273  31.691  32.124  1.00  0.00     0.173 A 
ATOM    128  C   UNL A   1      36.701  32.088  29.807  1.00  0.00     0.173 A 
ATOM    129  F   UNL A   1      36.586  31.150  33.311  1.00  0.00    -0.203 F 
ATOM    130  C   UNL A   1      35.180  32.564  32.067  1.00  0.00     0.198 A 
ATOM    131  C   UNL A   1      35.608  32.955  29.750  1.00  0.00     0.198 A 
ATOM    132  F   UNL A   1      37.447  31.972  28.698  1.00  0.00    -0.203 F 
ATOM    133  F   UNL A   1      34.477  32.831  33.178  1.00  0.00    -0.200 F 
ATOM    134  C   UNL A   1      34.856  33.205  30.883  1.00  0.00     0.200 A 
ATOM    135  F   UNL A   1      35.332  33.601  28.608  1.00  0.00    -0.200 F 
ATOM    136  F   UNL A   1      33.854  34.093  30.843  1.00  0.00    -0.200 F 
ENDBRANCH  98 126
BRANCH 113 137
ATOM    137  C   UNL A   1      42.594  29.917  33.595  1.00  0.00     0.064 A 
ATOM    138  C   UNL A   1      42.730  30.412  34.905  1.00  0.00     0.173 A 
ATOM    139  C   UNL A   1      42.125  28.605  33.452  1.00  0.00     0.173 A 
ATOM    140  F   UNL A   1      43.081  31.684  35.130  1.00  0.00    -0.203 F 
ATOM    141  C   UNL A   1      42.450  29.614  36.014  1.00  0.00     0.198 A 
ATOM    142  C   UNL A   1      41.811  27.823  34.560  1.00  0.00     0.198 A 
ATOM    143  F   UNL A   1      41.923  28.096  32.226  1.00  0.00    -0.203 F 
ATOM    144  F   UNL A   1      42.600  30.108  37.253  1.00  0.00    -0.200 F 
ATOM    145  C   UNL A   1      41.984  28.323  35.840  1.00  0.00     0.200 A 
ATOM    146  F   UNL A   1      41.313  26.591  34.383  1.00  0.00    -0.200 F 
ATOM    147  F   UNL A   1      41.677  27.568  36.904  1.00  0.00    -0.200 F 
ENDBRANCH 113 137
ENDBRANCH  78  81
ENDBRANCH  68  71
ENDBRANCH  64  67
ENDBRANCH  61  64
ENDBRANCH  58  61
ENDBRANCH  55  58
ENDBRANCH   1  55
TORSDOF 20
ENDMDL
MODEL 9
REMARK VINA RESULT:     -11.3      4.572      9.903
REMARK SMILES C/C(=N\Nc1nc(-c2ccc(Cl)cc2)cs1)c1nnn(-c2ccc(C(=O)NCCCCCCNC(=O)c3ccc(-c4c5nc(c(-c6c(F)c(F)c(F)c(F)c6F)c6ccc([nH]6)c(-c6c(F)c(F)c(F)c(F)c6F)c6nc(c(-c7c(F)c(F)c(F)c(F)c7F)c7ccc4[nH]7)C=C6)C=C5)cc3)cc2)c1C
REMARK SMILES IDX 29 1 28 4 27 7 25 8 26 9 24 11 21 12 22 13 101 14 23 15
REMARK SMILES IDX 100 17 20 21 17 22 18 23 102 24 19 25 2 26 3 27 1 28 4 32
REMARK SMILES IDX 5 34 6 35 16 36 7 37 15 38 8 40 9 41 14 42 10 43 13 45 11 47
REMARK SMILES IDX 12 50 103 51 30 55 31 58 32 61 33 64 34 67 35 68 36 70 37 71
REMARK SMILES IDX 38 72 99 73 39 74 98 76 40 78 41 81 42 82 92 83 43 84 97 85
REMARK SMILES IDX 91 86 93 87 44 88 96 89 90 91 89 93 45 95 77 98 57 99 76 100
REMARK SMILES IDX 58 101 61 102 75 103 94 104 59 105 60 107 74 109 95 110
REMARK SMILES IDX 62 113 46 115 47 116 55 117 48 118 49 119 53 120 56 121
REMARK SMILES IDX 50 122 51 123 54 124 52 125 78 126 79 127 87 128 80 129
REMARK SMILES IDX 81 130 85 131 88 132 82 133 83 134 86 135 84 136 63 137
REMARK SMILES IDX 64 138 72 139 65 140 66 141 70 142 73 143 67 144 68 145
REMARK SMILES IDX 71 146 69 147
REMARK H PARENT 29 2 29 3 28 5 28 6 27 10 22 16 101 18 23 19 100 20 1 29 1 30
REMARK H PARENT 1 31 4 33 15 39 9 44 14 46 10 48 13 49 103 52 103 53 103 54
REMARK H PARENT 30 56 30 57 31 59 31 60 32 62 32 63 33 65 33 66 34 69 38 75
REMARK H PARENT 99 77 39 79 98 80 97 90 91 92 93 94 96 96 90 97 58 106 61 108
REMARK H PARENT 94 111 59 112 95 114
REMARK Flexibility Score: inf
ROOT
ATOM      1  C   UNL A   1      47.187  29.951  28.487  1.00  0.00    -0.036 C 
ATOM      2  H   UNL A   1      47.037  30.830  29.078  1.00  0.00     0.028 H 
ATOM      3  H   UNL A   1      48.190  29.872  28.123  1.00  0.00     0.028 H 
ENDROOT
BRANCH   1   4
ATOM      4  C   UNL A   1      46.268  30.027  27.265  1.00  0.00     0.018 C 
ATOM      5  H   UNL A   1      45.387  29.451  27.450  1.00  0.00     0.049 H 
ATOM      6  H   UNL A   1      46.009  31.051  27.091  1.00  0.00     0.049 H 
BRANCH   4   7
ATOM      7  N   UNL A   1      46.943  29.506  26.089  1.00  0.00    -0.352 N 
ATOM      8  C   UNL A   1      46.805  28.348  25.365  1.00  0.00     0.251 C 
ATOM      9  O   UNL A   1      47.523  28.200  24.376  1.00  0.00    -0.269 OA
ATOM     10  H   UNL A   1      47.642  30.105  25.740  1.00  0.00     0.163 HD
BRANCH   8  11
ATOM     11  C   UNL A   1      45.776  27.315  25.672  1.00  0.00     0.039 A 
ATOM     12  C   UNL A   1      44.057  25.144  25.971  1.00  0.00     0.067 A 
ATOM     13  C   UNL A   1      45.338  25.063  26.513  1.00  0.00    -0.036 A 
ATOM     14  C   UNL A   1      43.585  26.333  25.410  1.00  0.00    -0.036 A 
ATOM     15  C   UNL A   1      46.203  26.149  26.336  1.00  0.00    -0.047 A 
ATOM     16  H   UNL A   1      45.641  24.224  27.032  1.00  0.00     0.065 H 
ATOM     17  C   UNL A   1      44.433  27.433  25.312  1.00  0.00    -0.047 A 
ATOM     18  H   UNL A   1      42.612  26.397  25.070  1.00  0.00     0.065 H 
ATOM     19  H   UNL A   1      47.168  26.093  26.698  1.00  0.00     0.063 H 
ATOM     20  H   UNL A   1      44.068  28.336  24.973  1.00  0.00     0.063 H 
BRANCH  12  21
ATOM     21  N   UNL A   1      43.286  23.980  25.816  1.00  0.00    -0.217 N 
ATOM     22  C   UNL A   1      41.796  22.412  26.037  1.00  0.00     0.132 A 
ATOM     23  N   UNL A   1      42.633  22.087  25.001  1.00  0.00    -0.128 NA
ATOM     24  C   UNL A   1      42.186  23.629  26.573  1.00  0.00     0.071 A 
ATOM     25  N   UNL A   1      43.477  23.099  24.817  1.00  0.00    -0.061 NA
BRANCH  22  26
ATOM     26  C   UNL A   1      40.618  21.643  26.417  1.00  0.00     0.087 C 
ATOM     27  N   UNL A   1      39.465  22.201  26.177  1.00  0.00    -0.176 NA
BRANCH  26  28
ATOM     28  C   UNL A   1      40.906  20.268  26.965  1.00  0.00    -0.018 C 
ATOM     29  H   UNL A   1      41.853  20.274  27.465  1.00  0.00     0.030 H 
ATOM     30  H   UNL A   1      40.932  19.561  26.162  1.00  0.00     0.030 H 
ATOM     31  H   UNL A   1      40.139  19.992  27.659  1.00  0.00     0.030 H 
ENDBRANCH  26  28
BRANCH  27  32
ATOM     32  N   UNL A   1      38.246  21.573  26.314  1.00  0.00    -0.252 N 
ATOM     33  H   UNL A   1      38.252  20.802  26.927  1.00  0.00     0.193 HD
BRANCH  32  34
ATOM     34  C   UNL A   1      37.039  21.833  25.750  1.00  0.00     0.203 A 
ATOM     35  N   UNL A   1      36.412  22.985  25.763  1.00  0.00    -0.219 NA
ATOM     36  S   UNL A   1      36.135  20.563  25.001  1.00  0.00    -0.103 S 
ATOM     37  C   UNL A   1      35.071  22.810  25.489  1.00  0.00     0.084 A 
ATOM     38  C   UNL A   1      34.727  21.548  25.054  1.00  0.00     0.021 A 
ATOM     39  H   UNL A   1      33.774  21.244  24.799  1.00  0.00     0.076 H 
BRANCH  37  40
ATOM     40  C   UNL A   1      34.137  23.889  25.758  1.00  0.00     0.001 A 
ATOM     41  C   UNL A   1      32.884  23.594  26.312  1.00  0.00    -0.051 A 
ATOM     42  C   UNL A   1      34.422  25.205  25.367  1.00  0.00    -0.051 A 
ATOM     43  C   UNL A   1      31.940  24.604  26.506  1.00  0.00    -0.043 A 
ATOM     44  H   UNL A   1      32.657  22.622  26.577  1.00  0.00     0.063 H 
ATOM     45  C   UNL A   1      33.472  26.215  25.550  1.00  0.00    -0.043 A 
ATOM     46  H   UNL A   1      35.335  25.429  24.942  1.00  0.00     0.063 H 
ATOM     47  C   UNL A   1      32.239  25.912  26.126  1.00  0.00     0.041 A 
ATOM     48  H   UNL A   1      31.024  24.385  26.929  1.00  0.00     0.064 H 
ATOM     49  H   UNL A   1      33.683  27.183  25.260  1.00  0.00     0.064 H 
ATOM     50  Cl  UNL A   1      31.075  27.156  26.356  1.00  0.00    -0.084 Cl
ENDBRANCH  37  40
ENDBRANCH  32  34
ENDBRANCH  27  32
ENDBRANCH  22  26
BRANCH  24  51
ATOM     51  C   UNL A   1      41.566  24.507  27.602  1.00  0.00    -0.020 C 
ATOM     52  H   UNL A   1      42.165  25.384  27.729  1.00  0.00     0.030 H 
ATOM     53  H   UNL A   1      41.505  23.979  28.530  1.00  0.00     0.030 H 
ATOM     54  H   UNL A   1      40.584  24.789  27.284  1.00  0.00     0.030 H 
ENDBRANCH  24  51
ENDBRANCH  12  21
ENDBRANCH   8  11
ENDBRANCH   4   7
ENDBRANCH   1   4
BRANCH   1  55
ATOM     55  C   UNL A   1      46.930  28.722  29.371  1.00  0.00    -0.052 C 
ATOM     56  H   UNL A   1      45.905  28.440  29.252  1.00  0.00     0.027 H 
ATOM     57  H   UNL A   1      47.186  29.022  30.366  1.00  0.00     0.027 H 
BRANCH  55  58
ATOM     58  C   UNL A   1      47.800  27.489  29.069  1.00  0.00    -0.052 C 
ATOM     59  H   UNL A   1      48.728  27.837  28.665  1.00  0.00     0.027 H 
ATOM     60  H   UNL A   1      47.219  26.890  28.399  1.00  0.00     0.027 H 
BRANCH  58  61
ATOM     61  C   UNL A   1      48.123  26.570  30.257  1.00  0.00    -0.036 C 
ATOM     62  H   UNL A   1      48.883  27.037  30.848  1.00  0.00     0.028 H 
ATOM     63  H   UNL A   1      48.442  25.633  29.851  1.00  0.00     0.028 H 
BRANCH  61  64
ATOM     64  C   UNL A   1      46.928  26.284  31.150  1.00  0.00     0.018 C 
ATOM     65  H   UNL A   1      46.367  27.187  31.272  1.00  0.00     0.049 H 
ATOM     66  H   UNL A   1      47.301  25.922  32.086  1.00  0.00     0.049 H 
BRANCH  64  67
ATOM     67  N   UNL A   1      46.043  25.251  30.595  1.00  0.00    -0.352 N 
ATOM     68  C   UNL A   1      44.688  25.321  30.342  1.00  0.00     0.251 C 
ATOM     69  H   UNL A   1      46.474  24.395  30.374  1.00  0.00     0.163 HD
ATOM     70  O   UNL A   1      44.006  24.297  30.241  1.00  0.00    -0.269 OA
BRANCH  68  71
ATOM     71  C   UNL A   1      44.065  26.640  30.175  1.00  0.00     0.039 A 
ATOM     72  C   UNL A   1      43.687  27.154  28.931  1.00  0.00    -0.049 A 
ATOM     73  C   UNL A   1      43.829  27.360  31.338  1.00  0.00    -0.049 A 
ATOM     74  C   UNL A   1      43.019  28.376  28.894  1.00  0.00    -0.053 A 
ATOM     75  H   UNL A   1      43.897  26.640  28.061  1.00  0.00     0.063 H 
ATOM     76  C   UNL A   1      42.949  28.398  31.320  1.00  0.00    -0.053 A 
ATOM     77  H   UNL A   1      44.318  27.109  32.212  1.00  0.00     0.063 H 
ATOM     78  C   UNL A   1      42.650  28.984  30.103  1.00  0.00    -0.014 A 
ATOM     79  H   UNL A   1      42.800  28.827  27.992  1.00  0.00     0.063 H 
ATOM     80  H   UNL A   1      42.515  28.738  32.192  1.00  0.00     0.063 H 
BRANCH  78  81
ATOM     81  C   UNL A   1      41.870  30.210  30.162  1.00  0.00     0.031 A 
ATOM     82  C   UNL A   1      42.668  31.436  29.926  1.00  0.00     0.074 A 
ATOM     83  C   UNL A   1      40.517  30.200  30.172  1.00  0.00     0.049 A 
ATOM     84  N   UNL A   1      42.947  32.365  30.775  1.00  0.00    -0.248 NA
ATOM     85  C   UNL A   1      43.377  31.568  28.641  1.00  0.00    -0.034 C 
ATOM     86  C   UNL A   1      39.606  29.049  30.074  1.00  0.00    -0.036 A 
ATOM     87  N   UNL A   1      39.653  31.249  30.166  1.00  0.00    -0.354 N 
ATOM     88  C   UNL A   1      43.680  33.313  30.071  1.00  0.00     0.074 A 
ATOM     89  C   UNL A   1      44.091  32.677  28.848  1.00  0.00    -0.034 C 
ATOM     90  H   UNL A   1      43.334  30.966  27.805  1.00  0.00     0.065 H 
ATOM     91  C   UNL A   1      38.356  29.474  29.784  1.00  0.00    -0.036 A 
ATOM     92  H   UNL A   1      39.881  28.062  30.207  1.00  0.00     0.065 H 
ATOM     93  C   UNL A   1      38.337  30.921  29.852  1.00  0.00     0.049 A 
ATOM     94  H   UNL A   1      39.937  32.171  30.368  1.00  0.00     0.167 HD
ATOM     95  C   UNL A   1      43.634  34.624  30.433  1.00  0.00     0.037 A 
ATOM     96  H   UNL A   1      44.832  33.028  28.220  1.00  0.00     0.065 H 
ATOM     97  H   UNL A   1      37.552  28.870  29.555  1.00  0.00     0.065 H 
ATOM     98  C   UNL A   1      37.318  31.793  29.641  1.00  0.00     0.037 A 
ATOM     99  C   UNL A   1      43.102  34.769  31.769  1.00  0.00     0.049 A 
ATOM    100  C   UNL A   1      37.722  33.085  30.251  1.00  0.00     0.074 A 
ATOM    101  C   UNL A   1      43.472  34.304  33.017  1.00  0.00    -0.036 A 
ATOM    102  N   UNL A   1      41.788  35.150  31.892  1.00  0.00    -0.354 N 
ATOM    103  N   UNL A   1      37.869  33.261  31.536  1.00  0.00    -0.248 NA
ATOM    104  C   UNL A   1      38.436  34.029  29.404  1.00  0.00    -0.034 C 
ATOM    105  C   UNL A   1      42.245  33.971  33.666  1.00  0.00    -0.036 A 
ATOM    106  H   UNL A   1      44.429  34.217  33.397  1.00  0.00     0.065 H 
ATOM    107  C   UNL A   1      41.198  34.327  32.816  1.00  0.00     0.049 A 
ATOM    108  H   UNL A   1      41.348  35.884  31.404  1.00  0.00     0.167 HD
ATOM    109  C   UNL A   1      39.016  34.031  31.655  1.00  0.00     0.074 A 
ATOM    110  C   UNL A   1      39.278  34.535  30.308  1.00  0.00    -0.034 C 
ATOM    111  H   UNL A   1      38.323  34.243  28.400  1.00  0.00     0.065 H 
ATOM    112  H   UNL A   1      42.150  33.541  34.599  1.00  0.00     0.065 H 
ATOM    113  C   UNL A   1      39.808  33.939  32.764  1.00  0.00     0.037 A 
ATOM    114  H   UNL A   1      40.029  35.206  30.081  1.00  0.00     0.065 H 
BRANCH  95 115
ATOM    115  C   UNL A   1      43.663  35.778  29.458  1.00  0.00     0.064 A 
ATOM    116  C   UNL A   1      44.549  36.846  29.702  1.00  0.00     0.173 A 
ATOM    117  C   UNL A   1      42.660  36.031  28.495  1.00  0.00     0.173 A 
ATOM    118  F   UNL A   1      45.534  36.723  30.605  1.00  0.00    -0.203 F 
ATOM    119  C   UNL A   1      44.381  38.096  29.103  1.00  0.00     0.198 A 
ATOM    120  C   UNL A   1      42.530  37.263  27.858  1.00  0.00     0.198 A 
ATOM    121  F   UNL A   1      41.696  35.148  28.210  1.00  0.00    -0.203 F 
ATOM    122  F   UNL A   1      45.163  39.120  29.473  1.00  0.00    -0.200 F 
ATOM    123  C   UNL A   1      43.366  38.307  28.188  1.00  0.00     0.200 A 
ATOM    124  F   UNL A   1      41.528  37.450  26.988  1.00  0.00    -0.200 F 
ATOM    125  F   UNL A   1      43.160  39.522  27.665  1.00  0.00    -0.200 F 
ENDBRANCH  95 115
BRANCH  98 126
ATOM    126  C   UNL A   1      36.192  31.693  28.679  1.00  0.00     0.064 A 
ATOM    127  C   UNL A   1      35.991  30.530  27.917  1.00  0.00     0.173 A 
ATOM    128  C   UNL A   1      35.124  32.612  28.708  1.00  0.00     0.173 A 
ATOM    129  F   UNL A   1      36.939  29.582  27.872  1.00  0.00    -0.203 F 
ATOM    130  C   UNL A   1      34.783  30.284  27.253  1.00  0.00     0.198 A 
ATOM    131  C   UNL A   1      33.921  32.367  28.042  1.00  0.00     0.198 A 
ATOM    132  F   UNL A   1      35.189  33.716  29.466  1.00  0.00    -0.203 F 
ATOM    133  F   UNL A   1      34.605  29.130  26.593  1.00  0.00    -0.200 F 
ATOM    134  C   UNL A   1      33.744  31.197  27.328  1.00  0.00     0.200 A 
ATOM    135  F   UNL A   1      32.910  33.240  28.157  1.00  0.00    -0.200 F 
ATOM    136  F   UNL A   1      32.564  30.932  26.752  1.00  0.00    -0.200 F 
ENDBRANCH  98 126
BRANCH 113 137
ATOM    137  C   UNL A   1      39.266  33.190  33.951  1.00  0.00     0.064 A 
ATOM    138  C   UNL A   1      38.326  33.710  34.859  1.00  0.00     0.173 A 
ATOM    139  C   UNL A   1      39.612  31.840  34.092  1.00  0.00     0.173 A 
ATOM    140  F   UNL A   1      37.868  34.962  34.738  1.00  0.00    -0.203 F 
ATOM    141  C   UNL A   1      37.794  32.925  35.882  1.00  0.00     0.198 A 
ATOM    142  C   UNL A   1      39.054  31.048  35.091  1.00  0.00     0.198 A 
ATOM    143  F   UNL A   1      40.464  31.274  33.222  1.00  0.00    -0.203 F 
ATOM    144  F   UNL A   1      36.908  33.450  36.742  1.00  0.00    -0.200 F 
ATOM    145  C   UNL A   1      38.154  31.593  35.992  1.00  0.00     0.200 A 
ATOM    146  F   UNL A   1      39.368  29.747  35.161  1.00  0.00    -0.200 F 
ATOM    147  F   UNL A   1      37.614  30.826  36.950  1.00  0.00    -0.200 F 
ENDBRANCH 113 137
ENDBRANCH  78  81
ENDBRANCH  68  71
ENDBRANCH  64  67
ENDBRANCH  61  64
ENDBRANCH  58  61
ENDBRANCH  55  58
ENDBRANCH   1  55
TORSDOF 20
ENDMDL
MODEL 10
REMARK VINA RESULT:     -11.2      3.902      6.255
REMARK SMILES C/C(=N\Nc1nc(-c2ccc(Cl)cc2)cs1)c1nnn(-c2ccc(C(=O)NCCCCCCNC(=O)c3ccc(-c4c5nc(c(-c6c(F)c(F)c(F)c(F)c6F)c6ccc([nH]6)c(-c6c(F)c(F)c(F)c(F)c6F)c6nc(c(-c7c(F)c(F)c(F)c(F)c7F)c7ccc4[nH]7)C=C6)C=C5)cc3)cc2)c1C
REMARK SMILES IDX 29 1 28 4 27 7 25 8 26 9 24 11 21 12 22 13 101 14 23 15
REMARK SMILES IDX 100 17 20 21 17 22 18 23 102 24 19 25 2 26 3 27 1 28 4 32
REMARK SMILES IDX 5 34 6 35 16 36 7 37 15 38 8 40 9 41 14 42 10 43 13 45 11 47
REMARK SMILES IDX 12 50 103 51 30 55 31 58 32 61 33 64 34 67 35 68 36 70 37 71
REMARK SMILES IDX 38 72 99 73 39 74 98 76 40 78 41 81 42 82 92 83 43 84 97 85
REMARK SMILES IDX 91 86 93 87 44 88 96 89 90 91 89 93 45 95 77 98 57 99 76 100
REMARK SMILES IDX 58 101 61 102 75 103 94 104 59 105 60 107 74 109 95 110
REMARK SMILES IDX 62 113 46 115 47 116 55 117 48 118 49 119 53 120 56 121
REMARK SMILES IDX 50 122 51 123 54 124 52 125 78 126 79 127 87 128 80 129
REMARK SMILES IDX 81 130 85 131 88 132 82 133 83 134 86 135 84 136 63 137
REMARK SMILES IDX 64 138 72 139 65 140 66 141 70 142 73 143 67 144 68 145
REMARK SMILES IDX 71 146 69 147
REMARK H PARENT 29 2 29 3 28 5 28 6 27 10 22 16 101 18 23 19 100 20 1 29 1 30
REMARK H PARENT 1 31 4 33 15 39 9 44 14 46 10 48 13 49 103 52 103 53 103 54
REMARK H PARENT 30 56 30 57 31 59 31 60 32 62 32 63 33 65 33 66 34 69 38 75
REMARK H PARENT 99 77 39 79 98 80 97 90 91 92 93 94 96 96 90 97 58 106 61 108
REMARK H PARENT 94 111 59 112 95 114
REMARK Flexibility Score: inf
ROOT
ATOM      1  C   UNL A   1      31.383  28.611  25.834  1.00  0.00    -0.036 C 
ATOM      2  H   UNL A   1      31.972  27.916  25.272  1.00  0.00     0.028 H 
ATOM      3  H   UNL A   1      30.383  28.263  25.988  1.00  0.00     0.028 H 
ENDROOT
BRANCH   1   4
ATOM      4  C   UNL A   1      31.289  29.917  25.041  1.00  0.00     0.018 C 
ATOM      5  H   UNL A   1      30.915  30.690  25.679  1.00  0.00     0.049 H 
ATOM      6  H   UNL A   1      32.264  30.175  24.682  1.00  0.00     0.049 H 
BRANCH   4   7
ATOM      7  N   UNL A   1      30.396  29.759  23.906  1.00  0.00    -0.352 N 
ATOM      8  C   UNL A   1      30.372  28.887  22.847  1.00  0.00     0.251 C 
ATOM      9  O   UNL A   1      29.448  28.989  22.040  1.00  0.00    -0.269 OA
ATOM     10  H   UNL A   1      29.659  30.412  23.894  1.00  0.00     0.163 HD
BRANCH   8  11
ATOM     11  C   UNL A   1      31.356  27.780  22.683  1.00  0.00     0.039 A 
ATOM     12  C   UNL A   1      33.153  25.655  22.787  1.00  0.00     0.067 A 
ATOM     13  C   UNL A   1      31.794  25.390  22.936  1.00  0.00    -0.036 A 
ATOM     14  C   UNL A   1      33.606  26.934  22.453  1.00  0.00    -0.036 A 
ATOM     15  C   UNL A   1      30.901  26.466  22.908  1.00  0.00    -0.047 A 
ATOM     16  H   UNL A   1      31.454  24.424  23.065  1.00  0.00     0.065 H 
ATOM     17  C   UNL A   1      32.695  27.982  22.350  1.00  0.00    -0.047 A 
ATOM     18  H   UNL A   1      34.611  27.101  22.283  1.00  0.00     0.065 H 
ATOM     19  H   UNL A   1      29.893  26.294  23.053  1.00  0.00     0.063 H 
ATOM     20  H   UNL A   1      33.012  28.909  22.026  1.00  0.00     0.063 H 
BRANCH  12  21
ATOM     21  N   UNL A   1      34.102  24.684  23.149  1.00  0.00    -0.217 N 
ATOM     22  C   UNL A   1      35.562  23.484  24.223  1.00  0.00     0.132 A 
ATOM     23  N   UNL A   1      35.404  22.968  22.963  1.00  0.00    -0.128 NA
ATOM     24  C   UNL A   1      34.730  24.581  24.374  1.00  0.00     0.071 A 
ATOM     25  N   UNL A   1      34.439  23.652  22.354  1.00  0.00    -0.061 NA
BRANCH  22  26
ATOM     26  C   UNL A   1      36.391  22.884  25.261  1.00  0.00     0.087 C 
ATOM     27  N   UNL A   1      37.511  23.496  25.526  1.00  0.00    -0.176 NA
BRANCH  26  28
ATOM     28  C   UNL A   1      35.791  21.677  25.937  1.00  0.00    -0.018 C 
ATOM     29  H   UNL A   1      35.940  21.751  26.995  1.00  0.00     0.030 H 
ATOM     30  H   UNL A   1      36.265  20.790  25.572  1.00  0.00     0.030 H 
ATOM     31  H   UNL A   1      34.742  21.635  25.728  1.00  0.00     0.030 H 
ENDBRANCH  26  28
BRANCH  27  32
ATOM     32  N   UNL A   1      38.347  23.181  26.576  1.00  0.00    -0.252 N 
ATOM     33  H   UNL A   1      37.914  22.684  27.306  1.00  0.00     0.193 HD
BRANCH  32  34
ATOM     34  C   UNL A   1      39.665  23.436  26.775  1.00  0.00     0.203 A 
ATOM     35  N   UNL A   1      40.662  22.957  26.069  1.00  0.00    -0.219 NA
ATOM     36  S   UNL A   1      40.173  24.403  28.116  1.00  0.00    -0.103 S 
ATOM     37  C   UNL A   1      41.846  23.060  26.768  1.00  0.00     0.084 A 
ATOM     38  C   UNL A   1      41.778  23.818  27.917  1.00  0.00     0.021 A 
ATOM     39  H   UNL A   1      42.566  24.006  28.557  1.00  0.00     0.076 H 
BRANCH  37  40
ATOM     40  C   UNL A   1      43.011  22.317  26.321  1.00  0.00     0.001 A 
ATOM     41  C   UNL A   1      44.241  22.975  26.193  1.00  0.00    -0.051 A 
ATOM     42  C   UNL A   1      42.899  20.982  25.906  1.00  0.00    -0.051 A 
ATOM     43  C   UNL A   1      45.355  22.300  25.691  1.00  0.00    -0.043 A 
ATOM     44  H   UNL A   1      44.323  23.965  26.471  1.00  0.00     0.063 H 
ATOM     45  C   UNL A   1      44.013  20.310  25.391  1.00  0.00    -0.043 A 
ATOM     46  H   UNL A   1      41.993  20.494  25.980  1.00  0.00     0.063 H 
ATOM     47  C   UNL A   1      45.237  20.970  25.294  1.00  0.00     0.041 A 
ATOM     48  H   UNL A   1      46.264  22.785  25.613  1.00  0.00     0.064 H 
ATOM     49  H   UNL A   1      43.929  19.328  25.085  1.00  0.00     0.064 H 
ATOM     50  Cl  UNL A   1      46.606  20.139  24.666  1.00  0.00    -0.084 Cl
ENDBRANCH  37  40
ENDBRANCH  32  34
ENDBRANCH  27  32
ENDBRANCH  22  26
BRANCH  24  51
ATOM     51  C   UNL A   1      34.398  25.423  25.555  1.00  0.00    -0.020 C 
ATOM     52  H   UNL A   1      33.415  25.829  25.438  1.00  0.00     0.030 H 
ATOM     53  H   UNL A   1      35.107  26.220  25.635  1.00  0.00     0.030 H 
ATOM     54  H   UNL A   1      34.433  24.823  26.441  1.00  0.00     0.030 H 
ENDBRANCH  24  51
ENDBRANCH  12  21
ENDBRANCH   8  11
ENDBRANCH   4   7
ENDBRANCH   1   4
BRANCH   1  55
ATOM     55  C   UNL A   1      32.021  28.779  27.219  1.00  0.00    -0.052 C 
ATOM     56  H   UNL A   1      31.645  28.002  27.851  1.00  0.00     0.027 H 
ATOM     57  H   UNL A   1      31.761  29.766  27.542  1.00  0.00     0.027 H 
BRANCH  55  58
ATOM     58  C   UNL A   1      33.558  28.719  27.259  1.00  0.00    -0.052 C 
ATOM     59  H   UNL A   1      33.881  28.130  26.426  1.00  0.00     0.027 H 
ATOM     60  H   UNL A   1      33.801  28.305  28.216  1.00  0.00     0.027 H 
BRANCH  58  61
ATOM     61  C   UNL A   1      34.300  30.062  27.197  1.00  0.00    -0.036 C 
ATOM     62  H   UNL A   1      33.583  30.836  27.019  1.00  0.00     0.028 H 
ATOM     63  H   UNL A   1      35.021  29.987  26.411  1.00  0.00     0.028 H 
BRANCH  61  64
ATOM     64  C   UNL A   1      35.062  30.398  28.468  1.00  0.00     0.018 C 
ATOM     65  H   UNL A   1      36.102  30.485  28.231  1.00  0.00     0.049 H 
ATOM     66  H   UNL A   1      34.883  29.612  29.172  1.00  0.00     0.049 H 
BRANCH  64  67
ATOM     67  N   UNL A   1      34.612  31.655  29.081  1.00  0.00    -0.352 N 
ATOM     68  C   UNL A   1      35.198  32.375  30.102  1.00  0.00     0.251 C 
ATOM     69  H   UNL A   1      33.782  32.034  28.714  1.00  0.00     0.163 HD
ATOM     70  O   UNL A   1      34.543  33.182  30.768  1.00  0.00    -0.269 OA
BRANCH  68  71
ATOM     71  C   UNL A   1      36.627  32.181  30.377  1.00  0.00     0.039 A 
ATOM     72  C   UNL A   1      37.131  31.930  31.657  1.00  0.00    -0.049 A 
ATOM     73  C   UNL A   1      37.477  32.224  29.280  1.00  0.00    -0.049 A 
ATOM     74  C   UNL A   1      38.493  31.669  31.794  1.00  0.00    -0.053 A 
ATOM     75  H   UNL A   1      36.508  31.938  32.481  1.00  0.00     0.063 H 
ATOM     76  C   UNL A   1      38.731  31.705  29.380  1.00  0.00    -0.053 A 
ATOM     77  H   UNL A   1      37.158  32.646  28.394  1.00  0.00     0.063 H 
ATOM     78  C   UNL A   1      39.281  31.553  30.639  1.00  0.00    -0.014 A 
ATOM     79  H   UNL A   1      38.915  31.563  32.730  1.00  0.00     0.063 H 
ATOM     80  H   UNL A   1      39.258  31.432  28.536  1.00  0.00     0.063 H 
BRANCH  78  81
ATOM     81  C   UNL A   1      40.688  31.191  30.680  1.00  0.00     0.031 A 
ATOM     82  C   UNL A   1      41.605  32.346  30.538  1.00  0.00     0.074 A 
ATOM     83  C   UNL A   1      41.102  29.962  31.069  1.00  0.00     0.049 A 
ATOM     84  N   UNL A   1      42.391  32.605  29.549  1.00  0.00    -0.248 NA
ATOM     85  C   UNL A   1      41.523  33.427  31.535  1.00  0.00    -0.034 C 
ATOM     86  C   UNL A   1      40.295  28.832  31.554  1.00  0.00    -0.036 A 
ATOM     87  N   UNL A   1      42.369  29.493  31.215  1.00  0.00    -0.354 N 
ATOM     88  C   UNL A   1      43.070  33.766  29.900  1.00  0.00     0.074 A 
ATOM     89  C   UNL A   1      42.350  34.333  31.010  1.00  0.00    -0.034 C 
ATOM     90  H   UNL A   1      40.974  33.472  32.408  1.00  0.00     0.065 H 
ATOM     91  C   UNL A   1      41.093  27.919  32.151  1.00  0.00    -0.036 A 
ATOM     92  H   UNL A   1      39.271  28.749  31.454  1.00  0.00     0.065 H 
ATOM     93  C   UNL A   1      42.472  28.306  31.936  1.00  0.00     0.049 A 
ATOM     94  H   UNL A   1      43.153  29.957  30.841  1.00  0.00     0.167 HD
ATOM     95  C   UNL A   1      44.325  33.997  29.428  1.00  0.00     0.037 A 
ATOM     96  H   UNL A   1      42.459  35.301  31.350  1.00  0.00     0.065 H 
ATOM     97  H   UNL A   1      40.774  27.087  32.670  1.00  0.00     0.065 H 
ATOM     98  C   UNL A   1      43.622  27.708  32.342  1.00  0.00     0.037 A 
ATOM     99  C   UNL A   1      44.614  33.141  28.300  1.00  0.00     0.049 A 
ATOM    100  C   UNL A   1      44.716  28.262  31.504  1.00  0.00     0.074 A 
ATOM    101  C   UNL A   1      44.043  32.949  27.056  1.00  0.00    -0.036 A 
ATOM    102  N   UNL A   1      45.386  32.028  28.528  1.00  0.00    -0.354 N 
ATOM    103  N   UNL A   1      44.823  28.044  30.222  1.00  0.00    -0.248 NA
ATOM    104  C   UNL A   1      45.398  29.449  31.997  1.00  0.00    -0.034 C 
ATOM    105  C   UNL A   1      44.104  31.540  26.837  1.00  0.00    -0.036 A 
ATOM    106  H   UNL A   1      43.657  33.668  26.424  1.00  0.00     0.065 H 
ATOM    107  C   UNL A   1      44.780  30.964  27.913  1.00  0.00     0.049 A 
ATOM    108  H   UNL A   1      46.226  31.999  29.041  1.00  0.00     0.167 HD
ATOM    109  C   UNL A   1      45.194  29.270  29.689  1.00  0.00     0.074 A 
ATOM    110  C   UNL A   1      45.605  30.076  30.836  1.00  0.00    -0.034 C 
ATOM    111  H   UNL A   1      45.648  29.724  32.960  1.00  0.00     0.065 H 
ATOM    112  H   UNL A   1      43.715  31.036  26.024  1.00  0.00     0.065 H 
ATOM    113  C   UNL A   1      44.846  29.611  28.412  1.00  0.00     0.037 A 
ATOM    114  H   UNL A   1      46.010  31.022  30.759  1.00  0.00     0.065 H 
BRANCH  95 115
ATOM    115  C   UNL A   1      45.423  34.667  30.221  1.00  0.00     0.064 A 
ATOM    116  C   UNL A   1      46.172  35.691  29.606  1.00  0.00     0.173 A 
ATOM    117  C   UNL A   1      45.973  34.146  31.414  1.00  0.00     0.173 A 
ATOM    118  F   UNL A   1      45.750  36.251  28.463  1.00  0.00    -0.203 F 
ATOM    119  C   UNL A   1      47.418  36.089  30.095  1.00  0.00     0.198 A 
ATOM    120  C   UNL A   1      47.191  34.586  31.928  1.00  0.00     0.198 A 
ATOM    121  F   UNL A   1      45.426  33.119  32.072  1.00  0.00    -0.203 F 
ATOM    122  F   UNL A   1      48.155  36.965  29.397  1.00  0.00    -0.200 F 
ATOM    123  C   UNL A   1      47.931  35.530  31.250  1.00  0.00     0.200 A 
ATOM    124  F   UNL A   1      47.678  34.018  33.041  1.00  0.00    -0.200 F 
ATOM    125  F   UNL A   1      49.155  35.859  31.682  1.00  0.00    -0.200 F 
ENDBRANCH  95 115
BRANCH  98 126
ATOM    126  C   UNL A   1      43.890  26.963  33.597  1.00  0.00     0.064 A 
ATOM    127  C   UNL A   1      43.719  27.571  34.851  1.00  0.00     0.173 A 
ATOM    128  C   UNL A   1      44.026  25.560  33.597  1.00  0.00     0.173 A 
ATOM    129  F   UNL A   1      43.536  28.897  34.938  1.00  0.00    -0.203 F 
ATOM    130  C   UNL A   1      43.653  26.820  36.031  1.00  0.00     0.198 A 
ATOM    131  C   UNL A   1      43.965  24.812  34.775  1.00  0.00     0.198 A 
ATOM    132  F   UNL A   1      44.120  24.879  32.445  1.00  0.00    -0.203 F 
ATOM    133  F   UNL A   1      43.420  27.431  37.202  1.00  0.00    -0.200 F 
ATOM    134  C   UNL A   1      43.763  25.439  35.990  1.00  0.00     0.200 A 
ATOM    135  F   UNL A   1      44.032  23.474  34.716  1.00  0.00    -0.200 F 
ATOM    136  F   UNL A   1      43.631  24.714  37.109  1.00  0.00    -0.200 F 
ENDBRANCH  98 126
BRANCH 113 137
ATOM    137  C   UNL A   1      44.291  28.530  27.525  1.00  0.00     0.064 A 
ATOM    138  C   UNL A   1      42.922  28.243  27.380  1.00  0.00     0.173 A 
ATOM    139  C   UNL A   1      45.180  27.851  26.681  1.00  0.00     0.173 A 
ATOM    140  F   UNL A   1      41.998  28.914  28.079  1.00  0.00    -0.203 F 
ATOM    141  C   UNL A   1      42.474  27.291  26.465  1.00  0.00     0.198 A 
ATOM    142  C   UNL A   1      44.727  26.928  25.743  1.00  0.00     0.198 A 
ATOM    143  F   UNL A   1      46.494  28.123  26.735  1.00  0.00    -0.203 F 
ATOM    144  F   UNL A   1      41.162  27.027  26.357  1.00  0.00    -0.200 F 
ATOM    145  C   UNL A   1      43.377  26.640  25.643  1.00  0.00     0.200 A 
ATOM    146  F   UNL A   1      45.602  26.338  24.916  1.00  0.00    -0.200 F 
ATOM    147  F   UNL A   1      42.943  25.753  24.735  1.00  0.00    -0.200 F 
ENDBRANCH 113 137
ENDBRANCH  78  81
ENDBRANCH  68  71
ENDBRANCH  64  67
ENDBRANCH  61  64
ENDBRANCH  58  61
ENDBRANCH  55  58
ENDBRANCH   1  55
TORSDOF 20
ENDMDL
