MODEL 1
REMARK VINA RESULT:     -12.2      0.000      0.000
REMARK SMILES C[C@@H](C(=O)NCCCCCCNC(=O)c1ccc(-c2c3nc(c(-c4c(F)c(F)c(F)c(F)c4F)c4ccc([nH]4)c(-c4c(F)c(F)c(F)c(F)c4F)c4nc(c(-c5c(F)c(F)c(F)c(F)c5F)c5ccc2[nH]5)C=C4)C=C3)cc1)c1ccc(C[C@H]2CCCC2=O)cc1-c1ccccc1
REMARK SMILES IDX 8 1 7 4 6 7 5 10 3 11 4 12 2 14 1 16 78 20 79 21 90 22 80 23
REMARK SMILES IDX 89 25 81 26 91 29 92 30 96 31 93 32 95 34 94 36 82 40 83 43
REMARK SMILES IDX 84 44 87 45 85 47 86 50 88 51 9 56 10 59 11 62 12 65 13 66
REMARK SMILES IDX 14 68 15 69 16 70 77 71 17 72 76 74 18 76 19 79 20 80 70 81
REMARK SMILES IDX 21 82 75 83 69 84 71 85 22 86 74 87 68 89 67 91 23 93 55 96
REMARK SMILES IDX 35 97 54 98 36 99 39 100 53 101 72 102 37 103 38 105 52 107
REMARK SMILES IDX 73 108 40 111 24 113 25 114 33 115 26 116 27 117 31 118
REMARK SMILES IDX 34 119 28 120 29 121 32 122 30 123 56 124 57 125 65 126
REMARK SMILES IDX 58 127 59 128 63 129 66 130 60 131 61 132 64 133 62 134
REMARK SMILES IDX 41 135 42 136 50 137 43 138 44 139 48 140 51 141 45 142
REMARK SMILES IDX 46 143 49 144 47 145
REMARK H PARENT 8 2 8 3 7 5 7 6 6 8 6 9 5 13 2 15 1 17 1 18 1 19 79 24 80 27
REMARK H PARENT 89 28 92 33 96 35 93 37 95 38 94 39 82 41 82 42 83 46 84 48
REMARK H PARENT 84 49 85 52 85 53 86 54 86 55 9 57 9 58 10 60 10 61 11 63
REMARK H PARENT 11 64 12 67 16 73 77 75 17 77 76 78 75 88 69 90 71 92 74 94
REMARK H PARENT 68 95 36 104 39 106 72 109 37 110 73 112
REMARK Flexibility Score: inf
ROOT
ATOM      1  C   UNL A   1      29.972  30.727  24.272  1.00  0.00    -0.052 C 
ATOM      2  H   UNL A   1      29.041  30.485  24.740  1.00  0.00     0.027 H 
ATOM      3  H   UNL A   1      29.963  31.674  23.774  1.00  0.00     0.027 H 
ENDROOT
BRANCH   1   4
ATOM      4  C   UNL A   1      30.248  29.676  23.189  1.00  0.00    -0.036 C 
ATOM      5  H   UNL A   1      29.571  29.845  22.378  1.00  0.00     0.028 H 
ATOM      6  H   UNL A   1      31.274  29.791  22.909  1.00  0.00     0.028 H 
BRANCH   4   7
ATOM      7  C   UNL A   1      30.084  28.228  23.655  1.00  0.00     0.017 C 
ATOM      8  H   UNL A   1      30.768  28.036  24.455  1.00  0.00     0.049 H 
ATOM      9  H   UNL A   1      29.077  28.084  23.986  1.00  0.00     0.049 H 
BRANCH   7  10
ATOM     10  N   UNL A   1      30.352  27.310  22.572  1.00  0.00    -0.356 N 
ATOM     11  C   UNL A   1      31.528  26.806  22.100  1.00  0.00     0.227 C 
ATOM     12  O   UNL A   1      31.427  26.140  21.069  1.00  0.00    -0.274 OA
ATOM     13  H   UNL A   1      29.550  26.996  22.093  1.00  0.00     0.163 HD
BRANCH  11  14
ATOM     14  C   UNL A   1      32.843  27.056  22.874  1.00  0.00     0.061 C 
ATOM     15  H   UNL A   1      32.523  27.719  23.652  1.00  0.00     0.045 H 
BRANCH  14  16
ATOM     16  C   UNL A   1      33.910  27.717  22.000  1.00  0.00    -0.049 C 
ATOM     17  H   UNL A   1      34.289  28.586  22.496  1.00  0.00     0.024 H 
ATOM     18  H   UNL A   1      33.478  28.001  21.064  1.00  0.00     0.024 H 
ATOM     19  H   UNL A   1      34.709  27.026  21.831  1.00  0.00     0.024 H 
ENDBRANCH  14  16
BRANCH  14  20
ATOM     20  C   UNL A   1      33.463  25.840  23.580  1.00  0.00    -0.028 A 
ATOM     21  C   UNL A   1      34.007  24.786  22.820  1.00  0.00    -0.057 A 
ATOM     22  C   UNL A   1      33.619  25.791  24.992  1.00  0.00    -0.014 A 
ATOM     23  C   UNL A   1      34.599  23.675  23.415  1.00  0.00    -0.059 A 
ATOM     24  H   UNL A   1      33.967  24.840  21.791  1.00  0.00     0.063 H 
ATOM     25  C   UNL A   1      34.202  24.641  25.575  1.00  0.00    -0.051 A 
ATOM     26  C   UNL A   1      34.675  23.573  24.801  1.00  0.00    -0.047 A 
ATOM     27  H   UNL A   1      34.982  22.922  22.824  1.00  0.00     0.063 H 
ATOM     28  H   UNL A   1      34.280  24.586  26.602  1.00  0.00     0.063 H 
BRANCH  22  29
ATOM     29  C   UNL A   1      33.319  26.934  25.879  1.00  0.00    -0.018 A 
ATOM     30  C   UNL A   1      32.070  26.998  26.528  1.00  0.00    -0.054 A 
ATOM     31  C   UNL A   1      34.242  27.959  26.127  1.00  0.00    -0.054 A 
ATOM     32  C   UNL A   1      31.769  28.029  27.420  1.00  0.00    -0.062 A 
ATOM     33  H   UNL A   1      31.365  26.269  26.340  1.00  0.00     0.063 H 
ATOM     34  C   UNL A   1      33.947  28.985  27.032  1.00  0.00    -0.062 A 
ATOM     35  H   UNL A   1      35.150  27.957  25.637  1.00  0.00     0.063 H 
ATOM     36  C   UNL A   1      32.713  29.017  27.681  1.00  0.00    -0.062 A 
ATOM     37  H   UNL A   1      30.848  28.058  27.886  1.00  0.00     0.062 H 
ATOM     38  H   UNL A   1      34.646  29.720  27.221  1.00  0.00     0.062 H 
ATOM     39  H   UNL A   1      32.500  29.771  28.352  1.00  0.00     0.062 H 
ENDBRANCH  22  29
BRANCH  26  40
ATOM     40  C   UNL A   1      35.285  22.350  25.438  1.00  0.00    -0.018 C 
ATOM     41  H   UNL A   1      35.824  22.668  26.306  1.00  0.00     0.032 H 
ATOM     42  H   UNL A   1      35.895  21.906  24.678  1.00  0.00     0.032 H 
BRANCH  40  43
ATOM     43  C   UNL A   1      34.307  21.253  25.871  1.00  0.00     0.022 C 
ATOM     44  C   UNL A   1      32.841  21.674  26.007  1.00  0.00    -0.043 C 
ATOM     45  C   UNL A   1      34.218  20.115  24.879  1.00  0.00     0.136 C 
ATOM     46  H   UNL A   1      34.727  20.986  26.818  1.00  0.00     0.039 H 
ATOM     47  C   UNL A   1      32.153  21.265  24.710  1.00  0.00    -0.046 C 
ATOM     48  H   UNL A   1      32.772  22.732  26.145  1.00  0.00     0.027 H 
ATOM     49  H   UNL A   1      32.381  21.208  26.854  1.00  0.00     0.027 H 
ATOM     50  C   UNL A   1      32.856  19.995  24.250  1.00  0.00     0.006 C 
ATOM     51  O   UNL A   1      35.151  19.361  24.626  1.00  0.00    -0.299 OA
ATOM     52  H   UNL A   1      32.256  22.035  23.975  1.00  0.00     0.027 H 
ATOM     53  H   UNL A   1      31.106  21.105  24.855  1.00  0.00     0.027 H 
ATOM     54  H   UNL A   1      32.925  19.959  23.183  1.00  0.00     0.035 H 
ATOM     55  H   UNL A   1      32.339  19.101  24.533  1.00  0.00     0.035 H 
ENDBRANCH  40  43
ENDBRANCH  26  40
ENDBRANCH  14  20
ENDBRANCH  11  14
ENDBRANCH   7  10
ENDBRANCH   4   7
ENDBRANCH   1   4
BRANCH   1  56
ATOM     56  C   UNL A   1      31.039  30.830  25.365  1.00  0.00    -0.052 C 
ATOM     57  H   UNL A   1      31.999  30.733  24.903  1.00  0.00     0.027 H 
ATOM     58  H   UNL A   1      30.829  30.051  26.067  1.00  0.00     0.027 H 
BRANCH  56  59
ATOM     59  C   UNL A   1      31.020  32.140  26.152  1.00  0.00    -0.036 C 
ATOM     60  H   UNL A   1      30.239  32.082  26.880  1.00  0.00     0.028 H 
ATOM     61  H   UNL A   1      30.869  32.923  25.439  1.00  0.00     0.028 H 
BRANCH  59  62
ATOM     62  C   UNL A   1      32.324  32.455  26.876  1.00  0.00     0.018 C 
ATOM     63  H   UNL A   1      33.140  32.296  26.203  1.00  0.00     0.049 H 
ATOM     64  H   UNL A   1      32.392  31.810  27.728  1.00  0.00     0.049 H 
BRANCH  62  65
ATOM     65  N   UNL A   1      32.367  33.828  27.351  1.00  0.00    -0.352 N 
ATOM     66  C   UNL A   1      33.183  34.386  28.300  1.00  0.00     0.251 C 
ATOM     67  H   UNL A   1      31.720  34.442  26.932  1.00  0.00     0.163 HD
ATOM     68  O   UNL A   1      32.956  35.515  28.733  1.00  0.00    -0.269 OA
BRANCH  66  69
ATOM     69  C   UNL A   1      34.329  33.614  28.821  1.00  0.00     0.039 A 
ATOM     70  C   UNL A   1      35.616  34.140  28.689  1.00  0.00    -0.049 A 
ATOM     71  C   UNL A   1      34.131  32.380  29.445  1.00  0.00    -0.049 A 
ATOM     72  C   UNL A   1      36.700  33.453  29.237  1.00  0.00    -0.053 A 
ATOM     73  H   UNL A   1      35.764  35.031  28.190  1.00  0.00     0.063 H 
ATOM     74  C   UNL A   1      35.200  31.736  30.060  1.00  0.00    -0.053 A 
ATOM     75  H   UNL A   1      33.194  31.946  29.451  1.00  0.00     0.063 H 
ATOM     76  C   UNL A   1      36.497  32.263  29.957  1.00  0.00    -0.014 A 
ATOM     77  H   UNL A   1      37.656  33.821  29.113  1.00  0.00     0.063 H 
ATOM     78  H   UNL A   1      35.040  30.867  30.593  1.00  0.00     0.063 H 
BRANCH  76  79
ATOM     79  C   UNL A   1      37.630  31.556  30.606  1.00  0.00     0.031 A 
ATOM     80  C   UNL A   1      38.027  31.902  32.014  1.00  0.00     0.074 A 
ATOM     81  C   UNL A   1      38.336  30.646  29.908  1.00  0.00     0.049 A 
ATOM     82  N   UNL A   1      39.023  31.445  32.730  1.00  0.00    -0.248 NA
ATOM     83  C   UNL A   1      37.212  32.916  32.703  1.00  0.00    -0.034 C 
ATOM     84  C   UNL A   1      38.076  30.258  28.520  1.00  0.00    -0.036 A 
ATOM     85  N   UNL A   1      39.424  29.889  30.265  1.00  0.00    -0.354 N 
ATOM     86  C   UNL A   1      38.961  32.121  33.941  1.00  0.00     0.074 A 
ATOM     87  C   UNL A   1      37.866  33.061  33.845  1.00  0.00    -0.034 C 
ATOM     88  H   UNL A   1      36.355  33.391  32.379  1.00  0.00     0.065 H 
ATOM     89  C   UNL A   1      38.963  29.320  28.152  1.00  0.00    -0.036 A 
ATOM     90  H   UNL A   1      37.331  30.643  27.920  1.00  0.00     0.065 H 
ATOM     91  C   UNL A   1      39.881  29.071  29.260  1.00  0.00     0.049 A 
ATOM     92  H   UNL A   1      39.839  29.928  31.157  1.00  0.00     0.167 HD
ATOM     93  C   UNL A   1      39.732  31.955  35.042  1.00  0.00     0.037 A 
ATOM     94  H   UNL A   1      37.626  33.753  34.572  1.00  0.00     0.065 H 
ATOM     95  H   UNL A   1      38.992  28.849  27.234  1.00  0.00     0.065 H 
ATOM     96  C   UNL A   1      40.928  28.224  29.232  1.00  0.00     0.037 A 
ATOM     97  C   UNL A   1      40.807  31.003  35.139  1.00  0.00     0.049 A 
ATOM     98  C   UNL A   1      41.779  28.073  30.465  1.00  0.00     0.074 A 
ATOM     99  C   UNL A   1      41.612  30.719  36.229  1.00  0.00    -0.036 A 
ATOM    100  N   UNL A   1      41.232  30.182  34.104  1.00  0.00    -0.354 N 
ATOM    101  N   UNL A   1      41.667  28.667  31.628  1.00  0.00    -0.248 NA
ATOM    102  C   UNL A   1      42.901  27.128  30.383  1.00  0.00    -0.034 C 
ATOM    103  C   UNL A   1      42.559  29.768  35.837  1.00  0.00    -0.036 A 
ATOM    104  H   UNL A   1      41.526  31.136  37.169  1.00  0.00     0.065 H 
ATOM    105  C   UNL A   1      42.305  29.411  34.523  1.00  0.00     0.049 A 
ATOM    106  H   UNL A   1      40.831  30.152  33.205  1.00  0.00     0.167 HD
ATOM    107  C   UNL A   1      42.676  28.143  32.425  1.00  0.00     0.074 A 
ATOM    108  C   UNL A   1      43.384  27.172  31.616  1.00  0.00    -0.034 C 
ATOM    109  H   UNL A   1      43.227  26.573  29.575  1.00  0.00     0.065 H 
ATOM    110  H   UNL A   1      43.320  29.395  36.427  1.00  0.00     0.065 H 
ATOM    111  C   UNL A   1      42.990  28.439  33.710  1.00  0.00     0.037 A 
ATOM    112  H   UNL A   1      44.163  26.589  31.956  1.00  0.00     0.065 H 
BRANCH  93 113
ATOM    113  C   UNL A   1      39.443  32.820  36.235  1.00  0.00     0.064 A 
ATOM    114  C   UNL A   1      40.095  34.048  36.431  1.00  0.00     0.173 A 
ATOM    115  C   UNL A   1      38.467  32.442  37.169  1.00  0.00     0.173 A 
ATOM    116  F   UNL A   1      41.044  34.453  35.575  1.00  0.00    -0.203 F 
ATOM    117  C   UNL A   1      39.798  34.850  37.530  1.00  0.00     0.198 A 
ATOM    118  C   UNL A   1      38.149  33.262  38.248  1.00  0.00     0.198 A 
ATOM    119  F   UNL A   1      37.808  31.281  37.028  1.00  0.00    -0.203 F 
ATOM    120  F   UNL A   1      40.468  35.995  37.721  1.00  0.00    -0.200 F 
ATOM    121  C   UNL A   1      38.820  34.462  38.432  1.00  0.00     0.200 A 
ATOM    122  F   UNL A   1      37.192  32.892  39.110  1.00  0.00    -0.200 F 
ATOM    123  F   UNL A   1      38.527  35.241  39.482  1.00  0.00    -0.200 F 
ENDBRANCH  93 113
BRANCH  96 124
ATOM    124  C   UNL A   1      41.224  27.442  28.003  1.00  0.00     0.064 A 
ATOM    125  C   UNL A   1      40.707  26.150  27.826  1.00  0.00     0.173 A 
ATOM    126  C   UNL A   1      42.046  27.957  26.990  1.00  0.00     0.173 A 
ATOM    127  F   UNL A   1      39.932  25.604  28.776  1.00  0.00    -0.203 F 
ATOM    128  C   UNL A   1      41.024  25.394  26.700  1.00  0.00     0.198 A 
ATOM    129  C   UNL A   1      42.334  27.213  25.848  1.00  0.00     0.198 A 
ATOM    130  F   UNL A   1      42.562  29.190  27.105  1.00  0.00    -0.203 F 
ATOM    131  F   UNL A   1      40.563  24.142  26.586  1.00  0.00    -0.200 F 
ATOM    132  C   UNL A   1      41.834  25.929  25.709  1.00  0.00     0.200 A 
ATOM    133  F   UNL A   1      43.104  27.740  24.885  1.00  0.00    -0.200 F 
ATOM    134  F   UNL A   1      42.138  25.201  24.626  1.00  0.00    -0.200 F 
ENDBRANCH  96 124
BRANCH 111 135
ATOM    135  C   UNL A   1      44.117  27.671  34.340  1.00  0.00     0.064 A 
ATOM    136  C   UNL A   1      45.431  28.161  34.351  1.00  0.00     0.173 A 
ATOM    137  C   UNL A   1      43.868  26.447  34.980  1.00  0.00     0.173 A 
ATOM    138  F   UNL A   1      45.726  29.319  33.742  1.00  0.00    -0.203 F 
ATOM    139  C   UNL A   1      46.459  27.439  34.954  1.00  0.00     0.198 A 
ATOM    140  C   UNL A   1      44.891  25.746  35.612  1.00  0.00     0.198 A 
ATOM    141  F   UNL A   1      42.627  25.937  35.007  1.00  0.00    -0.203 F 
ATOM    142  F   UNL A   1      47.716  27.901  34.905  1.00  0.00    -0.200 F 
ATOM    143  C   UNL A   1      46.187  26.237  35.591  1.00  0.00     0.200 A 
ATOM    144  F   UNL A   1      44.621  24.594  36.241  1.00  0.00    -0.200 F 
ATOM    145  F   UNL A   1      47.175  25.550  36.178  1.00  0.00    -0.200 F 
ENDBRANCH 111 135
ENDBRANCH  76  79
ENDBRANCH  66  69
ENDBRANCH  62  65
ENDBRANCH  59  62
ENDBRANCH  56  59
ENDBRANCH   1  56
TORSDOF 18
ENDMDL
MODEL 2
REMARK VINA RESULT:     -12.2      0.594      7.065
REMARK SMILES C[C@@H](C(=O)NCCCCCCNC(=O)c1ccc(-c2c3nc(c(-c4c(F)c(F)c(F)c(F)c4F)c4ccc([nH]4)c(-c4c(F)c(F)c(F)c(F)c4F)c4nc(c(-c5c(F)c(F)c(F)c(F)c5F)c5ccc2[nH]5)C=C4)C=C3)cc1)c1ccc(C[C@H]2CCCC2=O)cc1-c1ccccc1
REMARK SMILES IDX 8 1 7 4 6 7 5 10 3 11 4 12 2 14 1 16 78 20 79 21 90 22 80 23
REMARK SMILES IDX 89 25 81 26 91 29 92 30 96 31 93 32 95 34 94 36 82 40 83 43
REMARK SMILES IDX 84 44 87 45 85 47 86 50 88 51 9 56 10 59 11 62 12 65 13 66
REMARK SMILES IDX 14 68 15 69 16 70 77 71 17 72 76 74 18 76 19 79 20 80 70 81
REMARK SMILES IDX 21 82 75 83 69 84 71 85 22 86 74 87 68 89 67 91 23 93 55 96
REMARK SMILES IDX 35 97 54 98 36 99 39 100 53 101 72 102 37 103 38 105 52 107
REMARK SMILES IDX 73 108 40 111 24 113 25 114 33 115 26 116 27 117 31 118
REMARK SMILES IDX 34 119 28 120 29 121 32 122 30 123 56 124 57 125 65 126
REMARK SMILES IDX 58 127 59 128 63 129 66 130 60 131 61 132 64 133 62 134
REMARK SMILES IDX 41 135 42 136 50 137 43 138 44 139 48 140 51 141 45 142
REMARK SMILES IDX 46 143 49 144 47 145
REMARK H PARENT 8 2 8 3 7 5 7 6 6 8 6 9 5 13 2 15 1 17 1 18 1 19 79 24 80 27
REMARK H PARENT 89 28 92 33 96 35 93 37 95 38 94 39 82 41 82 42 83 46 84 48
REMARK H PARENT 84 49 85 52 85 53 86 54 86 55 9 57 9 58 10 60 10 61 11 63
REMARK H PARENT 11 64 12 67 16 73 77 75 17 77 76 78 75 88 69 90 71 92 74 94
REMARK H PARENT 68 95 36 104 39 106 72 109 37 110 73 112
REMARK Flexibility Score: inf
ROOT
ATOM      1  C   UNL A   1      29.865  31.002  24.307  1.00  0.00    -0.052 C 
ATOM      2  H   UNL A   1      28.957  30.974  24.873  1.00  0.00     0.027 H 
ATOM      3  H   UNL A   1      29.991  31.908  23.752  1.00  0.00     0.027 H 
ENDROOT
BRANCH   1   4
ATOM      4  C   UNL A   1      29.818  29.870  23.274  1.00  0.00    -0.036 C 
ATOM      5  H   UNL A   1      28.829  29.829  22.866  1.00  0.00     0.028 H 
ATOM      6  H   UNL A   1      30.563  30.096  22.541  1.00  0.00     0.028 H 
BRANCH   4   7
ATOM      7  C   UNL A   1      30.163  28.487  23.832  1.00  0.00     0.017 C 
ATOM      8  H   UNL A   1      31.063  28.555  24.407  1.00  0.00     0.049 H 
ATOM      9  H   UNL A   1      29.355  28.152  24.447  1.00  0.00     0.049 H 
BRANCH   7  10
ATOM     10  N   UNL A   1      30.356  27.538  22.760  1.00  0.00    -0.356 N 
ATOM     11  C   UNL A   1      31.494  26.978  22.259  1.00  0.00     0.227 C 
ATOM     12  O   UNL A   1      31.331  26.296  21.247  1.00  0.00    -0.274 OA
ATOM     13  H   UNL A   1      29.527  27.246  22.316  1.00  0.00     0.163 HD
BRANCH  11  14
ATOM     14  C   UNL A   1      32.845  27.191  22.981  1.00  0.00     0.061 C 
ATOM     15  H   UNL A   1      32.576  27.869  23.766  1.00  0.00     0.045 H 
BRANCH  14  16
ATOM     16  C   UNL A   1      33.899  27.812  22.063  1.00  0.00    -0.049 C 
ATOM     17  H   UNL A   1      34.265  27.069  21.387  1.00  0.00     0.024 H 
ATOM     18  H   UNL A   1      34.708  28.187  22.654  1.00  0.00     0.024 H 
ATOM     19  H   UNL A   1      33.460  28.615  21.509  1.00  0.00     0.024 H 
ENDBRANCH  14  16
BRANCH  14  20
ATOM     20  C   UNL A   1      33.452  25.960  23.672  1.00  0.00    -0.028 A 
ATOM     21  C   UNL A   1      33.966  24.900  22.900  1.00  0.00    -0.057 A 
ATOM     22  C   UNL A   1      33.628  25.901  25.081  1.00  0.00    -0.014 A 
ATOM     23  C   UNL A   1      34.545  23.775  23.481  1.00  0.00    -0.059 A 
ATOM     24  H   UNL A   1      33.911  24.959  21.871  1.00  0.00     0.063 H 
ATOM     25  C   UNL A   1      34.198  24.738  25.650  1.00  0.00    -0.051 A 
ATOM     26  C   UNL A   1      34.640  23.666  24.865  1.00  0.00    -0.047 A 
ATOM     27  H   UNL A   1      34.905  23.018  22.881  1.00  0.00     0.063 H 
ATOM     28  H   UNL A   1      34.291  24.677  26.677  1.00  0.00     0.063 H 
BRANCH  22  29
ATOM     29  C   UNL A   1      33.363  27.046  25.978  1.00  0.00    -0.018 A 
ATOM     30  C   UNL A   1      32.127  27.127  26.651  1.00  0.00    -0.054 A 
ATOM     31  C   UNL A   1      34.306  28.056  26.212  1.00  0.00    -0.054 A 
ATOM     32  C   UNL A   1      31.859  28.159  27.552  1.00  0.00    -0.062 A 
ATOM     33  H   UNL A   1      31.407  26.409  26.474  1.00  0.00     0.063 H 
ATOM     34  C   UNL A   1      34.044  29.082  27.127  1.00  0.00    -0.062 A 
ATOM     35  H   UNL A   1      35.205  28.042  25.706  1.00  0.00     0.063 H 
ATOM     36  C   UNL A   1      32.824  29.131  27.798  1.00  0.00    -0.062 A 
ATOM     37  H   UNL A   1      30.948  28.200  28.035  1.00  0.00     0.062 H 
ATOM     38  H   UNL A   1      34.759  29.806  27.304  1.00  0.00     0.062 H 
ATOM     39  H   UNL A   1      32.635  29.886  28.475  1.00  0.00     0.062 H 
ENDBRANCH  22  29
BRANCH  26  40
ATOM     40  C   UNL A   1      35.236  22.428  25.487  1.00  0.00    -0.018 C 
ATOM     41  H   UNL A   1      35.815  22.735  26.333  1.00  0.00     0.032 H 
ATOM     42  H   UNL A   1      35.805  21.962  24.709  1.00  0.00     0.032 H 
BRANCH  40  43
ATOM     43  C   UNL A   1      34.242  21.363  25.962  1.00  0.00     0.022 C 
ATOM     44  C   UNL A   1      32.799  21.832  26.166  1.00  0.00    -0.043 C 
ATOM     45  C   UNL A   1      34.071  20.232  24.973  1.00  0.00     0.136 C 
ATOM     46  H   UNL A   1      34.696  21.079  26.889  1.00  0.00     0.039 H 
ATOM     47  C   UNL A   1      32.040  21.450  24.901  1.00  0.00    -0.046 C 
ATOM     48  H   UNL A   1      32.772  22.891  26.308  1.00  0.00     0.027 H 
ATOM     49  H   UNL A   1      32.363  21.379  27.032  1.00  0.00     0.027 H 
ATOM     50  C   UNL A   1      32.678  20.159  24.406  1.00  0.00     0.006 C 
ATOM     51  O   UNL A   1      34.966  19.448  24.676  1.00  0.00    -0.299 OA
ATOM     52  H   UNL A   1      32.135  22.219  24.163  1.00  0.00     0.027 H 
ATOM     53  H   UNL A   1      30.995  21.325  25.092  1.00  0.00     0.027 H 
ATOM     54  H   UNL A   1      32.698  20.125  23.338  1.00  0.00     0.035 H 
ATOM     55  H   UNL A   1      32.145  19.282  24.710  1.00  0.00     0.035 H 
ENDBRANCH  40  43
ENDBRANCH  26  40
ENDBRANCH  14  20
ENDBRANCH  11  14
ENDBRANCH   7  10
ENDBRANCH   4   7
ENDBRANCH   1   4
BRANCH   1  56
ATOM     56  C   UNL A   1      31.037  30.937  25.290  1.00  0.00    -0.052 C 
ATOM     57  H   UNL A   1      31.940  31.104  24.743  1.00  0.00     0.027 H 
ATOM     58  H   UNL A   1      30.994  29.971  25.748  1.00  0.00     0.027 H 
BRANCH  56  59
ATOM     59  C   UNL A   1      30.973  31.957  26.426  1.00  0.00    -0.036 C 
ATOM     60  H   UNL A   1      30.522  31.487  27.274  1.00  0.00     0.028 H 
ATOM     61  H   UNL A   1      30.406  32.788  26.060  1.00  0.00     0.028 H 
BRANCH  59  62
ATOM     62  C   UNL A   1      32.328  32.509  26.851  1.00  0.00     0.018 C 
ATOM     63  H   UNL A   1      32.994  32.473  26.014  1.00  0.00     0.049 H 
ATOM     64  H   UNL A   1      32.690  31.908  27.660  1.00  0.00     0.049 H 
BRANCH  62  65
ATOM     65  N   UNL A   1      32.237  33.881  27.320  1.00  0.00    -0.352 N 
ATOM     66  C   UNL A   1      32.967  34.508  28.297  1.00  0.00     0.251 C 
ATOM     67  H   UNL A   1      31.558  34.438  26.874  1.00  0.00     0.163 HD
ATOM     68  O   UNL A   1      32.629  35.614  28.715  1.00  0.00    -0.269 OA
BRANCH  66  69
ATOM     69  C   UNL A   1      34.153  33.836  28.864  1.00  0.00     0.039 A 
ATOM     70  C   UNL A   1      35.412  34.411  28.677  1.00  0.00    -0.049 A 
ATOM     71  C   UNL A   1      34.020  32.648  29.588  1.00  0.00    -0.049 A 
ATOM     72  C   UNL A   1      36.532  33.823  29.265  1.00  0.00    -0.053 A 
ATOM     73  H   UNL A   1      35.513  35.265  28.106  1.00  0.00     0.063 H 
ATOM     74  C   UNL A   1      35.125  32.108  30.240  1.00  0.00    -0.053 A 
ATOM     75  H   UNL A   1      33.106  32.172  29.639  1.00  0.00     0.063 H 
ATOM     76  C   UNL A   1      36.393  32.686  30.080  1.00  0.00    -0.014 A 
ATOM     77  H   UNL A   1      37.468  34.225  29.101  1.00  0.00     0.063 H 
ATOM     78  H   UNL A   1      35.011  31.278  30.842  1.00  0.00     0.063 H 
BRANCH  76  79
ATOM     79  C   UNL A   1      37.564  32.089  30.771  1.00  0.00     0.031 A 
ATOM     80  C   UNL A   1      38.374  31.019  30.094  1.00  0.00     0.074 A 
ATOM     81  C   UNL A   1      37.860  32.469  32.029  1.00  0.00     0.049 A 
ATOM     82  N   UNL A   1      39.389  30.332  30.554  1.00  0.00    -0.248 NA
ATOM     83  C   UNL A   1      37.977  30.652  28.725  1.00  0.00    -0.034 C 
ATOM     84  C   UNL A   1      37.122  33.464  32.808  1.00  0.00    -0.036 A 
ATOM     85  N   UNL A   1      38.856  32.055  32.879  1.00  0.00    -0.354 N 
ATOM     86  C   UNL A   1      39.740  29.449  29.542  1.00  0.00     0.074 A 
ATOM     87  C   UNL A   1      38.796  29.646  28.464  1.00  0.00    -0.034 C 
ATOM     88  H   UNL A   1      37.248  31.071  28.126  1.00  0.00     0.065 H 
ATOM     89  C   UNL A   1      37.703  33.602  34.010  1.00  0.00    -0.036 A 
ATOM     90  H   UNL A   1      36.288  33.979  32.485  1.00  0.00     0.065 H 
ATOM     91  C   UNL A   1      38.826  32.675  34.105  1.00  0.00     0.049 A 
ATOM     92  H   UNL A   1      39.528  31.379  32.634  1.00  0.00     0.167 HD
ATOM     93  C   UNL A   1      40.771  28.572  29.505  1.00  0.00     0.037 A 
ATOM     94  H   UNL A   1      38.766  29.076  27.604  1.00  0.00     0.065 H 
ATOM     95  H   UNL A   1      37.404  34.257  34.749  1.00  0.00     0.065 H 
ATOM     96  C   UNL A   1      39.610  32.506  35.187  1.00  0.00     0.037 A 
ATOM     97  C   UNL A   1      41.721  28.397  30.573  1.00  0.00     0.049 A 
ATOM     98  C   UNL A   1      40.738  31.510  35.125  1.00  0.00     0.074 A 
ATOM     99  C   UNL A   1      42.833  27.574  30.611  1.00  0.00    -0.036 A 
ATOM    100  N   UNL A   1      41.665  29.052  31.795  1.00  0.00    -0.354 N 
ATOM    101  N   UNL A   1      41.103  30.732  34.135  1.00  0.00    -0.248 NA
ATOM    102  C   UNL A   1      41.569  31.375  36.329  1.00  0.00    -0.034 C 
ATOM    103  C   UNL A   1      43.419  27.689  31.876  1.00  0.00    -0.036 A 
ATOM    104  H   UNL A   1      43.173  26.980  29.838  1.00  0.00     0.065 H 
ATOM    105  C   UNL A   1      42.710  28.631  32.604  1.00  0.00     0.049 A 
ATOM    106  H   UNL A   1      40.985  29.716  32.050  1.00  0.00     0.167 HD
ATOM    107  C   UNL A   1      42.223  30.043  34.583  1.00  0.00     0.074 A 
ATOM    108  C   UNL A   1      42.486  30.506  35.929  1.00  0.00    -0.034 C 
ATOM    109  H   UNL A   1      41.466  31.836  37.247  1.00  0.00     0.065 H 
ATOM    110  H   UNL A   1      44.240  27.161  32.210  1.00  0.00     0.065 H 
ATOM    111  C   UNL A   1      42.967  29.112  33.937  1.00  0.00     0.037 A 
ATOM    112  H   UNL A   1      43.286  30.199  36.504  1.00  0.00     0.065 H 
BRANCH  93 113
ATOM    113  C   UNL A   1      40.932  27.733  28.270  1.00  0.00     0.064 A 
ATOM    114  C   UNL A   1      41.704  28.165  27.180  1.00  0.00     0.173 A 
ATOM    115  C   UNL A   1      40.349  26.460  28.193  1.00  0.00     0.173 A 
ATOM    116  F   UNL A   1      42.276  29.379  27.196  1.00  0.00    -0.203 F 
ATOM    117  C   UNL A   1      41.863  27.365  26.052  1.00  0.00     0.198 A 
ATOM    118  C   UNL A   1      40.537  25.649  27.078  1.00  0.00     0.198 A 
ATOM    119  F   UNL A   1      39.605  25.993  29.209  1.00  0.00    -0.203 F 
ATOM    120  F   UNL A   1      42.565  27.820  25.005  1.00  0.00    -0.200 F 
ATOM    121  C   UNL A   1      41.288  26.105  26.005  1.00  0.00     0.200 A 
ATOM    122  F   UNL A   1      39.994  24.424  27.041  1.00  0.00    -0.200 F 
ATOM    123  F   UNL A   1      41.453  25.331  24.923  1.00  0.00    -0.200 F 
ENDBRANCH  93 113
BRANCH  96 124
ATOM    124  C   UNL A   1      39.369  33.304  36.418  1.00  0.00     0.064 A 
ATOM    125  C   UNL A   1      39.995  34.545  36.609  1.00  0.00     0.173 A 
ATOM    126  C   UNL A   1      38.526  32.838  37.438  1.00  0.00     0.173 A 
ATOM    127  F   UNL A   1      40.825  35.026  35.672  1.00  0.00    -0.203 F 
ATOM    128  C   UNL A   1      39.811  35.273  37.782  1.00  0.00     0.198 A 
ATOM    129  C   UNL A   1      38.316  33.582  38.596  1.00  0.00     0.198 A 
ATOM    130  F   UNL A   1      37.898  31.660  37.304  1.00  0.00    -0.203 F 
ATOM    131  F   UNL A   1      40.467  36.427  37.962  1.00  0.00    -0.200 F 
ATOM    132  C   UNL A   1      38.968  34.792  38.773  1.00  0.00     0.200 A 
ATOM    133  F   UNL A   1      37.487  33.123  39.544  1.00  0.00    -0.200 F 
ATOM    134  F   UNL A   1      38.792  35.493  39.902  1.00  0.00    -0.200 F 
ENDBRANCH  96 124
BRANCH 111 135
ATOM    135  C   UNL A   1      44.165  28.563  34.658  1.00  0.00     0.064 A 
ATOM    136  C   UNL A   1      45.416  29.196  34.604  1.00  0.00     0.173 A 
ATOM    137  C   UNL A   1      44.047  27.410  35.450  1.00  0.00     0.173 A 
ATOM    138  F   UNL A   1      45.586  30.292  33.850  1.00  0.00    -0.203 F 
ATOM    139  C   UNL A   1      46.510  28.677  35.291  1.00  0.00     0.198 A 
ATOM    140  C   UNL A   1      45.134  26.916  36.165  1.00  0.00     0.198 A 
ATOM    141  F   UNL A   1      42.871  26.772  35.545  1.00  0.00    -0.203 F 
ATOM    142  F   UNL A   1      47.708  29.267  35.181  1.00  0.00    -0.200 F 
ATOM    143  C   UNL A   1      46.367  27.544  36.078  1.00  0.00     0.200 A 
ATOM    144  F   UNL A   1      44.988  25.831  36.937  1.00  0.00    -0.200 F 
ATOM    145  F   UNL A   1      47.419  27.052  36.746  1.00  0.00    -0.200 F 
ENDBRANCH 111 135
ENDBRANCH  76  79
ENDBRANCH  66  69
ENDBRANCH  62  65
ENDBRANCH  59  62
ENDBRANCH  56  59
ENDBRANCH   1  56
TORSDOF 18
ENDMDL
MODEL 3
REMARK VINA RESULT:     -12.1      4.979      9.479
REMARK SMILES C[C@@H](C(=O)NCCCCCCNC(=O)c1ccc(-c2c3nc(c(-c4c(F)c(F)c(F)c(F)c4F)c4ccc([nH]4)c(-c4c(F)c(F)c(F)c(F)c4F)c4nc(c(-c5c(F)c(F)c(F)c(F)c5F)c5ccc2[nH]5)C=C4)C=C3)cc1)c1ccc(C[C@H]2CCCC2=O)cc1-c1ccccc1
REMARK SMILES IDX 8 1 7 4 6 7 5 10 3 11 4 12 2 14 1 16 78 20 79 21 90 22 80 23
REMARK SMILES IDX 89 25 81 26 91 29 92 30 96 31 93 32 95 34 94 36 82 40 83 43
REMARK SMILES IDX 84 44 87 45 85 47 86 50 88 51 9 56 10 59 11 62 12 65 13 66
REMARK SMILES IDX 14 68 15 69 16 70 77 71 17 72 76 74 18 76 19 79 20 80 70 81
REMARK SMILES IDX 21 82 75 83 69 84 71 85 22 86 74 87 68 89 67 91 23 93 55 96
REMARK SMILES IDX 35 97 54 98 36 99 39 100 53 101 72 102 37 103 38 105 52 107
REMARK SMILES IDX 73 108 40 111 24 113 25 114 33 115 26 116 27 117 31 118
REMARK SMILES IDX 34 119 28 120 29 121 32 122 30 123 56 124 57 125 65 126
REMARK SMILES IDX 58 127 59 128 63 129 66 130 60 131 61 132 64 133 62 134
REMARK SMILES IDX 41 135 42 136 50 137 43 138 44 139 48 140 51 141 45 142
REMARK SMILES IDX 46 143 49 144 47 145
REMARK H PARENT 8 2 8 3 7 5 7 6 6 8 6 9 5 13 2 15 1 17 1 18 1 19 79 24 80 27
REMARK H PARENT 89 28 92 33 96 35 93 37 95 38 94 39 82 41 82 42 83 46 84 48
REMARK H PARENT 84 49 85 52 85 53 86 54 86 55 9 57 9 58 10 60 10 61 11 63
REMARK H PARENT 11 64 12 67 16 73 77 75 17 77 76 78 75 88 69 90 71 92 74 94
REMARK H PARENT 68 95 36 104 39 106 72 109 37 110 73 112
REMARK Flexibility Score: inf
ROOT
ATOM      1  C   UNL A   1      35.538  19.387  24.682  1.00  0.00    -0.052 C 
ATOM      2  H   UNL A   1      35.807  19.083  23.692  1.00  0.00     0.027 H 
ATOM      3  H   UNL A   1      35.312  18.567  25.331  1.00  0.00     0.027 H 
ENDROOT
BRANCH   1   4
ATOM      4  C   UNL A   1      34.257  20.225  24.590  1.00  0.00    -0.036 C 
ATOM      5  H   UNL A   1      34.518  21.253  24.729  1.00  0.00     0.028 H 
ATOM      6  H   UNL A   1      33.833  20.029  23.627  1.00  0.00     0.028 H 
BRANCH   4   7
ATOM      7  C   UNL A   1      33.184  19.861  25.619  1.00  0.00     0.017 C 
ATOM      8  H   UNL A   1      32.939  18.824  25.520  1.00  0.00     0.049 H 
ATOM      9  H   UNL A   1      33.565  20.059  26.599  1.00  0.00     0.049 H 
BRANCH   7  10
ATOM     10  N   UNL A   1      31.992  20.651  25.415  1.00  0.00    -0.356 N 
ATOM     11  C   UNL A   1      31.688  21.923  25.803  1.00  0.00     0.227 C 
ATOM     12  O   UNL A   1      30.525  22.264  25.583  1.00  0.00    -0.274 OA
ATOM     13  H   UNL A   1      31.279  20.195  24.912  1.00  0.00     0.163 HD
BRANCH  11  14
ATOM     14  C   UNL A   1      32.778  22.823  26.427  1.00  0.00     0.061 C 
ATOM     15  H   UNL A   1      33.670  22.450  25.965  1.00  0.00     0.045 H 
BRANCH  14  16
ATOM     16  C   UNL A   1      32.850  22.675  27.947  1.00  0.00    -0.049 C 
ATOM     17  H   UNL A   1      33.499  21.861  28.196  1.00  0.00     0.024 H 
ATOM     18  H   UNL A   1      31.871  22.482  28.333  1.00  0.00     0.024 H 
ATOM     19  H   UNL A   1      33.231  23.578  28.376  1.00  0.00     0.024 H 
ENDBRANCH  14  16
BRANCH  14  20
ATOM     20  C   UNL A   1      32.713  24.319  26.077  1.00  0.00    -0.028 A 
ATOM     21  C   UNL A   1      31.688  25.123  26.612  1.00  0.00    -0.057 A 
ATOM     22  C   UNL A   1      33.731  24.957  25.319  1.00  0.00    -0.014 A 
ATOM     23  C   UNL A   1      31.601  26.486  26.341  1.00  0.00    -0.059 A 
ATOM     24  H   UNL A   1      30.980  24.689  27.225  1.00  0.00     0.063 H 
ATOM     25  C   UNL A   1      33.608  26.339  25.037  1.00  0.00    -0.051 A 
ATOM     26  C   UNL A   1      32.542  27.105  25.524  1.00  0.00    -0.047 A 
ATOM     27  H   UNL A   1      30.833  27.040  26.749  1.00  0.00     0.063 H 
ATOM     28  H   UNL A   1      34.326  26.795  24.453  1.00  0.00     0.063 H 
BRANCH  22  29
ATOM     29  C   UNL A   1      34.981  24.281  24.912  1.00  0.00    -0.018 A 
ATOM     30  C   UNL A   1      35.068  23.696  23.633  1.00  0.00    -0.054 A 
ATOM     31  C   UNL A   1      36.109  24.217  25.743  1.00  0.00    -0.054 A 
ATOM     32  C   UNL A   1      36.249  23.100  23.188  1.00  0.00    -0.062 A 
ATOM     33  H   UNL A   1      34.242  23.708  23.015  1.00  0.00     0.063 H 
ATOM     34  C   UNL A   1      37.298  23.633  25.291  1.00  0.00    -0.062 A 
ATOM     35  H   UNL A   1      36.061  24.605  26.697  1.00  0.00     0.063 H 
ATOM     36  C   UNL A   1      37.369  23.080  24.015  1.00  0.00    -0.062 A 
ATOM     37  H   UNL A   1      36.292  22.677  22.248  1.00  0.00     0.062 H 
ATOM     38  H   UNL A   1      38.126  23.614  25.908  1.00  0.00     0.062 H 
ATOM     39  H   UNL A   1      38.248  22.655  23.682  1.00  0.00     0.062 H 
ENDBRANCH  22  29
BRANCH  26  40
ATOM     40  C   UNL A   1      32.420  28.574  25.207  1.00  0.00    -0.018 C 
ATOM     41  H   UNL A   1      33.388  29.014  25.322  1.00  0.00     0.032 H 
ATOM     42  H   UNL A   1      31.680  28.952  25.883  1.00  0.00     0.032 H 
BRANCH  40  43
ATOM     43  C   UNL A   1      31.910  28.924  23.805  1.00  0.00     0.022 C 
ATOM     44  C   UNL A   1      31.835  27.765  22.807  1.00  0.00    -0.043 C 
ATOM     45  C   UNL A   1      30.487  29.435  23.804  1.00  0.00     0.136 C 
ATOM     46  H   UNL A   1      32.642  29.646  23.511  1.00  0.00     0.039 H 
ATOM     47  C   UNL A   1      30.388  27.285  22.814  1.00  0.00    -0.046 C 
ATOM     48  H   UNL A   1      32.488  26.974  23.110  1.00  0.00     0.027 H 
ATOM     49  H   UNL A   1      32.136  28.075  21.828  1.00  0.00     0.027 H 
ATOM     50  C   UNL A   1      29.540  28.523  23.070  1.00  0.00     0.006 C 
ATOM     51  O   UNL A   1      30.143  30.488  24.330  1.00  0.00    -0.299 OA
ATOM     52  H   UNL A   1      30.239  26.564  23.590  1.00  0.00     0.027 H 
ATOM     53  H   UNL A   1      30.127  26.812  21.891  1.00  0.00     0.027 H 
ATOM     54  H   UNL A   1      28.688  28.288  23.671  1.00  0.00     0.035 H 
ATOM     55  H   UNL A   1      29.147  28.957  22.174  1.00  0.00     0.035 H 
ENDBRANCH  40  43
ENDBRANCH  26  40
ENDBRANCH  14  20
ENDBRANCH  11  14
ENDBRANCH   7  10
ENDBRANCH   4   7
ENDBRANCH   1   4
BRANCH   1  56
ATOM     56  C   UNL A   1      36.740  20.104  25.302  1.00  0.00    -0.052 C 
ATOM     57  H   UNL A   1      36.682  19.994  26.364  1.00  0.00     0.027 H 
ATOM     58  H   UNL A   1      36.684  21.122  24.979  1.00  0.00     0.027 H 
BRANCH  56  59
ATOM     59  C   UNL A   1      38.100  19.579  24.843  1.00  0.00    -0.036 C 
ATOM     60  H   UNL A   1      38.275  19.925  23.846  1.00  0.00     0.028 H 
ATOM     61  H   UNL A   1      38.055  18.511  24.912  1.00  0.00     0.028 H 
BRANCH  59  62
ATOM     62  C   UNL A   1      39.270  20.022  25.713  1.00  0.00     0.018 C 
ATOM     63  H   UNL A   1      38.899  20.292  26.680  1.00  0.00     0.049 H 
ATOM     64  H   UNL A   1      39.742  20.854  25.233  1.00  0.00     0.049 H 
BRANCH  62  65
ATOM     65  N   UNL A   1      40.264  18.973  25.868  1.00  0.00    -0.352 N 
ATOM     66  C   UNL A   1      41.615  19.090  26.073  1.00  0.00     0.251 C 
ATOM     67  H   UNL A   1      39.920  18.052  25.819  1.00  0.00     0.163 HD
ATOM     68  O   UNL A   1      42.348  18.107  25.979  1.00  0.00    -0.269 OA
BRANCH  66  69
ATOM     69  C   UNL A   1      42.192  20.413  26.387  1.00  0.00     0.039 A 
ATOM     70  C   UNL A   1      42.682  21.203  25.345  1.00  0.00    -0.049 A 
ATOM     71  C   UNL A   1      42.240  20.874  27.706  1.00  0.00    -0.049 A 
ATOM     72  C   UNL A   1      43.167  22.482  25.621  1.00  0.00    -0.053 A 
ATOM     73  H   UNL A   1      42.684  20.843  24.378  1.00  0.00     0.063 H 
ATOM     74  C   UNL A   1      42.650  22.177  27.968  1.00  0.00    -0.053 A 
ATOM     75  H   UNL A   1      41.973  20.249  28.483  1.00  0.00     0.063 H 
ATOM     76  C   UNL A   1      43.124  22.993  26.929  1.00  0.00    -0.014 A 
ATOM     77  H   UNL A   1      43.561  23.055  24.858  1.00  0.00     0.063 H 
ATOM     78  H   UNL A   1      42.607  22.546  28.931  1.00  0.00     0.063 H 
BRANCH  76  79
ATOM     79  C   UNL A   1      43.571  24.377  27.228  1.00  0.00     0.031 A 
ATOM     80  C   UNL A   1      42.583  25.399  27.717  1.00  0.00     0.074 A 
ATOM     81  C   UNL A   1      44.852  24.726  27.003  1.00  0.00     0.049 A 
ATOM     82  N   UNL A   1      42.764  26.671  27.971  1.00  0.00    -0.248 NA
ATOM     83  C   UNL A   1      41.200  24.939  27.924  1.00  0.00    -0.034 C 
ATOM     84  C   UNL A   1      45.893  23.836  26.487  1.00  0.00    -0.036 A 
ATOM     85  N   UNL A   1      45.496  25.928  27.170  1.00  0.00    -0.354 N 
ATOM     86  C   UNL A   1      41.522  27.161  28.353  1.00  0.00     0.074 A 
ATOM     87  C   UNL A   1      40.583  26.066  28.244  1.00  0.00    -0.034 C 
ATOM     88  H   UNL A   1      40.812  23.986  27.840  1.00  0.00     0.065 H 
ATOM     89  C   UNL A   1      47.049  24.513  26.403  1.00  0.00    -0.036 A 
ATOM     90  H   UNL A   1      45.761  22.846  26.230  1.00  0.00     0.065 H 
ATOM     91  C   UNL A   1      46.823  25.896  26.815  1.00  0.00     0.049 A 
ATOM     92  H   UNL A   1      45.049  26.736  27.511  1.00  0.00     0.167 HD
ATOM     93  C   UNL A   1      41.200  28.405  28.781  1.00  0.00     0.037 A 
ATOM     94  H   UNL A   1      39.566  26.153  28.396  1.00  0.00     0.065 H 
ATOM     95  H   UNL A   1      47.953  24.121  26.095  1.00  0.00     0.065 H 
ATOM     96  C   UNL A   1      47.749  26.873  26.812  1.00  0.00     0.037 A 
ATOM     97  C   UNL A   1      42.144  29.485  28.908  1.00  0.00     0.049 A 
ATOM     98  C   UNL A   1      47.359  28.252  27.276  1.00  0.00     0.074 A 
ATOM     99  C   UNL A   1      41.929  30.766  29.385  1.00  0.00    -0.036 A 
ATOM    100  N   UNL A   1      43.483  29.410  28.551  1.00  0.00    -0.354 N 
ATOM    101  N   UNL A   1      46.197  28.685  27.702  1.00  0.00    -0.248 NA
ATOM    102  C   UNL A   1      48.411  29.277  27.263  1.00  0.00    -0.034 C 
ATOM    103  C   UNL A   1      43.123  31.484  29.264  1.00  0.00    -0.036 A 
ATOM    104  H   UNL A   1      41.041  31.128  29.766  1.00  0.00     0.065 H 
ATOM    105  C   UNL A   1      44.099  30.633  28.773  1.00  0.00     0.049 A 
ATOM    106  H   UNL A   1      43.929  28.609  28.193  1.00  0.00     0.167 HD
ATOM    107  C   UNL A   1      46.387  30.018  28.042  1.00  0.00     0.074 A 
ATOM    108  C   UNL A   1      47.780  30.319  27.784  1.00  0.00    -0.034 C 
ATOM    109  H   UNL A   1      49.387  29.204  26.935  1.00  0.00     0.065 H 
ATOM    110  H   UNL A   1      43.255  32.480  29.500  1.00  0.00     0.065 H 
ATOM    111  C   UNL A   1      45.490  30.912  28.524  1.00  0.00     0.037 A 
ATOM    112  H   UNL A   1      48.225  31.229  27.982  1.00  0.00     0.065 H 
BRANCH  93 113
ATOM    113  C   UNL A   1      39.768  28.670  29.146  1.00  0.00     0.064 A 
ATOM    114  C   UNL A   1      39.284  28.444  30.444  1.00  0.00     0.173 A 
ATOM    115  C   UNL A   1      38.880  29.205  28.201  1.00  0.00     0.173 A 
ATOM    116  F   UNL A   1      40.088  27.924  31.384  1.00  0.00    -0.203 F 
ATOM    117  C   UNL A   1      37.959  28.717  30.773  1.00  0.00     0.198 A 
ATOM    118  C   UNL A   1      37.565  29.508  28.543  1.00  0.00     0.198 A 
ATOM    119  F   UNL A   1      39.290  29.446  26.946  1.00  0.00    -0.203 F 
ATOM    120  F   UNL A   1      37.508  28.447  32.006  1.00  0.00    -0.200 F 
ATOM    121  C   UNL A   1      37.103  29.258  29.826  1.00  0.00     0.200 A 
ATOM    122  F   UNL A   1      36.743  30.045  27.630  1.00  0.00    -0.200 F 
ATOM    123  F   UNL A   1      35.832  29.532  30.149  1.00  0.00    -0.200 F 
ENDBRANCH  93 113
BRANCH  96 124
ATOM    124  C   UNL A   1      49.139  26.585  26.371  1.00  0.00     0.064 A 
ATOM    125  C   UNL A   1      50.104  26.121  27.277  1.00  0.00     0.173 A 
ATOM    126  C   UNL A   1      49.540  26.787  25.041  1.00  0.00     0.173 A 
ATOM    127  F   UNL A   1      49.776  25.931  28.564  1.00  0.00    -0.203 F 
ATOM    128  C   UNL A   1      51.420  25.899  26.878  1.00  0.00     0.198 A 
ATOM    129  C   UNL A   1      50.848  26.531  24.636  1.00  0.00     0.198 A 
ATOM    130  F   UNL A   1      48.656  27.223  24.132  1.00  0.00    -0.203 F 
ATOM    131  F   UNL A   1      52.334  25.512  27.778  1.00  0.00    -0.200 F 
ATOM    132  C   UNL A   1      51.790  26.100  25.557  1.00  0.00     0.200 A 
ATOM    133  F   UNL A   1      51.197  26.710  23.354  1.00  0.00    -0.200 F 
ATOM    134  F   UNL A   1      53.056  25.885  25.174  1.00  0.00    -0.200 F 
ENDBRANCH  96 124
BRANCH 111 135
ATOM    135  C   UNL A   1      45.994  32.290  28.850  1.00  0.00     0.064 A 
ATOM    136  C   UNL A   1      45.963  33.331  27.912  1.00  0.00     0.173 A 
ATOM    137  C   UNL A   1      46.475  32.579  30.137  1.00  0.00     0.173 A 
ATOM    138  F   UNL A   1      45.526  33.104  26.664  1.00  0.00    -0.203 F 
ATOM    139  C   UNL A   1      46.423  34.604  28.241  1.00  0.00     0.198 A 
ATOM    140  C   UNL A   1      46.900  33.862  30.472  1.00  0.00     0.198 A 
ATOM    141  F   UNL A   1      46.518  31.622  31.075  1.00  0.00    -0.203 F 
ATOM    142  F   UNL A   1      46.435  35.570  27.311  1.00  0.00    -0.200 F 
ATOM    143  C   UNL A   1      46.883  34.871  29.522  1.00  0.00     0.200 A 
ATOM    144  F   UNL A   1      47.328  34.120  31.715  1.00  0.00    -0.200 F 
ATOM    145  F   UNL A   1      47.315  36.099  29.838  1.00  0.00    -0.200 F 
ENDBRANCH 111 135
ENDBRANCH  76  79
ENDBRANCH  66  69
ENDBRANCH  62  65
ENDBRANCH  59  62
ENDBRANCH  56  59
ENDBRANCH   1  56
TORSDOF 18
ENDMDL
MODEL 4
REMARK VINA RESULT:     -12.1      1.188      7.090
REMARK SMILES C[C@@H](C(=O)NCCCCCCNC(=O)c1ccc(-c2c3nc(c(-c4c(F)c(F)c(F)c(F)c4F)c4ccc([nH]4)c(-c4c(F)c(F)c(F)c(F)c4F)c4nc(c(-c5c(F)c(F)c(F)c(F)c5F)c5ccc2[nH]5)C=C4)C=C3)cc1)c1ccc(C[C@H]2CCCC2=O)cc1-c1ccccc1
REMARK SMILES IDX 8 1 7 4 6 7 5 10 3 11 4 12 2 14 1 16 78 20 79 21 90 22 80 23
REMARK SMILES IDX 89 25 81 26 91 29 92 30 96 31 93 32 95 34 94 36 82 40 83 43
REMARK SMILES IDX 84 44 87 45 85 47 86 50 88 51 9 56 10 59 11 62 12 65 13 66
REMARK SMILES IDX 14 68 15 69 16 70 77 71 17 72 76 74 18 76 19 79 20 80 70 81
REMARK SMILES IDX 21 82 75 83 69 84 71 85 22 86 74 87 68 89 67 91 23 93 55 96
REMARK SMILES IDX 35 97 54 98 36 99 39 100 53 101 72 102 37 103 38 105 52 107
REMARK SMILES IDX 73 108 40 111 24 113 25 114 33 115 26 116 27 117 31 118
REMARK SMILES IDX 34 119 28 120 29 121 32 122 30 123 56 124 57 125 65 126
REMARK SMILES IDX 58 127 59 128 63 129 66 130 60 131 61 132 64 133 62 134
REMARK SMILES IDX 41 135 42 136 50 137 43 138 44 139 48 140 51 141 45 142
REMARK SMILES IDX 46 143 49 144 47 145
REMARK H PARENT 8 2 8 3 7 5 7 6 6 8 6 9 5 13 2 15 1 17 1 18 1 19 79 24 80 27
REMARK H PARENT 89 28 92 33 96 35 93 37 95 38 94 39 82 41 82 42 83 46 84 48
REMARK H PARENT 84 49 85 52 85 53 86 54 86 55 9 57 9 58 10 60 10 61 11 63
REMARK H PARENT 11 64 12 67 16 73 77 75 17 77 76 78 75 88 69 90 71 92 74 94
REMARK H PARENT 68 95 36 104 39 106 72 109 37 110 73 112
REMARK Flexibility Score: inf
ROOT
ATOM      1  C   UNL A   1      30.750  30.389  24.886  1.00  0.00    -0.052 C 
ATOM      2  H   UNL A   1      29.822  30.001  25.251  1.00  0.00     0.027 H 
ATOM      3  H   UNL A   1      30.637  31.258  24.273  1.00  0.00     0.027 H 
ENDROOT
BRANCH   1   4
ATOM      4  C   UNL A   1      31.397  29.319  23.998  1.00  0.00    -0.036 C 
ATOM      5  H   UNL A   1      32.248  29.752  23.516  1.00  0.00     0.028 H 
ATOM      6  H   UNL A   1      31.652  28.503  24.642  1.00  0.00     0.028 H 
BRANCH   4   7
ATOM      7  C   UNL A   1      30.474  28.748  22.919  1.00  0.00     0.017 C 
ATOM      8  H   UNL A   1      29.647  29.411  22.777  1.00  0.00     0.049 H 
ATOM      9  H   UNL A   1      31.028  28.646  22.010  1.00  0.00     0.049 H 
BRANCH   7  10
ATOM     10  N   UNL A   1      29.977  27.448  23.308  1.00  0.00    -0.356 N 
ATOM     11  C   UNL A   1      30.533  26.208  23.187  1.00  0.00     0.227 C 
ATOM     12  O   UNL A   1      29.790  25.278  23.503  1.00  0.00    -0.274 OA
ATOM     13  H   UNL A   1      29.088  27.458  23.731  1.00  0.00     0.163 HD
BRANCH  11  14
ATOM     14  C   UNL A   1      32.000  26.059  22.723  1.00  0.00     0.061 C 
ATOM     15  H   UNL A   1      32.458  26.933  23.141  1.00  0.00     0.045 H 
BRANCH  14  16
ATOM     16  C   UNL A   1      32.126  26.055  21.199  1.00  0.00    -0.049 C 
ATOM     17  H   UNL A   1      33.037  25.569  20.918  1.00  0.00     0.024 H 
ATOM     18  H   UNL A   1      32.134  27.062  20.840  1.00  0.00     0.024 H 
ATOM     19  H   UNL A   1      31.296  25.531  20.774  1.00  0.00     0.024 H 
ENDBRANCH  14  16
BRANCH  14  20
ATOM     20  C   UNL A   1      32.778  24.860  23.289  1.00  0.00    -0.028 A 
ATOM     21  C   UNL A   1      33.195  23.824  22.432  1.00  0.00    -0.057 A 
ATOM     22  C   UNL A   1      33.204  24.814  24.644  1.00  0.00    -0.014 A 
ATOM     23  C   UNL A   1      33.921  22.729  22.895  1.00  0.00    -0.059 A 
ATOM     24  H   UNL A   1      32.957  23.877  21.429  1.00  0.00     0.063 H 
ATOM     25  C   UNL A   1      33.920  23.680  25.096  1.00  0.00    -0.051 A 
ATOM     26  C   UNL A   1      34.265  22.628  24.239  1.00  0.00    -0.047 A 
ATOM     27  H   UNL A   1      34.205  21.988  22.236  1.00  0.00     0.063 H 
ATOM     28  H   UNL A   1      34.196  23.627  26.089  1.00  0.00     0.063 H 
BRANCH  22  29
ATOM     29  C   UNL A   1      33.048  25.947  25.580  1.00  0.00    -0.018 A 
ATOM     30  C   UNL A   1      34.068  26.914  25.673  1.00  0.00    -0.054 A 
ATOM     31  C   UNL A   1      31.905  26.119  26.373  1.00  0.00    -0.054 A 
ATOM     32  C   UNL A   1      33.934  28.031  26.500  1.00  0.00    -0.062 A 
ATOM     33  H   UNL A   1      34.930  26.795  25.119  1.00  0.00     0.063 H 
ATOM     34  C   UNL A   1      31.763  27.246  27.191  1.00  0.00    -0.062 A 
ATOM     35  H   UNL A   1      31.158  25.407  26.352  1.00  0.00     0.063 H 
ATOM     36  C   UNL A   1      32.775  28.202  27.251  1.00  0.00    -0.062 A 
ATOM     37  H   UNL A   1      34.694  28.729  26.554  1.00  0.00     0.062 H 
ATOM     38  H   UNL A   1      30.905  27.368  27.752  1.00  0.00     0.062 H 
ATOM     39  H   UNL A   1      32.666  29.034  27.851  1.00  0.00     0.062 H 
ENDBRANCH  22  29
BRANCH  26  40
ATOM     40  C   UNL A   1      35.020  21.422  24.738  1.00  0.00    -0.018 C 
ATOM     41  H   UNL A   1      35.687  21.750  25.508  1.00  0.00     0.032 H 
ATOM     42  H   UNL A   1      35.507  21.012  23.877  1.00  0.00     0.032 H 
BRANCH  40  43
ATOM     43  C   UNL A   1      34.172  20.281  25.310  1.00  0.00     0.022 C 
ATOM     44  C   UNL A   1      32.654  20.447  25.193  1.00  0.00    -0.043 C 
ATOM     45  C   UNL A   1      34.401  18.963  24.606  1.00  0.00     0.136 C 
ATOM     46  H   UNL A   1      34.489  20.301  26.332  1.00  0.00     0.039 H 
ATOM     47  C   UNL A   1      32.229  19.655  23.962  1.00  0.00    -0.046 C 
ATOM     48  H   UNL A   1      32.403  21.479  25.072  1.00  0.00     0.027 H 
ATOM     49  H   UNL A   1      32.156  20.094  26.072  1.00  0.00     0.027 H 
ATOM     50  C   UNL A   1      33.177  18.466  23.884  1.00  0.00     0.006 C 
ATOM     51  O   UNL A   1      35.466  18.355  24.634  1.00  0.00    -0.299 OA
ATOM     52  H   UNL A   1      32.315  20.258  23.082  1.00  0.00     0.027 H 
ATOM     53  H   UNL A   1      31.209  19.340  24.030  1.00  0.00     0.027 H 
ATOM     54  H   UNL A   1      33.403  18.219  22.868  1.00  0.00     0.035 H 
ATOM     55  H   UNL A   1      32.770  17.573  24.312  1.00  0.00     0.035 H 
ENDBRANCH  40  43
ENDBRANCH  26  40
ENDBRANCH  14  20
ENDBRANCH  11  14
ENDBRANCH   7  10
ENDBRANCH   4   7
ENDBRANCH   1   4
BRANCH   1  56
ATOM     56  C   UNL A   1      31.587  30.824  26.092  1.00  0.00    -0.052 C 
ATOM     57  H   UNL A   1      32.619  30.674  25.854  1.00  0.00     0.027 H 
ATOM     58  H   UNL A   1      31.256  30.233  26.920  1.00  0.00     0.027 H 
BRANCH  56  59
ATOM     59  C   UNL A   1      31.402  32.285  26.502  1.00  0.00    -0.036 C 
ATOM     60  H   UNL A   1      30.514  32.357  27.094  1.00  0.00     0.028 H 
ATOM     61  H   UNL A   1      31.346  32.852  25.596  1.00  0.00     0.028 H 
BRANCH  59  62
ATOM     62  C   UNL A   1      32.560  32.863  27.306  1.00  0.00     0.018 C 
ATOM     63  H   UNL A   1      33.460  32.766  26.735  1.00  0.00     0.049 H 
ATOM     64  H   UNL A   1      32.624  32.322  28.227  1.00  0.00     0.049 H 
BRANCH  62  65
ATOM     65  N   UNL A   1      32.356  34.266  27.626  1.00  0.00    -0.352 N 
ATOM     66  C   UNL A   1      32.959  35.025  28.596  1.00  0.00     0.251 C 
ATOM     67  H   UNL A   1      31.695  34.737  27.068  1.00  0.00     0.163 HD
ATOM     68  O   UNL A   1      32.528  36.144  28.871  1.00  0.00    -0.269 OA
BRANCH  66  69
ATOM     69  C   UNL A   1      34.119  34.481  29.330  1.00  0.00     0.039 A 
ATOM     70  C   UNL A   1      33.910  33.858  30.562  1.00  0.00    -0.049 A 
ATOM     71  C   UNL A   1      35.407  34.579  28.798  1.00  0.00    -0.049 A 
ATOM     72  C   UNL A   1      34.989  33.280  31.233  1.00  0.00    -0.053 A 
ATOM     73  H   UNL A   1      32.964  33.825  30.973  1.00  0.00     0.063 H 
ATOM     74  C   UNL A   1      36.467  33.934  29.428  1.00  0.00    -0.053 A 
ATOM     75  H   UNL A   1      35.573  35.128  27.939  1.00  0.00     0.063 H 
ATOM     76  C   UNL A   1      36.269  33.283  30.656  1.00  0.00    -0.014 A 
ATOM     77  H   UNL A   1      34.844  32.848  32.160  1.00  0.00     0.063 H 
ATOM     78  H   UNL A   1      37.402  33.935  28.992  1.00  0.00     0.063 H 
BRANCH  76  79
ATOM     79  C   UNL A   1      37.414  32.612  31.323  1.00  0.00     0.031 A 
ATOM     80  C   UNL A   1      38.110  31.462  30.650  1.00  0.00     0.074 A 
ATOM     81  C   UNL A   1      37.786  33.000  32.557  1.00  0.00     0.049 A 
ATOM     82  N   UNL A   1      39.084  30.708  31.095  1.00  0.00    -0.248 NA
ATOM     83  C   UNL A   1      37.634  31.092  29.308  1.00  0.00    -0.034 C 
ATOM     84  C   UNL A   1      37.159  34.073  33.332  1.00  0.00    -0.036 A 
ATOM     85  N   UNL A   1      38.777  32.530  33.384  1.00  0.00    -0.354 N 
ATOM     86  C   UNL A   1      39.324  29.772  30.098  1.00  0.00     0.074 A 
ATOM     87  C   UNL A   1      38.359  30.016  29.048  1.00  0.00    -0.034 C 
ATOM     88  H   UNL A   1      36.918  31.552  28.722  1.00  0.00     0.065 H 
ATOM     89  C   UNL A   1      37.794  34.195  34.508  1.00  0.00    -0.036 A 
ATOM     90  H   UNL A   1      36.358  34.645  33.023  1.00  0.00     0.065 H 
ATOM     91  C   UNL A   1      38.843  33.183  34.592  1.00  0.00     0.049 A 
ATOM     92  H   UNL A   1      39.383  31.795  33.136  1.00  0.00     0.167 HD
ATOM     93  C   UNL A   1      40.280  28.814  30.051  1.00  0.00     0.037 A 
ATOM     94  H   UNL A   1      38.251  29.427  28.207  1.00  0.00     0.065 H 
ATOM     95  H   UNL A   1      37.576  34.892  35.237  1.00  0.00     0.065 H 
ATOM     96  C   UNL A   1      39.651  32.980  35.650  1.00  0.00     0.037 A 
ATOM     97  C   UNL A   1      41.252  28.591  31.089  1.00  0.00     0.049 A 
ATOM     98  C   UNL A   1      40.692  31.896  35.578  1.00  0.00     0.074 A 
ATOM     99  C   UNL A   1      42.295  27.683  31.112  1.00  0.00    -0.036 A 
ATOM    100  N   UNL A   1      41.295  29.281  32.293  1.00  0.00    -0.354 N 
ATOM    101  N   UNL A   1      40.957  31.064  34.599  1.00  0.00    -0.248 NA
ATOM    102  C   UNL A   1      41.554  31.725  36.756  1.00  0.00    -0.034 C 
ATOM    103  C   UNL A   1      42.936  27.784  32.352  1.00  0.00    -0.036 A 
ATOM    104  H   UNL A   1      42.557  27.043  30.347  1.00  0.00     0.065 H 
ATOM    105  C   UNL A   1      42.332  28.799  33.076  1.00  0.00     0.049 A 
ATOM    106  H   UNL A   1      40.680  30.005  32.551  1.00  0.00     0.167 HD
ATOM    107  C   UNL A   1      42.034  30.299  35.028  1.00  0.00     0.074 A 
ATOM    108  C   UNL A   1      42.383  30.775  36.350  1.00  0.00    -0.034 C 
ATOM    109  H   UNL A   1      41.522  32.218  37.662  1.00  0.00     0.065 H 
ATOM    110  H   UNL A   1      43.723  27.200  32.673  1.00  0.00     0.065 H 
ATOM    111  C   UNL A   1      42.676  29.293  34.385  1.00  0.00     0.037 A 
ATOM    112  H   UNL A   1      43.177  30.420  36.905  1.00  0.00     0.065 H 
BRANCH  93 113
ATOM    113  C   UNL A   1      40.327  27.932  28.836  1.00  0.00     0.064 A 
ATOM    114  C   UNL A   1      41.087  28.273  27.706  1.00  0.00     0.173 A 
ATOM    115  C   UNL A   1      39.645  26.706  28.820  1.00  0.00     0.173 A 
ATOM    116  F   UNL A   1      41.750  29.438  27.664  1.00  0.00    -0.203 F 
ATOM    117  C   UNL A   1      41.139  27.433  26.597  1.00  0.00     0.198 A 
ATOM    118  C   UNL A   1      39.726  25.853  27.723  1.00  0.00     0.198 A 
ATOM    119  F   UNL A   1      38.908  26.327  29.876  1.00  0.00    -0.203 F 
ATOM    120  F   UNL A   1      41.832  27.803  25.511  1.00  0.00    -0.200 F 
ATOM    121  C   UNL A   1      40.467  26.220  26.610  1.00  0.00     0.200 A 
ATOM    122  F   UNL A   1      39.089  24.674  27.743  1.00  0.00    -0.200 F 
ATOM    123  F   UNL A   1      40.530  25.407  25.546  1.00  0.00    -0.200 F 
ENDBRANCH  93 113
BRANCH  96 124
ATOM    124  C   UNL A   1      39.520  33.829  36.864  1.00  0.00     0.064 A 
ATOM    125  C   UNL A   1      38.741  33.415  37.955  1.00  0.00     0.173 A 
ATOM    126  C   UNL A   1      40.152  35.078  36.953  1.00  0.00     0.173 A 
ATOM    127  F   UNL A   1      38.101  32.237  37.910  1.00  0.00    -0.203 F 
ATOM    128  C   UNL A   1      38.575  34.229  39.073  1.00  0.00     0.198 A 
ATOM    129  C   UNL A   1      40.012  35.877  38.086  1.00  0.00     0.198 A 
ATOM    130  F   UNL A   1      40.913  35.520  35.942  1.00  0.00    -0.203 F 
ATOM    131  F   UNL A   1      37.778  33.833  40.074  1.00  0.00    -0.200 F 
ATOM    132  C   UNL A   1      39.215  35.458  39.139  1.00  0.00     0.200 A 
ATOM    133  F   UNL A   1      40.646  37.056  38.154  1.00  0.00    -0.200 F 
ATOM    134  F   UNL A   1      39.055  36.240  40.215  1.00  0.00    -0.200 F 
ENDBRANCH  96 124
BRANCH 111 135
ATOM    135  C   UNL A   1      43.853  28.669  35.079  1.00  0.00     0.064 A 
ATOM    136  C   UNL A   1      45.152  29.181  34.940  1.00  0.00     0.173 A 
ATOM    137  C   UNL A   1      43.669  27.568  35.931  1.00  0.00     0.173 A 
ATOM    138  F   UNL A   1      45.384  30.222  34.128  1.00  0.00    -0.203 F 
ATOM    139  C   UNL A   1      46.226  28.594  35.604  1.00  0.00     0.198 A 
ATOM    140  C   UNL A   1      44.740  27.008  36.621  1.00  0.00     0.198 A 
ATOM    141  F   UNL A   1      42.446  27.046  36.107  1.00  0.00    -0.203 F 
ATOM    142  F   UNL A   1      47.466  29.066  35.414  1.00  0.00    -0.200 F 
ATOM    143  C   UNL A   1      46.019  27.515  36.451  1.00  0.00     0.200 A 
ATOM    144  F   UNL A   1      44.533  25.977  37.451  1.00  0.00    -0.200 F 
ATOM    145  F   UNL A   1      47.052  26.959  37.096  1.00  0.00    -0.200 F 
ENDBRANCH 111 135
ENDBRANCH  76  79
ENDBRANCH  66  69
ENDBRANCH  62  65
ENDBRANCH  59  62
ENDBRANCH  56  59
ENDBRANCH   1  56
TORSDOF 18
ENDMDL
MODEL 5
REMARK VINA RESULT:     -12.1      1.006      1.600
REMARK SMILES C[C@@H](C(=O)NCCCCCCNC(=O)c1ccc(-c2c3nc(c(-c4c(F)c(F)c(F)c(F)c4F)c4ccc([nH]4)c(-c4c(F)c(F)c(F)c(F)c4F)c4nc(c(-c5c(F)c(F)c(F)c(F)c5F)c5ccc2[nH]5)C=C4)C=C3)cc1)c1ccc(C[C@H]2CCCC2=O)cc1-c1ccccc1
REMARK SMILES IDX 8 1 7 4 6 7 5 10 3 11 4 12 2 14 1 16 78 20 79 21 90 22 80 23
REMARK SMILES IDX 89 25 81 26 91 29 92 30 96 31 93 32 95 34 94 36 82 40 83 43
REMARK SMILES IDX 84 44 87 45 85 47 86 50 88 51 9 56 10 59 11 62 12 65 13 66
REMARK SMILES IDX 14 68 15 69 16 70 77 71 17 72 76 74 18 76 19 79 20 80 70 81
REMARK SMILES IDX 21 82 75 83 69 84 71 85 22 86 74 87 68 89 67 91 23 93 55 96
REMARK SMILES IDX 35 97 54 98 36 99 39 100 53 101 72 102 37 103 38 105 52 107
REMARK SMILES IDX 73 108 40 111 24 113 25 114 33 115 26 116 27 117 31 118
REMARK SMILES IDX 34 119 28 120 29 121 32 122 30 123 56 124 57 125 65 126
REMARK SMILES IDX 58 127 59 128 63 129 66 130 60 131 61 132 64 133 62 134
REMARK SMILES IDX 41 135 42 136 50 137 43 138 44 139 48 140 51 141 45 142
REMARK SMILES IDX 46 143 49 144 47 145
REMARK H PARENT 8 2 8 3 7 5 7 6 6 8 6 9 5 13 2 15 1 17 1 18 1 19 79 24 80 27
REMARK H PARENT 89 28 92 33 96 35 93 37 95 38 94 39 82 41 82 42 83 46 84 48
REMARK H PARENT 84 49 85 52 85 53 86 54 86 55 9 57 9 58 10 60 10 61 11 63
REMARK H PARENT 11 64 12 67 16 73 77 75 17 77 76 78 75 88 69 90 71 92 74 94
REMARK H PARENT 68 95 36 104 39 106 72 109 37 110 73 112
REMARK Flexibility Score: inf
ROOT
ATOM      1  C   UNL A   1      30.648  30.631  24.846  1.00  0.00    -0.052 C 
ATOM      2  H   UNL A   1      29.602  30.582  25.069  1.00  0.00     0.027 H 
ATOM      3  H   UNL A   1      30.896  31.394  24.139  1.00  0.00     0.027 H 
ENDROOT
BRANCH   1   4
ATOM      4  C   UNL A   1      31.059  29.301  24.202  1.00  0.00    -0.036 C 
ATOM      5  H   UNL A   1      31.953  29.465  23.636  1.00  0.00     0.028 H 
ATOM      6  H   UNL A   1      31.194  28.604  25.003  1.00  0.00     0.028 H 
BRANCH   4   7
ATOM      7  C   UNL A   1      30.008  28.695  23.270  1.00  0.00     0.017 C 
ATOM      8  H   UNL A   1      29.108  29.270  23.334  1.00  0.00     0.049 H 
ATOM      9  H   UNL A   1      30.385  28.707  22.270  1.00  0.00     0.049 H 
BRANCH   7  10
ATOM     10  N   UNL A   1      29.723  27.328  23.643  1.00  0.00    -0.356 N 
ATOM     11  C   UNL A   1      30.413  26.176  23.403  1.00  0.00     0.227 C 
ATOM     12  O   UNL A   1      29.831  25.146  23.747  1.00  0.00    -0.274 OA
ATOM     13  H   UNL A   1      28.891  27.208  24.156  1.00  0.00     0.163 HD
BRANCH  11  14
ATOM     14  C   UNL A   1      31.828  26.236  22.784  1.00  0.00     0.061 C 
ATOM     15  H   UNL A   1      32.198  27.169  23.156  1.00  0.00     0.045 H 
BRANCH  14  16
ATOM     16  C   UNL A   1      31.789  26.238  21.255  1.00  0.00    -0.049 C 
ATOM     17  H   UNL A   1      30.953  25.662  20.918  1.00  0.00     0.024 H 
ATOM     18  H   UNL A   1      32.693  25.809  20.875  1.00  0.00     0.024 H 
ATOM     19  H   UNL A   1      31.695  27.244  20.902  1.00  0.00     0.024 H 
ENDBRANCH  14  16
BRANCH  14  20
ATOM     20  C   UNL A   1      32.826  25.165  23.253  1.00  0.00    -0.028 A 
ATOM     21  C   UNL A   1      33.232  24.145  22.371  1.00  0.00    -0.057 A 
ATOM     22  C   UNL A   1      33.458  25.235  24.524  1.00  0.00    -0.014 A 
ATOM     23  C   UNL A   1      34.150  23.167  22.745  1.00  0.00    -0.059 A 
ATOM     24  H   UNL A   1      32.837  24.122  21.418  1.00  0.00     0.063 H 
ATOM     25  C   UNL A   1      34.370  24.216  24.890  1.00  0.00    -0.051 A 
ATOM     26  C   UNL A   1      34.706  23.172  24.020  1.00  0.00    -0.047 A 
ATOM     27  H   UNL A   1      34.418  22.434  22.071  1.00  0.00     0.063 H 
ATOM     28  H   UNL A   1      34.800  24.244  25.828  1.00  0.00     0.063 H 
BRANCH  22  29
ATOM     29  C   UNL A   1      33.309  26.385  25.440  1.00  0.00    -0.018 A 
ATOM     30  C   UNL A   1      32.240  26.407  26.358  1.00  0.00    -0.054 A 
ATOM     31  C   UNL A   1      34.209  27.460  25.455  1.00  0.00    -0.054 A 
ATOM     32  C   UNL A   1      32.097  27.445  27.280  1.00  0.00    -0.062 A 
ATOM     33  H   UNL A   1      31.550  25.640  26.348  1.00  0.00     0.063 H 
ATOM     34  C   UNL A   1      34.075  28.493  26.389  1.00  0.00    -0.062 A 
ATOM     35  H   UNL A   1      34.980  27.488  24.770  1.00  0.00     0.063 H 
ATOM     36  C   UNL A   1      33.023  28.484  27.302  1.00  0.00    -0.062 A 
ATOM     37  H   UNL A   1      31.307  27.442  27.944  1.00  0.00     0.062 H 
ATOM     38  H   UNL A   1      34.760  29.266  26.400  1.00  0.00     0.062 H 
ATOM     39  H   UNL A   1      32.930  29.244  27.993  1.00  0.00     0.062 H 
ENDBRANCH  22  29
BRANCH  26  40
ATOM     40  C   UNL A   1      35.673  22.089  24.428  1.00  0.00    -0.018 C 
ATOM     41  H   UNL A   1      36.493  22.556  24.931  1.00  0.00     0.032 H 
ATOM     42  H   UNL A   1      35.940  21.587  23.520  1.00  0.00     0.032 H 
BRANCH  40  43
ATOM     43  C   UNL A   1      35.118  20.999  25.350  1.00  0.00     0.022 C 
ATOM     44  C   UNL A   1      33.592  20.897  25.430  1.00  0.00    -0.043 C 
ATOM     45  C   UNL A   1      35.506  19.603  24.917  1.00  0.00     0.136 C 
ATOM     46  H   UNL A   1      35.538  21.308  26.285  1.00  0.00     0.039 H 
ATOM     47  C   UNL A   1      33.185  19.781  24.474  1.00  0.00    -0.046 C 
ATOM     48  H   UNL A   1      33.144  21.821  25.132  1.00  0.00     0.027 H 
ATOM     49  H   UNL A   1      33.269  20.689  26.429  1.00  0.00     0.027 H 
ATOM     50  C   UNL A   1      34.321  18.768  24.510  1.00  0.00     0.006 C 
ATOM     51  O   UNL A   1      36.660  19.190  24.913  1.00  0.00    -0.299 OA
ATOM     52  H   UNL A   1      33.060  20.166  23.484  1.00  0.00     0.027 H 
ATOM     53  H   UNL A   1      32.254  19.339  24.760  1.00  0.00     0.027 H 
ATOM     54  H   UNL A   1      34.473  18.327  23.548  1.00  0.00     0.035 H 
ATOM     55  H   UNL A   1      34.135  17.949  25.174  1.00  0.00     0.035 H 
ENDBRANCH  40  43
ENDBRANCH  26  40
ENDBRANCH  14  20
ENDBRANCH  11  14
ENDBRANCH   7  10
ENDBRANCH   4   7
ENDBRANCH   1   4
BRANCH   1  56
ATOM     56  C   UNL A   1      31.391  30.985  26.137  1.00  0.00    -0.052 C 
ATOM     57  H   UNL A   1      32.421  30.729  26.009  1.00  0.00     0.027 H 
ATOM     58  H   UNL A   1      30.914  30.434  26.920  1.00  0.00     0.027 H 
BRANCH  56  59
ATOM     59  C   UNL A   1      31.312  32.459  26.533  1.00  0.00    -0.036 C 
ATOM     60  H   UNL A   1      30.449  32.595  27.149  1.00  0.00     0.028 H 
ATOM     61  H   UNL A   1      31.266  33.018  25.621  1.00  0.00     0.028 H 
BRANCH  59  62
ATOM     62  C   UNL A   1      32.528  32.969  27.296  1.00  0.00     0.018 C 
ATOM     63  H   UNL A   1      33.391  32.882  26.670  1.00  0.00     0.049 H 
ATOM     64  H   UNL A   1      32.632  32.379  28.183  1.00  0.00     0.049 H 
BRANCH  62  65
ATOM     65  N   UNL A   1      32.377  34.357  27.699  1.00  0.00    -0.352 N 
ATOM     66  C   UNL A   1      33.016  35.037  28.703  1.00  0.00     0.251 C 
ATOM     67  H   UNL A   1      31.727  34.882  27.178  1.00  0.00     0.163 HD
ATOM     68  O   UNL A   1      32.628  36.152  29.048  1.00  0.00    -0.269 OA
BRANCH  66  69
ATOM     69  C   UNL A   1      34.165  34.412  29.390  1.00  0.00     0.039 A 
ATOM     70  C   UNL A   1      33.929  33.590  30.494  1.00  0.00    -0.049 A 
ATOM     71  C   UNL A   1      35.469  34.631  28.938  1.00  0.00    -0.049 A 
ATOM     72  C   UNL A   1      34.999  32.940  31.109  1.00  0.00    -0.053 A 
ATOM     73  H   UNL A   1      32.969  33.464  30.851  1.00  0.00     0.063 H 
ATOM     74  C   UNL A   1      36.524  33.920  29.503  1.00  0.00    -0.053 A 
ATOM     75  H   UNL A   1      35.650  35.317  28.189  1.00  0.00     0.063 H 
ATOM     76  C   UNL A   1      36.300  33.072  30.598  1.00  0.00    -0.014 A 
ATOM     77  H   UNL A   1      34.832  32.358  31.946  1.00  0.00     0.063 H 
ATOM     78  H   UNL A   1      37.475  34.018  29.114  1.00  0.00     0.063 H 
BRANCH  76  79
ATOM     79  C   UNL A   1      37.440  32.332  31.197  1.00  0.00     0.031 A 
ATOM     80  C   UNL A   1      37.952  32.710  32.559  1.00  0.00     0.074 A 
ATOM     81  C   UNL A   1      38.049  31.361  30.490  1.00  0.00     0.049 A 
ATOM     82  N   UNL A   1      38.972  32.229  33.224  1.00  0.00    -0.248 NA
ATOM     83  C   UNL A   1      37.239  33.790  33.259  1.00  0.00    -0.034 C 
ATOM     84  C   UNL A   1      37.674  30.935  29.141  1.00  0.00    -0.036 A 
ATOM     85  N   UNL A   1      39.121  30.562  30.804  1.00  0.00    -0.354 N 
ATOM     86  C   UNL A   1      39.029  32.953  34.407  1.00  0.00     0.074 A 
ATOM     87  C   UNL A   1      37.977  33.944  34.347  1.00  0.00    -0.034 C 
ATOM     88  H   UNL A   1      36.385  34.297  32.975  1.00  0.00     0.065 H 
ATOM     89  C   UNL A   1      38.485  29.938  28.752  1.00  0.00    -0.036 A 
ATOM     90  H   UNL A   1      36.908  31.335  28.578  1.00  0.00     0.065 H 
ATOM     91  C   UNL A   1      39.465  29.684  29.804  1.00  0.00     0.049 A 
ATOM     92  H   UNL A   1      39.599  30.613  31.663  1.00  0.00     0.167 HD
ATOM     93  C   UNL A   1      39.866  32.788  35.459  1.00  0.00     0.037 A 
ATOM     94  H   UNL A   1      37.824  34.675  35.059  1.00  0.00     0.065 H 
ATOM     95  H   UNL A   1      38.426  29.432  27.855  1.00  0.00     0.065 H 
ATOM     96  C   UNL A   1      40.464  28.783  29.740  1.00  0.00     0.037 A 
ATOM     97  C   UNL A   1      40.897  31.786  35.521  1.00  0.00     0.049 A 
ATOM     98  C   UNL A   1      41.392  28.635  30.917  1.00  0.00     0.074 A 
ATOM     99  C   UNL A   1      41.761  31.502  36.564  1.00  0.00    -0.036 A 
ATOM    100  N   UNL A   1      41.207  30.905  34.494  1.00  0.00    -0.354 N 
ATOM    101  N   UNL A   1      41.391  29.277  32.059  1.00  0.00    -0.248 NA
ATOM    102  C   UNL A   1      42.457  27.629  30.797  1.00  0.00    -0.034 C 
ATOM    103  C   UNL A   1      42.631  30.488  36.149  1.00  0.00    -0.036 A 
ATOM    104  H   UNL A   1      41.763  31.958  37.490  1.00  0.00     0.065 H 
ATOM    105  C   UNL A   1      42.267  30.095  34.871  1.00  0.00     0.049 A 
ATOM    106  H   UNL A   1      40.743  30.863  33.627  1.00  0.00     0.167 HD
ATOM    107  C   UNL A   1      42.427  28.732  32.806  1.00  0.00     0.074 A 
ATOM    108  C   UNL A   1      43.026  27.695  31.991  1.00  0.00    -0.034 C 
ATOM    109  H   UNL A   1      42.698  27.029  29.993  1.00  0.00     0.065 H 
ATOM    110  H   UNL A   1      43.411  30.099  36.700  1.00  0.00     0.065 H 
ATOM    111  C   UNL A   1      42.844  29.058  34.053  1.00  0.00     0.037 A 
ATOM    112  H   UNL A   1      43.798  27.085  32.302  1.00  0.00     0.065 H 
BRANCH  93 113
ATOM    113  C   UNL A   1      39.705  33.712  36.632  1.00  0.00     0.064 A 
ATOM    114  C   UNL A   1      40.338  34.964  36.678  1.00  0.00     0.173 A 
ATOM    115  C   UNL A   1      38.867  33.364  37.702  1.00  0.00     0.173 A 
ATOM    116  F   UNL A   1      41.159  35.342  35.687  1.00  0.00    -0.203 F 
ATOM    117  C   UNL A   1      40.160  35.818  37.763  1.00  0.00     0.198 A 
ATOM    118  C   UNL A   1      38.665  34.235  38.769  1.00  0.00     0.198 A 
ATOM    119  F   UNL A   1      38.232  32.181  37.708  1.00  0.00    -0.203 F 
ATOM    120  F   UNL A   1      40.814  36.988  37.805  1.00  0.00    -0.200 F 
ATOM    121  C   UNL A   1      39.316  35.458  38.802  1.00  0.00     0.200 A 
ATOM    122  F   UNL A   1      37.836  33.892  39.765  1.00  0.00    -0.200 F 
ATOM    123  F   UNL A   1      39.136  36.288  39.838  1.00  0.00    -0.200 F 
ENDBRANCH  93 113
BRANCH  96 124
ATOM    124  C   UNL A   1      40.634  27.940  28.527  1.00  0.00     0.064 A 
ATOM    125  C   UNL A   1      41.398  28.386  27.438  1.00  0.00     0.173 A 
ATOM    126  C   UNL A   1      40.022  26.682  28.419  1.00  0.00     0.173 A 
ATOM    127  F   UNL A   1      41.988  29.591  27.484  1.00  0.00    -0.203 F 
ATOM    128  C   UNL A   1      41.518  27.622  26.280  1.00  0.00     0.198 A 
ATOM    129  C   UNL A   1      40.171  25.904  27.273  1.00  0.00     0.198 A 
ATOM    130  F   UNL A   1      39.285  26.205  29.433  1.00  0.00    -0.203 F 
ATOM    131  F   UNL A   1      42.206  28.099  25.234  1.00  0.00    -0.200 F 
ATOM    132  C   UNL A   1      40.908  26.379  26.200  1.00  0.00     0.200 A 
ATOM    133  F   UNL A   1      39.594  24.696  27.208  1.00  0.00    -0.200 F 
ATOM    134  F   UNL A   1      41.024  25.644  25.086  1.00  0.00    -0.200 F 
ENDBRANCH  96 124
BRANCH 111 135
ATOM    135  C   UNL A   1      43.974  28.258  34.637  1.00  0.00     0.064 A 
ATOM    136  C   UNL A   1      45.307  28.682  34.544  1.00  0.00     0.173 A 
ATOM    137  C   UNL A   1      43.710  27.069  35.336  1.00  0.00     0.173 A 
ATOM    138  F   UNL A   1      45.615  29.803  33.874  1.00  0.00    -0.203 F 
ATOM    139  C   UNL A   1      46.337  27.930  35.103  1.00  0.00     0.198 A 
ATOM    140  C   UNL A   1      44.739  26.340  35.925  1.00  0.00     0.198 A 
ATOM    141  F   UNL A   1      42.451  26.623  35.462  1.00  0.00    -0.203 F 
ATOM    142  F   UNL A   1      47.609  28.327  34.955  1.00  0.00    -0.200 F 
ATOM    143  C   UNL A   1      46.052  26.766  35.801  1.00  0.00     0.200 A 
ATOM    144  F   UNL A   1      44.458  25.225  36.612  1.00  0.00    -0.200 F 
ATOM    145  F   UNL A   1      47.044  26.050  36.347  1.00  0.00    -0.200 F 
ENDBRANCH 111 135
ENDBRANCH  76  79
ENDBRANCH  66  69
ENDBRANCH  62  65
ENDBRANCH  59  62
ENDBRANCH  56  59
ENDBRANCH   1  56
TORSDOF 18
ENDMDL
MODEL 6
REMARK VINA RESULT:     -12.0      4.891     10.775
REMARK SMILES C[C@@H](C(=O)NCCCCCCNC(=O)c1ccc(-c2c3nc(c(-c4c(F)c(F)c(F)c(F)c4F)c4ccc([nH]4)c(-c4c(F)c(F)c(F)c(F)c4F)c4nc(c(-c5c(F)c(F)c(F)c(F)c5F)c5ccc2[nH]5)C=C4)C=C3)cc1)c1ccc(C[C@H]2CCCC2=O)cc1-c1ccccc1
REMARK SMILES IDX 8 1 7 4 6 7 5 10 3 11 4 12 2 14 1 16 78 20 79 21 90 22 80 23
REMARK SMILES IDX 89 25 81 26 91 29 92 30 96 31 93 32 95 34 94 36 82 40 83 43
REMARK SMILES IDX 84 44 87 45 85 47 86 50 88 51 9 56 10 59 11 62 12 65 13 66
REMARK SMILES IDX 14 68 15 69 16 70 77 71 17 72 76 74 18 76 19 79 20 80 70 81
REMARK SMILES IDX 21 82 75 83 69 84 71 85 22 86 74 87 68 89 67 91 23 93 55 96
REMARK SMILES IDX 35 97 54 98 36 99 39 100 53 101 72 102 37 103 38 105 52 107
REMARK SMILES IDX 73 108 40 111 24 113 25 114 33 115 26 116 27 117 31 118
REMARK SMILES IDX 34 119 28 120 29 121 32 122 30 123 56 124 57 125 65 126
REMARK SMILES IDX 58 127 59 128 63 129 66 130 60 131 61 132 64 133 62 134
REMARK SMILES IDX 41 135 42 136 50 137 43 138 44 139 48 140 51 141 45 142
REMARK SMILES IDX 46 143 49 144 47 145
REMARK H PARENT 8 2 8 3 7 5 7 6 6 8 6 9 5 13 2 15 1 17 1 18 1 19 79 24 80 27
REMARK H PARENT 89 28 92 33 96 35 93 37 95 38 94 39 82 41 82 42 83 46 84 48
REMARK H PARENT 84 49 85 52 85 53 86 54 86 55 9 57 9 58 10 60 10 61 11 63
REMARK H PARENT 11 64 12 67 16 73 77 75 17 77 76 78 75 88 69 90 71 92 74 94
REMARK H PARENT 68 95 36 104 39 106 72 109 37 110 73 112
REMARK Flexibility Score: inf
ROOT
ATOM      1  C   UNL A   1      35.659  19.321  24.634  1.00  0.00    -0.052 C 
ATOM      2  H   UNL A   1      35.793  18.930  23.647  1.00  0.00     0.027 H 
ATOM      3  H   UNL A   1      35.508  18.563  25.374  1.00  0.00     0.027 H 
ENDROOT
BRANCH   1   4
ATOM      4  C   UNL A   1      34.390  20.182  24.638  1.00  0.00    -0.036 C 
ATOM      5  H   UNL A   1      34.675  21.199  24.808  1.00  0.00     0.028 H 
ATOM      6  H   UNL A   1      33.919  20.033  23.688  1.00  0.00     0.028 H 
BRANCH   4   7
ATOM      7  C   UNL A   1      33.360  19.789  25.699  1.00  0.00     0.017 C 
ATOM      8  H   UNL A   1      33.179  18.736  25.641  1.00  0.00     0.049 H 
ATOM      9  H   UNL A   1      33.743  20.047  26.663  1.00  0.00     0.049 H 
BRANCH   7  10
ATOM     10  N   UNL A   1      32.117  20.495  25.489  1.00  0.00    -0.356 N 
ATOM     11  C   UNL A   1      31.733  21.753  25.852  1.00  0.00     0.227 C 
ATOM     12  O   UNL A   1      30.549  22.013  25.635  1.00  0.00    -0.274 OA
ATOM     13  H   UNL A   1      31.431  19.983  25.003  1.00  0.00     0.163 HD
BRANCH  11  14
ATOM     14  C   UNL A   1      32.768  22.737  26.445  1.00  0.00     0.061 C 
ATOM     15  H   UNL A   1      33.674  22.427  25.965  1.00  0.00     0.045 H 
BRANCH  14  16
ATOM     16  C   UNL A   1      32.885  22.605  27.964  1.00  0.00    -0.049 C 
ATOM     17  H   UNL A   1      31.981  22.189  28.357  1.00  0.00     0.024 H 
ATOM     18  H   UNL A   1      33.048  23.572  28.393  1.00  0.00     0.024 H 
ATOM     19  H   UNL A   1      33.707  21.965  28.204  1.00  0.00     0.024 H 
ENDBRANCH  14  16
BRANCH  14  20
ATOM     20  C   UNL A   1      32.583  24.221  26.088  1.00  0.00    -0.028 A 
ATOM     21  C   UNL A   1      31.548  24.966  26.685  1.00  0.00    -0.057 A 
ATOM     22  C   UNL A   1      33.505  24.913  25.256  1.00  0.00    -0.014 A 
ATOM     23  C   UNL A   1      31.356  26.317  26.410  1.00  0.00    -0.059 A 
ATOM     24  H   UNL A   1      30.913  24.495  27.349  1.00  0.00     0.063 H 
ATOM     25  C   UNL A   1      33.275  26.280  24.972  1.00  0.00    -0.051 A 
ATOM     26  C   UNL A   1      32.198  26.983  25.525  1.00  0.00    -0.047 A 
ATOM     27  H   UNL A   1      30.584  26.827  26.865  1.00  0.00     0.063 H 
ATOM     28  H   UNL A   1      33.922  26.773  24.337  1.00  0.00     0.063 H 
BRANCH  22  29
ATOM     29  C   UNL A   1      34.765  24.312  24.771  1.00  0.00    -0.018 A 
ATOM     30  C   UNL A   1      35.893  24.290  25.615  1.00  0.00    -0.054 A 
ATOM     31  C   UNL A   1      34.884  23.732  23.500  1.00  0.00    -0.054 A 
ATOM     32  C   UNL A   1      37.084  23.680  25.218  1.00  0.00    -0.062 A 
ATOM     33  H   UNL A   1      35.837  24.734  26.545  1.00  0.00     0.063 H 
ATOM     34  C   UNL A   1      36.073  23.107  23.107  1.00  0.00    -0.062 A 
ATOM     35  H   UNL A   1      34.086  23.766  22.847  1.00  0.00     0.063 H 
ATOM     36  C   UNL A   1      37.170  23.078  23.966  1.00  0.00    -0.062 A 
ATOM     37  H   UNL A   1      37.899  23.675  25.851  1.00  0.00     0.062 H 
ATOM     38  H   UNL A   1      36.137  22.665  22.176  1.00  0.00     0.062 H 
ATOM     39  H   UNL A   1      38.043  22.611  23.676  1.00  0.00     0.062 H 
ENDBRANCH  22  29
BRANCH  26  40
ATOM     40  C   UNL A   1      31.961  28.438  25.205  1.00  0.00    -0.018 C 
ATOM     41  H   UNL A   1      32.886  28.957  25.344  1.00  0.00     0.032 H 
ATOM     42  H   UNL A   1      31.176  28.751  25.862  1.00  0.00     0.032 H 
BRANCH  40  43
ATOM     43  C   UNL A   1      31.459  28.746  23.790  1.00  0.00     0.022 C 
ATOM     44  C   UNL A   1      31.080  27.537  22.932  1.00  0.00    -0.043 C 
ATOM     45  C   UNL A   1      30.182  29.555  23.780  1.00  0.00     0.136 C 
ATOM     46  H   UNL A   1      32.312  29.256  23.393  1.00  0.00     0.039 H 
ATOM     47  C   UNL A   1      29.567  27.390  23.040  1.00  0.00    -0.046 C 
ATOM     48  H   UNL A   1      31.564  26.657  23.298  1.00  0.00     0.027 H 
ATOM     49  H   UNL A   1      31.385  27.672  21.915  1.00  0.00     0.027 H 
ATOM     50  C   UNL A   1      29.021  28.804  23.184  1.00  0.00     0.006 C 
ATOM     51  O   UNL A   1      30.103  30.706  24.196  1.00  0.00    -0.299 OA
ATOM     52  H   UNL A   1      29.310  26.802  23.897  1.00  0.00     0.027 H 
ATOM     53  H   UNL A   1      29.158  26.895  22.185  1.00  0.00     0.027 H 
ATOM     54  H   UNL A   1      28.174  28.824  23.836  1.00  0.00     0.035 H 
ATOM     55  H   UNL A   1      28.680  29.220  22.259  1.00  0.00     0.035 H 
ENDBRANCH  40  43
ENDBRANCH  26  40
ENDBRANCH  14  20
ENDBRANCH  11  14
ENDBRANCH   7  10
ENDBRANCH   4   7
ENDBRANCH   1   4
BRANCH   1  56
ATOM     56  C   UNL A   1      36.943  20.055  25.031  1.00  0.00    -0.052 C 
ATOM     57  H   UNL A   1      36.821  20.425  26.027  1.00  0.00     0.027 H 
ATOM     58  H   UNL A   1      37.083  20.830  24.307  1.00  0.00     0.027 H 
BRANCH  56  59
ATOM     59  C   UNL A   1      38.206  19.194  24.994  1.00  0.00    -0.036 C 
ATOM     60  H   UNL A   1      38.495  19.066  23.972  1.00  0.00     0.028 H 
ATOM     61  H   UNL A   1      37.961  18.271  25.477  1.00  0.00     0.028 H 
BRANCH  59  62
ATOM     62  C   UNL A   1      39.389  19.783  25.753  1.00  0.00     0.018 C 
ATOM     63  H   UNL A   1      39.055  20.103  26.719  1.00  0.00     0.049 H 
ATOM     64  H   UNL A   1      39.771  20.604  25.183  1.00  0.00     0.049 H 
BRANCH  62  65
ATOM     65  N   UNL A   1      40.463  18.819  25.924  1.00  0.00    -0.352 N 
ATOM     66  C   UNL A   1      41.801  19.046  26.117  1.00  0.00     0.251 C 
ATOM     67  H   UNL A   1      40.192  17.872  25.897  1.00  0.00     0.163 HD
ATOM     68  O   UNL A   1      42.609  18.121  26.039  1.00  0.00    -0.269 OA
BRANCH  66  69
ATOM     69  C   UNL A   1      42.275  20.416  26.398  1.00  0.00     0.039 A 
ATOM     70  C   UNL A   1      42.669  21.228  25.333  1.00  0.00    -0.049 A 
ATOM     71  C   UNL A   1      42.319  20.899  27.709  1.00  0.00    -0.049 A 
ATOM     72  C   UNL A   1      43.054  22.547  25.579  1.00  0.00    -0.053 A 
ATOM     73  H   UNL A   1      42.676  20.855  24.371  1.00  0.00     0.063 H 
ATOM     74  C   UNL A   1      42.626  22.236  27.943  1.00  0.00    -0.053 A 
ATOM     75  H   UNL A   1      42.125  20.266  28.501  1.00  0.00     0.063 H 
ATOM     76  C   UNL A   1      43.002  23.072  26.881  1.00  0.00    -0.014 A 
ATOM     77  H   UNL A   1      43.378  23.140  24.798  1.00  0.00     0.063 H 
ATOM     78  H   UNL A   1      42.577  22.614  28.902  1.00  0.00     0.063 H 
BRANCH  76  79
ATOM     79  C   UNL A   1      43.340  24.493  27.150  1.00  0.00     0.031 A 
ATOM     80  C   UNL A   1      44.735  24.996  26.902  1.00  0.00     0.074 A 
ATOM     81  C   UNL A   1      42.408  25.312  27.673  1.00  0.00     0.049 A 
ATOM     82  N   UNL A   1      45.242  26.181  27.134  1.00  0.00    -0.248 NA
ATOM     83  C   UNL A   1      45.698  24.034  26.343  1.00  0.00    -0.034 C 
ATOM     84  C   UNL A   1      41.034  24.929  28.000  1.00  0.00    -0.036 A 
ATOM     85  N   UNL A   1      42.477  26.636  28.031  1.00  0.00    -0.354 N 
ATOM     86  C   UNL A   1      46.577  26.101  26.762  1.00  0.00     0.074 A 
ATOM     87  C   UNL A   1      46.819  24.738  26.342  1.00  0.00    -0.034 C 
ATOM     88  H   UNL A   1      45.540  23.061  26.032  1.00  0.00     0.065 H 
ATOM     89  C   UNL A   1      40.383  25.997  28.487  1.00  0.00    -0.036 A 
ATOM     90  H   UNL A   1      40.628  23.988  27.875  1.00  0.00     0.065 H 
ATOM     91  C   UNL A   1      41.303  27.129  28.549  1.00  0.00     0.049 A 
ATOM     92  H   UNL A   1      43.290  27.180  27.927  1.00  0.00     0.167 HD
ATOM     93  C   UNL A   1      47.510  27.082  26.747  1.00  0.00     0.037 A 
ATOM     94  H   UNL A   1      47.744  24.364  26.078  1.00  0.00     0.065 H 
ATOM     95  H   UNL A   1      39.391  26.017  28.772  1.00  0.00     0.065 H 
ATOM     96  C   UNL A   1      41.008  28.351  29.029  1.00  0.00     0.037 A 
ATOM     97  C   UNL A   1      47.258  28.443  27.145  1.00  0.00     0.049 A 
ATOM     98  C   UNL A   1      42.070  29.418  29.018  1.00  0.00     0.074 A 
ATOM     99  C   UNL A   1      48.121  29.524  27.114  1.00  0.00    -0.036 A 
ATOM    100  N   UNL A   1      46.053  28.907  27.652  1.00  0.00    -0.354 N 
ATOM    101  N   UNL A   1      43.310  29.349  28.597  1.00  0.00    -0.248 NA
ATOM    102  C   UNL A   1      41.690  30.737  29.544  1.00  0.00    -0.034 C 
ATOM    103  C   UNL A   1      47.457  30.630  27.655  1.00  0.00    -0.036 A 
ATOM    104  H   UNL A   1      49.088  29.516  26.753  1.00  0.00     0.065 H 
ATOM    105  C   UNL A   1      46.159  30.254  27.963  1.00  0.00     0.049 A 
ATOM    106  H   UNL A   1      45.243  28.361  27.774  1.00  0.00     0.167 HD
ATOM    107  C   UNL A   1      43.844  30.619  28.773  1.00  0.00     0.074 A 
ATOM    108  C   UNL A   1      42.789  31.443  29.326  1.00  0.00    -0.034 C 
ATOM    109  H   UNL A   1      40.798  31.035  29.970  1.00  0.00     0.065 H 
ATOM    110  H   UNL A   1      47.864  31.566  27.801  1.00  0.00     0.065 H 
ATOM    111  C   UNL A   1      45.095  31.063  28.500  1.00  0.00     0.037 A 
ATOM    112  H   UNL A   1      42.882  32.451  29.525  1.00  0.00     0.065 H 
BRANCH  93 113
ATOM    113  C   UNL A   1      48.894  26.725  26.285  1.00  0.00     0.064 A 
ATOM    114  C   UNL A   1      49.302  26.927  24.957  1.00  0.00     0.173 A 
ATOM    115  C   UNL A   1      49.840  26.222  27.190  1.00  0.00     0.173 A 
ATOM    116  F   UNL A   1      48.435  27.396  24.047  1.00  0.00    -0.203 F 
ATOM    117  C   UNL A   1      50.596  26.613  24.549  1.00  0.00     0.198 A 
ATOM    118  C   UNL A   1      51.141  25.940  26.786  1.00  0.00     0.198 A 
ATOM    119  F   UNL A   1      49.505  26.014  28.474  1.00  0.00    -0.203 F 
ATOM    120  F   UNL A   1      50.947  26.769  23.265  1.00  0.00    -0.200 F 
ATOM    121  C   UNL A   1      51.517  26.129  25.465  1.00  0.00     0.200 A 
ATOM    122  F   UNL A   1      52.035  25.488  27.677  1.00  0.00    -0.200 F 
ATOM    123  F   UNL A   1      52.765  25.840  25.073  1.00  0.00    -0.200 F 
ENDBRANCH  93 113
BRANCH  96 124
ATOM    124  C   UNL A   1      39.645  28.641  29.549  1.00  0.00     0.064 A 
ATOM    125  C   UNL A   1      38.661  29.205  28.723  1.00  0.00     0.173 A 
ATOM    126  C   UNL A   1      39.302  28.381  30.884  1.00  0.00     0.173 A 
ATOM    127  F   UNL A   1      38.946  29.490  27.443  1.00  0.00    -0.203 F 
ATOM    128  C   UNL A   1      37.399  29.525  29.219  1.00  0.00     0.198 A 
ATOM    129  C   UNL A   1      38.028  28.671  31.370  1.00  0.00     0.198 A 
ATOM    130  F   UNL A   1      40.202  27.837  31.716  1.00  0.00    -0.203 F 
ATOM    131  F   UNL A   1      36.500  30.116  28.422  1.00  0.00    -0.200 F 
ATOM    132  C   UNL A   1      37.083  29.253  30.541  1.00  0.00     0.200 A 
ATOM    133  F   UNL A   1      37.721  28.390  32.644  1.00  0.00    -0.200 F 
ATOM    134  F   UNL A   1      35.869  29.561  31.018  1.00  0.00    -0.200 F 
ENDBRANCH  96 124
BRANCH 111 135
ATOM    135  C   UNL A   1      45.383  32.517  28.750  1.00  0.00     0.064 A 
ATOM    136  C   UNL A   1      45.943  32.964  29.956  1.00  0.00     0.173 A 
ATOM    137  C   UNL A   1      45.132  33.469  27.750  1.00  0.00     0.173 A 
ATOM    138  F   UNL A   1      46.188  32.098  30.950  1.00  0.00    -0.203 F 
ATOM    139  C   UNL A   1      46.213  34.315  30.161  1.00  0.00     0.198 A 
ATOM    140  C   UNL A   1      45.437  34.813  27.945  1.00  0.00     0.198 A 
ATOM    141  F   UNL A   1      44.605  33.093  26.575  1.00  0.00    -0.203 F 
ATOM    142  F   UNL A   1      46.698  34.727  31.341  1.00  0.00    -0.200 F 
ATOM    143  C   UNL A   1      45.969  35.237  29.153  1.00  0.00     0.200 A 
ATOM    144  F   UNL A   1      45.216  35.697  26.964  1.00  0.00    -0.200 F 
ATOM    145  F   UNL A   1      46.239  36.534  29.349  1.00  0.00    -0.200 F 
ENDBRANCH 111 135
ENDBRANCH  76  79
ENDBRANCH  66  69
ENDBRANCH  62  65
ENDBRANCH  59  62
ENDBRANCH  56  59
ENDBRANCH   1  56
TORSDOF 18
ENDMDL
MODEL 7
REMARK VINA RESULT:     -11.8      3.315      5.048
REMARK SMILES C[C@@H](C(=O)NCCCCCCNC(=O)c1ccc(-c2c3nc(c(-c4c(F)c(F)c(F)c(F)c4F)c4ccc([nH]4)c(-c4c(F)c(F)c(F)c(F)c4F)c4nc(c(-c5c(F)c(F)c(F)c(F)c5F)c5ccc2[nH]5)C=C4)C=C3)cc1)c1ccc(C[C@H]2CCCC2=O)cc1-c1ccccc1
REMARK SMILES IDX 8 1 7 4 6 7 5 10 3 11 4 12 2 14 1 16 78 20 79 21 90 22 80 23
REMARK SMILES IDX 89 25 81 26 91 29 92 30 96 31 93 32 95 34 94 36 82 40 83 43
REMARK SMILES IDX 84 44 87 45 85 47 86 50 88 51 9 56 10 59 11 62 12 65 13 66
REMARK SMILES IDX 14 68 15 69 16 70 77 71 17 72 76 74 18 76 19 79 20 80 70 81
REMARK SMILES IDX 21 82 75 83 69 84 71 85 22 86 74 87 68 89 67 91 23 93 55 96
REMARK SMILES IDX 35 97 54 98 36 99 39 100 53 101 72 102 37 103 38 105 52 107
REMARK SMILES IDX 73 108 40 111 24 113 25 114 33 115 26 116 27 117 31 118
REMARK SMILES IDX 34 119 28 120 29 121 32 122 30 123 56 124 57 125 65 126
REMARK SMILES IDX 58 127 59 128 63 129 66 130 60 131 61 132 64 133 62 134
REMARK SMILES IDX 41 135 42 136 50 137 43 138 44 139 48 140 51 141 45 142
REMARK SMILES IDX 46 143 49 144 47 145
REMARK H PARENT 8 2 8 3 7 5 7 6 6 8 6 9 5 13 2 15 1 17 1 18 1 19 79 24 80 27
REMARK H PARENT 89 28 92 33 96 35 93 37 95 38 94 39 82 41 82 42 83 46 84 48
REMARK H PARENT 84 49 85 52 85 53 86 54 86 55 9 57 9 58 10 60 10 61 11 63
REMARK H PARENT 11 64 12 67 16 73 77 75 17 77 76 78 75 88 69 90 71 92 74 94
REMARK H PARENT 68 95 36 104 39 106 72 109 37 110 73 112
REMARK Flexibility Score: inf
ROOT
ATOM      1  C   UNL A   1      31.309  27.426  24.818  1.00  0.00    -0.052 C 
ATOM      2  H   UNL A   1      30.274  27.653  24.666  1.00  0.00     0.027 H 
ATOM      3  H   UNL A   1      31.835  27.210  23.912  1.00  0.00     0.027 H 
ENDROOT
BRANCH   1   4
ATOM      4  C   UNL A   1      31.396  26.158  25.677  1.00  0.00    -0.036 C 
ATOM      5  H   UNL A   1      31.685  26.443  26.667  1.00  0.00     0.028 H 
ATOM      6  H   UNL A   1      30.431  25.698  25.639  1.00  0.00     0.028 H 
BRANCH   4   7
ATOM      7  C   UNL A   1      32.394  25.115  25.168  1.00  0.00     0.017 C 
ATOM      8  H   UNL A   1      33.349  25.295  25.615  1.00  0.00     0.049 H 
ATOM      9  H   UNL A   1      32.039  24.141  25.430  1.00  0.00     0.049 H 
BRANCH   7  10
ATOM     10  N   UNL A   1      32.523  25.191  23.731  1.00  0.00    -0.356 N 
ATOM     11  C   UNL A   1      33.473  24.687  22.892  1.00  0.00     0.227 C 
ATOM     12  O   UNL A   1      33.363  25.040  21.717  1.00  0.00    -0.274 OA
ATOM     13  H   UNL A   1      31.803  25.691  23.280  1.00  0.00     0.163 HD
BRANCH  11  14
ATOM     14  C   UNL A   1      34.550  23.720  23.435  1.00  0.00     0.061 C 
ATOM     15  H   UNL A   1      34.941  24.264  24.271  1.00  0.00     0.045 H 
BRANCH  14  16
ATOM     16  C   UNL A   1      35.647  23.440  22.407  1.00  0.00    -0.049 C 
ATOM     17  H   UNL A   1      35.228  22.918  21.572  1.00  0.00     0.024 H 
ATOM     18  H   UNL A   1      36.411  22.842  22.856  1.00  0.00     0.024 H 
ATOM     19  H   UNL A   1      36.067  24.366  22.074  1.00  0.00     0.024 H 
ENDBRANCH  14  16
BRANCH  14  20
ATOM     20  C   UNL A   1      34.045  22.382  23.999  1.00  0.00    -0.028 A 
ATOM     21  C   UNL A   1      32.891  21.780  23.460  1.00  0.00    -0.057 A 
ATOM     22  C   UNL A   1      34.777  21.656  24.977  1.00  0.00    -0.014 A 
ATOM     23  C   UNL A   1      32.409  20.559  23.923  1.00  0.00    -0.059 A 
ATOM     24  H   UNL A   1      32.387  22.260  22.698  1.00  0.00     0.063 H 
ATOM     25  C   UNL A   1      34.255  20.428  25.448  1.00  0.00    -0.051 A 
ATOM     26  C   UNL A   1      33.068  19.882  24.945  1.00  0.00    -0.047 A 
ATOM     27  H   UNL A   1      31.558  20.154  23.505  1.00  0.00     0.063 H 
ATOM     28  H   UNL A   1      34.765  19.919  26.187  1.00  0.00     0.063 H 
BRANCH  22  29
ATOM     29  C   UNL A   1      36.123  22.053  25.440  1.00  0.00    -0.018 A 
ATOM     30  C   UNL A   1      37.211  21.181  25.239  1.00  0.00    -0.054 A 
ATOM     31  C   UNL A   1      36.375  23.287  26.057  1.00  0.00    -0.054 A 
ATOM     32  C   UNL A   1      38.508  21.543  25.607  1.00  0.00    -0.062 A 
ATOM     33  H   UNL A   1      37.046  20.257  24.811  1.00  0.00     0.063 H 
ATOM     34  C   UNL A   1      37.677  23.657  26.413  1.00  0.00    -0.062 A 
ATOM     35  H   UNL A   1      35.592  23.930  26.250  1.00  0.00     0.063 H 
ATOM     36  C   UNL A   1      38.742  22.788  26.185  1.00  0.00    -0.062 A 
ATOM     37  H   UNL A   1      39.292  20.889  25.451  1.00  0.00     0.062 H 
ATOM     38  H   UNL A   1      37.848  24.578  26.846  1.00  0.00     0.062 H 
ATOM     39  H   UNL A   1      39.701  23.065  26.443  1.00  0.00     0.062 H 
ENDBRANCH  22  29
BRANCH  26  40
ATOM     40  C   UNL A   1      32.519  18.577  25.465  1.00  0.00    -0.018 C 
ATOM     41  H   UNL A   1      31.457  18.679  25.547  1.00  0.00     0.032 H 
ATOM     42  H   UNL A   1      33.020  18.406  26.396  1.00  0.00     0.032 H 
BRANCH  40  43
ATOM     43  C   UNL A   1      32.805  17.336  24.612  1.00  0.00     0.022 C 
ATOM     44  C   UNL A   1      34.050  17.402  23.723  1.00  0.00    -0.043 C 
ATOM     45  C   UNL A   1      33.072  16.100  25.440  1.00  0.00     0.136 C 
ATOM     46  H   UNL A   1      31.909  17.296  24.028  1.00  0.00     0.039 H 
ATOM     47  C   UNL A   1      35.159  16.684  24.483  1.00  0.00    -0.046 C 
ATOM     48  H   UNL A   1      34.323  18.420  23.545  1.00  0.00     0.027 H 
ATOM     49  H   UNL A   1      33.872  16.945  22.772  1.00  0.00     0.027 H 
ATOM     50  C   UNL A   1      34.474  15.577  25.271  1.00  0.00     0.006 C 
ATOM     51  O   UNL A   1      32.232  15.569  26.159  1.00  0.00    -0.299 OA
ATOM     52  H   UNL A   1      35.655  17.362  25.146  1.00  0.00     0.027 H 
ATOM     53  H   UNL A   1      35.901  16.294  23.818  1.00  0.00     0.027 H 
ATOM     54  H   UNL A   1      34.947  15.430  26.219  1.00  0.00     0.035 H 
ATOM     55  H   UNL A   1      34.513  14.625  24.782  1.00  0.00     0.035 H 
ENDBRANCH  40  43
ENDBRANCH  26  40
ENDBRANCH  14  20
ENDBRANCH  11  14
ENDBRANCH   7  10
ENDBRANCH   4   7
ENDBRANCH   1   4
BRANCH   1  56
ATOM     56  C   UNL A   1      31.982  28.664  25.418  1.00  0.00    -0.052 C 
ATOM     57  H   UNL A   1      31.487  28.900  26.336  1.00  0.00     0.027 H 
ATOM     58  H   UNL A   1      31.900  29.438  24.684  1.00  0.00     0.027 H 
BRANCH  56  59
ATOM     59  C   UNL A   1      33.473  28.500  25.709  1.00  0.00    -0.036 C 
ATOM     60  H   UNL A   1      34.008  29.238  25.150  1.00  0.00     0.028 H 
ATOM     61  H   UNL A   1      33.731  27.499  25.431  1.00  0.00     0.028 H 
BRANCH  59  62
ATOM     62  C   UNL A   1      33.846  28.653  27.178  1.00  0.00     0.018 C 
ATOM     63  H   UNL A   1      34.848  28.302  27.319  1.00  0.00     0.049 H 
ATOM     64  H   UNL A   1      33.150  28.081  27.757  1.00  0.00     0.049 H 
BRANCH  62  65
ATOM     65  N   UNL A   1      33.766  30.035  27.622  1.00  0.00    -0.352 N 
ATOM     66  C   UNL A   1      34.676  30.761  28.345  1.00  0.00     0.251 C 
ATOM     67  H   UNL A   1      32.946  30.515  27.366  1.00  0.00     0.163 HD
ATOM     68  O   UNL A   1      34.370  31.856  28.814  1.00  0.00    -0.269 OA
BRANCH  66  69
ATOM     69  C   UNL A   1      36.026  30.210  28.581  1.00  0.00     0.039 A 
ATOM     70  C   UNL A   1      36.986  30.314  27.572  1.00  0.00    -0.049 A 
ATOM     71  C   UNL A   1      36.345  29.603  29.799  1.00  0.00    -0.049 A 
ATOM     72  C   UNL A   1      38.284  29.859  27.807  1.00  0.00    -0.053 A 
ATOM     73  H   UNL A   1      36.736  30.724  26.658  1.00  0.00     0.063 H 
ATOM     74  C   UNL A   1      37.658  29.223  30.059  1.00  0.00    -0.053 A 
ATOM     75  H   UNL A   1      35.609  29.436  30.503  1.00  0.00     0.063 H 
ATOM     76  C   UNL A   1      38.639  29.342  29.064  1.00  0.00    -0.014 A 
ATOM     77  H   UNL A   1      38.987  29.903  27.052  1.00  0.00     0.063 H 
ATOM     78  H   UNL A   1      37.911  28.852  30.988  1.00  0.00     0.063 H 
BRANCH  76  79
ATOM     79  C   UNL A   1      40.033  28.919  29.353  1.00  0.00     0.031 A 
ATOM     80  C   UNL A   1      40.952  29.826  30.123  1.00  0.00     0.074 A 
ATOM     81  C   UNL A   1      40.486  27.745  28.873  1.00  0.00     0.049 A 
ATOM     82  N   UNL A   1      42.217  29.665  30.420  1.00  0.00    -0.248 NA
ATOM     83  C   UNL A   1      40.383  31.096  30.600  1.00  0.00    -0.034 C 
ATOM     84  C   UNL A   1      39.704  26.799  28.076  1.00  0.00    -0.036 A 
ATOM     85  N   UNL A   1      41.719  27.149  28.977  1.00  0.00    -0.354 N 
ATOM     86  C   UNL A   1      42.594  30.813  31.104  1.00  0.00     0.074 A 
ATOM     87  C   UNL A   1      41.443  31.688  31.130  1.00  0.00    -0.034 C 
ATOM     88  H   UNL A   1      39.411  31.438  30.537  1.00  0.00     0.065 H 
ATOM     89  C   UNL A   1      40.467  25.733  27.783  1.00  0.00    -0.036 A 
ATOM     90  H   UNL A   1      38.723  26.929  27.784  1.00  0.00     0.065 H 
ATOM     91  C   UNL A   1      41.803  25.939  28.333  1.00  0.00     0.049 A 
ATOM     92  H   UNL A   1      42.473  27.552  29.467  1.00  0.00     0.167 HD
ATOM     93  C   UNL A   1      43.785  31.100  31.682  1.00  0.00     0.037 A 
ATOM     94  H   UNL A   1      41.447  32.646  31.511  1.00  0.00     0.065 H 
ATOM     95  H   UNL A   1      40.159  24.903  27.254  1.00  0.00     0.065 H 
ATOM     96  C   UNL A   1      42.844  25.095  28.194  1.00  0.00     0.037 A 
ATOM     97  C   UNL A   1      44.921  30.215  31.671  1.00  0.00     0.049 A 
ATOM     98  C   UNL A   1      44.162  25.448  28.830  1.00  0.00     0.074 A 
ATOM     99  C   UNL A   1      46.154  30.390  32.275  1.00  0.00    -0.036 A 
ATOM    100  N   UNL A   1      44.964  28.991  31.020  1.00  0.00    -0.354 N 
ATOM    101  N   UNL A   1      44.486  26.505  29.536  1.00  0.00    -0.248 NA
ATOM    102  C   UNL A   1      45.260  24.487  28.656  1.00  0.00    -0.034 C 
ATOM    103  C   UNL A   1      46.963  29.298  31.941  1.00  0.00    -0.036 A 
ATOM    104  H   UNL A   1      46.430  31.187  32.869  1.00  0.00     0.065 H 
ATOM    105  C   UNL A   1      46.213  28.412  31.185  1.00  0.00     0.049 A 
ATOM    106  H   UNL A   1      44.218  28.593  30.515  1.00  0.00     0.167 HD
ATOM    107  C   UNL A   1      45.807  26.319  29.918  1.00  0.00     0.074 A 
ATOM    108  C   UNL A   1      46.222  25.041  29.378  1.00  0.00    -0.034 C 
ATOM    109  H   UNL A   1      45.276  23.609  28.113  1.00  0.00     0.065 H 
ATOM    110  H   UNL A   1      47.951  29.173  32.212  1.00  0.00     0.065 H 
ATOM    111  C   UNL A   1      46.606  27.133  30.651  1.00  0.00     0.037 A 
ATOM    112  H   UNL A   1      47.149  24.616  29.535  1.00  0.00     0.065 H 
BRANCH  93 113
ATOM    113  C   UNL A   1      43.925  32.424  32.376  1.00  0.00     0.064 A 
ATOM    114  C   UNL A   1      44.367  33.570  31.696  1.00  0.00     0.173 A 
ATOM    115  C   UNL A   1      43.566  32.562  33.725  1.00  0.00     0.173 A 
ATOM    116  F   UNL A   1      44.734  33.492  30.408  1.00  0.00    -0.203 F 
ATOM    117  C   UNL A   1      44.470  34.796  32.348  1.00  0.00     0.198 A 
ATOM    118  C   UNL A   1      43.638  33.796  34.364  1.00  0.00     0.198 A 
ATOM    119  F   UNL A   1      43.132  31.501  34.422  1.00  0.00    -0.203 F 
ATOM    120  F   UNL A   1      44.940  35.865  31.690  1.00  0.00    -0.200 F 
ATOM    121  C   UNL A   1      44.095  34.911  33.678  1.00  0.00     0.200 A 
ATOM    122  F   UNL A   1      43.260  33.909  35.646  1.00  0.00    -0.200 F 
ATOM    123  F   UNL A   1      44.182  36.095  34.300  1.00  0.00    -0.200 F 
ENDBRANCH  93 113
BRANCH  96 124
ATOM    124  C   UNL A   1      42.682  23.828  27.433  1.00  0.00     0.064 A 
ATOM    125  C   UNL A   1      42.193  22.669  28.054  1.00  0.00     0.173 A 
ATOM    126  C   UNL A   1      43.032  23.741  26.076  1.00  0.00     0.173 A 
ATOM    127  F   UNL A   1      41.864  22.696  29.354  1.00  0.00    -0.203 F 
ATOM    128  C   UNL A   1      42.089  21.467  27.358  1.00  0.00     0.198 A 
ATOM    129  C   UNL A   1      42.894  22.546  25.373  1.00  0.00     0.198 A 
ATOM    130  F   UNL A   1      43.498  24.820  25.432  1.00  0.00    -0.203 F 
ATOM    131  F   UNL A   1      41.674  20.363  27.992  1.00  0.00    -0.200 F 
ATOM    132  C   UNL A   1      42.435  21.408  26.016  1.00  0.00     0.200 A 
ATOM    133  F   UNL A   1      43.214  22.498  24.072  1.00  0.00    -0.200 F 
ATOM    134  F   UNL A   1      42.334  20.252  25.347  1.00  0.00    -0.200 F 
ENDBRANCH  96 124
BRANCH 111 135
ATOM    135  C   UNL A   1      47.995  26.647  30.955  1.00  0.00     0.064 A 
ATOM    136  C   UNL A   1      49.096  27.012  30.165  1.00  0.00     0.173 A 
ATOM    137  C   UNL A   1      48.232  25.840  32.078  1.00  0.00     0.173 A 
ATOM    138  F   UNL A   1      48.922  27.770  29.073  1.00  0.00    -0.203 F 
ATOM    139  C   UNL A   1      50.377  26.561  30.473  1.00  0.00     0.198 A 
ATOM    140  C   UNL A   1      49.519  25.422  32.403  1.00  0.00     0.198 A 
ATOM    141  F   UNL A   1      47.216  25.470  32.872  1.00  0.00    -0.203 F 
ATOM    142  F   UNL A   1      51.405  26.878  29.673  1.00  0.00    -0.200 F 
ATOM    143  C   UNL A   1      50.590  25.775  31.595  1.00  0.00     0.200 A 
ATOM    144  F   UNL A   1      49.723  24.676  33.497  1.00  0.00    -0.200 F 
ATOM    145  F   UNL A   1      51.825  25.351  31.895  1.00  0.00    -0.200 F 
ENDBRANCH 111 135
ENDBRANCH  76  79
ENDBRANCH  66  69
ENDBRANCH  62  65
ENDBRANCH  59  62
ENDBRANCH  56  59
ENDBRANCH   1  56
TORSDOF 18
ENDMDL
MODEL 8
REMARK VINA RESULT:     -11.8      4.645      8.667
REMARK SMILES C[C@@H](C(=O)NCCCCCCNC(=O)c1ccc(-c2c3nc(c(-c4c(F)c(F)c(F)c(F)c4F)c4ccc([nH]4)c(-c4c(F)c(F)c(F)c(F)c4F)c4nc(c(-c5c(F)c(F)c(F)c(F)c5F)c5ccc2[nH]5)C=C4)C=C3)cc1)c1ccc(C[C@H]2CCCC2=O)cc1-c1ccccc1
REMARK SMILES IDX 8 1 7 4 6 7 5 10 3 11 4 12 2 14 1 16 78 20 79 21 90 22 80 23
REMARK SMILES IDX 89 25 81 26 91 29 92 30 96 31 93 32 95 34 94 36 82 40 83 43
REMARK SMILES IDX 84 44 87 45 85 47 86 50 88 51 9 56 10 59 11 62 12 65 13 66
REMARK SMILES IDX 14 68 15 69 16 70 77 71 17 72 76 74 18 76 19 79 20 80 70 81
REMARK SMILES IDX 21 82 75 83 69 84 71 85 22 86 74 87 68 89 67 91 23 93 55 96
REMARK SMILES IDX 35 97 54 98 36 99 39 100 53 101 72 102 37 103 38 105 52 107
REMARK SMILES IDX 73 108 40 111 24 113 25 114 33 115 26 116 27 117 31 118
REMARK SMILES IDX 34 119 28 120 29 121 32 122 30 123 56 124 57 125 65 126
REMARK SMILES IDX 58 127 59 128 63 129 66 130 60 131 61 132 64 133 62 134
REMARK SMILES IDX 41 135 42 136 50 137 43 138 44 139 48 140 51 141 45 142
REMARK SMILES IDX 46 143 49 144 47 145
REMARK H PARENT 8 2 8 3 7 5 7 6 6 8 6 9 5 13 2 15 1 17 1 18 1 19 79 24 80 27
REMARK H PARENT 89 28 92 33 96 35 93 37 95 38 94 39 82 41 82 42 83 46 84 48
REMARK H PARENT 84 49 85 52 85 53 86 54 86 55 9 57 9 58 10 60 10 61 11 63
REMARK H PARENT 11 64 12 67 16 73 77 75 17 77 76 78 75 88 69 90 71 92 74 94
REMARK H PARENT 68 95 36 104 39 106 72 109 37 110 73 112
REMARK Flexibility Score: inf
ROOT
ATOM      1  C   UNL A   1      35.174  34.885  32.462  1.00  0.00    -0.052 C 
ATOM      2  H   UNL A   1      36.105  35.155  32.009  1.00  0.00     0.027 H 
ATOM      3  H   UNL A   1      34.581  35.728  32.749  1.00  0.00     0.027 H 
ENDROOT
BRANCH   1   4
ATOM      4  C   UNL A   1      35.479  34.117  33.755  1.00  0.00    -0.036 C 
ATOM      5  H   UNL A   1      34.825  34.477  34.521  1.00  0.00     0.028 H 
ATOM      6  H   UNL A   1      35.332  33.080  33.534  1.00  0.00     0.028 H 
BRANCH   4   7
ATOM      7  C   UNL A   1      36.920  34.257  34.250  1.00  0.00     0.017 C 
ATOM      8  H   UNL A   1      37.588  34.155  33.421  1.00  0.00     0.049 H 
ATOM      9  H   UNL A   1      37.036  35.217  34.705  1.00  0.00     0.049 H 
BRANCH   7  10
ATOM     10  N   UNL A   1      37.223  33.239  35.230  1.00  0.00    -0.356 N 
ATOM     11  C   UNL A   1      37.629  31.946  35.077  1.00  0.00     0.227 C 
ATOM     12  O   UNL A   1      37.678  31.294  36.120  1.00  0.00    -0.274 OA
ATOM     13  H   UNL A   1      37.119  33.527  36.166  1.00  0.00     0.163 HD
BRANCH  11  14
ATOM     14  C   UNL A   1      38.021  31.418  33.677  1.00  0.00     0.061 C 
ATOM     15  H   UNL A   1      38.300  32.318  33.167  1.00  0.00     0.045 H 
BRANCH  14  16
ATOM     16  C   UNL A   1      36.851  30.733  32.970  1.00  0.00    -0.049 C 
ATOM     17  H   UNL A   1      36.175  31.474  32.599  1.00  0.00     0.024 H 
ATOM     18  H   UNL A   1      36.340  30.097  33.662  1.00  0.00     0.024 H 
ATOM     19  H   UNL A   1      37.222  30.148  32.154  1.00  0.00     0.024 H 
ENDBRANCH  14  16
BRANCH  14  20
ATOM     20  C   UNL A   1      39.249  30.496  33.613  1.00  0.00    -0.028 A 
ATOM     21  C   UNL A   1      39.140  29.218  33.032  1.00  0.00    -0.057 A 
ATOM     22  C   UNL A   1      40.539  30.934  34.016  1.00  0.00    -0.014 A 
ATOM     23  C   UNL A   1      40.229  28.356  32.932  1.00  0.00    -0.059 A 
ATOM     24  H   UNL A   1      38.224  28.910  32.668  1.00  0.00     0.063 H 
ATOM     25  C   UNL A   1      41.626  30.033  33.926  1.00  0.00    -0.051 A 
ATOM     26  C   UNL A   1      41.479  28.741  33.407  1.00  0.00    -0.047 A 
ATOM     27  H   UNL A   1      40.107  27.426  32.504  1.00  0.00     0.063 H 
ATOM     28  H   UNL A   1      42.556  30.337  34.255  1.00  0.00     0.063 H 
BRANCH  22  29
ATOM     29  C   UNL A   1      40.834  32.329  34.407  1.00  0.00    -0.018 A 
ATOM     30  C   UNL A   1      40.692  33.360  33.457  1.00  0.00    -0.054 A 
ATOM     31  C   UNL A   1      41.229  32.681  35.705  1.00  0.00    -0.054 A 
ATOM     32  C   UNL A   1      40.903  34.697  33.801  1.00  0.00    -0.062 A 
ATOM     33  H   UNL A   1      40.428  33.122  32.489  1.00  0.00     0.063 H 
ATOM     34  C   UNL A   1      41.426  34.022  36.055  1.00  0.00    -0.062 A 
ATOM     35  H   UNL A   1      41.376  31.943  36.411  1.00  0.00     0.063 H 
ATOM     36  C   UNL A   1      41.259  35.028  35.105  1.00  0.00    -0.062 A 
ATOM     37  H   UNL A   1      40.794  35.437  33.091  1.00  0.00     0.062 H 
ATOM     38  H   UNL A   1      41.695  34.266  37.021  1.00  0.00     0.062 H 
ATOM     39  H   UNL A   1      41.399  36.016  35.367  1.00  0.00     0.062 H 
ENDBRANCH  22  29
BRANCH  26  40
ATOM     40  C   UNL A   1      42.645  27.788  33.327  1.00  0.00    -0.018 C 
ATOM     41  H   UNL A   1      43.484  28.330  32.942  1.00  0.00     0.032 H 
ATOM     42  H   UNL A   1      42.315  26.983  32.702  1.00  0.00     0.032 H 
BRANCH  40  43
ATOM     43  C   UNL A   1      43.076  27.133  34.644  1.00  0.00     0.022 C 
ATOM     44  C   UNL A   1      41.955  26.824  35.640  1.00  0.00    -0.043 C 
ATOM     45  C   UNL A   1      43.709  25.774  34.449  1.00  0.00     0.136 C 
ATOM     46  H   UNL A   1      43.739  27.883  35.022  1.00  0.00     0.039 H 
ATOM     47  C   UNL A   1      41.603  25.354  35.450  1.00  0.00    -0.046 C 
ATOM     48  H   UNL A   1      41.103  27.437  35.439  1.00  0.00     0.027 H 
ATOM     49  H   UNL A   1      42.264  27.022  36.646  1.00  0.00     0.027 H 
ATOM     50  C   UNL A   1      42.904  24.661  35.065  1.00  0.00     0.006 C 
ATOM     51  O   UNL A   1      44.774  25.598  33.866  1.00  0.00    -0.299 OA
ATOM     52  H   UNL A   1      40.878  25.242  34.672  1.00  0.00     0.027 H 
ATOM     53  H   UNL A   1      41.181  24.932  36.338  1.00  0.00     0.027 H 
ATOM     54  H   UNL A   1      42.728  23.877  34.360  1.00  0.00     0.035 H 
ATOM     55  H   UNL A   1      43.395  24.195  35.895  1.00  0.00     0.035 H 
ENDBRANCH  40  43
ENDBRANCH  26  40
ENDBRANCH  14  20
ENDBRANCH  11  14
ENDBRANCH   7  10
ENDBRANCH   4   7
ENDBRANCH   1   4
BRANCH   1  56
ATOM     56  C   UNL A   1      34.349  34.115  31.428  1.00  0.00    -0.052 C 
ATOM     57  H   UNL A   1      34.276  34.715  30.546  1.00  0.00     0.027 H 
ATOM     58  H   UNL A   1      33.401  33.919  31.883  1.00  0.00     0.027 H 
BRANCH  56  59
ATOM     59  C   UNL A   1      34.929  32.757  31.034  1.00  0.00    -0.036 C 
ATOM     60  H   UNL A   1      34.204  32.004  31.260  1.00  0.00     0.028 H 
ATOM     61  H   UNL A   1      35.837  32.640  31.588  1.00  0.00     0.028 H 
BRANCH  59  62
ATOM     62  C   UNL A   1      35.299  32.636  29.561  1.00  0.00     0.018 C 
ATOM     63  H   UNL A   1      36.327  32.347  29.485  1.00  0.00     0.049 H 
ATOM     64  H   UNL A   1      35.128  33.587  29.099  1.00  0.00     0.049 H 
BRANCH  62  65
ATOM     65  N   UNL A   1      34.482  31.651  28.871  1.00  0.00    -0.352 N 
ATOM     66  C   UNL A   1      34.869  30.485  28.263  1.00  0.00     0.251 C 
ATOM     67  H   UNL A   1      33.518  31.849  28.837  1.00  0.00     0.163 HD
ATOM     68  O   UNL A   1      34.085  29.865  27.547  1.00  0.00    -0.269 OA
BRANCH  66  69
ATOM     69  C   UNL A   1      36.246  29.986  28.454  1.00  0.00     0.039 A 
ATOM     70  C   UNL A   1      37.178  30.163  27.430  1.00  0.00    -0.049 A 
ATOM     71  C   UNL A   1      36.615  29.355  29.644  1.00  0.00    -0.049 A 
ATOM     72  C   UNL A   1      38.499  29.757  27.623  1.00  0.00    -0.053 A 
ATOM     73  H   UNL A   1      36.892  30.591  26.535  1.00  0.00     0.063 H 
ATOM     74  C   UNL A   1      37.949  29.023  29.866  1.00  0.00    -0.053 A 
ATOM     75  H   UNL A   1      35.903  29.134  30.357  1.00  0.00     0.063 H 
ATOM     76  C   UNL A   1      38.903  29.216  28.855  1.00  0.00    -0.014 A 
ATOM     77  H   UNL A   1      39.183  29.855  26.856  1.00  0.00     0.063 H 
ATOM     78  H   UNL A   1      38.237  28.634  30.777  1.00  0.00     0.063 H 
BRANCH  76  79
ATOM     79  C   UNL A   1      40.319  28.843  29.103  1.00  0.00     0.031 A 
ATOM     80  C   UNL A   1      41.247  29.815  29.776  1.00  0.00     0.074 A 
ATOM     81  C   UNL A   1      40.781  27.655  28.669  1.00  0.00     0.049 A 
ATOM     82  N   UNL A   1      42.528  29.703  30.023  1.00  0.00    -0.248 NA
ATOM     83  C   UNL A   1      40.667  31.097  30.208  1.00  0.00    -0.034 C 
ATOM     84  C   UNL A   1      39.990  26.647  27.963  1.00  0.00    -0.036 A 
ATOM     85  N   UNL A   1      42.034  27.097  28.749  1.00  0.00    -0.354 N 
ATOM     86  C   UNL A   1      42.905  30.897  30.623  1.00  0.00     0.074 A 
ATOM     87  C   UNL A   1      41.733  31.743  30.653  1.00  0.00    -0.034 C 
ATOM     88  H   UNL A   1      39.683  31.411  30.171  1.00  0.00     0.065 H 
ATOM     89  C   UNL A   1      40.766  25.585  27.696  1.00  0.00    -0.036 A 
ATOM     90  H   UNL A   1      38.993  26.736  27.711  1.00  0.00     0.065 H 
ATOM     91  C   UNL A   1      42.121  25.854  28.170  1.00  0.00     0.049 A 
ATOM     92  H   UNL A   1      42.797  27.546  29.179  1.00  0.00     0.167 HD
ATOM     93  C   UNL A   1      44.113  31.245  31.127  1.00  0.00     0.037 A 
ATOM     94  H   UNL A   1      41.729  32.722  30.979  1.00  0.00     0.065 H 
ATOM     95  H   UNL A   1      40.457  24.718  27.229  1.00  0.00     0.065 H 
ATOM     96  C   UNL A   1      43.176  25.029  28.030  1.00  0.00     0.037 A 
ATOM     97  C   UNL A   1      45.271  30.389  31.113  1.00  0.00     0.049 A 
ATOM     98  C   UNL A   1      44.512  25.450  28.583  1.00  0.00     0.074 A 
ATOM     99  C   UNL A   1      46.525  30.628  31.648  1.00  0.00    -0.036 A 
ATOM    100  N   UNL A   1      45.317  29.131  30.530  1.00  0.00    -0.354 N 
ATOM    101  N   UNL A   1      44.838  26.552  29.212  1.00  0.00    -0.248 NA
ATOM    102  C   UNL A   1      45.626  24.507  28.412  1.00  0.00    -0.034 C 
ATOM    103  C   UNL A   1      47.346  29.538  31.339  1.00  0.00    -0.036 A 
ATOM    104  H   UNL A   1      46.805  31.464  32.183  1.00  0.00     0.065 H 
ATOM    105  C   UNL A   1      46.587  28.593  30.669  1.00  0.00     0.049 A 
ATOM    106  H   UNL A   1      44.560  28.687  30.084  1.00  0.00     0.167 HD
ATOM    107  C   UNL A   1      46.181  26.421  29.543  1.00  0.00     0.074 A 
ATOM    108  C   UNL A   1      46.605  25.125  29.056  1.00  0.00    -0.034 C 
ATOM    109  H   UNL A   1      45.641  23.600  27.919  1.00  0.00     0.065 H 
ATOM    110  H   UNL A   1      48.348  29.453  31.570  1.00  0.00     0.065 H 
ATOM    111  C   UNL A   1      46.989  27.295  30.191  1.00  0.00     0.037 A 
ATOM    112  H   UNL A   1      47.549  24.732  29.194  1.00  0.00     0.065 H 
BRANCH  93 113
ATOM    113  C   UNL A   1      44.249  32.610  31.738  1.00  0.00     0.064 A 
ATOM    114  C   UNL A   1      44.320  32.791  33.128  1.00  0.00     0.173 A 
ATOM    115  C   UNL A   1      44.360  33.747  30.924  1.00  0.00     0.173 A 
ATOM    116  F   UNL A   1      44.208  31.740  33.954  1.00  0.00    -0.203 F 
ATOM    117  C   UNL A   1      44.469  34.062  33.679  1.00  0.00     0.198 A 
ATOM    118  C   UNL A   1      44.543  35.011  31.477  1.00  0.00     0.198 A 
ATOM    119  F   UNL A   1      44.305  33.631  29.588  1.00  0.00    -0.203 F 
ATOM    120  F   UNL A   1      44.486  34.214  35.011  1.00  0.00    -0.200 F 
ATOM    121  C   UNL A   1      44.591  35.168  32.854  1.00  0.00     0.200 A 
ATOM    122  F   UNL A   1      44.677  36.078  30.677  1.00  0.00    -0.200 F 
ATOM    123  F   UNL A   1      44.748  36.389  33.386  1.00  0.00    -0.200 F 
ENDBRANCH  93 113
BRANCH  96 124
ATOM    124  C   UNL A   1      43.014  23.717  27.350  1.00  0.00     0.064 A 
ATOM    125  C   UNL A   1      43.355  23.556  25.999  1.00  0.00     0.173 A 
ATOM    126  C   UNL A   1      42.497  22.602  28.027  1.00  0.00     0.173 A 
ATOM    127  F   UNL A   1      43.835  24.597  25.302  1.00  0.00    -0.203 F 
ATOM    128  C   UNL A   1      43.157  22.342  25.344  1.00  0.00     0.198 A 
ATOM    129  C   UNL A   1      42.332  21.379  27.380  1.00  0.00     0.198 A 
ATOM    130  F   UNL A   1      42.161  22.699  29.321  1.00  0.00    -0.203 F 
ATOM    131  F   UNL A   1      43.438  22.235  24.039  1.00  0.00    -0.200 F 
ATOM    132  C   UNL A   1      42.650  21.253  26.037  1.00  0.00     0.200 A 
ATOM    133  F   UNL A   1      41.858  20.324  28.058  1.00  0.00    -0.200 F 
ATOM    134  F   UNL A   1      42.461  20.086  25.408  1.00  0.00    -0.200 F 
ENDBRANCH  96 124
BRANCH 111 135
ATOM    135  C   UNL A   1      48.404  26.861  30.456  1.00  0.00     0.064 A 
ATOM    136  C   UNL A   1      49.453  27.183  29.582  1.00  0.00     0.173 A 
ATOM    137  C   UNL A   1      48.718  26.150  31.624  1.00  0.00     0.173 A 
ATOM    138  F   UNL A   1      49.204  27.849  28.445  1.00  0.00    -0.203 F 
ATOM    139  C   UNL A   1      50.758  26.783  29.854  1.00  0.00     0.198 A 
ATOM    140  C   UNL A   1      50.029  25.783  31.911  1.00  0.00     0.198 A 
ATOM    141  F   UNL A   1      47.753  25.825  32.499  1.00  0.00    -0.203 F 
ATOM    142  F   UNL A   1      51.736  27.054  28.979  1.00  0.00    -0.200 F 
ATOM    143  C   UNL A   1      51.047  26.091  31.022  1.00  0.00     0.200 A 
ATOM    144  F   UNL A   1      50.308  25.131  33.047  1.00  0.00    -0.200 F 
ATOM    145  F   UNL A   1      52.306  25.716  31.286  1.00  0.00    -0.200 F 
ENDBRANCH 111 135
ENDBRANCH  76  79
ENDBRANCH  66  69
ENDBRANCH  62  65
ENDBRANCH  59  62
ENDBRANCH  56  59
ENDBRANCH   1  56
TORSDOF 18
ENDMDL
MODEL 9
REMARK VINA RESULT:     -11.7      2.864      4.725
REMARK SMILES C[C@@H](C(=O)NCCCCCCNC(=O)c1ccc(-c2c3nc(c(-c4c(F)c(F)c(F)c(F)c4F)c4ccc([nH]4)c(-c4c(F)c(F)c(F)c(F)c4F)c4nc(c(-c5c(F)c(F)c(F)c(F)c5F)c5ccc2[nH]5)C=C4)C=C3)cc1)c1ccc(C[C@H]2CCCC2=O)cc1-c1ccccc1
REMARK SMILES IDX 8 1 7 4 6 7 5 10 3 11 4 12 2 14 1 16 78 20 79 21 90 22 80 23
REMARK SMILES IDX 89 25 81 26 91 29 92 30 96 31 93 32 95 34 94 36 82 40 83 43
REMARK SMILES IDX 84 44 87 45 85 47 86 50 88 51 9 56 10 59 11 62 12 65 13 66
REMARK SMILES IDX 14 68 15 69 16 70 77 71 17 72 76 74 18 76 19 79 20 80 70 81
REMARK SMILES IDX 21 82 75 83 69 84 71 85 22 86 74 87 68 89 67 91 23 93 55 96
REMARK SMILES IDX 35 97 54 98 36 99 39 100 53 101 72 102 37 103 38 105 52 107
REMARK SMILES IDX 73 108 40 111 24 113 25 114 33 115 26 116 27 117 31 118
REMARK SMILES IDX 34 119 28 120 29 121 32 122 30 123 56 124 57 125 65 126
REMARK SMILES IDX 58 127 59 128 63 129 66 130 60 131 61 132 64 133 62 134
REMARK SMILES IDX 41 135 42 136 50 137 43 138 44 139 48 140 51 141 45 142
REMARK SMILES IDX 46 143 49 144 47 145
REMARK H PARENT 8 2 8 3 7 5 7 6 6 8 6 9 5 13 2 15 1 17 1 18 1 19 79 24 80 27
REMARK H PARENT 89 28 92 33 96 35 93 37 95 38 94 39 82 41 82 42 83 46 84 48
REMARK H PARENT 84 49 85 52 85 53 86 54 86 55 9 57 9 58 10 60 10 61 11 63
REMARK H PARENT 11 64 12 67 16 73 77 75 17 77 76 78 75 88 69 90 71 92 74 94
REMARK H PARENT 68 95 36 104 39 106 72 109 37 110 73 112
REMARK Flexibility Score: inf
ROOT
ATOM      1  C   UNL A   1      31.164  27.587  24.029  1.00  0.00    -0.052 C 
ATOM      2  H   UNL A   1      30.209  27.898  23.661  1.00  0.00     0.027 H 
ATOM      3  H   UNL A   1      31.875  27.392  23.254  1.00  0.00     0.027 H 
ENDROOT
BRANCH   1   4
ATOM      4  C   UNL A   1      30.975  26.262  24.780  1.00  0.00    -0.036 C 
ATOM      5  H   UNL A   1      30.904  26.477  25.825  1.00  0.00     0.028 H 
ATOM      6  H   UNL A   1      30.089  25.812  24.384  1.00  0.00     0.028 H 
BRANCH   4   7
ATOM      7  C   UNL A   1      32.105  25.251  24.575  1.00  0.00     0.017 C 
ATOM      8  H   UNL A   1      32.994  25.617  25.044  1.00  0.00     0.049 H 
ATOM      9  H   UNL A   1      31.815  24.317  25.008  1.00  0.00     0.049 H 
BRANCH   7  10
ATOM     10  N   UNL A   1      32.361  25.050  23.167  1.00  0.00    -0.356 N 
ATOM     11  C   UNL A   1      33.391  24.425  22.528  1.00  0.00     0.227 C 
ATOM     12  O   UNL A   1      33.382  24.539  21.301  1.00  0.00    -0.274 OA
ATOM     13  H   UNL A   1      31.678  25.429  22.568  1.00  0.00     0.163 HD
BRANCH  11  14
ATOM     14  C   UNL A   1      34.430  23.618  23.340  1.00  0.00     0.061 C 
ATOM     15  H   UNL A   1      34.613  24.263  24.175  1.00  0.00     0.045 H 
BRANCH  14  16
ATOM     16  C   UNL A   1      35.717  23.373  22.550  1.00  0.00    -0.049 C 
ATOM     17  H   UNL A   1      36.370  24.213  22.663  1.00  0.00     0.024 H 
ATOM     18  H   UNL A   1      35.480  23.242  21.515  1.00  0.00     0.024 H 
ATOM     19  H   UNL A   1      36.200  22.493  22.920  1.00  0.00     0.024 H 
ENDBRANCH  14  16
BRANCH  14  20
ATOM     20  C   UNL A   1      33.949  22.283  23.931  1.00  0.00    -0.028 A 
ATOM     21  C   UNL A   1      32.810  21.647  23.400  1.00  0.00    -0.057 A 
ATOM     22  C   UNL A   1      34.689  21.594  24.929  1.00  0.00    -0.014 A 
ATOM     23  C   UNL A   1      32.349  20.427  23.888  1.00  0.00    -0.059 A 
ATOM     24  H   UNL A   1      32.301  22.100  22.624  1.00  0.00     0.063 H 
ATOM     25  C   UNL A   1      34.189  20.367  25.425  1.00  0.00    -0.051 A 
ATOM     26  C   UNL A   1      33.015  19.787  24.929  1.00  0.00    -0.047 A 
ATOM     27  H   UNL A   1      31.509  19.996  23.475  1.00  0.00     0.063 H 
ATOM     28  H   UNL A   1      34.705  19.885  26.178  1.00  0.00     0.063 H 
BRANCH  22  29
ATOM     29  C   UNL A   1      36.025  22.028  25.390  1.00  0.00    -0.018 A 
ATOM     30  C   UNL A   1      37.140  21.198  25.162  1.00  0.00    -0.054 A 
ATOM     31  C   UNL A   1      36.239  23.257  26.030  1.00  0.00    -0.054 A 
ATOM     32  C   UNL A   1      38.427  21.597  25.528  1.00  0.00    -0.062 A 
ATOM     33  H   UNL A   1      37.003  20.278  24.716  1.00  0.00     0.063 H 
ATOM     34  C   UNL A   1      37.531  23.664  26.384  1.00  0.00    -0.062 A 
ATOM     35  H   UNL A   1      35.436  23.868  26.242  1.00  0.00     0.063 H 
ATOM     36  C   UNL A   1      38.623  22.837  26.129  1.00  0.00    -0.062 A 
ATOM     37  H   UNL A   1      39.232  20.974  25.352  1.00  0.00     0.062 H 
ATOM     38  H   UNL A   1      37.674  24.582  26.834  1.00  0.00     0.062 H 
ATOM     39  H   UNL A   1      39.574  23.142  26.386  1.00  0.00     0.062 H 
ENDBRANCH  22  29
BRANCH  26  40
ATOM     40  C   UNL A   1      32.489  18.483  25.474  1.00  0.00    -0.018 C 
ATOM     41  H   UNL A   1      31.428  18.576  25.576  1.00  0.00     0.032 H 
ATOM     42  H   UNL A   1      33.010  18.329  26.398  1.00  0.00     0.032 H 
BRANCH  40  43
ATOM     43  C   UNL A   1      32.771  17.234  24.632  1.00  0.00     0.022 C 
ATOM     44  C   UNL A   1      34.022  17.284  23.751  1.00  0.00    -0.043 C 
ATOM     45  C   UNL A   1      33.023  16.001  25.469  1.00  0.00     0.136 C 
ATOM     46  H   UNL A   1      31.879  17.198  24.042  1.00  0.00     0.039 H 
ATOM     47  C   UNL A   1      35.120  16.562  24.523  1.00  0.00    -0.046 C 
ATOM     48  H   UNL A   1      34.305  18.299  23.568  1.00  0.00     0.027 H 
ATOM     49  H   UNL A   1      33.847  16.822  22.802  1.00  0.00     0.027 H 
ATOM     50  C   UNL A   1      34.421  15.465  25.314  1.00  0.00     0.006 C 
ATOM     51  O   UNL A   1      32.173  15.482  26.186  1.00  0.00    -0.299 OA
ATOM     52  H   UNL A   1      35.617  17.240  25.185  1.00  0.00     0.027 H 
ATOM     53  H   UNL A   1      35.864  16.161  23.866  1.00  0.00     0.027 H 
ATOM     54  H   UNL A   1      34.886  15.321  26.266  1.00  0.00     0.035 H 
ATOM     55  H   UNL A   1      34.455  14.510  24.831  1.00  0.00     0.035 H 
ENDBRANCH  40  43
ENDBRANCH  26  40
ENDBRANCH  14  20
ENDBRANCH  11  14
ENDBRANCH   7  10
ENDBRANCH   4   7
ENDBRANCH   1   4
BRANCH   1  56
ATOM     56  C   UNL A   1      31.746  28.730  24.864  1.00  0.00    -0.052 C 
ATOM     57  H   UNL A   1      31.419  28.604  25.875  1.00  0.00     0.027 H 
ATOM     58  H   UNL A   1      31.397  29.638  24.419  1.00  0.00     0.027 H 
BRANCH  56  59
ATOM     59  C   UNL A   1      33.272  28.806  24.864  1.00  0.00    -0.036 C 
ATOM     60  H   UNL A   1      33.566  29.660  24.292  1.00  0.00     0.028 H 
ATOM     61  H   UNL A   1      33.624  27.885  24.449  1.00  0.00     0.028 H 
BRANCH  59  62
ATOM     62  C   UNL A   1      33.895  28.924  26.250  1.00  0.00     0.018 C 
ATOM     63  H   UNL A   1      34.937  28.691  26.182  1.00  0.00     0.049 H 
ATOM     64  H   UNL A   1      33.387  28.242  26.900  1.00  0.00     0.049 H 
BRANCH  62  65
ATOM     65  N   UNL A   1      33.747  30.260  26.803  1.00  0.00    -0.352 N 
ATOM     66  C   UNL A   1      34.521  30.895  27.739  1.00  0.00     0.251 C 
ATOM     67  H   UNL A   1      32.987  30.781  26.456  1.00  0.00     0.163 HD
ATOM     68  O   UNL A   1      34.144  31.948  28.251  1.00  0.00    -0.269 OA
BRANCH  66  69
ATOM     69  C   UNL A   1      35.806  30.295  28.151  1.00  0.00     0.039 A 
ATOM     70  C   UNL A   1      36.905  30.391  27.295  1.00  0.00    -0.049 A 
ATOM     71  C   UNL A   1      35.927  29.648  29.384  1.00  0.00    -0.049 A 
ATOM     72  C   UNL A   1      38.141  29.888  27.701  1.00  0.00    -0.053 A 
ATOM     73  H   UNL A   1      36.802  30.832  26.367  1.00  0.00     0.063 H 
ATOM     74  C   UNL A   1      37.176  29.218  29.820  1.00  0.00    -0.053 A 
ATOM     75  H   UNL A   1      35.092  29.487  29.969  1.00  0.00     0.063 H 
ATOM     76  C   UNL A   1      38.295  29.329  28.980  1.00  0.00    -0.014 A 
ATOM     77  H   UNL A   1      38.947  29.928  27.057  1.00  0.00     0.063 H 
ATOM     78  H   UNL A   1      37.281  28.816  30.765  1.00  0.00     0.063 H 
BRANCH  76  79
ATOM     79  C   UNL A   1      39.619  28.852  29.456  1.00  0.00     0.031 A 
ATOM     80  C   UNL A   1      40.427  29.694  30.404  1.00  0.00     0.074 A 
ATOM     81  C   UNL A   1      40.117  27.692  28.987  1.00  0.00     0.049 A 
ATOM     82  N   UNL A   1      41.628  29.483  30.882  1.00  0.00    -0.248 NA
ATOM     83  C   UNL A   1      39.816  30.953  30.858  1.00  0.00    -0.034 C 
ATOM     84  C   UNL A   1      39.449  26.810  28.029  1.00  0.00    -0.036 A 
ATOM     85  N   UNL A   1      41.308  27.058  29.246  1.00  0.00    -0.354 N 
ATOM     86  C   UNL A   1      41.918  30.583  31.677  1.00  0.00     0.074 A 
ATOM     87  C   UNL A   1      40.793  31.488  31.575  1.00  0.00    -0.034 C 
ATOM     88  H   UNL A   1      38.872  31.325  30.666  1.00  0.00     0.065 H 
ATOM     89  C   UNL A   1      40.226  25.740  27.799  1.00  0.00    -0.036 A 
ATOM     90  H   UNL A   1      38.526  26.982  27.600  1.00  0.00     0.065 H 
ATOM     91  C   UNL A   1      41.466  25.880  28.557  1.00  0.00     0.049 A 
ATOM     92  H   UNL A   1      41.985  27.415  29.866  1.00  0.00     0.167 HD
ATOM     93  C   UNL A   1      43.011  30.807  32.444  1.00  0.00     0.037 A 
ATOM     94  H   UNL A   1      40.758  32.425  32.004  1.00  0.00     0.065 H 
ATOM     95  H   UNL A   1      39.986  24.946  27.185  1.00  0.00     0.065 H 
ATOM     96  C   UNL A   1      42.498  25.016  28.532  1.00  0.00     0.037 A 
ATOM     97  C   UNL A   1      44.118  29.893  32.559  1.00  0.00     0.049 A 
ATOM     98  C   UNL A   1      43.710  25.299  29.380  1.00  0.00     0.074 A 
ATOM     99  C   UNL A   1      45.247  30.002  33.352  1.00  0.00    -0.036 A 
ATOM    100  N   UNL A   1      44.236  28.703  31.856  1.00  0.00    -0.354 N 
ATOM    101  N   UNL A   1      43.942  26.309  30.183  1.00  0.00    -0.248 NA
ATOM    102  C   UNL A   1      44.802  24.318  29.323  1.00  0.00    -0.034 C 
ATOM    103  C   UNL A   1      46.075  28.906  33.087  1.00  0.00    -0.036 A 
ATOM    104  H   UNL A   1      45.443  30.760  34.024  1.00  0.00     0.065 H 
ATOM    105  C   UNL A   1      45.433  28.082  32.178  1.00  0.00     0.049 A 
ATOM    106  H   UNL A   1      43.569  28.352  31.222  1.00  0.00     0.167 HD
ATOM    107  C   UNL A   1      45.185  26.068  30.752  1.00  0.00     0.074 A 
ATOM    108  C   UNL A   1      45.653  24.807  30.213  1.00  0.00    -0.034 C 
ATOM    109  H   UNL A   1      44.884  23.468  28.742  1.00  0.00     0.065 H 
ATOM    110  H   UNL A   1      47.007  28.741  33.498  1.00  0.00     0.065 H 
ATOM    111  C   UNL A   1      45.878  26.820  31.642  1.00  0.00     0.037 A 
ATOM    112  H   UNL A   1      46.536  24.349  30.486  1.00  0.00     0.065 H 
BRANCH  93 113
ATOM    113  C   UNL A   1      43.069  32.090  33.222  1.00  0.00     0.064 A 
ATOM    114  C   UNL A   1      43.624  33.259  32.677  1.00  0.00     0.173 A 
ATOM    115  C   UNL A   1      42.519  32.167  34.511  1.00  0.00     0.173 A 
ATOM    116  F   UNL A   1      44.173  33.239  31.454  1.00  0.00    -0.203 F 
ATOM    117  C   UNL A   1      43.649  34.447  33.403  1.00  0.00     0.198 A 
ATOM    118  C   UNL A   1      42.516  33.364  35.220  1.00  0.00     0.198 A 
ATOM    119  F   UNL A   1      41.971  31.081  35.079  1.00  0.00    -0.203 F 
ATOM    120  F   UNL A   1      44.227  35.537  32.880  1.00  0.00    -0.200 F 
ATOM    121  C   UNL A   1      43.086  34.501  34.669  1.00  0.00     0.200 A 
ATOM    122  F   UNL A   1      41.957  33.419  36.437  1.00  0.00    -0.200 F 
ATOM    123  F   UNL A   1      43.100  35.649  35.361  1.00  0.00    -0.200 F 
ENDBRANCH  93 113
BRANCH  96 124
ATOM    124  C   UNL A   1      42.431  23.794  27.687  1.00  0.00     0.064 A 
ATOM    125  C   UNL A   1      42.831  23.821  26.344  1.00  0.00     0.173 A 
ATOM    126  C   UNL A   1      41.946  22.580  28.197  1.00  0.00     0.173 A 
ATOM    127  F   UNL A   1      43.283  24.963  25.803  1.00  0.00    -0.203 F 
ATOM    128  C   UNL A   1      42.721  22.692  25.535  1.00  0.00     0.198 A 
ATOM    129  C   UNL A   1      41.869  21.442  27.397  1.00  0.00     0.198 A 
ATOM    130  F   UNL A   1      41.556  22.496  29.477  1.00  0.00    -0.203 F 
ATOM    131  F   UNL A   1      43.056  22.763  24.240  1.00  0.00    -0.200 F 
ATOM    132  C   UNL A   1      42.245  21.502  26.064  1.00  0.00     0.200 A 
ATOM    133  F   UNL A   1      41.424  20.289  27.917  1.00  0.00    -0.200 F 
ATOM    134  F   UNL A   1      42.140  20.416  25.286  1.00  0.00    -0.200 F 
ENDBRANCH  96 124
BRANCH 111 135
ATOM    135  C   UNL A   1      47.194  26.282  32.126  1.00  0.00     0.064 A 
ATOM    136  C   UNL A   1      47.285  25.457  33.257  1.00  0.00     0.173 A 
ATOM    137  C   UNL A   1      48.375  26.562  31.421  1.00  0.00     0.173 A 
ATOM    138  F   UNL A   1      46.189  25.170  33.974  1.00  0.00    -0.203 F 
ATOM    139  C   UNL A   1      48.515  24.958  33.680  1.00  0.00     0.198 A 
ATOM    140  C   UNL A   1      49.596  26.032  31.826  1.00  0.00     0.198 A 
ATOM    141  F   UNL A   1      48.342  27.338  30.327  1.00  0.00    -0.203 F 
ATOM    142  F   UNL A   1      48.586  24.216  34.794  1.00  0.00    -0.200 F 
ATOM    143  C   UNL A   1      49.667  25.237  32.960  1.00  0.00     0.200 A 
ATOM    144  F   UNL A   1      50.704  26.290  31.119  1.00  0.00    -0.200 F 
ATOM    145  F   UNL A   1      50.847  24.748  33.364  1.00  0.00    -0.200 F 
ENDBRANCH 111 135
ENDBRANCH  76  79
ENDBRANCH  66  69
ENDBRANCH  62  65
ENDBRANCH  59  62
ENDBRANCH  56  59
ENDBRANCH   1  56
TORSDOF 18
ENDMDL
MODEL 10
REMARK VINA RESULT:     -11.7      2.485      5.132
REMARK SMILES C[C@@H](C(=O)NCCCCCCNC(=O)c1ccc(-c2c3nc(c(-c4c(F)c(F)c(F)c(F)c4F)c4ccc([nH]4)c(-c4c(F)c(F)c(F)c(F)c4F)c4nc(c(-c5c(F)c(F)c(F)c(F)c5F)c5ccc2[nH]5)C=C4)C=C3)cc1)c1ccc(C[C@H]2CCCC2=O)cc1-c1ccccc1
REMARK SMILES IDX 8 1 7 4 6 7 5 10 3 11 4 12 2 14 1 16 78 20 79 21 90 22 80 23
REMARK SMILES IDX 89 25 81 26 91 29 92 30 96 31 93 32 95 34 94 36 82 40 83 43
REMARK SMILES IDX 84 44 87 45 85 47 86 50 88 51 9 56 10 59 11 62 12 65 13 66
REMARK SMILES IDX 14 68 15 69 16 70 77 71 17 72 76 74 18 76 19 79 20 80 70 81
REMARK SMILES IDX 21 82 75 83 69 84 71 85 22 86 74 87 68 89 67 91 23 93 55 96
REMARK SMILES IDX 35 97 54 98 36 99 39 100 53 101 72 102 37 103 38 105 52 107
REMARK SMILES IDX 73 108 40 111 24 113 25 114 33 115 26 116 27 117 31 118
REMARK SMILES IDX 34 119 28 120 29 121 32 122 30 123 56 124 57 125 65 126
REMARK SMILES IDX 58 127 59 128 63 129 66 130 60 131 61 132 64 133 62 134
REMARK SMILES IDX 41 135 42 136 50 137 43 138 44 139 48 140 51 141 45 142
REMARK SMILES IDX 46 143 49 144 47 145
REMARK H PARENT 8 2 8 3 7 5 7 6 6 8 6 9 5 13 2 15 1 17 1 18 1 19 79 24 80 27
REMARK H PARENT 89 28 92 33 96 35 93 37 95 38 94 39 82 41 82 42 83 46 84 48
REMARK H PARENT 84 49 85 52 85 53 86 54 86 55 9 57 9 58 10 60 10 61 11 63
REMARK H PARENT 11 64 12 67 16 73 77 75 17 77 76 78 75 88 69 90 71 92 74 94
REMARK H PARENT 68 95 36 104 39 106 72 109 37 110 73 112
REMARK Flexibility Score: inf
ROOT
ATOM      1  C   UNL A   1      34.639  32.135  28.816  1.00  0.00    -0.052 C 
ATOM      2  H   UNL A   1      35.625  31.787  28.587  1.00  0.00     0.027 H 
ATOM      3  H   UNL A   1      34.222  31.684  29.691  1.00  0.00     0.027 H 
ENDROOT
BRANCH   1   4
ATOM      4  C   UNL A   1      33.716  31.747  27.653  1.00  0.00    -0.036 C 
ATOM      5  H   UNL A   1      32.703  31.861  27.977  1.00  0.00     0.028 H 
ATOM      6  H   UNL A   1      33.969  32.392  26.837  1.00  0.00     0.028 H 
BRANCH   4   7
ATOM      7  C   UNL A   1      33.899  30.314  27.149  1.00  0.00     0.017 C 
ATOM      8  H   UNL A   1      33.675  30.278  26.104  1.00  0.00     0.049 H 
ATOM      9  H   UNL A   1      34.911  30.015  27.322  1.00  0.00     0.049 H 
BRANCH   7  10
ATOM     10  N   UNL A   1      33.020  29.409  27.854  1.00  0.00    -0.356 N 
ATOM     11  C   UNL A   1      32.319  28.325  27.415  1.00  0.00     0.227 C 
ATOM     12  O   UNL A   1      31.552  27.837  28.246  1.00  0.00    -0.274 OA
ATOM     13  H   UNL A   1      32.909  29.609  28.812  1.00  0.00     0.163 HD
BRANCH  11  14
ATOM     14  C   UNL A   1      32.550  27.779  25.987  1.00  0.00     0.061 C 
ATOM     15  H   UNL A   1      32.489  26.721  26.138  1.00  0.00     0.045 H 
BRANCH  14  16
ATOM     16  C   UNL A   1      33.920  28.172  25.433  1.00  0.00    -0.049 C 
ATOM     17  H   UNL A   1      34.182  29.147  25.787  1.00  0.00     0.024 H 
ATOM     18  H   UNL A   1      33.883  28.179  24.364  1.00  0.00     0.024 H 
ATOM     19  H   UNL A   1      34.653  27.465  25.761  1.00  0.00     0.024 H 
ENDBRANCH  14  16
BRANCH  14  20
ATOM     20  C   UNL A   1      31.475  28.122  24.942  1.00  0.00    -0.028 A 
ATOM     21  C   UNL A   1      31.447  29.402  24.355  1.00  0.00    -0.057 A 
ATOM     22  C   UNL A   1      30.569  27.145  24.449  1.00  0.00    -0.014 A 
ATOM     23  C   UNL A   1      30.507  29.751  23.389  1.00  0.00    -0.059 A 
ATOM     24  H   UNL A   1      32.145  30.103  24.650  1.00  0.00     0.063 H 
ATOM     25  C   UNL A   1      29.608  27.529  23.485  1.00  0.00    -0.051 A 
ATOM     26  C   UNL A   1      29.555  28.828  22.965  1.00  0.00    -0.047 A 
ATOM     27  H   UNL A   1      30.516  30.700  22.986  1.00  0.00     0.063 H 
ATOM     28  H   UNL A   1      28.924  26.830  23.155  1.00  0.00     0.063 H 
BRANCH  22  29
ATOM     29  C   UNL A   1      30.657  25.711  24.799  1.00  0.00    -0.018 A 
ATOM     30  C   UNL A   1      30.290  25.289  26.092  1.00  0.00    -0.054 A 
ATOM     31  C   UNL A   1      31.071  24.735  23.881  1.00  0.00    -0.054 A 
ATOM     32  C   UNL A   1      30.302  23.938  26.444  1.00  0.00    -0.062 A 
ATOM     33  H   UNL A   1      30.007  25.992  26.792  1.00  0.00     0.063 H 
ATOM     34  C   UNL A   1      31.069  23.379  24.228  1.00  0.00    -0.062 A 
ATOM     35  H   UNL A   1      31.381  25.020  22.939  1.00  0.00     0.063 H 
ATOM     36  C   UNL A   1      30.681  22.982  25.506  1.00  0.00    -0.062 A 
ATOM     37  H   UNL A   1      30.029  23.649  27.397  1.00  0.00     0.062 H 
ATOM     38  H   UNL A   1      31.356  22.671  23.534  1.00  0.00     0.062 H 
ATOM     39  H   UNL A   1      30.675  21.981  25.758  1.00  0.00     0.062 H 
ENDBRANCH  22  29
BRANCH  26  40
ATOM     40  C   UNL A   1      28.519  29.226  21.944  1.00  0.00    -0.018 C 
ATOM     41  H   UNL A   1      27.875  28.385  21.788  1.00  0.00     0.032 H 
ATOM     42  H   UNL A   1      29.071  29.525  21.077  1.00  0.00     0.032 H 
BRANCH  40  43
ATOM     43  C   UNL A   1      27.639  30.428  22.305  1.00  0.00     0.022 C 
ATOM     44  C   UNL A   1      27.862  31.031  23.694  1.00  0.00    -0.043 C 
ATOM     45  C   UNL A   1      27.868  31.619  21.402  1.00  0.00     0.136 C 
ATOM     46  H   UNL A   1      26.669  29.985  22.222  1.00  0.00     0.039 H 
ATOM     47  C   UNL A   1      28.783  32.230  23.500  1.00  0.00    -0.046 C 
ATOM     48  H   UNL A   1      28.321  30.313  24.340  1.00  0.00     0.027 H 
ATOM     49  H   UNL A   1      26.935  31.323  24.143  1.00  0.00     0.027 H 
ATOM     50  C   UNL A   1      28.434  32.806  22.135  1.00  0.00     0.006 C 
ATOM     51  O   UNL A   1      27.603  31.624  20.205  1.00  0.00    -0.299 OA
ATOM     52  H   UNL A   1      29.807  31.920  23.523  1.00  0.00     0.027 H 
ATOM     53  H   UNL A   1      28.655  32.954  24.277  1.00  0.00     0.027 H 
ATOM     54  H   UNL A   1      29.305  33.183  21.642  1.00  0.00     0.035 H 
ATOM     55  H   UNL A   1      27.755  33.632  22.187  1.00  0.00     0.035 H 
ENDBRANCH  40  43
ENDBRANCH  26  40
ENDBRANCH  14  20
ENDBRANCH  11  14
ENDBRANCH   7  10
ENDBRANCH   4   7
ENDBRANCH   1   4
BRANCH   1  56
ATOM     56  C   UNL A   1      34.722  33.635  29.107  1.00  0.00    -0.052 C 
ATOM     57  H   UNL A   1      35.348  34.084  28.365  1.00  0.00     0.027 H 
ATOM     58  H   UNL A   1      35.111  33.730  30.099  1.00  0.00     0.027 H 
BRANCH  56  59
ATOM     59  C   UNL A   1      33.377  34.361  29.097  1.00  0.00    -0.036 C 
ATOM     60  H   UNL A   1      32.725  33.868  29.786  1.00  0.00     0.028 H 
ATOM     61  H   UNL A   1      33.020  34.330  28.089  1.00  0.00     0.028 H 
BRANCH  59  62
ATOM     62  C   UNL A   1      33.456  35.833  29.486  1.00  0.00     0.018 C 
ATOM     63  H   UNL A   1      33.184  36.429  28.640  1.00  0.00     0.049 H 
ATOM     64  H   UNL A   1      34.459  36.038  29.799  1.00  0.00     0.049 H 
BRANCH  62  65
ATOM     65  N   UNL A   1      32.568  36.154  30.591  1.00  0.00    -0.352 N 
ATOM     66  C   UNL A   1      32.635  35.743  31.897  1.00  0.00     0.251 C 
ATOM     67  H   UNL A   1      31.815  36.749  30.371  1.00  0.00     0.163 HD
ATOM     68  O   UNL A   1      31.692  35.938  32.662  1.00  0.00    -0.269 OA
BRANCH  66  69
ATOM     69  C   UNL A   1      33.841  35.040  32.379  1.00  0.00     0.039 A 
ATOM     70  C   UNL A   1      33.714  33.742  32.879  1.00  0.00    -0.049 A 
ATOM     71  C   UNL A   1      35.093  35.658  32.328  1.00  0.00    -0.049 A 
ATOM     72  C   UNL A   1      34.855  33.042  33.274  1.00  0.00    -0.053 A 
ATOM     73  H   UNL A   1      32.783  33.304  32.955  1.00  0.00     0.063 H 
ATOM     74  C   UNL A   1      36.236  34.932  32.647  1.00  0.00    -0.053 A 
ATOM     75  H   UNL A   1      35.170  36.651  32.056  1.00  0.00     0.063 H 
ATOM     76  C   UNL A   1      36.128  33.619  33.129  1.00  0.00    -0.014 A 
ATOM     77  H   UNL A   1      34.762  32.096  33.675  1.00  0.00     0.063 H 
ATOM     78  H   UNL A   1      37.167  35.361  32.530  1.00  0.00     0.063 H 
BRANCH  76  79
ATOM     79  C   UNL A   1      37.358  32.862  33.478  1.00  0.00     0.031 A 
ATOM     80  C   UNL A   1      38.095  33.168  34.752  1.00  0.00     0.074 A 
ATOM     81  C   UNL A   1      37.840  31.942  32.621  1.00  0.00     0.049 A 
ATOM     82  N   UNL A   1      39.217  32.665  35.201  1.00  0.00    -0.248 NA
ATOM     83  C   UNL A   1      37.509  34.196  35.627  1.00  0.00    -0.034 C 
ATOM     84  C   UNL A   1      37.239  31.589  31.334  1.00  0.00    -0.036 A 
ATOM     85  N   UNL A   1      38.954  31.142  32.697  1.00  0.00    -0.354 N 
ATOM     86  C   UNL A   1      39.475  33.321  36.397  1.00  0.00     0.074 A 
ATOM     87  C   UNL A   1      38.424  34.298  36.579  1.00  0.00    -0.034 C 
ATOM     88  H   UNL A   1      36.617  34.705  35.525  1.00  0.00     0.065 H 
ATOM     89  C   UNL A   1      37.975  30.628  30.753  1.00  0.00    -0.036 A 
ATOM     90  H   UNL A   1      36.385  32.010  30.935  1.00  0.00     0.065 H 
ATOM     91  C   UNL A   1      39.123  30.328  31.603  1.00  0.00     0.049 A 
ATOM     92  H   UNL A   1      39.572  31.152  33.463  1.00  0.00     0.167 HD
ATOM     93  C   UNL A   1      40.482  33.108  37.278  1.00  0.00     0.037 A 
ATOM     94  H   UNL A   1      38.393  34.984  37.348  1.00  0.00     0.065 H 
ATOM     95  H   UNL A   1      37.764  30.174  29.851  1.00  0.00     0.065 H 
ATOM     96  C   UNL A   1      40.101  29.448  31.315  1.00  0.00     0.037 A 
ATOM     97  C   UNL A   1      41.513  32.119  37.102  1.00  0.00     0.049 A 
ATOM     98  C   UNL A   1      41.218  29.245  32.303  1.00  0.00     0.074 A 
ATOM     99  C   UNL A   1      42.545  31.788  37.962  1.00  0.00    -0.036 A 
ATOM    100  N   UNL A   1      41.644  31.304  35.987  1.00  0.00    -0.354 N 
ATOM    101  N   UNL A   1      41.412  29.821  33.465  1.00  0.00    -0.248 NA
ATOM    102  C   UNL A   1      42.251  28.264  31.943  1.00  0.00    -0.034 C 
ATOM    103  C   UNL A   1      43.334  30.813  37.344  1.00  0.00    -0.036 A 
ATOM    104  H   UNL A   1      42.704  32.190  38.899  1.00  0.00     0.065 H 
ATOM    105  C   UNL A   1      42.757  30.489  36.127  1.00  0.00     0.049 A 
ATOM    106  H   UNL A   1      41.037  31.304  35.212  1.00  0.00     0.167 HD
ATOM    107  C   UNL A   1      42.564  29.249  33.988  1.00  0.00     0.074 A 
ATOM    108  C   UNL A   1      43.019  28.270  33.023  1.00  0.00    -0.034 C 
ATOM    109  H   UNL A   1      42.352  27.715  31.075  1.00  0.00     0.065 H 
ATOM    110  H   UNL A   1      44.200  30.404  37.728  1.00  0.00     0.065 H 
ATOM    111  C   UNL A   1      43.189  29.510  35.162  1.00  0.00     0.037 A 
ATOM    112  H   UNL A   1      43.835  27.655  33.159  1.00  0.00     0.065 H 
BRANCH  93 113
ATOM    113  C   UNL A   1      40.521  33.960  38.514  1.00  0.00     0.064 A 
ATOM    114  C   UNL A   1      39.852  33.585  39.689  1.00  0.00     0.173 A 
ATOM    115  C   UNL A   1      41.278  35.141  38.541  1.00  0.00     0.173 A 
ATOM    116  F   UNL A   1      39.105  32.471  39.716  1.00  0.00    -0.203 F 
ATOM    117  C   UNL A   1      39.918  34.374  40.835  1.00  0.00     0.198 A 
ATOM    118  C   UNL A   1      41.369  35.910  39.698  1.00  0.00     0.198 A 
ATOM    119  F   UNL A   1      41.943  35.545  37.446  1.00  0.00    -0.203 F 
ATOM    120  F   UNL A   1      39.231  34.020  41.930  1.00  0.00    -0.200 F 
ATOM    121  C   UNL A   1      40.684  35.530  40.841  1.00  0.00     0.200 A 
ATOM    122  F   UNL A   1      42.122  37.019  39.707  1.00  0.00    -0.200 F 
ATOM    123  F   UNL A   1      40.756  36.281  41.949  1.00  0.00    -0.200 F 
ENDBRANCH  93 113
BRANCH  96 124
ATOM    124  C   UNL A   1      40.062  28.679  30.042  1.00  0.00     0.064 A 
ATOM    125  C   UNL A   1      39.440  27.423  29.975  1.00  0.00     0.173 A 
ATOM    126  C   UNL A   1      40.664  29.170  28.874  1.00  0.00     0.173 A 
ATOM    127  F   UNL A   1      38.868  26.901  31.070  1.00  0.00    -0.203 F 
ATOM    128  C   UNL A   1      39.447  26.677  28.799  1.00  0.00     0.198 A 
ATOM    129  C   UNL A   1      40.640  28.438  27.689  1.00  0.00     0.198 A 
ATOM    130  F   UNL A   1      41.267  30.368  28.881  1.00  0.00    -0.203 F 
ATOM    131  F   UNL A   1      38.896  25.456  28.780  1.00  0.00    -0.200 F 
ATOM    132  C   UNL A   1      40.043  27.187  27.655  1.00  0.00     0.200 A 
ATOM    133  F   UNL A   1      41.202  28.942  26.581  1.00  0.00    -0.200 F 
ATOM    134  F   UNL A   1      40.049  26.470  26.524  1.00  0.00    -0.200 F 
ENDBRANCH  96 124
BRANCH 111 135
ATOM    135  C   UNL A   1      44.406  28.693  35.494  1.00  0.00     0.064 A 
ATOM    136  C   UNL A   1      44.317  27.482  36.194  1.00  0.00     0.173 A 
ATOM    137  C   UNL A   1      45.676  29.111  35.064  1.00  0.00     0.173 A 
ATOM    138  F   UNL A   1      43.129  27.044  36.639  1.00  0.00    -0.203 F 
ATOM    139  C   UNL A   1      45.457  26.734  36.479  1.00  0.00     0.198 A 
ATOM    140  C   UNL A   1      46.808  28.344  35.319  1.00  0.00     0.198 A 
ATOM    141  F   UNL A   1      45.816  30.258  34.382  1.00  0.00    -0.203 F 
ATOM    142  F   UNL A   1      45.354  25.607  37.196  1.00  0.00    -0.200 F 
ATOM    143  C   UNL A   1      46.700  27.161  36.034  1.00  0.00     0.200 A 
ATOM    144  F   UNL A   1      48.004  28.750  34.873  1.00  0.00    -0.200 F 
ATOM    145  F   UNL A   1      47.794  26.435  36.300  1.00  0.00    -0.200 F 
ENDBRANCH 111 135
ENDBRANCH  76  79
ENDBRANCH  66  69
ENDBRANCH  62  65
ENDBRANCH  59  62
ENDBRANCH  56  59
ENDBRANCH   1  56
TORSDOF 18
ENDMDL
