MODEL 1
REMARK VINA RESULT:      -9.2      0.000      0.000
REMARK SMILES CCCCCCNC(=O)Oc1cccc(-c2ccc([C@@H](C)C(=O)NCCCCCCNC(=O)c3ccc(-c4c5nc(c(-c6c(F)c(F)c(F)c(F)c6F)c6ccc([nH]6)c(-c6c(F)c(F)c(F)c(F)c6F)c6nc(c(-c7c(F)c(F)c(F)c(F)c7F)c7ccc4[nH]7)C=C6)C=C5)cc3)cc2[N+](=O)[O-])c1
REMARK SMILES IDX 22 1 23 2 24 3 20 5 19 7 16 8 17 9 98 10 18 11 97 13 15 16
REMARK SMILES IDX 11 17 12 18 102 19 13 20 14 23 10 26 8 27 7 28 9 30 6 31
REMARK SMILES IDX 5 34 4 37 3 40 2 43 1 46 99 50 100 51 101 52 21 53 25 57
REMARK SMILES IDX 26 60 27 63 28 66 29 69 30 72 31 75 32 76 33 78 34 79 35 80
REMARK SMILES IDX 96 81 36 82 95 84 37 86 38 89 39 90 89 91 40 92 94 93 88 94
REMARK SMILES IDX 90 95 41 96 93 97 87 99 86 101 42 103 74 106 54 107 73 108
REMARK SMILES IDX 55 109 58 110 72 111 91 112 56 113 57 115 71 117 92 118
REMARK SMILES IDX 59 121 43 123 44 124 52 125 45 126 46 127 50 128 53 129
REMARK SMILES IDX 47 130 48 131 51 132 49 133 75 134 76 135 84 136 77 137
REMARK SMILES IDX 78 138 82 139 85 140 79 141 80 142 83 143 81 144 60 145
REMARK SMILES IDX 61 146 69 147 62 148 63 149 67 150 70 151 64 152 65 153
REMARK SMILES IDX 68 154 66 155
REMARK H PARENT 24 4 20 6 17 12 18 14 97 15 12 21 102 22 13 24 14 25 7 29 6 32
REMARK H PARENT 6 33 5 35 5 36 4 38 4 39 3 41 3 42 2 44 2 45 1 47 1 48 1 49
REMARK H PARENT 21 54 21 55 21 56 25 58 25 59 26 61 26 62 27 64 27 65 28 67
REMARK H PARENT 28 68 29 70 29 71 30 73 30 74 31 77 35 83 96 85 36 87 95 88
REMARK H PARENT 94 98 88 100 90 102 93 104 87 105 55 114 58 116 91 119 56 120
REMARK H PARENT 92 122
REMARK Flexibility Score: inf
ROOT
ATOM      1  C   UNL A   1      47.912  27.759  27.854  1.00  0.00     0.227 C 
ATOM      2  O   UNL A   1      48.993  27.847  27.256  1.00  0.00    -0.274 OA
ATOM      3  N   UNL A   1      47.976  27.783  29.212  1.00  0.00    -0.356 N 
ATOM      4  H   UNL A   1      48.879  27.943  29.569  1.00  0.00     0.163 HD
ENDROOT
BRANCH   1   5
ATOM      5  C   UNL A   1      46.603  27.657  27.054  1.00  0.00     0.060 C 
ATOM      6  H   UNL A   1      46.854  27.990  26.069  1.00  0.00     0.045 H 
BRANCH   5   7
ATOM      7  C   UNL A   1      46.128  26.230  26.826  1.00  0.00    -0.029 A 
ATOM      8  C   UNL A   1      45.041  23.609  26.392  1.00  0.00     0.060 A 
ATOM      9  C   UNL A   1      45.864  24.243  25.444  1.00  0.00    -0.047 A 
ATOM     10  C   UNL A   1      44.846  24.290  27.609  1.00  0.00     0.277 A 
ATOM     11  C   UNL A   1      46.429  25.501  25.674  1.00  0.00    -0.057 A 
ATOM     12  H   UNL A   1      46.057  23.764  24.550  1.00  0.00     0.063 H 
ATOM     13  C   UNL A   1      45.342  25.596  27.801  1.00  0.00     0.021 A 
ATOM     14  H   UNL A   1      47.080  25.899  24.979  1.00  0.00     0.063 H 
ATOM     15  H   UNL A   1      45.122  26.097  28.676  1.00  0.00     0.070 H 
BRANCH   8  16
ATOM     16  C   UNL A   1      44.412  22.319  26.036  1.00  0.00    -0.008 A 
ATOM     17  C   UNL A   1      42.444  20.956  25.611  1.00  0.00     0.133 A 
ATOM     18  C   UNL A   1      43.234  19.846  25.325  1.00  0.00    -0.019 A 
ATOM     19  C   UNL A   1      43.015  22.185  25.949  1.00  0.00    -0.011 A 
ATOM     20  C   UNL A   1      44.617  19.967  25.376  1.00  0.00    -0.058 A 
ATOM     21  H   UNL A   1      42.796  18.945  25.079  1.00  0.00     0.066 H 
ATOM     22  H   UNL A   1      42.409  22.999  26.137  1.00  0.00     0.067 H 
ATOM     23  C   UNL A   1      45.197  21.187  25.739  1.00  0.00    -0.054 A 
ATOM     24  H   UNL A   1      45.216  19.159  25.145  1.00  0.00     0.062 H 
ATOM     25  H   UNL A   1      46.226  21.260  25.791  1.00  0.00     0.063 H 
BRANCH  17  26
ATOM     26  O   UNL A   1      41.059  20.739  25.703  1.00  0.00    -0.410 OA
BRANCH  26  27
ATOM     27  C   UNL A   1      40.402  21.017  26.892  1.00  0.00     0.412 C 
ATOM     28  N   UNL A   1      39.211  21.663  26.700  1.00  0.00    -0.321 N 
ATOM     29  H   UNL A   1      38.711  21.915  27.509  1.00  0.00     0.167 HD
ATOM     30  O   UNL A   1      40.803  20.742  28.016  1.00  0.00    -0.224 OA
BRANCH  28  31
ATOM     31  C   UNL A   1      38.610  22.013  25.428  1.00  0.00     0.021 C 
ATOM     32  H   UNL A   1      38.161  22.981  25.514  1.00  0.00     0.049 H 
ATOM     33  H   UNL A   1      39.382  22.008  24.686  1.00  0.00     0.049 H 
BRANCH  31  34
ATOM     34  C   UNL A   1      37.539  21.009  25.001  1.00  0.00    -0.036 C 
ATOM     35  H   UNL A   1      37.683  20.791  23.964  1.00  0.00     0.028 H 
ATOM     36  H   UNL A   1      37.661  20.154  25.634  1.00  0.00     0.028 H 
BRANCH  34  37
ATOM     37  C   UNL A   1      36.094  21.484  25.193  1.00  0.00    -0.052 C 
ATOM     38  H   UNL A   1      35.529  21.174  24.339  1.00  0.00     0.027 H 
ATOM     39  H   UNL A   1      35.761  21.048  26.112  1.00  0.00     0.027 H 
BRANCH  37  40
ATOM     40  C   UNL A   1      35.913  22.997  25.356  1.00  0.00    -0.054 C 
ATOM     41  H   UNL A   1      35.313  23.166  26.224  1.00  0.00     0.027 H 
ATOM     42  H   UNL A   1      36.899  23.406  25.427  1.00  0.00     0.027 H 
BRANCH  40  43
ATOM     43  C   UNL A   1      35.247  23.709  24.175  1.00  0.00    -0.056 C 
ATOM     44  H   UNL A   1      34.708  24.554  24.549  1.00  0.00     0.026 H 
ATOM     45  H   UNL A   1      36.024  23.994  23.498  1.00  0.00     0.026 H 
BRANCH  43  46
ATOM     46  C   UNL A   1      34.282  22.823  23.406  1.00  0.00    -0.065 C 
ATOM     47  H   UNL A   1      34.284  23.104  22.374  1.00  0.00     0.023 H 
ATOM     48  H   UNL A   1      33.295  22.939  23.804  1.00  0.00     0.023 H 
ATOM     49  H   UNL A   1      34.584  21.800  23.497  1.00  0.00     0.023 H 
ENDBRANCH  43  46
ENDBRANCH  40  43
ENDBRANCH  37  40
ENDBRANCH  34  37
ENDBRANCH  31  34
ENDBRANCH  28  31
ENDBRANCH  26  27
ENDBRANCH  17  26
ENDBRANCH   8  16
BRANCH  10  50
ATOM     50  N   UNL A   1      44.185  23.660  28.731  1.00  0.00     0.063 N 
ATOM     51  O   UNL A   1      43.004  23.847  28.938  1.00  0.00    -0.258 OA
ATOM     52  O   UNL A   1      44.896  22.953  29.672  1.00  0.00    -0.258 OA
ENDBRANCH  10  50
ENDBRANCH   5   7
BRANCH   5  53
ATOM     53  C   UNL A   1      45.527  28.651  27.488  1.00  0.00    -0.049 C 
ATOM     54  H   UNL A   1      44.585  28.148  27.560  1.00  0.00     0.024 H 
ATOM     55  H   UNL A   1      45.457  29.438  26.767  1.00  0.00     0.024 H 
ATOM     56  H   UNL A   1      45.785  29.062  28.442  1.00  0.00     0.024 H 
ENDBRANCH   5  53
ENDBRANCH   1   5
BRANCH   3  57
ATOM     57  C   UNL A   1      46.961  27.616  30.230  1.00  0.00     0.017 C 
ATOM     58  H   UNL A   1      45.997  27.740  29.783  1.00  0.00     0.049 H 
ATOM     59  H   UNL A   1      47.126  28.349  30.991  1.00  0.00     0.049 H 
BRANCH  57  60
ATOM     60  C   UNL A   1      47.033  26.231  30.878  1.00  0.00    -0.036 C 
ATOM     61  H   UNL A   1      47.924  25.745  30.537  1.00  0.00     0.028 H 
ATOM     62  H   UNL A   1      46.144  25.707  30.593  1.00  0.00     0.028 H 
BRANCH  60  63
ATOM     63  C   UNL A   1      47.058  26.263  32.410  1.00  0.00    -0.052 C 
ATOM     64  H   UNL A   1      46.445  27.078  32.734  1.00  0.00     0.027 H 
ATOM     65  H   UNL A   1      48.085  26.366  32.689  1.00  0.00     0.027 H 
BRANCH  63  66
ATOM     66  C   UNL A   1      46.555  24.986  33.096  1.00  0.00    -0.052 C 
ATOM     67  H   UNL A   1      46.448  24.230  32.347  1.00  0.00     0.027 H 
ATOM     68  H   UNL A   1      45.636  25.254  33.575  1.00  0.00     0.027 H 
BRANCH  66  69
ATOM     69  C   UNL A   1      47.459  24.430  34.202  1.00  0.00    -0.036 C 
ATOM     70  H   UNL A   1      48.098  23.690  33.768  1.00  0.00     0.028 H 
ATOM     71  H   UNL A   1      46.807  24.039  34.954  1.00  0.00     0.028 H 
BRANCH  69  72
ATOM     72  C   UNL A   1      48.337  25.470  34.893  1.00  0.00     0.018 C 
ATOM     73  H   UNL A   1      48.209  26.413  34.404  1.00  0.00     0.049 H 
ATOM     74  H   UNL A   1      49.353  25.139  34.832  1.00  0.00     0.049 H 
BRANCH  72  75
ATOM     75  N   UNL A   1      47.995  25.620  36.299  1.00  0.00    -0.352 N 
ATOM     76  C   UNL A   1      47.001  26.359  36.889  1.00  0.00     0.251 C 
ATOM     77  H   UNL A   1      48.565  25.115  36.923  1.00  0.00     0.163 HD
ATOM     78  O   UNL A   1      47.009  26.544  38.102  1.00  0.00    -0.269 OA
BRANCH  76  79
ATOM     79  C   UNL A   1      45.919  26.944  36.069  1.00  0.00     0.039 A 
ATOM     80  C   UNL A   1      44.711  26.251  35.951  1.00  0.00    -0.049 A 
ATOM     81  C   UNL A   1      46.106  28.147  35.384  1.00  0.00    -0.049 A 
ATOM     82  C   UNL A   1      43.672  26.791  35.190  1.00  0.00    -0.053 A 
ATOM     83  H   UNL A   1      44.587  25.342  36.425  1.00  0.00     0.063 H 
ATOM     84  C   UNL A   1      45.048  28.717  34.679  1.00  0.00    -0.053 A 
ATOM     85  H   UNL A   1      47.026  28.615  35.400  1.00  0.00     0.063 H 
ATOM     86  C   UNL A   1      43.822  28.041  34.570  1.00  0.00    -0.014 A 
ATOM     87  H   UNL A   1      42.789  26.267  35.082  1.00  0.00     0.063 H 
ATOM     88  H   UNL A   1      45.166  29.640  34.232  1.00  0.00     0.063 H 
BRANCH  86  89
ATOM     89  C   UNL A   1      42.709  28.661  33.808  1.00  0.00     0.031 A 
ATOM     90  C   UNL A   1      41.728  29.566  34.500  1.00  0.00     0.074 A 
ATOM     91  C   UNL A   1      42.540  28.348  32.510  1.00  0.00     0.049 A 
ATOM     92  N   UNL A   1      40.652  30.139  34.022  1.00  0.00    -0.248 NA
ATOM     93  C   UNL A   1      41.974  29.839  35.924  1.00  0.00    -0.034 C 
ATOM     94  C   UNL A   1      43.391  27.437  31.744  1.00  0.00    -0.036 A 
ATOM     95  N   UNL A   1      41.582  28.745  31.611  1.00  0.00    -0.354 N 
ATOM     96  C   UNL A   1      40.083  30.820  35.091  1.00  0.00     0.074 A 
ATOM     97  C   UNL A   1      40.907  30.554  36.249  1.00  0.00    -0.034 C 
ATOM     98  H   UNL A   1      42.769  29.550  36.514  1.00  0.00     0.065 H 
ATOM     99  C   UNL A   1      42.924  27.351  30.488  1.00  0.00    -0.036 A 
ATOM    100  H   UNL A   1      44.218  26.940  32.110  1.00  0.00     0.065 H 
ATOM    101  C   UNL A   1      41.724  28.174  30.369  1.00  0.00     0.049 A 
ATOM    102  H   UNL A   1      40.862  29.378  31.833  1.00  0.00     0.167 HD
ATOM    103  C   UNL A   1      38.983  31.611  35.097  1.00  0.00     0.037 A 
ATOM    104  H   UNL A   1      40.691  30.877  37.206  1.00  0.00     0.065 H 
ATOM    105  H   UNL A   1      43.345  26.794  29.729  1.00  0.00     0.065 H 
ATOM    106  C   UNL A   1      40.965  28.292  29.264  1.00  0.00     0.037 A 
ATOM    107  C   UNL A   1      38.186  31.900  33.934  1.00  0.00     0.049 A 
ATOM    108  C   UNL A   1      39.763  29.195  29.290  1.00  0.00     0.074 A 
ATOM    109  C   UNL A   1      37.105  32.756  33.819  1.00  0.00    -0.036 A 
ATOM    110  N   UNL A   1      38.381  31.332  32.683  1.00  0.00    -0.354 N 
ATOM    111  N   UNL A   1      39.281  29.901  30.283  1.00  0.00    -0.248 NA
ATOM    112  C   UNL A   1      39.004  29.326  28.039  1.00  0.00    -0.034 C 
ATOM    113  C   UNL A   1      36.618  32.671  32.510  1.00  0.00    -0.036 A 
ATOM    114  H   UNL A   1      36.724  33.354  34.568  1.00  0.00     0.065 H 
ATOM    115  C   UNL A   1      37.425  31.799  31.796  1.00  0.00     0.049 A 
ATOM    116  H   UNL A   1      39.095  30.692  32.458  1.00  0.00     0.167 HD
ATOM    117  C   UNL A   1      38.179  30.573  29.776  1.00  0.00     0.074 A 
ATOM    118  C   UNL A   1      38.072  30.205  28.378  1.00  0.00    -0.034 C 
ATOM    119  H   UNL A   1      39.157  28.857  27.131  1.00  0.00     0.065 H 
ATOM    120  H   UNL A   1      35.795  33.174  32.138  1.00  0.00     0.065 H 
ATOM    121  C   UNL A   1      37.330  31.421  30.409  1.00  0.00     0.037 A 
ATOM    122  H   UNL A   1      37.361  30.579  27.732  1.00  0.00     0.065 H 
BRANCH 103 123
ATOM    123  C   UNL A   1      38.575  32.222  36.408  1.00  0.00     0.064 A 
ATOM    124  C   UNL A   1      38.916  33.540  36.746  1.00  0.00     0.173 A 
ATOM    125  C   UNL A   1      37.808  31.487  37.324  1.00  0.00     0.173 A 
ATOM    126  F   UNL A   1      39.656  34.282  35.908  1.00  0.00    -0.203 F 
ATOM    127  C   UNL A   1      38.531  34.089  37.966  1.00  0.00     0.198 A 
ATOM    128  C   UNL A   1      37.400  32.049  38.531  1.00  0.00     0.198 A 
ATOM    129  F   UNL A   1      37.449  30.224  37.048  1.00  0.00    -0.203 F 
ATOM    130  F   UNL A   1      38.913  35.333  38.290  1.00  0.00    -0.200 F 
ATOM    131  C   UNL A   1      37.769  33.346  38.855  1.00  0.00     0.200 A 
ATOM    132  F   UNL A   1      36.652  31.334  39.383  1.00  0.00    -0.200 F 
ATOM    133  F   UNL A   1      37.396  33.877  40.027  1.00  0.00    -0.200 F 
ENDBRANCH 103 123
BRANCH 106 134
ATOM    134  C   UNL A   1      41.338  27.549  28.034  1.00  0.00     0.064 A 
ATOM    135  C   UNL A   1      40.893  26.237  27.820  1.00  0.00     0.173 A 
ATOM    136  C   UNL A   1      42.131  28.140  27.039  1.00  0.00     0.173 A 
ATOM    137  F   UNL A   1      40.149  25.624  28.752  1.00  0.00    -0.203 F 
ATOM    138  C   UNL A   1      41.240  25.539  26.665  1.00  0.00     0.198 A 
ATOM    139  C   UNL A   1      42.455  27.451  25.873  1.00  0.00     0.198 A 
ATOM    140  F   UNL A   1      42.576  29.396  27.194  1.00  0.00    -0.203 F 
ATOM    141  F   UNL A   1      40.831  24.274  26.502  1.00  0.00    -0.200 F 
ATOM    142  C   UNL A   1      42.015  26.149  25.689  1.00  0.00     0.200 A 
ATOM    143  F   UNL A   1      43.190  28.049  24.925  1.00  0.00    -0.200 F 
ATOM    144  F   UNL A   1      42.338  25.481  24.574  1.00  0.00    -0.200 F 
ENDBRANCH 106 134
BRANCH 121 145
ATOM    145  C   UNL A   1      36.224  32.022  29.593  1.00  0.00     0.064 A 
ATOM    146  C   UNL A   1      36.208  33.386  29.271  1.00  0.00     0.173 A 
ATOM    147  C   UNL A   1      35.190  31.215  29.094  1.00  0.00     0.173 A 
ATOM    148  F   UNL A   1      37.164  34.202  29.738  1.00  0.00    -0.203 F 
ATOM    149  C   UNL A   1      35.184  33.926  28.496  1.00  0.00     0.198 A 
ATOM    150  C   UNL A   1      34.184  31.752  28.295  1.00  0.00     0.198 A 
ATOM    151  F   UNL A   1      35.163  29.902  29.369  1.00  0.00    -0.203 F 
ATOM    152  F   UNL A   1      35.164  35.241  28.237  1.00  0.00    -0.200 F 
ATOM    153  C   UNL A   1      34.178  33.107  28.003  1.00  0.00     0.200 A 
ATOM    154  F   UNL A   1      33.220  30.958  27.810  1.00  0.00    -0.200 F 
ATOM    155  F   UNL A   1      33.198  33.627  27.252  1.00  0.00    -0.200 F 
ENDBRANCH 121 145
ENDBRANCH  86  89
ENDBRANCH  76  79
ENDBRANCH  72  75
ENDBRANCH  69  72
ENDBRANCH  66  69
ENDBRANCH  63  66
ENDBRANCH  60  63
ENDBRANCH  57  60
ENDBRANCH   3  57
TORSDOF 25
ENDMDL
MODEL 2
REMARK VINA RESULT:      -9.1      4.545      9.789
REMARK SMILES CCCCCCNC(=O)Oc1cccc(-c2ccc([C@@H](C)C(=O)NCCCCCCNC(=O)c3ccc(-c4c5nc(c(-c6c(F)c(F)c(F)c(F)c6F)c6ccc([nH]6)c(-c6c(F)c(F)c(F)c(F)c6F)c6nc(c(-c7c(F)c(F)c(F)c(F)c7F)c7ccc4[nH]7)C=C6)C=C5)cc3)cc2[N+](=O)[O-])c1
REMARK SMILES IDX 22 1 23 2 24 3 20 5 19 7 16 8 17 9 98 10 18 11 97 13 15 16
REMARK SMILES IDX 11 17 12 18 102 19 13 20 14 23 10 26 8 27 7 28 9 30 6 31
REMARK SMILES IDX 5 34 4 37 3 40 2 43 1 46 99 50 100 51 101 52 21 53 25 57
REMARK SMILES IDX 26 60 27 63 28 66 29 69 30 72 31 75 32 76 33 78 34 79 35 80
REMARK SMILES IDX 96 81 36 82 95 84 37 86 38 89 39 90 89 91 40 92 94 93 88 94
REMARK SMILES IDX 90 95 41 96 93 97 87 99 86 101 42 103 74 106 54 107 73 108
REMARK SMILES IDX 55 109 58 110 72 111 91 112 56 113 57 115 71 117 92 118
REMARK SMILES IDX 59 121 43 123 44 124 52 125 45 126 46 127 50 128 53 129
REMARK SMILES IDX 47 130 48 131 51 132 49 133 75 134 76 135 84 136 77 137
REMARK SMILES IDX 78 138 82 139 85 140 79 141 80 142 83 143 81 144 60 145
REMARK SMILES IDX 61 146 69 147 62 148 63 149 67 150 70 151 64 152 65 153
REMARK SMILES IDX 68 154 66 155
REMARK H PARENT 24 4 20 6 17 12 18 14 97 15 12 21 102 22 13 24 14 25 7 29 6 32
REMARK H PARENT 6 33 5 35 5 36 4 38 4 39 3 41 3 42 2 44 2 45 1 47 1 48 1 49
REMARK H PARENT 21 54 21 55 21 56 25 58 25 59 26 61 26 62 27 64 27 65 28 67
REMARK H PARENT 28 68 29 70 29 71 30 73 30 74 31 77 35 83 96 85 36 87 95 88
REMARK H PARENT 94 98 88 100 90 102 93 104 87 105 55 114 58 116 91 119 56 120
REMARK H PARENT 92 122
REMARK Flexibility Score: inf
ROOT
ATOM      1  C   UNL A   1      37.836  31.350  29.846  1.00  0.00     0.227 C 
ATOM      2  O   UNL A   1      37.239  30.775  30.765  1.00  0.00    -0.274 OA
ATOM      3  N   UNL A   1      38.271  32.611  30.111  1.00  0.00    -0.356 N 
ATOM      4  H   UNL A   1      38.124  32.900  31.041  1.00  0.00     0.163 HD
ENDROOT
BRANCH   1   5
ATOM      5  C   UNL A   1      38.066  30.623  28.511  1.00  0.00     0.060 C 
ATOM      6  H   UNL A   1      38.341  31.391  27.820  1.00  0.00     0.045 H 
BRANCH   5   7
ATOM      7  C   UNL A   1      39.279  29.704  28.508  1.00  0.00    -0.029 A 
ATOM      8  C   UNL A   1      41.668  28.117  28.405  1.00  0.00     0.060 A 
ATOM      9  C   UNL A   1      41.120  28.566  29.620  1.00  0.00    -0.047 A 
ATOM     10  C   UNL A   1      40.935  28.413  27.239  1.00  0.00     0.277 A 
ATOM     11  C   UNL A   1      39.932  29.301  29.673  1.00  0.00    -0.057 A 
ATOM     12  H   UNL A   1      41.610  28.344  30.501  1.00  0.00     0.063 H 
ATOM     13  C   UNL A   1      39.788  29.232  27.288  1.00  0.00     0.021 A 
ATOM     14  H   UNL A   1      39.531  29.551  30.591  1.00  0.00     0.063 H 
ATOM     15  H   UNL A   1      39.313  29.490  26.409  1.00  0.00     0.070 H 
BRANCH   8  16
ATOM     16  C   UNL A   1      42.973  27.422  28.429  1.00  0.00    -0.008 A 
ATOM     17  C   UNL A   1      45.306  27.251  27.768  1.00  0.00     0.133 A 
ATOM     18  C   UNL A   1      45.466  26.086  28.513  1.00  0.00    -0.019 A 
ATOM     19  C   UNL A   1      44.084  27.926  27.731  1.00  0.00    -0.011 A 
ATOM     20  C   UNL A   1      44.387  25.590  29.234  1.00  0.00    -0.058 A 
ATOM     21  H   UNL A   1      46.375  25.598  28.529  1.00  0.00     0.066 H 
ATOM     22  H   UNL A   1      43.995  28.799  27.187  1.00  0.00     0.067 H 
ATOM     23  C   UNL A   1      43.153  26.244  29.182  1.00  0.00    -0.054 A 
ATOM     24  H   UNL A   1      44.497  24.739  29.809  1.00  0.00     0.062 H 
ATOM     25  H   UNL A   1      42.354  25.856  29.708  1.00  0.00     0.063 H 
BRANCH  17  26
ATOM     26  O   UNL A   1      46.375  27.619  26.933  1.00  0.00    -0.410 OA
BRANCH  26  27
ATOM     27  C   UNL A   1      46.111  28.138  25.675  1.00  0.00     0.412 C 
ATOM     28  N   UNL A   1      45.828  27.168  24.751  1.00  0.00    -0.321 N 
ATOM     29  H   UNL A   1      45.661  27.472  23.830  1.00  0.00     0.167 HD
ATOM     30  O   UNL A   1      46.122  29.323  25.370  1.00  0.00    -0.224 OA
BRANCH  28  31
ATOM     31  C   UNL A   1      45.748  25.741  24.990  1.00  0.00     0.021 C 
ATOM     32  H   UNL A   1      46.283  25.231  24.215  1.00  0.00     0.049 H 
ATOM     33  H   UNL A   1      46.176  25.543  25.951  1.00  0.00     0.049 H 
BRANCH  31  34
ATOM     34  C   UNL A   1      44.304  25.239  25.005  1.00  0.00    -0.036 C 
ATOM     35  H   UNL A   1      43.717  25.934  25.567  1.00  0.00     0.028 H 
ATOM     36  H   UNL A   1      44.004  25.160  23.981  1.00  0.00     0.028 H 
BRANCH  34  37
ATOM     37  C   UNL A   1      44.111  23.846  25.617  1.00  0.00    -0.052 C 
ATOM     38  H   UNL A   1      44.114  23.133  24.820  1.00  0.00     0.027 H 
ATOM     39  H   UNL A   1      44.914  23.718  26.314  1.00  0.00     0.027 H 
BRANCH  37  40
ATOM     40  C   UNL A   1      42.822  23.650  26.422  1.00  0.00    -0.054 C 
ATOM     41  H   UNL A   1      42.502  24.609  26.772  1.00  0.00     0.027 H 
ATOM     42  H   UNL A   1      42.128  23.182  25.755  1.00  0.00     0.027 H 
BRANCH  40  43
ATOM     43  C   UNL A   1      42.937  22.720  27.632  1.00  0.00    -0.056 C 
ATOM     44  H   UNL A   1      43.415  21.815  27.320  1.00  0.00     0.026 H 
ATOM     45  H   UNL A   1      43.502  23.239  28.378  1.00  0.00     0.026 H 
BRANCH  43  46
ATOM     46  C   UNL A   1      41.593  22.368  28.249  1.00  0.00    -0.065 C 
ATOM     47  H   UNL A   1      41.005  21.826  27.538  1.00  0.00     0.023 H 
ATOM     48  H   UNL A   1      41.081  23.266  28.524  1.00  0.00     0.023 H 
ATOM     49  H   UNL A   1      41.746  21.764  29.120  1.00  0.00     0.023 H 
ENDBRANCH  43  46
ENDBRANCH  40  43
ENDBRANCH  37  40
ENDBRANCH  34  37
ENDBRANCH  31  34
ENDBRANCH  28  31
ENDBRANCH  26  27
ENDBRANCH  17  26
ENDBRANCH   8  16
BRANCH  10  50
ATOM     50  N   UNL A   1      41.290  27.844  25.958  1.00  0.00     0.063 N 
ATOM     51  O   UNL A   1      41.122  26.663  25.738  1.00  0.00    -0.258 OA
ATOM     52  O   UNL A   1      41.954  28.584  25.009  1.00  0.00    -0.258 OA
ENDBRANCH  10  50
ENDBRANCH   5   7
BRANCH   5  53
ATOM     53  C   UNL A   1      36.796  30.042  27.889  1.00  0.00    -0.049 C 
ATOM     54  H   UNL A   1      35.943  30.569  28.264  1.00  0.00     0.024 H 
ATOM     55  H   UNL A   1      36.716  29.006  28.143  1.00  0.00     0.024 H 
ATOM     56  H   UNL A   1      36.840  30.147  26.825  1.00  0.00     0.024 H 
ENDBRANCH   5  53
ENDBRANCH   1   5
BRANCH   3  57
ATOM     57  C   UNL A   1      38.910  33.608  29.280  1.00  0.00     0.017 C 
ATOM     58  H   UNL A   1      38.198  34.371  29.043  1.00  0.00     0.049 H 
ATOM     59  H   UNL A   1      39.265  33.128  28.393  1.00  0.00     0.049 H 
BRANCH  57  60
ATOM     60  C   UNL A   1      40.107  34.250  29.987  1.00  0.00    -0.036 C 
ATOM     61  H   UNL A   1      40.438  33.586  30.759  1.00  0.00     0.028 H 
ATOM     62  H   UNL A   1      39.774  35.192  30.370  1.00  0.00     0.028 H 
BRANCH  60  63
ATOM     63  C   UNL A   1      41.292  34.541  29.060  1.00  0.00    -0.052 C 
ATOM     64  H   UNL A   1      40.905  34.754  28.085  1.00  0.00     0.027 H 
ATOM     65  H   UNL A   1      41.915  33.672  29.091  1.00  0.00     0.027 H 
BRANCH  63  66
ATOM     66  C   UNL A   1      42.179  35.718  29.487  1.00  0.00    -0.052 C 
ATOM     67  H   UNL A   1      43.122  35.322  29.803  1.00  0.00     0.027 H 
ATOM     68  H   UNL A   1      41.641  36.224  30.260  1.00  0.00     0.027 H 
BRANCH  66  69
ATOM     69  C   UNL A   1      42.449  36.769  28.404  1.00  0.00    -0.036 C 
ATOM     70  H   UNL A   1      43.412  37.197  28.588  1.00  0.00     0.028 H 
ATOM     71  H   UNL A   1      41.651  37.478  28.469  1.00  0.00     0.028 H 
BRANCH  69  72
ATOM     72  C   UNL A   1      42.433  36.233  26.975  1.00  0.00     0.018 C 
ATOM     73  H   UNL A   1      41.665  36.736  26.424  1.00  0.00     0.049 H 
ATOM     74  H   UNL A   1      42.248  35.179  27.017  1.00  0.00     0.049 H 
BRANCH  72  75
ATOM     75  N   UNL A   1      43.706  36.441  26.303  1.00  0.00    -0.352 N 
ATOM     76  C   UNL A   1      44.916  35.824  26.499  1.00  0.00     0.251 C 
ATOM     77  H   UNL A   1      43.699  37.130  25.601  1.00  0.00     0.163 HD
ATOM     78  O   UNL A   1      45.933  36.291  25.996  1.00  0.00    -0.269 OA
BRANCH  76  79
ATOM     79  C   UNL A   1      45.004  34.600  27.323  1.00  0.00     0.039 A 
ATOM     80  C   UNL A   1      45.638  34.667  28.567  1.00  0.00    -0.049 A 
ATOM     81  C   UNL A   1      44.505  33.381  26.856  1.00  0.00    -0.049 A 
ATOM     82  C   UNL A   1      45.722  33.525  29.366  1.00  0.00    -0.053 A 
ATOM     83  H   UNL A   1      46.042  35.559  28.895  1.00  0.00     0.063 H 
ATOM     84  C   UNL A   1      44.532  32.258  27.680  1.00  0.00    -0.053 A 
ATOM     85  H   UNL A   1      44.117  33.312  25.902  1.00  0.00     0.063 H 
ATOM     86  C   UNL A   1      45.146  32.318  28.941  1.00  0.00    -0.014 A 
ATOM     87  H   UNL A   1      46.211  33.568  30.274  1.00  0.00     0.063 H 
ATOM     88  H   UNL A   1      44.100  31.376  27.361  1.00  0.00     0.063 H 
BRANCH  86  89
ATOM     89  C   UNL A   1      45.171  31.109  29.801  1.00  0.00     0.031 A 
ATOM     90  C   UNL A   1      44.074  30.865  30.800  1.00  0.00     0.074 A 
ATOM     91  C   UNL A   1      46.221  30.269  29.735  1.00  0.00     0.049 A 
ATOM     92  N   UNL A   1      43.959  29.910  31.688  1.00  0.00    -0.248 NA
ATOM     93  C   UNL A   1      42.975  31.842  30.823  1.00  0.00    -0.034 C 
ATOM     94  C   UNL A   1      47.373  30.429  28.848  1.00  0.00    -0.036 A 
ATOM     95  N   UNL A   1      46.499  29.125  30.440  1.00  0.00    -0.354 N 
ATOM     96  C   UNL A   1      42.790  30.183  32.386  1.00  0.00     0.074 A 
ATOM     97  C   UNL A   1      42.256  31.416  31.851  1.00  0.00    -0.034 C 
ATOM     98  H   UNL A   1      42.807  32.649  30.201  1.00  0.00     0.065 H 
ATOM     99  C   UNL A   1      48.231  29.417  29.055  1.00  0.00    -0.036 A 
ATOM    100  H   UNL A   1      47.506  31.197  28.171  1.00  0.00     0.065 H 
ATOM    101  C   UNL A   1      47.704  28.555  30.110  1.00  0.00     0.049 A 
ATOM    102  H   UNL A   1      45.893  28.748  31.117  1.00  0.00     0.167 HD
ATOM    103  C   UNL A   1      42.208  29.459  33.373  1.00  0.00     0.037 A 
ATOM    104  H   UNL A   1      41.422  31.901  32.221  1.00  0.00     0.065 H 
ATOM    105  H   UNL A   1      49.118  29.270  28.550  1.00  0.00     0.065 H 
ATOM    106  C   UNL A   1      48.321  27.468  30.609  1.00  0.00     0.037 A 
ATOM    107  C   UNL A   1      42.727  28.216  33.880  1.00  0.00     0.049 A 
ATOM    108  C   UNL A   1      47.643  26.668  31.687  1.00  0.00     0.074 A 
ATOM    109  C   UNL A   1      42.168  27.365  34.815  1.00  0.00    -0.036 A 
ATOM    110  N   UNL A   1      43.934  27.649  33.495  1.00  0.00    -0.354 N 
ATOM    111  N   UNL A   1      46.497  26.889  32.283  1.00  0.00    -0.248 NA
ATOM    112  C   UNL A   1      48.339  25.462  32.155  1.00  0.00    -0.034 C 
ATOM    113  C   UNL A   1      43.057  26.306  35.031  1.00  0.00    -0.036 A 
ATOM    114  H   UNL A   1      41.252  27.488  35.275  1.00  0.00     0.065 H 
ATOM    115  C   UNL A   1      44.149  26.473  34.194  1.00  0.00     0.049 A 
ATOM    116  H   UNL A   1      44.547  28.028  32.824  1.00  0.00     0.167 HD
ATOM    117  C   UNL A   1      46.324  25.845  33.179  1.00  0.00     0.074 A 
ATOM    118  C   UNL A   1      47.476  24.977  33.037  1.00  0.00    -0.034 C 
ATOM    119  H   UNL A   1      49.259  25.088  31.871  1.00  0.00     0.065 H 
ATOM    120  H   UNL A   1      42.923  25.532  35.701  1.00  0.00     0.065 H 
ATOM    121  C   UNL A   1      45.302  25.623  34.043  1.00  0.00     0.037 A 
ATOM    122  H   UNL A   1      47.607  24.096  33.556  1.00  0.00     0.065 H 
BRANCH 103 123
ATOM    123  C   UNL A   1      40.940  29.997  33.972  1.00  0.00     0.064 A 
ATOM    124  C   UNL A   1      39.678  29.575  33.530  1.00  0.00     0.173 A 
ATOM    125  C   UNL A   1      40.990  30.926  35.023  1.00  0.00     0.173 A 
ATOM    126  F   UNL A   1      39.575  28.696  32.522  1.00  0.00    -0.203 F 
ATOM    127  C   UNL A   1      38.512  30.085  34.095  1.00  0.00     0.198 A 
ATOM    128  C   UNL A   1      39.823  31.411  35.606  1.00  0.00     0.198 A 
ATOM    129  F   UNL A   1      42.171  31.358  35.489  1.00  0.00    -0.203 F 
ATOM    130  F   UNL A   1      37.317  29.707  33.621  1.00  0.00    -0.200 F 
ATOM    131  C   UNL A   1      38.585  30.998  35.136  1.00  0.00     0.200 A 
ATOM    132  F   UNL A   1      39.895  32.284  36.621  1.00  0.00    -0.200 F 
ATOM    133  F   UNL A   1      37.463  31.486  35.682  1.00  0.00    -0.200 F 
ENDBRANCH 103 123
BRANCH 106 134
ATOM    134  C   UNL A   1      49.646  27.064  30.074  1.00  0.00     0.064 A 
ATOM    135  C   UNL A   1      49.750  26.302  28.903  1.00  0.00     0.173 A 
ATOM    136  C   UNL A   1      50.835  27.448  30.712  1.00  0.00     0.173 A 
ATOM    137  F   UNL A   1      48.640  25.895  28.269  1.00  0.00    -0.203 F 
ATOM    138  C   UNL A   1      50.992  25.924  28.398  1.00  0.00     0.198 A 
ATOM    139  C   UNL A   1      52.077  27.093  30.192  1.00  0.00     0.198 A 
ATOM    140  F   UNL A   1      50.789  28.184  31.832  1.00  0.00    -0.203 F 
ATOM    141  F   UNL A   1      51.063  25.165  27.297  1.00  0.00    -0.200 F 
ATOM    142  C   UNL A   1      52.156  26.327  29.039  1.00  0.00     0.200 A 
ATOM    143  F   UNL A   1      53.199  27.497  30.804  1.00  0.00    -0.200 F 
ATOM    144  F   UNL A   1      53.350  25.973  28.547  1.00  0.00    -0.200 F 
ENDBRANCH 106 134
BRANCH 121 145
ATOM    145  C   UNL A   1      45.375  24.385  34.888  1.00  0.00     0.064 A 
ATOM    146  C   UNL A   1      44.918  23.146  34.416  1.00  0.00     0.173 A 
ATOM    147  C   UNL A   1      45.946  24.431  36.169  1.00  0.00     0.173 A 
ATOM    148  F   UNL A   1      44.350  23.053  33.204  1.00  0.00    -0.203 F 
ATOM    149  C   UNL A   1      45.010  22.002  35.204  1.00  0.00     0.198 A 
ATOM    150  C   UNL A   1      46.062  23.280  36.944  1.00  0.00     0.198 A 
ATOM    151  F   UNL A   1      46.403  25.591  36.665  1.00  0.00    -0.203 F 
ATOM    152  F   UNL A   1      44.526  20.837  34.750  1.00  0.00    -0.200 F 
ATOM    153  C   UNL A   1      45.588  22.069  36.464  1.00  0.00     0.200 A 
ATOM    154  F   UNL A   1      46.631  23.344  38.155  1.00  0.00    -0.200 F 
ATOM    155  F   UNL A   1      45.681  20.965  37.218  1.00  0.00    -0.200 F 
ENDBRANCH 121 145
ENDBRANCH  86  89
ENDBRANCH  76  79
ENDBRANCH  72  75
ENDBRANCH  69  72
ENDBRANCH  66  69
ENDBRANCH  63  66
ENDBRANCH  60  63
ENDBRANCH  57  60
ENDBRANCH   3  57
TORSDOF 25
ENDMDL
MODEL 3
REMARK VINA RESULT:      -9.0      4.318     10.089
REMARK SMILES CCCCCCNC(=O)Oc1cccc(-c2ccc([C@@H](C)C(=O)NCCCCCCNC(=O)c3ccc(-c4c5nc(c(-c6c(F)c(F)c(F)c(F)c6F)c6ccc([nH]6)c(-c6c(F)c(F)c(F)c(F)c6F)c6nc(c(-c7c(F)c(F)c(F)c(F)c7F)c7ccc4[nH]7)C=C6)C=C5)cc3)cc2[N+](=O)[O-])c1
REMARK SMILES IDX 22 1 23 2 24 3 20 5 19 7 16 8 17 9 98 10 18 11 97 13 15 16
REMARK SMILES IDX 11 17 12 18 102 19 13 20 14 23 10 26 8 27 7 28 9 30 6 31
REMARK SMILES IDX 5 34 4 37 3 40 2 43 1 46 99 50 100 51 101 52 21 53 25 57
REMARK SMILES IDX 26 60 27 63 28 66 29 69 30 72 31 75 32 76 33 78 34 79 35 80
REMARK SMILES IDX 96 81 36 82 95 84 37 86 38 89 39 90 89 91 40 92 94 93 88 94
REMARK SMILES IDX 90 95 41 96 93 97 87 99 86 101 42 103 74 106 54 107 73 108
REMARK SMILES IDX 55 109 58 110 72 111 91 112 56 113 57 115 71 117 92 118
REMARK SMILES IDX 59 121 43 123 44 124 52 125 45 126 46 127 50 128 53 129
REMARK SMILES IDX 47 130 48 131 51 132 49 133 75 134 76 135 84 136 77 137
REMARK SMILES IDX 78 138 82 139 85 140 79 141 80 142 83 143 81 144 60 145
REMARK SMILES IDX 61 146 69 147 62 148 63 149 67 150 70 151 64 152 65 153
REMARK SMILES IDX 68 154 66 155
REMARK H PARENT 24 4 20 6 17 12 18 14 97 15 12 21 102 22 13 24 14 25 7 29 6 32
REMARK H PARENT 6 33 5 35 5 36 4 38 4 39 3 41 3 42 2 44 2 45 1 47 1 48 1 49
REMARK H PARENT 21 54 21 55 21 56 25 58 25 59 26 61 26 62 27 64 27 65 28 67
REMARK H PARENT 28 68 29 70 29 71 30 73 30 74 31 77 35 83 96 85 36 87 95 88
REMARK H PARENT 94 98 88 100 90 102 93 104 87 105 55 114 58 116 91 119 56 120
REMARK H PARENT 92 122
REMARK Flexibility Score: inf
ROOT
ATOM      1  C   UNL A   1      39.506  30.318  30.114  1.00  0.00     0.227 C 
ATOM      2  O   UNL A   1      40.440  29.823  30.758  1.00  0.00    -0.274 OA
ATOM      3  N   UNL A   1      39.225  31.623  30.374  1.00  0.00    -0.356 N 
ATOM      4  H   UNL A   1      39.852  32.052  31.000  1.00  0.00     0.163 HD
ENDROOT
BRANCH   1   5
ATOM      5  C   UNL A   1      38.758  29.466  29.076  1.00  0.00     0.060 C 
ATOM      6  H   UNL A   1      38.466  30.154  28.311  1.00  0.00     0.045 H 
BRANCH   5   7
ATOM      7  C   UNL A   1      39.645  28.479  28.331  1.00  0.00    -0.029 A 
ATOM      8  C   UNL A   1      41.475  26.691  27.030  1.00  0.00     0.060 A 
ATOM      9  C   UNL A   1      40.455  26.228  27.880  1.00  0.00    -0.047 A 
ATOM     10  C   UNL A   1      41.501  28.077  26.778  1.00  0.00     0.277 A 
ATOM     11  C   UNL A   1      39.536  27.096  28.479  1.00  0.00    -0.057 A 
ATOM     12  H   UNL A   1      40.382  25.215  28.067  1.00  0.00     0.063 H 
ATOM     13  C   UNL A   1      40.632  28.957  27.455  1.00  0.00     0.021 A 
ATOM     14  H   UNL A   1      38.763  26.705  29.040  1.00  0.00     0.063 H 
ATOM     15  H   UNL A   1      40.723  29.974  27.303  1.00  0.00     0.070 H 
BRANCH   8  16
ATOM     16  C   UNL A   1      42.460  25.719  26.507  1.00  0.00    -0.008 A 
ATOM     17  C   UNL A   1      43.003  23.584  25.480  1.00  0.00     0.133 A 
ATOM     18  C   UNL A   1      44.361  23.889  25.488  1.00  0.00    -0.019 A 
ATOM     19  C   UNL A   1      42.055  24.486  25.967  1.00  0.00    -0.011 A 
ATOM     20  C   UNL A   1      44.778  25.116  25.990  1.00  0.00    -0.058 A 
ATOM     21  H   UNL A   1      45.050  23.211  25.126  1.00  0.00     0.066 H 
ATOM     22  H   UNL A   1      41.052  24.246  25.931  1.00  0.00     0.067 H 
ATOM     23  C   UNL A   1      43.838  26.014  26.505  1.00  0.00    -0.054 A 
ATOM     24  H   UNL A   1      45.780  25.364  25.983  1.00  0.00     0.062 H 
ATOM     25  H   UNL A   1      44.161  26.915  26.891  1.00  0.00     0.063 H 
BRANCH  17  26
ATOM     26  O   UNL A   1      42.652  22.274  25.114  1.00  0.00    -0.410 OA
BRANCH  26  27
ATOM     27  C   UNL A   1      43.325  21.203  25.682  1.00  0.00     0.412 C 
ATOM     28  N   UNL A   1      42.774  20.803  26.870  1.00  0.00    -0.321 N 
ATOM     29  H   UNL A   1      43.226  20.066  27.339  1.00  0.00     0.167 HD
ATOM     30  O   UNL A   1      44.310  20.645  25.218  1.00  0.00    -0.224 OA
BRANCH  28  31
ATOM     31  C   UNL A   1      41.594  21.354  27.507  1.00  0.00     0.021 C 
ATOM     32  H   UNL A   1      40.965  21.783  26.756  1.00  0.00     0.049 H 
ATOM     33  H   UNL A   1      41.096  20.559  28.023  1.00  0.00     0.049 H 
BRANCH  31  34
ATOM     34  C   UNL A   1      41.944  22.433  28.533  1.00  0.00    -0.036 C 
ATOM     35  H   UNL A   1      41.596  23.373  28.158  1.00  0.00     0.028 H 
ATOM     36  H   UNL A   1      41.472  22.140  29.448  1.00  0.00     0.028 H 
BRANCH  34  37
ATOM     37  C   UNL A   1      43.439  22.568  28.844  1.00  0.00    -0.052 C 
ATOM     38  H   UNL A   1      43.843  21.583  28.951  1.00  0.00     0.027 H 
ATOM     39  H   UNL A   1      43.860  23.120  28.029  1.00  0.00     0.027 H 
BRANCH  37  40
ATOM     40  C   UNL A   1      43.783  23.360  30.110  1.00  0.00    -0.054 C 
ATOM     41  H   UNL A   1      42.870  23.567  30.627  1.00  0.00     0.027 H 
ATOM     42  H   UNL A   1      44.462  22.747  30.665  1.00  0.00     0.027 H 
BRANCH  40  43
ATOM     43  C   UNL A   1      44.508  24.688  29.878  1.00  0.00    -0.056 C 
ATOM     44  H   UNL A   1      45.325  24.753  30.565  1.00  0.00     0.026 H 
ATOM     45  H   UNL A   1      44.834  24.697  28.859  1.00  0.00     0.026 H 
BRANCH  43  46
ATOM     46  C   UNL A   1      43.614  25.902  30.074  1.00  0.00    -0.065 C 
ATOM     47  H   UNL A   1      43.841  26.364  31.012  1.00  0.00     0.023 H 
ATOM     48  H   UNL A   1      42.589  25.595  30.067  1.00  0.00     0.023 H 
ATOM     49  H   UNL A   1      43.782  26.602  29.282  1.00  0.00     0.023 H 
ENDBRANCH  43  46
ENDBRANCH  40  43
ENDBRANCH  37  40
ENDBRANCH  34  37
ENDBRANCH  31  34
ENDBRANCH  28  31
ENDBRANCH  26  27
ENDBRANCH  17  26
ENDBRANCH   8  16
BRANCH  10  50
ATOM     50  N   UNL A   1      42.374  28.647  25.777  1.00  0.00     0.063 N 
ATOM     51  O   UNL A   1      42.278  28.319  24.612  1.00  0.00    -0.258 OA
ATOM     52  O   UNL A   1      43.425  29.462  26.127  1.00  0.00    -0.258 OA
ENDBRANCH  10  50
ENDBRANCH   5   7
BRANCH   5  53
ATOM     53  C   UNL A   1      37.422  28.912  29.568  1.00  0.00    -0.049 C 
ATOM     54  H   UNL A   1      37.589  28.005  30.110  1.00  0.00     0.024 H 
ATOM     55  H   UNL A   1      36.787  28.716  28.729  1.00  0.00     0.024 H 
ATOM     56  H   UNL A   1      36.953  29.629  30.210  1.00  0.00     0.024 H 
ENDBRANCH   5  53
ENDBRANCH   1   5
BRANCH   3  57
ATOM     57  C   UNL A   1      38.174  32.499  29.901  1.00  0.00     0.017 C 
ATOM     58  H   UNL A   1      37.313  31.910  29.662  1.00  0.00     0.049 H 
ATOM     59  H   UNL A   1      38.534  33.017  29.038  1.00  0.00     0.049 H 
BRANCH  57  60
ATOM     60  C   UNL A   1      37.787  33.538  30.957  1.00  0.00    -0.036 C 
ATOM     61  H   UNL A   1      37.408  34.403  30.453  1.00  0.00     0.028 H 
ATOM     62  H   UNL A   1      38.669  33.747  31.526  1.00  0.00     0.028 H 
BRANCH  60  63
ATOM     63  C   UNL A   1      36.723  33.050  31.946  1.00  0.00    -0.052 C 
ATOM     64  H   UNL A   1      37.226  32.606  32.780  1.00  0.00     0.027 H 
ATOM     65  H   UNL A   1      36.106  32.364  31.405  1.00  0.00     0.027 H 
BRANCH  63  66
ATOM     66  C   UNL A   1      35.785  34.139  32.482  1.00  0.00    -0.052 C 
ATOM     67  H   UNL A   1      34.781  33.857  32.240  1.00  0.00     0.027 H 
ATOM     68  H   UNL A   1      36.101  35.052  32.021  1.00  0.00     0.027 H 
BRANCH  66  69
ATOM     69  C   UNL A   1      35.853  34.386  33.993  1.00  0.00    -0.036 C 
ATOM     70  H   UNL A   1      35.146  33.739  34.468  1.00  0.00     0.028 H 
ATOM     71  H   UNL A   1      35.641  35.424  34.138  1.00  0.00     0.028 H 
BRANCH  69  72
ATOM     72  C   UNL A   1      37.223  34.136  34.620  1.00  0.00     0.018 C 
ATOM     73  H   UNL A   1      37.734  35.071  34.721  1.00  0.00     0.049 H 
ATOM     74  H   UNL A   1      37.763  33.468  33.981  1.00  0.00     0.049 H 
BRANCH  72  75
ATOM     75  N   UNL A   1      37.114  33.516  35.931  1.00  0.00    -0.352 N 
ATOM     76  C   UNL A   1      37.788  32.443  36.457  1.00  0.00     0.251 C 
ATOM     77  H   UNL A   1      36.454  33.929  36.534  1.00  0.00     0.163 HD
ATOM     78  O   UNL A   1      37.400  31.922  37.497  1.00  0.00    -0.269 OA
BRANCH  76  79
ATOM     79  C   UNL A   1      38.980  31.903  35.770  1.00  0.00     0.039 A 
ATOM     80  C   UNL A   1      38.803  30.991  34.725  1.00  0.00    -0.049 A 
ATOM     81  C   UNL A   1      40.269  32.257  36.179  1.00  0.00    -0.049 A 
ATOM     82  C   UNL A   1      39.916  30.477  34.055  1.00  0.00    -0.053 A 
ATOM     83  H   UNL A   1      37.852  30.699  34.449  1.00  0.00     0.063 H 
ATOM     84  C   UNL A   1      41.375  31.794  35.470  1.00  0.00    -0.053 A 
ATOM     85  H   UNL A   1      40.402  32.860  37.006  1.00  0.00     0.063 H 
ATOM     86  C   UNL A   1      41.209  30.896  34.404  1.00  0.00    -0.014 A 
ATOM     87  H   UNL A   1      39.786  29.785  33.300  1.00  0.00     0.063 H 
ATOM     88  H   UNL A   1      42.322  32.113  35.730  1.00  0.00     0.063 H 
BRANCH  86  89
ATOM     89  C   UNL A   1      42.400  30.408  33.665  1.00  0.00     0.031 A 
ATOM     90  C   UNL A   1      42.942  31.190  32.501  1.00  0.00     0.074 A 
ATOM     91  C   UNL A   1      42.948  29.224  33.996  1.00  0.00     0.049 A 
ATOM     92  N   UNL A   1      43.924  30.890  31.687  1.00  0.00    -0.248 NA
ATOM     93  C   UNL A   1      42.273  32.462  32.191  1.00  0.00    -0.034 C 
ATOM     94  C   UNL A   1      42.476  28.348  35.068  1.00  0.00    -0.036 A 
ATOM     95  N   UNL A   1      44.008  28.543  33.451  1.00  0.00    -0.354 N 
ATOM     96  C   UNL A   1      43.975  31.924  30.761  1.00  0.00     0.074 A 
ATOM     97  C   UNL A   1      42.899  32.835  31.084  1.00  0.00    -0.034 C 
ATOM     98  H   UNL A   1      41.515  32.940  32.703  1.00  0.00     0.065 H 
ATOM     99  C   UNL A   1      43.247  27.249  35.109  1.00  0.00    -0.036 A 
ATOM    100  H   UNL A   1      41.678  28.542  35.693  1.00  0.00     0.065 H 
ATOM    101  C   UNL A   1      44.247  27.330  34.047  1.00  0.00     0.049 A 
ATOM    102  H   UNL A   1      44.546  28.892  32.704  1.00  0.00     0.167 HD
ATOM    103  C   UNL A   1      44.852  32.104  29.744  1.00  0.00     0.037 A 
ATOM    104  H   UNL A   1      42.650  33.667  30.526  1.00  0.00     0.065 H 
ATOM    105  H   UNL A   1      43.151  26.474  35.782  1.00  0.00     0.065 H 
ATOM    106  C   UNL A   1      45.160  26.383  33.763  1.00  0.00     0.037 A 
ATOM    107  C   UNL A   1      45.942  31.211  29.447  1.00  0.00     0.049 A 
ATOM    108  C   UNL A   1      46.138  26.617  32.646  1.00  0.00     0.074 A 
ATOM    109  C   UNL A   1      46.936  31.349  28.495  1.00  0.00    -0.036 A 
ATOM    110  N   UNL A   1      46.175  30.007  30.097  1.00  0.00    -0.354 N 
ATOM    111  N   UNL A   1      46.230  27.638  31.828  1.00  0.00    -0.248 NA
ATOM    112  C   UNL A   1      47.146  25.573  32.416  1.00  0.00    -0.034 C 
ATOM    113  C   UNL A   1      47.744  30.208  28.537  1.00  0.00    -0.036 A 
ATOM    114  H   UNL A   1      47.060  32.155  27.862  1.00  0.00     0.065 H 
ATOM    115  C   UNL A   1      47.282  29.380  29.549  1.00  0.00     0.049 A 
ATOM    116  H   UNL A   1      45.634  29.652  30.839  1.00  0.00     0.167 HD
ATOM    117  C   UNL A   1      47.313  27.371  31.003  1.00  0.00     0.074 A 
ATOM    118  C   UNL A   1      47.859  26.098  31.430  1.00  0.00    -0.034 C 
ATOM    119  H   UNL A   1      47.268  24.668  32.898  1.00  0.00     0.065 H 
ATOM    120  H   UNL A   1      48.548  30.014  27.919  1.00  0.00     0.065 H 
ATOM    121  C   UNL A   1      47.811  28.113  29.983  1.00  0.00     0.037 A 
ATOM    122  H   UNL A   1      48.696  25.658  31.018  1.00  0.00     0.065 H 
BRANCH 103 123
ATOM    123  C   UNL A   1      44.669  33.315  28.876  1.00  0.00     0.064 A 
ATOM    124  C   UNL A   1      44.028  33.240  27.630  1.00  0.00     0.173 A 
ATOM    125  C   UNL A   1      45.113  34.573  29.310  1.00  0.00     0.173 A 
ATOM    126  F   UNL A   1      43.593  32.059  27.165  1.00  0.00    -0.203 F 
ATOM    127  C   UNL A   1      43.868  34.373  26.836  1.00  0.00     0.198 A 
ATOM    128  C   UNL A   1      44.925  35.709  28.527  1.00  0.00     0.198 A 
ATOM    129  F   UNL A   1      45.726  34.703  30.496  1.00  0.00    -0.203 F 
ATOM    130  F   UNL A   1      43.300  34.268  25.627  1.00  0.00    -0.200 F 
ATOM    131  C   UNL A   1      44.311  35.607  27.287  1.00  0.00     0.200 A 
ATOM    132  F   UNL A   1      45.341  36.904  28.970  1.00  0.00    -0.200 F 
ATOM    133  F   UNL A   1      44.153  36.697  26.525  1.00  0.00    -0.200 F 
ENDBRANCH 103 123
BRANCH 106 134
ATOM    134  C   UNL A   1      45.202  25.136  34.569  1.00  0.00     0.064 A 
ATOM    135  C   UNL A   1      45.931  25.073  35.764  1.00  0.00     0.173 A 
ATOM    136  C   UNL A   1      44.498  23.990  34.171  1.00  0.00     0.173 A 
ATOM    137  F   UNL A   1      46.636  26.138  36.174  1.00  0.00    -0.203 F 
ATOM    138  C   UNL A   1      45.970  23.906  36.523  1.00  0.00     0.198 A 
ATOM    139  C   UNL A   1      44.515  22.831  34.945  1.00  0.00     0.198 A 
ATOM    140  F   UNL A   1      43.779  24.002  33.039  1.00  0.00    -0.203 F 
ATOM    141  F   UNL A   1      46.705  23.860  37.642  1.00  0.00    -0.200 F 
ATOM    142  C   UNL A   1      45.255  22.787  36.116  1.00  0.00     0.200 A 
ATOM    143  F   UNL A   1      43.811  21.759  34.557  1.00  0.00    -0.200 F 
ATOM    144  F   UNL A   1      45.284  21.668  36.852  1.00  0.00    -0.200 F 
ENDBRANCH 106 134
BRANCH 121 145
ATOM    145  C   UNL A   1      49.018  27.577  29.270  1.00  0.00     0.064 A 
ATOM    146  C   UNL A   1      50.317  27.937  29.654  1.00  0.00     0.173 A 
ATOM    147  C   UNL A   1      48.873  26.660  28.217  1.00  0.00     0.173 A 
ATOM    148  F   UNL A   1      50.508  28.822  30.643  1.00  0.00    -0.203 F 
ATOM    149  C   UNL A   1      51.429  27.416  28.995  1.00  0.00     0.198 A 
ATOM    150  C   UNL A   1      49.986  26.119  27.580  1.00  0.00     0.198 A 
ATOM    151  F   UNL A   1      47.651  26.278  27.816  1.00  0.00    -0.203 F 
ATOM    152  F   UNL A   1      52.660  27.809  29.349  1.00  0.00    -0.200 F 
ATOM    153  C   UNL A   1      51.262  26.503  27.964  1.00  0.00     0.200 A 
ATOM    154  F   UNL A   1      49.824  25.228  26.593  1.00  0.00    -0.200 F 
ATOM    155  F   UNL A   1      52.332  25.998  27.337  1.00  0.00    -0.200 F 
ENDBRANCH 121 145
ENDBRANCH  86  89
ENDBRANCH  76  79
ENDBRANCH  72  75
ENDBRANCH  69  72
ENDBRANCH  66  69
ENDBRANCH  63  66
ENDBRANCH  60  63
ENDBRANCH  57  60
ENDBRANCH   3  57
TORSDOF 25
ENDMDL
MODEL 4
REMARK VINA RESULT:      -8.9      4.295      9.804
REMARK SMILES CCCCCCNC(=O)Oc1cccc(-c2ccc([C@@H](C)C(=O)NCCCCCCNC(=O)c3ccc(-c4c5nc(c(-c6c(F)c(F)c(F)c(F)c6F)c6ccc([nH]6)c(-c6c(F)c(F)c(F)c(F)c6F)c6nc(c(-c7c(F)c(F)c(F)c(F)c7F)c7ccc4[nH]7)C=C6)C=C5)cc3)cc2[N+](=O)[O-])c1
REMARK SMILES IDX 22 1 23 2 24 3 20 5 19 7 16 8 17 9 98 10 18 11 97 13 15 16
REMARK SMILES IDX 11 17 12 18 102 19 13 20 14 23 10 26 8 27 7 28 9 30 6 31
REMARK SMILES IDX 5 34 4 37 3 40 2 43 1 46 99 50 100 51 101 52 21 53 25 57
REMARK SMILES IDX 26 60 27 63 28 66 29 69 30 72 31 75 32 76 33 78 34 79 35 80
REMARK SMILES IDX 96 81 36 82 95 84 37 86 38 89 39 90 89 91 40 92 94 93 88 94
REMARK SMILES IDX 90 95 41 96 93 97 87 99 86 101 42 103 74 106 54 107 73 108
REMARK SMILES IDX 55 109 58 110 72 111 91 112 56 113 57 115 71 117 92 118
REMARK SMILES IDX 59 121 43 123 44 124 52 125 45 126 46 127 50 128 53 129
REMARK SMILES IDX 47 130 48 131 51 132 49 133 75 134 76 135 84 136 77 137
REMARK SMILES IDX 78 138 82 139 85 140 79 141 80 142 83 143 81 144 60 145
REMARK SMILES IDX 61 146 69 147 62 148 63 149 67 150 70 151 64 152 65 153
REMARK SMILES IDX 68 154 66 155
REMARK H PARENT 24 4 20 6 17 12 18 14 97 15 12 21 102 22 13 24 14 25 7 29 6 32
REMARK H PARENT 6 33 5 35 5 36 4 38 4 39 3 41 3 42 2 44 2 45 1 47 1 48 1 49
REMARK H PARENT 21 54 21 55 21 56 25 58 25 59 26 61 26 62 27 64 27 65 28 67
REMARK H PARENT 28 68 29 70 29 71 30 73 30 74 31 77 35 83 96 85 36 87 95 88
REMARK H PARENT 94 98 88 100 90 102 93 104 87 105 55 114 58 116 91 119 56 120
REMARK H PARENT 92 122
REMARK Flexibility Score: inf
ROOT
ATOM      1  C   UNL A   1      39.460  30.367  29.896  1.00  0.00     0.227 C 
ATOM      2  O   UNL A   1      40.550  29.975  30.333  1.00  0.00    -0.274 OA
ATOM      3  N   UNL A   1      39.019  31.562  30.372  1.00  0.00    -0.356 N 
ATOM      4  H   UNL A   1      39.659  32.021  30.962  1.00  0.00     0.163 HD
ENDROOT
BRANCH   1   5
ATOM      5  C   UNL A   1      38.705  29.521  28.858  1.00  0.00     0.060 C 
ATOM      6  H   UNL A   1      38.419  30.212  28.093  1.00  0.00     0.045 H 
BRANCH   5   7
ATOM      7  C   UNL A   1      39.584  28.526  28.114  1.00  0.00    -0.029 A 
ATOM      8  C   UNL A   1      41.396  26.715  26.821  1.00  0.00     0.060 A 
ATOM      9  C   UNL A   1      40.332  26.263  27.621  1.00  0.00    -0.047 A 
ATOM     10  C   UNL A   1      41.478  28.105  26.613  1.00  0.00     0.277 A 
ATOM     11  C   UNL A   1      39.423  27.144  28.215  1.00  0.00    -0.057 A 
ATOM     12  H   UNL A   1      40.218  25.248  27.774  1.00  0.00     0.063 H 
ATOM     13  C   UNL A   1      40.616  28.995  27.286  1.00  0.00     0.021 A 
ATOM     14  H   UNL A   1      38.618  26.764  28.738  1.00  0.00     0.063 H 
ATOM     15  H   UNL A   1      40.746  30.012  27.168  1.00  0.00     0.070 H 
BRANCH   8  16
ATOM     16  C   UNL A   1      42.365  25.725  26.302  1.00  0.00    -0.008 A 
ATOM     17  C   UNL A   1      42.889  23.523  25.417  1.00  0.00     0.133 A 
ATOM     18  C   UNL A   1      44.234  23.859  25.287  1.00  0.00    -0.019 A 
ATOM     19  C   UNL A   1      41.956  24.440  25.903  1.00  0.00    -0.011 A 
ATOM     20  C   UNL A   1      44.651  25.134  25.646  1.00  0.00    -0.058 A 
ATOM     21  H   UNL A   1      44.912  23.169  24.927  1.00  0.00     0.066 H 
ATOM     22  H   UNL A   1      40.961  24.174  25.972  1.00  0.00     0.067 H 
ATOM     23  C   UNL A   1      43.728  26.051  26.160  1.00  0.00    -0.054 A 
ATOM     24  H   UNL A   1      45.641  25.405  25.535  1.00  0.00     0.062 H 
ATOM     25  H   UNL A   1      44.053  26.990  26.440  1.00  0.00     0.063 H 
BRANCH  17  26
ATOM     26  O   UNL A   1      42.550  22.177  25.194  1.00  0.00    -0.410 OA
BRANCH  26  27
ATOM     27  C   UNL A   1      43.301  21.176  25.791  1.00  0.00     0.412 C 
ATOM     28  N   UNL A   1      42.904  20.913  27.075  1.00  0.00    -0.321 N 
ATOM     29  H   UNL A   1      43.419  20.232  27.565  1.00  0.00     0.167 HD
ATOM     30  O   UNL A   1      44.230  20.569  25.276  1.00  0.00    -0.224 OA
BRANCH  28  31
ATOM     31  C   UNL A   1      41.803  21.533  27.786  1.00  0.00     0.021 C 
ATOM     32  H   UNL A   1      41.118  21.941  27.073  1.00  0.00     0.049 H 
ATOM     33  H   UNL A   1      41.335  20.782  28.388  1.00  0.00     0.049 H 
BRANCH  31  34
ATOM     34  C   UNL A   1      42.275  22.653  28.715  1.00  0.00    -0.036 C 
ATOM     35  H   UNL A   1      42.092  23.587  28.228  1.00  0.00     0.028 H 
ATOM     36  H   UNL A   1      41.728  22.535  29.627  1.00  0.00     0.028 H 
BRANCH  34  37
ATOM     37  C   UNL A   1      43.760  22.594  29.094  1.00  0.00    -0.052 C 
ATOM     38  H   UNL A   1      43.940  21.656  29.576  1.00  0.00     0.027 H 
ATOM     39  H   UNL A   1      44.302  22.721  28.179  1.00  0.00     0.027 H 
BRANCH  37  40
ATOM     40  C   UNL A   1      44.248  23.706  30.028  1.00  0.00    -0.054 C 
ATOM     41  H   UNL A   1      43.547  23.794  30.831  1.00  0.00     0.027 H 
ATOM     42  H   UNL A   1      45.229  23.417  30.342  1.00  0.00     0.027 H 
BRANCH  40  43
ATOM     43  C   UNL A   1      44.401  25.086  29.383  1.00  0.00    -0.056 C 
ATOM     44  H   UNL A   1      45.395  25.438  29.567  1.00  0.00     0.026 H 
ATOM     45  H   UNL A   1      44.200  24.972  28.339  1.00  0.00     0.026 H 
BRANCH  43  46
ATOM     46  C   UNL A   1      43.418  26.113  29.920  1.00  0.00    -0.065 C 
ATOM     47  H   UNL A   1      43.947  26.997  30.207  1.00  0.00     0.023 H 
ATOM     48  H   UNL A   1      42.910  25.709  30.771  1.00  0.00     0.023 H 
ATOM     49  H   UNL A   1      42.703  26.356  29.161  1.00  0.00     0.023 H 
ENDBRANCH  43  46
ENDBRANCH  40  43
ENDBRANCH  37  40
ENDBRANCH  34  37
ENDBRANCH  31  34
ENDBRANCH  28  31
ENDBRANCH  26  27
ENDBRANCH  17  26
ENDBRANCH   8  16
BRANCH  10  50
ATOM     50  N   UNL A   1      42.404  28.674  25.659  1.00  0.00     0.063 N 
ATOM     51  O   UNL A   1      43.069  29.648  25.946  1.00  0.00    -0.258 OA
ATOM     52  O   UNL A   1      42.458  28.223  24.361  1.00  0.00    -0.258 OA
ENDBRANCH  10  50
ENDBRANCH   5   7
BRANCH   5  53
ATOM     53  C   UNL A   1      37.364  28.979  29.349  1.00  0.00    -0.049 C 
ATOM     54  H   UNL A   1      37.522  28.063  29.880  1.00  0.00     0.024 H 
ATOM     55  H   UNL A   1      36.722  28.801  28.512  1.00  0.00     0.024 H 
ATOM     56  H   UNL A   1      36.908  29.695  30.003  1.00  0.00     0.024 H 
ENDBRANCH   5  53
ENDBRANCH   1   5
BRANCH   3  57
ATOM     57  C   UNL A   1      37.782  32.286  30.171  1.00  0.00     0.017 C 
ATOM     58  H   UNL A   1      36.975  31.584  30.112  1.00  0.00     0.049 H 
ATOM     59  H   UNL A   1      37.865  32.847  29.265  1.00  0.00     0.049 H 
BRANCH  57  60
ATOM     60  C   UNL A   1      37.506  33.263  31.316  1.00  0.00    -0.036 C 
ATOM     61  H   UNL A   1      37.237  34.209  30.894  1.00  0.00     0.028 H 
ATOM     62  H   UNL A   1      38.400  33.315  31.903  1.00  0.00     0.028 H 
BRANCH  60  63
ATOM     63  C   UNL A   1      36.382  32.816  32.257  1.00  0.00    -0.052 C 
ATOM     64  H   UNL A   1      36.829  32.341  33.105  1.00  0.00     0.027 H 
ATOM     65  H   UNL A   1      35.757  32.165  31.684  1.00  0.00     0.027 H 
BRANCH  63  66
ATOM     66  C   UNL A   1      35.474  33.943  32.767  1.00  0.00    -0.052 C 
ATOM     67  H   UNL A   1      34.460  33.660  32.575  1.00  0.00     0.027 H 
ATOM     68  H   UNL A   1      35.783  34.826  32.248  1.00  0.00     0.027 H 
BRANCH  66  69
ATOM     69  C   UNL A   1      35.598  34.267  34.260  1.00  0.00    -0.036 C 
ATOM     70  H   UNL A   1      34.958  33.601  34.799  1.00  0.00     0.028 H 
ATOM     71  H   UNL A   1      35.326  35.296  34.367  1.00  0.00     0.028 H 
BRANCH  69  72
ATOM     72  C   UNL A   1      37.009  34.135  34.827  1.00  0.00     0.018 C 
ATOM     73  H   UNL A   1      37.434  35.111  34.933  1.00  0.00     0.049 H 
ATOM     74  H   UNL A   1      37.584  33.536  34.151  1.00  0.00     0.049 H 
BRANCH  72  75
ATOM     75  N   UNL A   1      37.012  33.478  36.125  1.00  0.00    -0.352 N 
ATOM     76  C   UNL A   1      37.734  32.396  36.563  1.00  0.00     0.251 C 
ATOM     77  H   UNL A   1      36.403  33.869  36.792  1.00  0.00     0.163 HD
ATOM     78  O   UNL A   1      37.436  31.843  37.617  1.00  0.00    -0.269 OA
BRANCH  76  79
ATOM     79  C   UNL A   1      38.868  31.884  35.765  1.00  0.00     0.039 A 
ATOM     80  C   UNL A   1      38.606  31.044  34.679  1.00  0.00    -0.049 A 
ATOM     81  C   UNL A   1      40.187  32.192  36.110  1.00  0.00    -0.049 A 
ATOM     82  C   UNL A   1      39.663  30.558  33.905  1.00  0.00    -0.053 A 
ATOM     83  H   UNL A   1      37.634  30.784  34.449  1.00  0.00     0.063 H 
ATOM     84  C   UNL A   1      41.236  31.761  35.300  1.00  0.00    -0.053 A 
ATOM     85  H   UNL A   1      40.385  32.739  36.962  1.00  0.00     0.063 H 
ATOM     86  C   UNL A   1      40.983  30.935  34.193  1.00  0.00    -0.014 A 
ATOM     87  H   UNL A   1      39.470  29.918  33.119  1.00  0.00     0.063 H 
ATOM     88  H   UNL A   1      42.203  32.049  35.515  1.00  0.00     0.063 H 
BRANCH  86  89
ATOM     89  C   UNL A   1      42.114  30.479  33.346  1.00  0.00     0.031 A 
ATOM     90  C   UNL A   1      42.817  29.186  33.652  1.00  0.00     0.074 A 
ATOM     91  C   UNL A   1      42.556  31.268  32.349  1.00  0.00     0.049 A 
ATOM     92  N   UNL A   1      43.868  28.659  33.076  1.00  0.00    -0.248 NA
ATOM     93  C   UNL A   1      42.285  28.395  34.772  1.00  0.00    -0.034 C 
ATOM     94  C   UNL A   1      41.993  32.571  31.992  1.00  0.00    -0.036 A 
ATOM     95  N   UNL A   1      43.592  31.099  31.465  1.00  0.00    -0.354 N 
ATOM     96  C   UNL A   1      44.135  27.489  33.776  1.00  0.00     0.074 A 
ATOM     97  C   UNL A   1      43.164  27.406  34.845  1.00  0.00    -0.034 C 
ATOM     98  H   UNL A   1      41.447  28.566  35.349  1.00  0.00     0.065 H 
ATOM     99  C   UNL A   1      42.685  33.080  30.960  1.00  0.00    -0.036 A 
ATOM    100  H   UNL A   1      41.194  33.026  32.459  1.00  0.00     0.065 H 
ATOM    101  C   UNL A   1      43.757  32.155  30.603  1.00  0.00     0.049 A 
ATOM    102  H   UNL A   1      44.163  30.297  31.449  1.00  0.00     0.167 HD
ATOM    103  C   UNL A   1      45.092  26.561  33.535  1.00  0.00     0.037 A 
ATOM    104  H   UNL A   1      43.157  26.673  35.572  1.00  0.00     0.065 H 
ATOM    105  H   UNL A   1      42.490  33.979  30.493  1.00  0.00     0.065 H 
ATOM    106  C   UNL A   1      44.676  32.361  29.641  1.00  0.00     0.037 A 
ATOM    107  C   UNL A   1      46.034  26.632  32.449  1.00  0.00     0.049 A 
ATOM    108  C   UNL A   1      45.713  31.304  29.377  1.00  0.00     0.074 A 
ATOM    109  C   UNL A   1      46.985  25.702  32.069  1.00  0.00    -0.036 A 
ATOM    110  N   UNL A   1      46.148  27.701  31.572  1.00  0.00    -0.354 N 
ATOM    111  N   UNL A   1      45.905  30.162  29.992  1.00  0.00    -0.248 NA
ATOM    112  C   UNL A   1      46.656  31.559  28.280  1.00  0.00    -0.034 C 
ATOM    113  C   UNL A   1      47.705  26.227  30.991  1.00  0.00    -0.036 A 
ATOM    114  H   UNL A   1      47.137  24.779  32.506  1.00  0.00     0.065 H 
ATOM    115  C   UNL A   1      47.171  27.465  30.668  1.00  0.00     0.049 A 
ATOM    116  H   UNL A   1      45.585  28.509  31.589  1.00  0.00     0.167 HD
ATOM    117  C   UNL A   1      46.972  29.555  29.347  1.00  0.00     0.074 A 
ATOM    118  C   UNL A   1      47.377  30.448  28.280  1.00  0.00    -0.034 C 
ATOM    119  H   UNL A   1      46.736  32.388  27.668  1.00  0.00     0.065 H 
ATOM    120  H   UNL A   1      48.500  25.770  30.516  1.00  0.00     0.065 H 
ATOM    121  C   UNL A   1      47.564  28.365  29.614  1.00  0.00     0.037 A 
ATOM    122  H   UNL A   1      48.132  30.243  27.607  1.00  0.00     0.065 H 
BRANCH 103 123
ATOM    123  C   UNL A   1      45.168  25.385  34.467  1.00  0.00     0.064 A 
ATOM    124  C   UNL A   1      45.894  25.439  35.666  1.00  0.00     0.173 A 
ATOM    125  C   UNL A   1      44.480  24.199  34.170  1.00  0.00     0.173 A 
ATOM    126  F   UNL A   1      46.578  26.547  35.992  1.00  0.00    -0.203 F 
ATOM    127  C   UNL A   1      45.956  24.339  36.517  1.00  0.00     0.198 A 
ATOM    128  C   UNL A   1      44.519  23.111  35.038  1.00  0.00     0.198 A 
ATOM    129  F   UNL A   1      43.764  24.096  33.040  1.00  0.00    -0.203 F 
ATOM    130  F   UNL A   1      46.699  24.396  37.631  1.00  0.00    -0.200 F 
ATOM    131  C   UNL A   1      45.264  23.179  36.206  1.00  0.00     0.200 A 
ATOM    132  F   UNL A   1      43.839  21.995  34.743  1.00  0.00    -0.200 F 
ATOM    133  F   UNL A   1      45.320  22.122  37.028  1.00  0.00    -0.200 F 
ENDBRANCH 103 123
BRANCH 106 134
ATOM    134  C   UNL A   1      44.638  33.613  28.843  1.00  0.00     0.064 A 
ATOM    135  C   UNL A   1      44.043  33.643  27.575  1.00  0.00     0.173 A 
ATOM    136  C   UNL A   1      45.178  34.808  29.341  1.00  0.00     0.173 A 
ATOM    137  F   UNL A   1      43.531  32.520  27.050  1.00  0.00    -0.203 F 
ATOM    138  C   UNL A   1      44.004  34.817  26.826  1.00  0.00     0.198 A 
ATOM    139  C   UNL A   1      45.114  35.988  28.603  1.00  0.00     0.198 A 
ATOM    140  F   UNL A   1      45.752  34.833  30.553  1.00  0.00    -0.203 F 
ATOM    141  F   UNL A   1      43.462  34.810  25.601  1.00  0.00    -0.200 F 
ATOM    142  C   UNL A   1      44.533  35.991  27.344  1.00  0.00     0.200 A 
ATOM    143  F   UNL A   1      45.612  37.123  29.113  1.00  0.00    -0.200 F 
ATOM    144  F   UNL A   1      44.485  37.122  26.629  1.00  0.00    -0.200 F 
ENDBRANCH 106 134
BRANCH 121 145
ATOM    145  C   UNL A   1      48.701  27.949  28.727  1.00  0.00     0.064 A 
ATOM    146  C   UNL A   1      48.488  27.196  27.564  1.00  0.00     0.173 A 
ATOM    147  C   UNL A   1      50.015  28.345  29.023  1.00  0.00     0.173 A 
ATOM    148  F   UNL A   1      47.253  26.780  27.246  1.00  0.00    -0.203 F 
ATOM    149  C   UNL A   1      49.551  26.835  26.740  1.00  0.00     0.198 A 
ATOM    150  C   UNL A   1      51.072  28.007  28.183  1.00  0.00     0.198 A 
ATOM    151  F   UNL A   1      50.271  29.072  30.122  1.00  0.00    -0.203 F 
ATOM    152  F   UNL A   1      49.330  26.077  25.657  1.00  0.00    -0.200 F 
ATOM    153  C   UNL A   1      50.840  27.246  27.047  1.00  0.00     0.200 A 
ATOM    154  F   UNL A   1      52.314  28.415  28.473  1.00  0.00    -0.200 F 
ATOM    155  F   UNL A   1      51.860  26.904  26.249  1.00  0.00    -0.200 F 
ENDBRANCH 121 145
ENDBRANCH  86  89
ENDBRANCH  76  79
ENDBRANCH  72  75
ENDBRANCH  69  72
ENDBRANCH  66  69
ENDBRANCH  63  66
ENDBRANCH  60  63
ENDBRANCH  57  60
ENDBRANCH   3  57
TORSDOF 25
ENDMDL
MODEL 5
REMARK VINA RESULT:      -8.8      4.221      9.335
REMARK SMILES CCCCCCNC(=O)Oc1cccc(-c2ccc([C@@H](C)C(=O)NCCCCCCNC(=O)c3ccc(-c4c5nc(c(-c6c(F)c(F)c(F)c(F)c6F)c6ccc([nH]6)c(-c6c(F)c(F)c(F)c(F)c6F)c6nc(c(-c7c(F)c(F)c(F)c(F)c7F)c7ccc4[nH]7)C=C6)C=C5)cc3)cc2[N+](=O)[O-])c1
REMARK SMILES IDX 22 1 23 2 24 3 20 5 19 7 16 8 17 9 98 10 18 11 97 13 15 16
REMARK SMILES IDX 11 17 12 18 102 19 13 20 14 23 10 26 8 27 7 28 9 30 6 31
REMARK SMILES IDX 5 34 4 37 3 40 2 43 1 46 99 50 100 51 101 52 21 53 25 57
REMARK SMILES IDX 26 60 27 63 28 66 29 69 30 72 31 75 32 76 33 78 34 79 35 80
REMARK SMILES IDX 96 81 36 82 95 84 37 86 38 89 39 90 89 91 40 92 94 93 88 94
REMARK SMILES IDX 90 95 41 96 93 97 87 99 86 101 42 103 74 106 54 107 73 108
REMARK SMILES IDX 55 109 58 110 72 111 91 112 56 113 57 115 71 117 92 118
REMARK SMILES IDX 59 121 43 123 44 124 52 125 45 126 46 127 50 128 53 129
REMARK SMILES IDX 47 130 48 131 51 132 49 133 75 134 76 135 84 136 77 137
REMARK SMILES IDX 78 138 82 139 85 140 79 141 80 142 83 143 81 144 60 145
REMARK SMILES IDX 61 146 69 147 62 148 63 149 67 150 70 151 64 152 65 153
REMARK SMILES IDX 68 154 66 155
REMARK H PARENT 24 4 20 6 17 12 18 14 97 15 12 21 102 22 13 24 14 25 7 29 6 32
REMARK H PARENT 6 33 5 35 5 36 4 38 4 39 3 41 3 42 2 44 2 45 1 47 1 48 1 49
REMARK H PARENT 21 54 21 55 21 56 25 58 25 59 26 61 26 62 27 64 27 65 28 67
REMARK H PARENT 28 68 29 70 29 71 30 73 30 74 31 77 35 83 96 85 36 87 95 88
REMARK H PARENT 94 98 88 100 90 102 93 104 87 105 55 114 58 116 91 119 56 120
REMARK H PARENT 92 122
REMARK Flexibility Score: inf
ROOT
ATOM      1  C   UNL A   1      42.348  22.904  26.547  1.00  0.00     0.227 C 
ATOM      2  O   UNL A   1      41.997  21.834  26.032  1.00  0.00    -0.274 OA
ATOM      3  N   UNL A   1      43.119  22.807  27.663  1.00  0.00    -0.356 N 
ATOM      4  H   UNL A   1      43.375  21.886  27.896  1.00  0.00     0.163 HD
ENDROOT
BRANCH   1   5
ATOM      5  C   UNL A   1      41.927  24.235  25.903  1.00  0.00     0.060 C 
ATOM      6  H   UNL A   1      41.197  23.969  25.168  1.00  0.00     0.045 H 
BRANCH   5   7
ATOM      7  C   UNL A   1      41.156  25.157  26.836  1.00  0.00    -0.029 A 
ATOM      8  C   UNL A   1      39.650  27.005  28.435  1.00  0.00     0.060 A 
ATOM      9  C   UNL A   1      39.284  25.653  28.310  1.00  0.00    -0.047 A 
ATOM     10  C   UNL A   1      40.849  27.391  27.803  1.00  0.00     0.277 A 
ATOM     11  C   UNL A   1      40.042  24.743  27.567  1.00  0.00    -0.057 A 
ATOM     12  H   UNL A   1      38.427  25.322  28.783  1.00  0.00     0.063 H 
ATOM     13  C   UNL A   1      41.561  26.494  26.981  1.00  0.00     0.021 A 
ATOM     14  H   UNL A   1      39.772  23.747  27.559  1.00  0.00     0.063 H 
ATOM     15  H   UNL A   1      42.397  26.826  26.475  1.00  0.00     0.070 H 
BRANCH   8  16
ATOM     16  C   UNL A   1      38.747  27.921  29.165  1.00  0.00    -0.008 A 
ATOM     17  C   UNL A   1      37.123  29.729  29.199  1.00  0.00     0.133 A 
ATOM     18  C   UNL A   1      37.007  29.643  30.583  1.00  0.00    -0.019 A 
ATOM     19  C   UNL A   1      37.967  28.875  28.488  1.00  0.00    -0.011 A 
ATOM     20  C   UNL A   1      37.747  28.686  31.267  1.00  0.00    -0.058 A 
ATOM     21  H   UNL A   1      36.379  30.283  31.095  1.00  0.00     0.066 H 
ATOM     22  H   UNL A   1      38.021  28.944  27.459  1.00  0.00     0.067 H 
ATOM     23  C   UNL A   1      38.616  27.844  30.566  1.00  0.00    -0.054 A 
ATOM     24  H   UNL A   1      37.655  28.597  32.292  1.00  0.00     0.062 H 
ATOM     25  H   UNL A   1      39.173  27.149  31.087  1.00  0.00     0.063 H 
BRANCH  17  26
ATOM     26  O   UNL A   1      36.481  30.814  28.577  1.00  0.00    -0.410 OA
BRANCH  26  27
ATOM     27  C   UNL A   1      35.120  30.745  28.322  1.00  0.00     0.412 C 
ATOM     28  N   UNL A   1      34.417  31.752  28.927  1.00  0.00    -0.321 N 
ATOM     29  H   UNL A   1      33.440  31.741  28.809  1.00  0.00     0.167 HD
ATOM     30  O   UNL A   1      34.557  29.896  27.643  1.00  0.00    -0.224 OA
BRANCH  28  31
ATOM     31  C   UNL A   1      34.963  32.833  29.724  1.00  0.00     0.021 C 
ATOM     32  H   UNL A   1      36.030  32.749  29.733  1.00  0.00     0.049 H 
ATOM     33  H   UNL A   1      34.651  33.758  29.283  1.00  0.00     0.049 H 
BRANCH  31  34
ATOM     34  C   UNL A   1      34.453  32.802  31.164  1.00  0.00    -0.036 C 
ATOM     35  H   UNL A   1      34.147  33.792  31.430  1.00  0.00     0.028 H 
ATOM     36  H   UNL A   1      33.653  32.091  31.183  1.00  0.00     0.028 H 
BRANCH  34  37
ATOM     37  C   UNL A   1      35.477  32.325  32.201  1.00  0.00    -0.052 C 
ATOM     38  H   UNL A   1      34.960  32.161  33.124  1.00  0.00     0.027 H 
ATOM     39  H   UNL A   1      35.919  31.440  31.792  1.00  0.00     0.027 H 
BRANCH  37  40
ATOM     40  C   UNL A   1      36.637  33.287  32.476  1.00  0.00    -0.054 C 
ATOM     41  H   UNL A   1      36.251  34.284  32.461  1.00  0.00     0.027 H 
ATOM     42  H   UNL A   1      37.043  32.997  33.423  1.00  0.00     0.027 H 
BRANCH  40  43
ATOM     43  C   UNL A   1      37.799  33.216  31.482  1.00  0.00    -0.056 C 
ATOM     44  H   UNL A   1      38.422  32.388  31.747  1.00  0.00     0.026 H 
ATOM     45  H   UNL A   1      37.375  33.105  30.506  1.00  0.00     0.026 H 
BRANCH  43  46
ATOM     46  C   UNL A   1      38.650  34.475  31.462  1.00  0.00    -0.065 C 
ATOM     47  H   UNL A   1      39.373  34.430  32.250  1.00  0.00     0.023 H 
ATOM     48  H   UNL A   1      38.024  35.331  31.601  1.00  0.00     0.023 H 
ATOM     49  H   UNL A   1      39.154  34.551  30.520  1.00  0.00     0.023 H 
ENDBRANCH  43  46
ENDBRANCH  40  43
ENDBRANCH  37  40
ENDBRANCH  34  37
ENDBRANCH  31  34
ENDBRANCH  28  31
ENDBRANCH  26  27
ENDBRANCH  17  26
ENDBRANCH   8  16
BRANCH  10  50
ATOM     50  N   UNL A   1      41.430  28.697  28.018  1.00  0.00     0.063 N 
ATOM     51  O   UNL A   1      41.537  29.151  29.139  1.00  0.00    -0.258 OA
ATOM     52  O   UNL A   1      41.745  29.520  26.962  1.00  0.00    -0.258 OA
ENDBRANCH  10  50
ENDBRANCH   5   7
BRANCH   5  53
ATOM     53  C   UNL A   1      43.023  24.902  25.072  1.00  0.00    -0.049 C 
ATOM     54  H   UNL A   1      42.652  25.819  24.663  1.00  0.00     0.024 H 
ATOM     55  H   UNL A   1      43.315  24.248  24.277  1.00  0.00     0.024 H 
ATOM     56  H   UNL A   1      43.869  25.106  25.696  1.00  0.00     0.024 H 
ENDBRANCH   5  53
ENDBRANCH   1   5
BRANCH   3  57
ATOM     57  C   UNL A   1      43.633  23.808  28.573  1.00  0.00     0.017 C 
ATOM     58  H   UNL A   1      43.982  23.323  29.461  1.00  0.00     0.049 H 
ATOM     59  H   UNL A   1      42.843  24.493  28.798  1.00  0.00     0.049 H 
BRANCH  57  60
ATOM     60  C   UNL A   1      44.788  24.597  27.951  1.00  0.00    -0.036 C 
ATOM     61  H   UNL A   1      45.064  25.379  28.628  1.00  0.00     0.028 H 
ATOM     62  H   UNL A   1      44.438  24.973  27.012  1.00  0.00     0.028 H 
BRANCH  60  63
ATOM     63  C   UNL A   1      46.030  23.750  27.658  1.00  0.00    -0.052 C 
ATOM     64  H   UNL A   1      46.121  23.016  28.430  1.00  0.00     0.027 H 
ATOM     65  H   UNL A   1      46.853  24.432  27.619  1.00  0.00     0.027 H 
BRANCH  63  66
ATOM     66  C   UNL A   1      46.016  23.021  26.308  1.00  0.00    -0.052 C 
ATOM     67  H   UNL A   1      45.004  22.751  26.090  1.00  0.00     0.027 H 
ATOM     68  H   UNL A   1      46.673  22.183  26.421  1.00  0.00     0.027 H 
BRANCH  66  69
ATOM     69  C   UNL A   1      46.557  23.821  25.118  1.00  0.00    -0.036 C 
ATOM     70  H   UNL A   1      45.745  24.372  24.691  1.00  0.00     0.028 H 
ATOM     71  H   UNL A   1      46.985  23.108  24.446  1.00  0.00     0.028 H 
BRANCH  69  72
ATOM     72  C   UNL A   1      47.670  24.807  25.464  1.00  0.00     0.018 C 
ATOM     73  H   UNL A   1      48.571  24.261  25.654  1.00  0.00     0.049 H 
ATOM     74  H   UNL A   1      47.366  25.361  26.328  1.00  0.00     0.049 H 
BRANCH  72  75
ATOM     75  N   UNL A   1      47.912  25.752  24.385  1.00  0.00    -0.352 N 
ATOM     76  C   UNL A   1      47.454  27.036  24.219  1.00  0.00     0.251 C 
ATOM     77  H   UNL A   1      48.492  25.420  23.662  1.00  0.00     0.163 HD
ATOM     78  O   UNL A   1      47.578  27.598  23.136  1.00  0.00    -0.269 OA
BRANCH  76  79
ATOM     79  C   UNL A   1      46.804  27.746  25.340  1.00  0.00     0.039 A 
ATOM     80  C   UNL A   1      45.415  27.667  25.476  1.00  0.00    -0.049 A 
ATOM     81  C   UNL A   1      47.551  28.523  26.230  1.00  0.00    -0.049 A 
ATOM     82  C   UNL A   1      44.782  28.321  26.535  1.00  0.00    -0.053 A 
ATOM     83  H   UNL A   1      44.859  27.125  24.795  1.00  0.00     0.063 H 
ATOM     84  C   UNL A   1      46.927  29.122  27.322  1.00  0.00    -0.053 A 
ATOM     85  H   UNL A   1      48.564  28.654  26.079  1.00  0.00     0.063 H 
ATOM     86  C   UNL A   1      45.536  29.031  27.482  1.00  0.00    -0.014 A 
ATOM     87  H   UNL A   1      43.754  28.283  26.620  1.00  0.00     0.063 H 
ATOM     88  H   UNL A   1      47.491  29.637  28.017  1.00  0.00     0.063 H 
BRANCH  86  89
ATOM     89  C   UNL A   1      44.888  29.682  28.648  1.00  0.00     0.031 A 
ATOM     90  C   UNL A   1      44.556  31.147  28.611  1.00  0.00     0.074 A 
ATOM     91  C   UNL A   1      44.668  28.969  29.769  1.00  0.00     0.049 A 
ATOM     92  N   UNL A   1      44.060  31.908  29.554  1.00  0.00    -0.248 NA
ATOM     93  C   UNL A   1      44.848  31.858  27.357  1.00  0.00    -0.034 C 
ATOM     94  C   UNL A   1      45.000  27.555  29.946  1.00  0.00    -0.036 A 
ATOM     95  N   UNL A   1      44.133  29.340  30.976  1.00  0.00    -0.354 N 
ATOM     96  C   UNL A   1      44.001  33.187  29.014  1.00  0.00     0.074 A 
ATOM     97  C   UNL A   1      44.553  33.109  27.680  1.00  0.00    -0.034 C 
ATOM     98  H   UNL A   1      45.193  31.481  26.460  1.00  0.00     0.065 H 
ATOM     99  C   UNL A   1      44.654  27.175  31.187  1.00  0.00    -0.036 A 
ATOM    100  H   UNL A   1      45.432  26.946  29.233  1.00  0.00     0.065 H 
ATOM    101  C   UNL A   1      44.105  28.325  31.901  1.00  0.00     0.049 A 
ATOM    102  H   UNL A   1      43.800  30.248  31.163  1.00  0.00     0.167 HD
ATOM    103  C   UNL A   1      43.513  34.319  29.577  1.00  0.00     0.037 A 
ATOM    104  H   UNL A   1      44.698  33.921  27.059  1.00  0.00     0.065 H 
ATOM    105  H   UNL A   1      44.757  26.224  31.573  1.00  0.00     0.065 H 
ATOM    106  C   UNL A   1      43.696  28.324  33.183  1.00  0.00     0.037 A 
ATOM    107  C   UNL A   1      42.935  34.384  30.894  1.00  0.00     0.049 A 
ATOM    108  C   UNL A   1      43.136  29.586  33.777  1.00  0.00     0.074 A 
ATOM    109  C   UNL A   1      42.336  35.462  31.521  1.00  0.00    -0.036 A 
ATOM    110  N   UNL A   1      42.891  33.326  31.790  1.00  0.00    -0.354 N 
ATOM    111  N   UNL A   1      43.008  30.771  33.231  1.00  0.00    -0.248 NA
ATOM    112  C   UNL A   1      42.655  29.511  35.163  1.00  0.00    -0.034 C 
ATOM    113  C   UNL A   1      41.970  35.069  32.813  1.00  0.00    -0.036 A 
ATOM    114  H   UNL A   1      42.185  36.396  31.107  1.00  0.00     0.065 H 
ATOM    115  C   UNL A   1      42.298  33.732  32.974  1.00  0.00     0.049 A 
ATOM    116  H   UNL A   1      43.230  32.419  31.610  1.00  0.00     0.167 HD
ATOM    117  C   UNL A   1      42.416  31.575  34.194  1.00  0.00     0.074 A 
ATOM    118  C   UNL A   1      42.193  30.738  35.356  1.00  0.00    -0.034 C 
ATOM    119  H   UNL A   1      42.672  28.712  35.816  1.00  0.00     0.065 H 
ATOM    120  H   UNL A   1      41.531  35.673  33.526  1.00  0.00     0.065 H 
ATOM    121  C   UNL A   1      42.086  32.889  34.123  1.00  0.00     0.037 A 
ATOM    122  H   UNL A   1      41.733  31.058  36.222  1.00  0.00     0.065 H 
BRANCH 103 123
ATOM    123  C   UNL A   1      43.586  35.583  28.769  1.00  0.00     0.064 A 
ATOM    124  C   UNL A   1      42.485  36.057  28.040  1.00  0.00     0.173 A 
ATOM    125  C   UNL A   1      44.764  36.345  28.748  1.00  0.00     0.173 A 
ATOM    126  F   UNL A   1      41.339  35.360  28.019  1.00  0.00    -0.203 F 
ATOM    127  C   UNL A   1      42.570  37.229  27.294  1.00  0.00     0.198 A 
ATOM    128  C   UNL A   1      44.836  37.533  28.026  1.00  0.00     0.198 A 
ATOM    129  F   UNL A   1      45.844  35.942  29.434  1.00  0.00    -0.203 F 
ATOM    130  F   UNL A   1      41.522  37.635  26.563  1.00  0.00    -0.200 F 
ATOM    131  C   UNL A   1      43.743  37.970  27.292  1.00  0.00     0.200 A 
ATOM    132  F   UNL A   1      45.966  38.254  28.035  1.00  0.00    -0.200 F 
ATOM    133  F   UNL A   1      43.823  39.100  26.577  1.00  0.00    -0.200 F 
ENDBRANCH 103 123
BRANCH 106 134
ATOM    134  C   UNL A   1      43.781  27.074  33.981  1.00  0.00     0.064 A 
ATOM    135  C   UNL A   1      45.014  26.601  34.451  1.00  0.00     0.173 A 
ATOM    136  C   UNL A   1      42.632  26.338  34.305  1.00  0.00     0.173 A 
ATOM    137  F   UNL A   1      46.142  27.261  34.149  1.00  0.00    -0.203 F 
ATOM    138  C   UNL A   1      45.096  25.431  35.202  1.00  0.00     0.198 A 
ATOM    139  C   UNL A   1      42.712  25.183  35.079  1.00  0.00     0.198 A 
ATOM    140  F   UNL A   1      41.428  26.753  33.885  1.00  0.00    -0.203 F 
ATOM    141  F   UNL A   1      46.291  24.981  35.608  1.00  0.00    -0.200 F 
ATOM    142  C   UNL A   1      43.944  24.726  35.522  1.00  0.00     0.200 A 
ATOM    143  F   UNL A   1      41.596  24.514  35.399  1.00  0.00    -0.200 F 
ATOM    144  F   UNL A   1      44.023  23.607  36.253  1.00  0.00    -0.200 F 
ENDBRANCH 106 134
BRANCH 121 145
ATOM    145  C   UNL A   1      41.431  33.498  35.328  1.00  0.00     0.064 A 
ATOM    146  C   UNL A   1      42.182  34.124  36.332  1.00  0.00     0.173 A 
ATOM    147  C   UNL A   1      40.034  33.490  35.458  1.00  0.00     0.173 A 
ATOM    148  F   UNL A   1      43.521  34.144  36.262  1.00  0.00    -0.203 F 
ATOM    149  C   UNL A   1      41.559  34.702  37.436  1.00  0.00     0.198 A 
ATOM    150  C   UNL A   1      39.412  34.093  36.547  1.00  0.00     0.198 A 
ATOM    151  F   UNL A   1      39.271  32.907  34.520  1.00  0.00    -0.203 F 
ATOM    152  F   UNL A   1      42.298  35.257  38.407  1.00  0.00    -0.200 F 
ATOM    153  C   UNL A   1      40.175  34.692  37.538  1.00  0.00     0.200 A 
ATOM    154  F   UNL A   1      38.076  34.094  36.639  1.00  0.00    -0.200 F 
ATOM    155  F   UNL A   1      39.577  35.255  38.597  1.00  0.00    -0.200 F 
ENDBRANCH 121 145
ENDBRANCH  86  89
ENDBRANCH  76  79
ENDBRANCH  72  75
ENDBRANCH  69  72
ENDBRANCH  66  69
ENDBRANCH  63  66
ENDBRANCH  60  63
ENDBRANCH  57  60
ENDBRANCH   3  57
TORSDOF 25
ENDMDL
MODEL 6
REMARK VINA RESULT:      -8.8      4.410     10.484
REMARK SMILES CCCCCCNC(=O)Oc1cccc(-c2ccc([C@@H](C)C(=O)NCCCCCCNC(=O)c3ccc(-c4c5nc(c(-c6c(F)c(F)c(F)c(F)c6F)c6ccc([nH]6)c(-c6c(F)c(F)c(F)c(F)c6F)c6nc(c(-c7c(F)c(F)c(F)c(F)c7F)c7ccc4[nH]7)C=C6)C=C5)cc3)cc2[N+](=O)[O-])c1
REMARK SMILES IDX 22 1 23 2 24 3 20 5 19 7 16 8 17 9 98 10 18 11 97 13 15 16
REMARK SMILES IDX 11 17 12 18 102 19 13 20 14 23 10 26 8 27 7 28 9 30 6 31
REMARK SMILES IDX 5 34 4 37 3 40 2 43 1 46 99 50 100 51 101 52 21 53 25 57
REMARK SMILES IDX 26 60 27 63 28 66 29 69 30 72 31 75 32 76 33 78 34 79 35 80
REMARK SMILES IDX 96 81 36 82 95 84 37 86 38 89 39 90 89 91 40 92 94 93 88 94
REMARK SMILES IDX 90 95 41 96 93 97 87 99 86 101 42 103 74 106 54 107 73 108
REMARK SMILES IDX 55 109 58 110 72 111 91 112 56 113 57 115 71 117 92 118
REMARK SMILES IDX 59 121 43 123 44 124 52 125 45 126 46 127 50 128 53 129
REMARK SMILES IDX 47 130 48 131 51 132 49 133 75 134 76 135 84 136 77 137
REMARK SMILES IDX 78 138 82 139 85 140 79 141 80 142 83 143 81 144 60 145
REMARK SMILES IDX 61 146 69 147 62 148 63 149 67 150 70 151 64 152 65 153
REMARK SMILES IDX 68 154 66 155
REMARK H PARENT 24 4 20 6 17 12 18 14 97 15 12 21 102 22 13 24 14 25 7 29 6 32
REMARK H PARENT 6 33 5 35 5 36 4 38 4 39 3 41 3 42 2 44 2 45 1 47 1 48 1 49
REMARK H PARENT 21 54 21 55 21 56 25 58 25 59 26 61 26 62 27 64 27 65 28 67
REMARK H PARENT 28 68 29 70 29 71 30 73 30 74 31 77 35 83 96 85 36 87 95 88
REMARK H PARENT 94 98 88 100 90 102 93 104 87 105 55 114 58 116 91 119 56 120
REMARK H PARENT 92 122
REMARK Flexibility Score: inf
ROOT
ATOM      1  C   UNL A   1      36.850  33.228  30.111  1.00  0.00     0.227 C 
ATOM      2  O   UNL A   1      38.000  33.470  30.502  1.00  0.00    -0.274 OA
ATOM      3  N   UNL A   1      36.152  34.284  29.614  1.00  0.00    -0.356 N 
ATOM      4  H   UNL A   1      36.673  35.117  29.552  1.00  0.00     0.163 HD
ENDROOT
BRANCH   1   5
ATOM      5  C   UNL A   1      36.305  31.793  30.186  1.00  0.00     0.060 C 
ATOM      6  H   UNL A   1      35.534  31.751  29.446  1.00  0.00     0.045 H 
BRANCH   5   7
ATOM      7  C   UNL A   1      37.290  30.731  29.719  1.00  0.00    -0.029 A 
ATOM      8  C   UNL A   1      39.009  28.590  28.883  1.00  0.00     0.060 A 
ATOM      9  C   UNL A   1      38.525  29.556  27.982  1.00  0.00    -0.047 A 
ATOM     10  C   UNL A   1      38.678  28.777  30.239  1.00  0.00     0.277 A 
ATOM     11  C   UNL A   1      37.723  30.624  28.397  1.00  0.00    -0.057 A 
ATOM     12  H   UNL A   1      38.769  29.473  26.982  1.00  0.00     0.063 H 
ATOM     13  C   UNL A   1      37.796  29.801  30.641  1.00  0.00     0.021 A 
ATOM     14  H   UNL A   1      37.447  31.345  27.713  1.00  0.00     0.063 H 
ATOM     15  H   UNL A   1      37.517  29.868  31.631  1.00  0.00     0.070 H 
BRANCH   8  16
ATOM     16  C   UNL A   1      39.777  27.444  28.350  1.00  0.00    -0.008 A 
ATOM     17  C   UNL A   1      41.783  26.508  27.347  1.00  0.00     0.133 A 
ATOM     18  C   UNL A   1      41.234  25.229  27.363  1.00  0.00    -0.019 A 
ATOM     19  C   UNL A   1      41.079  27.605  27.845  1.00  0.00    -0.011 A 
ATOM     20  C   UNL A   1      39.960  25.044  27.887  1.00  0.00    -0.058 A 
ATOM     21  H   UNL A   1      41.767  24.428  26.989  1.00  0.00     0.066 H 
ATOM     22  H   UNL A   1      41.514  28.541  27.841  1.00  0.00     0.067 H 
ATOM     23  C   UNL A   1      39.237  26.142  28.363  1.00  0.00    -0.054 A 
ATOM     24  H   UNL A   1      39.549  24.098  27.924  1.00  0.00     0.062 H 
ATOM     25  H   UNL A   1      38.284  25.996  28.734  1.00  0.00     0.063 H 
BRANCH  17  26
ATOM     26  O   UNL A   1      43.000  26.664  26.663  1.00  0.00    -0.410 OA
BRANCH  26  27
ATOM     27  C   UNL A   1      42.993  26.825  25.286  1.00  0.00     0.412 C 
ATOM     28  N   UNL A   1      43.498  25.738  24.623  1.00  0.00    -0.321 N 
ATOM     29  H   UNL A   1      43.548  25.804  23.643  1.00  0.00     0.167 HD
ATOM     30  O   UNL A   1      42.597  27.812  24.679  1.00  0.00    -0.224 OA
BRANCH  28  31
ATOM     31  C   UNL A   1      43.965  24.501  25.218  1.00  0.00     0.021 C 
ATOM     32  H   UNL A   1      43.389  24.303  26.098  1.00  0.00     0.049 H 
ATOM     33  H   UNL A   1      43.847  23.722  24.493  1.00  0.00     0.049 H 
BRANCH  31  34
ATOM     34  C   UNL A   1      45.444  24.569  25.601  1.00  0.00    -0.036 C 
ATOM     35  H   UNL A   1      46.019  24.227  24.766  1.00  0.00     0.028 H 
ATOM     36  H   UNL A   1      45.639  25.589  25.861  1.00  0.00     0.028 H 
BRANCH  34  37
ATOM     37  C   UNL A   1      45.833  23.731  26.824  1.00  0.00    -0.052 C 
ATOM     38  H   UNL A   1      45.919  22.711  26.512  1.00  0.00     0.027 H 
ATOM     39  H   UNL A   1      46.749  24.150  27.188  1.00  0.00     0.027 H 
BRANCH  37  40
ATOM     40  C   UNL A   1      44.851  23.782  28.000  1.00  0.00    -0.054 C 
ATOM     41  H   UNL A   1      43.867  23.908  27.603  1.00  0.00     0.027 H 
ATOM     42  H   UNL A   1      44.986  22.866  28.536  1.00  0.00     0.027 H 
BRANCH  40  43
ATOM     43  C   UNL A   1      45.098  24.903  29.013  1.00  0.00    -0.056 C 
ATOM     44  H   UNL A   1      45.962  24.653  29.592  1.00  0.00     0.026 H 
ATOM     45  H   UNL A   1      45.232  25.808  28.458  1.00  0.00     0.026 H 
BRANCH  43  46
ATOM     46  C   UNL A   1      43.929  25.125  29.960  1.00  0.00    -0.065 C 
ATOM     47  H   UNL A   1      43.130  25.603  29.434  1.00  0.00     0.023 H 
ATOM     48  H   UNL A   1      44.242  25.745  30.774  1.00  0.00     0.023 H 
ATOM     49  H   UNL A   1      43.592  24.182  30.339  1.00  0.00     0.023 H 
ENDBRANCH  43  46
ENDBRANCH  40  43
ENDBRANCH  37  40
ENDBRANCH  34  37
ENDBRANCH  31  34
ENDBRANCH  28  31
ENDBRANCH  26  27
ENDBRANCH  17  26
ENDBRANCH   8  16
BRANCH  10  50
ATOM     50  N   UNL A   1      39.273  27.968  31.280  1.00  0.00     0.063 N 
ATOM     51  O   UNL A   1      40.476  27.828  31.344  1.00  0.00    -0.258 OA
ATOM     52  O   UNL A   1      38.496  27.224  32.136  1.00  0.00    -0.258 OA
ENDBRANCH  10  50
ENDBRANCH   5   7
BRANCH   5  53
ATOM     53  C   UNL A   1      35.556  31.475  31.480  1.00  0.00    -0.049 C 
ATOM     54  H   UNL A   1      34.560  31.161  31.248  1.00  0.00     0.024 H 
ATOM     55  H   UNL A   1      35.521  32.350  32.095  1.00  0.00     0.024 H 
ATOM     56  H   UNL A   1      36.064  30.692  32.003  1.00  0.00     0.024 H 
ENDBRANCH   5  53
ENDBRANCH   1   5
BRANCH   3  57
ATOM     57  C   UNL A   1      34.785  34.410  29.158  1.00  0.00     0.017 C 
ATOM     58  H   UNL A   1      34.537  33.555  28.564  1.00  0.00     0.049 H 
ATOM     59  H   UNL A   1      34.705  35.309  28.585  1.00  0.00     0.049 H 
BRANCH  57  60
ATOM     60  C   UNL A   1      33.804  34.501  30.330  1.00  0.00    -0.036 C 
ATOM     61  H   UNL A   1      33.583  33.508  30.662  1.00  0.00     0.028 H 
ATOM     62  H   UNL A   1      32.938  35.017  29.972  1.00  0.00     0.028 H 
BRANCH  60  63
ATOM     63  C   UNL A   1      34.337  35.302  31.523  1.00  0.00    -0.052 C 
ATOM     64  H   UNL A   1      33.655  36.104  31.714  1.00  0.00     0.027 H 
ATOM     65  H   UNL A   1      35.316  35.631  31.248  1.00  0.00     0.027 H 
BRANCH  63  66
ATOM     66  C   UNL A   1      34.504  34.501  32.822  1.00  0.00    -0.052 C 
ATOM     67  H   UNL A   1      34.649  33.474  32.559  1.00  0.00     0.027 H 
ATOM     68  H   UNL A   1      33.617  34.681  33.393  1.00  0.00     0.027 H 
BRANCH  66  69
ATOM     69  C   UNL A   1      35.673  34.928  33.715  1.00  0.00    -0.036 C 
ATOM     70  H   UNL A   1      35.278  35.215  34.667  1.00  0.00     0.028 H 
ATOM     71  H   UNL A   1      36.166  35.727  33.204  1.00  0.00     0.028 H 
BRANCH  69  72
ATOM     72  C   UNL A   1      36.729  33.850  33.945  1.00  0.00     0.018 C 
ATOM     73  H   UNL A   1      37.684  34.229  33.646  1.00  0.00     0.049 H 
ATOM     74  H   UNL A   1      36.457  32.991  33.367  1.00  0.00     0.049 H 
BRANCH  72  75
ATOM     75  N   UNL A   1      36.800  33.449  35.342  1.00  0.00    -0.352 N 
ATOM     76  C   UNL A   1      37.616  32.532  35.955  1.00  0.00     0.251 C 
ATOM     77  H   UNL A   1      36.164  33.905  35.939  1.00  0.00     0.163 HD
ATOM     78  O   UNL A   1      37.376  32.163  37.100  1.00  0.00    -0.269 OA
BRANCH  76  79
ATOM     79  C   UNL A   1      38.785  31.978  35.239  1.00  0.00     0.039 A 
ATOM     80  C   UNL A   1      38.580  30.979  34.283  1.00  0.00    -0.049 A 
ATOM     81  C   UNL A   1      40.081  32.407  35.537  1.00  0.00    -0.049 A 
ATOM     82  C   UNL A   1      39.669  30.449  33.587  1.00  0.00    -0.053 A 
ATOM     83  H   UNL A   1      37.626  30.633  34.092  1.00  0.00     0.063 H 
ATOM     84  C   UNL A   1      41.159  31.926  34.797  1.00  0.00    -0.053 A 
ATOM     85  H   UNL A   1      40.240  33.080  36.303  1.00  0.00     0.063 H 
ATOM     86  C   UNL A   1      40.964  30.938  33.819  1.00  0.00    -0.014 A 
ATOM     87  H   UNL A   1      39.520  29.694  32.899  1.00  0.00     0.063 H 
ATOM     88  H   UNL A   1      42.107  32.297  34.970  1.00  0.00     0.063 H 
BRANCH  86  89
ATOM     89  C   UNL A   1      42.126  30.433  33.046  1.00  0.00     0.031 A 
ATOM     90  C   UNL A   1      42.829  29.174  33.471  1.00  0.00     0.074 A 
ATOM     91  C   UNL A   1      42.594  31.149  32.007  1.00  0.00     0.049 A 
ATOM     92  N   UNL A   1      43.903  28.616  32.971  1.00  0.00    -0.248 NA
ATOM     93  C   UNL A   1      42.266  28.463  34.629  1.00  0.00    -0.034 C 
ATOM     94  C   UNL A   1      42.033  32.416  31.535  1.00  0.00    -0.036 A 
ATOM     95  N   UNL A   1      43.661  30.925  31.173  1.00  0.00    -0.354 N 
ATOM     96  C   UNL A   1      44.155  27.505  33.765  1.00  0.00     0.074 A 
ATOM     97  C   UNL A   1      43.150  27.492  34.805  1.00  0.00    -0.034 C 
ATOM     98  H   UNL A   1      41.408  28.667  35.164  1.00  0.00     0.065 H 
ATOM     99  C   UNL A   1      42.755  32.853  30.491  1.00  0.00    -0.036 A 
ATOM    100  H   UNL A   1      41.215  32.896  31.941  1.00  0.00     0.065 H 
ATOM    101  C   UNL A   1      43.846  31.916  30.240  1.00  0.00     0.049 A 
ATOM    102  H   UNL A   1      44.238  30.131  31.236  1.00  0.00     0.167 HD
ATOM    103  C   UNL A   1      45.127  26.571  33.626  1.00  0.00     0.037 A 
ATOM    104  H   UNL A   1      43.124  26.814  35.584  1.00  0.00     0.065 H 
ATOM    105  H   UNL A   1      42.568  33.713  29.952  1.00  0.00     0.065 H 
ATOM    106  C   UNL A   1      44.795  32.059  29.296  1.00  0.00     0.037 A 
ATOM    107  C   UNL A   1      46.105  26.571  32.569  1.00  0.00     0.049 A 
ATOM    108  C   UNL A   1      45.848  30.997  29.147  1.00  0.00     0.074 A 
ATOM    109  C   UNL A   1      47.075  25.625  32.292  1.00  0.00    -0.036 A 
ATOM    110  N   UNL A   1      46.240  27.573  31.619  1.00  0.00    -0.354 N 
ATOM    111  N   UNL A   1      46.029  29.906  29.851  1.00  0.00    -0.248 NA
ATOM    112  C   UNL A   1      46.826  31.179  28.065  1.00  0.00    -0.034 C 
ATOM    113  C   UNL A   1      47.827  26.076  31.201  1.00  0.00    -0.036 A 
ATOM    114  H   UNL A   1      47.220  24.739  32.801  1.00  0.00     0.065 H 
ATOM    115  C   UNL A   1      47.294  27.280  30.769  1.00  0.00     0.049 A 
ATOM    116  H   UNL A   1      45.669  28.373  31.557  1.00  0.00     0.167 HD
ATOM    117  C   UNL A   1      47.122  29.264  29.289  1.00  0.00     0.074 A 
ATOM    118  C   UNL A   1      47.556  30.078  28.171  1.00  0.00    -0.034 C 
ATOM    119  H   UNL A   1      46.919  31.960  27.396  1.00  0.00     0.065 H 
ATOM    120  H   UNL A   1      48.641  25.593  30.788  1.00  0.00     0.065 H 
ATOM    121  C   UNL A   1      47.715  28.103  29.663  1.00  0.00     0.037 A 
ATOM    122  H   UNL A   1      48.334  29.832  27.541  1.00  0.00     0.065 H 
BRANCH 103 123
ATOM    123  C   UNL A   1      45.182  25.469  34.645  1.00  0.00     0.064 A 
ATOM    124  C   UNL A   1      45.775  25.655  35.902  1.00  0.00     0.173 A 
ATOM    125  C   UNL A   1      44.605  24.220  34.371  1.00  0.00     0.173 A 
ATOM    126  F   UNL A   1      46.349  26.828  36.211  1.00  0.00    -0.203 F 
ATOM    127  C   UNL A   1      45.819  24.622  36.835  1.00  0.00     0.198 A 
ATOM    128  C   UNL A   1      44.624  23.199  35.317  1.00  0.00     0.198 A 
ATOM    129  F   UNL A   1      44.017  23.991  33.187  1.00  0.00    -0.203 F 
ATOM    130  F   UNL A   1      46.438  24.807  38.010  1.00  0.00    -0.200 F 
ATOM    131  C   UNL A   1      45.239  23.397  36.545  1.00  0.00     0.200 A 
ATOM    132  F   UNL A   1      44.051  22.019  35.039  1.00  0.00    -0.200 F 
ATOM    133  F   UNL A   1      45.277  22.405  37.444  1.00  0.00    -0.200 F 
ENDBRANCH 103 123
BRANCH 106 134
ATOM    134  C   UNL A   1      44.773  33.248  28.406  1.00  0.00     0.064 A 
ATOM    135  C   UNL A   1      44.150  33.199  27.152  1.00  0.00     0.173 A 
ATOM    136  C   UNL A   1      45.358  34.461  28.799  1.00  0.00     0.173 A 
ATOM    137  F   UNL A   1      43.594  32.055  26.725  1.00  0.00    -0.203 F 
ATOM    138  C   UNL A   1      44.126  34.314  26.316  1.00  0.00     0.198 A 
ATOM    139  C   UNL A   1      45.310  35.582  27.975  1.00  0.00     0.198 A 
ATOM    140  F   UNL A   1      45.961  34.560  29.993  1.00  0.00    -0.203 F 
ATOM    141  F   UNL A   1      43.556  34.230  25.107  1.00  0.00    -0.200 F 
ATOM    142  C   UNL A   1      44.700  35.507  26.732  1.00  0.00     0.200 A 
ATOM    143  F   UNL A   1      45.851  36.737  28.386  1.00  0.00    -0.200 F 
ATOM    144  F   UNL A   1      44.667  36.582  25.933  1.00  0.00    -0.200 F 
ENDBRANCH 106 134
BRANCH 121 145
ATOM    145  C   UNL A   1      48.884  27.635  28.848  1.00  0.00     0.064 A 
ATOM    146  C   UNL A   1      48.708  26.893  27.672  1.00  0.00     0.173 A 
ATOM    147  C   UNL A   1      50.194  27.968  29.227  1.00  0.00     0.173 A 
ATOM    148  F   UNL A   1      47.477  26.535  27.276  1.00  0.00    -0.203 F 
ATOM    149  C   UNL A   1      49.803  26.481  26.915  1.00  0.00     0.198 A 
ATOM    150  C   UNL A   1      51.284  27.580  28.453  1.00  0.00     0.198 A 
ATOM    151  F   UNL A   1      50.415  28.682  30.341  1.00  0.00    -0.203 F 
ATOM    152  F   UNL A   1      49.614  25.735  25.818  1.00  0.00    -0.200 F 
ATOM    153  C   UNL A   1      51.088  26.832  27.302  1.00  0.00     0.200 A 
ATOM    154  F   UNL A   1      52.524  27.930  28.821  1.00  0.00    -0.200 F 
ATOM    155  F   UNL A   1      52.139  26.442  26.569  1.00  0.00    -0.200 F 
ENDBRANCH 121 145
ENDBRANCH  86  89
ENDBRANCH  76  79
ENDBRANCH  72  75
ENDBRANCH  69  72
ENDBRANCH  66  69
ENDBRANCH  63  66
ENDBRANCH  60  63
ENDBRANCH  57  60
ENDBRANCH   3  57
TORSDOF 25
ENDMDL
MODEL 7
REMARK VINA RESULT:      -8.8      6.120     13.671
REMARK SMILES CCCCCCNC(=O)Oc1cccc(-c2ccc([C@@H](C)C(=O)NCCCCCCNC(=O)c3ccc(-c4c5nc(c(-c6c(F)c(F)c(F)c(F)c6F)c6ccc([nH]6)c(-c6c(F)c(F)c(F)c(F)c6F)c6nc(c(-c7c(F)c(F)c(F)c(F)c7F)c7ccc4[nH]7)C=C6)C=C5)cc3)cc2[N+](=O)[O-])c1
REMARK SMILES IDX 22 1 23 2 24 3 20 5 19 7 16 8 17 9 98 10 18 11 97 13 15 16
REMARK SMILES IDX 11 17 12 18 102 19 13 20 14 23 10 26 8 27 7 28 9 30 6 31
REMARK SMILES IDX 5 34 4 37 3 40 2 43 1 46 99 50 100 51 101 52 21 53 25 57
REMARK SMILES IDX 26 60 27 63 28 66 29 69 30 72 31 75 32 76 33 78 34 79 35 80
REMARK SMILES IDX 96 81 36 82 95 84 37 86 38 89 39 90 89 91 40 92 94 93 88 94
REMARK SMILES IDX 90 95 41 96 93 97 87 99 86 101 42 103 74 106 54 107 73 108
REMARK SMILES IDX 55 109 58 110 72 111 91 112 56 113 57 115 71 117 92 118
REMARK SMILES IDX 59 121 43 123 44 124 52 125 45 126 46 127 50 128 53 129
REMARK SMILES IDX 47 130 48 131 51 132 49 133 75 134 76 135 84 136 77 137
REMARK SMILES IDX 78 138 82 139 85 140 79 141 80 142 83 143 81 144 60 145
REMARK SMILES IDX 61 146 69 147 62 148 63 149 67 150 70 151 64 152 65 153
REMARK SMILES IDX 68 154 66 155
REMARK H PARENT 24 4 20 6 17 12 18 14 97 15 12 21 102 22 13 24 14 25 7 29 6 32
REMARK H PARENT 6 33 5 35 5 36 4 38 4 39 3 41 3 42 2 44 2 45 1 47 1 48 1 49
REMARK H PARENT 21 54 21 55 21 56 25 58 25 59 26 61 26 62 27 64 27 65 28 67
REMARK H PARENT 28 68 29 70 29 71 30 73 30 74 31 77 35 83 96 85 36 87 95 88
REMARK H PARENT 94 98 88 100 90 102 93 104 87 105 55 114 58 116 91 119 56 120
REMARK H PARENT 92 122
REMARK Flexibility Score: inf
ROOT
ATOM      1  C   UNL A   1      33.978  22.068  24.458  1.00  0.00     0.227 C 
ATOM      2  O   UNL A   1      33.370  21.277  25.190  1.00  0.00    -0.274 OA
ATOM      3  N   UNL A   1      35.323  21.888  24.368  1.00  0.00    -0.356 N 
ATOM      4  H   UNL A   1      35.655  21.093  24.844  1.00  0.00     0.163 HD
ENDROOT
BRANCH   1   5
ATOM      5  C   UNL A   1      33.202  23.156  23.699  1.00  0.00     0.060 C 
ATOM      6  H   UNL A   1      32.170  22.922  23.856  1.00  0.00     0.045 H 
BRANCH   5   7
ATOM      7  C   UNL A   1      33.336  24.547  24.302  1.00  0.00    -0.029 A 
ATOM      8  C   UNL A   1      33.394  27.199  25.397  1.00  0.00     0.060 A 
ATOM      9  C   UNL A   1      33.599  26.057  26.192  1.00  0.00    -0.047 A 
ATOM     10  C   UNL A   1      33.244  26.981  24.013  1.00  0.00     0.277 A 
ATOM     11  C   UNL A   1      33.614  24.768  25.651  1.00  0.00    -0.057 A 
ATOM     12  H   UNL A   1      33.743  26.176  27.207  1.00  0.00     0.063 H 
ATOM     13  C   UNL A   1      33.169  25.676  23.484  1.00  0.00     0.021 A 
ATOM     14  H   UNL A   1      33.836  23.966  26.261  1.00  0.00     0.063 H 
ATOM     15  H   UNL A   1      32.988  25.548  22.477  1.00  0.00     0.070 H 
BRANCH   8  16
ATOM     16  C   UNL A   1      33.304  28.519  26.059  1.00  0.00    -0.008 A 
ATOM     17  C   UNL A   1      34.346  30.480  27.045  1.00  0.00     0.133 A 
ATOM     18  C   UNL A   1      33.103  31.054  27.299  1.00  0.00    -0.019 A 
ATOM     19  C   UNL A   1      34.457  29.237  26.421  1.00  0.00    -0.011 A 
ATOM     20  C   UNL A   1      31.953  30.373  26.920  1.00  0.00    -0.058 A 
ATOM     21  H   UNL A   1      33.038  31.974  27.763  1.00  0.00     0.066 H 
ATOM     22  H   UNL A   1      35.390  28.841  26.225  1.00  0.00     0.067 H 
ATOM     23  C   UNL A   1      32.053  29.115  26.318  1.00  0.00    -0.054 A 
ATOM     24  H   UNL A   1      31.025  30.796  27.082  1.00  0.00     0.062 H 
ATOM     25  H   UNL A   1      31.191  28.611  26.057  1.00  0.00     0.063 H 
BRANCH  17  26
ATOM     26  O   UNL A   1      35.465  31.132  27.591  1.00  0.00    -0.410 OA
BRANCH  26  27
ATOM     27  C   UNL A   1      35.699  31.058  28.955  1.00  0.00     0.412 C 
ATOM     28  N   UNL A   1      36.783  30.281  29.265  1.00  0.00    -0.321 N 
ATOM     29  H   UNL A   1      36.982  30.165  30.222  1.00  0.00     0.167 HD
ATOM     30  O   UNL A   1      35.037  31.603  29.829  1.00  0.00    -0.224 OA
BRANCH  28  31
ATOM     31  C   UNL A   1      37.666  29.613  28.330  1.00  0.00     0.021 C 
ATOM     32  H   UNL A   1      37.447  28.566  28.337  1.00  0.00     0.049 H 
ATOM     33  H   UNL A   1      37.502  30.038  27.361  1.00  0.00     0.049 H 
BRANCH  31  34
ATOM     34  C   UNL A   1      39.140  29.812  28.687  1.00  0.00    -0.036 C 
ATOM     35  H   UNL A   1      39.610  30.332  27.879  1.00  0.00     0.028 H 
ATOM     36  H   UNL A   1      39.153  30.357  29.608  1.00  0.00     0.028 H 
BRANCH  34  37
ATOM     37  C   UNL A   1      39.922  28.518  28.941  1.00  0.00    -0.052 C 
ATOM     38  H   UNL A   1      40.302  28.553  29.941  1.00  0.00     0.027 H 
ATOM     39  H   UNL A   1      39.231  27.718  28.770  1.00  0.00     0.027 H 
BRANCH  37  40
ATOM     40  C   UNL A   1      41.102  28.263  27.997  1.00  0.00    -0.054 C 
ATOM     41  H   UNL A   1      41.714  29.140  27.989  1.00  0.00     0.027 H 
ATOM     42  H   UNL A   1      41.600  27.394  28.376  1.00  0.00     0.027 H 
BRANCH  40  43
ATOM     43  C   UNL A   1      40.727  27.936  26.550  1.00  0.00    -0.056 C 
ATOM     44  H   UNL A   1      40.887  26.891  26.386  1.00  0.00     0.026 H 
ATOM     45  H   UNL A   1      39.702  28.213  26.417  1.00  0.00     0.026 H 
BRANCH  43  46
ATOM     46  C   UNL A   1      41.539  28.715  25.528  1.00  0.00    -0.065 C 
ATOM     47  H   UNL A   1      41.326  29.759  25.624  1.00  0.00     0.023 H 
ATOM     48  H   UNL A   1      41.281  28.388  24.542  1.00  0.00     0.023 H 
ATOM     49  H   UNL A   1      42.583  28.547  25.697  1.00  0.00     0.023 H 
ENDBRANCH  43  46
ENDBRANCH  40  43
ENDBRANCH  37  40
ENDBRANCH  34  37
ENDBRANCH  31  34
ENDBRANCH  28  31
ENDBRANCH  26  27
ENDBRANCH  17  26
ENDBRANCH   8  16
BRANCH  10  50
ATOM     50  N   UNL A   1      33.221  28.080  23.073  1.00  0.00     0.063 N 
ATOM     51  O   UNL A   1      32.206  28.719  22.892  1.00  0.00    -0.258 OA
ATOM     52  O   UNL A   1      34.296  28.342  22.257  1.00  0.00    -0.258 OA
ENDBRANCH  10  50
ENDBRANCH   5   7
BRANCH   5  53
ATOM     53  C   UNL A   1      33.342  23.079  22.179  1.00  0.00    -0.049 C 
ATOM     54  H   UNL A   1      34.025  22.295  21.923  1.00  0.00     0.024 H 
ATOM     55  H   UNL A   1      33.713  24.011  21.807  1.00  0.00     0.024 H 
ATOM     56  H   UNL A   1      32.386  22.875  21.742  1.00  0.00     0.024 H 
ENDBRANCH   5  53
ENDBRANCH   1   5
BRANCH   3  57
ATOM     57  C   UNL A   1      36.358  22.649  23.702  1.00  0.00     0.017 C 
ATOM     58  H   UNL A   1      35.956  23.070  22.804  1.00  0.00     0.049 H 
ATOM     59  H   UNL A   1      37.170  21.989  23.483  1.00  0.00     0.049 H 
BRANCH  57  60
ATOM     60  C   UNL A   1      36.886  23.781  24.587  1.00  0.00    -0.036 C 
ATOM     61  H   UNL A   1      36.118  24.520  24.682  1.00  0.00     0.028 H 
ATOM     62  H   UNL A   1      37.767  24.162  24.113  1.00  0.00     0.028 H 
BRANCH  60  63
ATOM     63  C   UNL A   1      37.297  23.329  25.992  1.00  0.00    -0.052 C 
ATOM     64  H   UNL A   1      37.041  22.295  26.095  1.00  0.00     0.027 H 
ATOM     65  H   UNL A   1      36.777  23.967  26.674  1.00  0.00     0.027 H 
BRANCH  63  66
ATOM     66  C   UNL A   1      38.790  23.483  26.315  1.00  0.00    -0.052 C 
ATOM     67  H   UNL A   1      39.295  23.754  25.412  1.00  0.00     0.027 H 
ATOM     68  H   UNL A   1      39.100  22.542  26.719  1.00  0.00     0.027 H 
BRANCH  66  69
ATOM     69  C   UNL A   1      39.131  24.531  27.379  1.00  0.00    -0.036 C 
ATOM     70  H   UNL A   1      38.637  24.256  28.288  1.00  0.00     0.028 H 
ATOM     71  H   UNL A   1      38.806  25.473  26.989  1.00  0.00     0.028 H 
BRANCH  69  72
ATOM     72  C   UNL A   1      40.621  24.681  27.675  1.00  0.00     0.018 C 
ATOM     73  H   UNL A   1      40.760  24.743  28.735  1.00  0.00     0.049 H 
ATOM     74  H   UNL A   1      40.968  25.569  27.188  1.00  0.00     0.049 H 
BRANCH  72  75
ATOM     75  N   UNL A   1      41.390  23.556  27.166  1.00  0.00    -0.352 N 
ATOM     76  C   UNL A   1      42.608  23.537  26.533  1.00  0.00     0.251 C 
ATOM     77  H   UNL A   1      40.973  22.674  27.293  1.00  0.00     0.163 HD
ATOM     78  O   UNL A   1      42.994  22.517  25.972  1.00  0.00    -0.269 OA
BRANCH  76  79
ATOM     79  C   UNL A   1      43.459  24.746  26.518  1.00  0.00     0.039 A 
ATOM     80  C   UNL A   1      44.094  25.140  27.699  1.00  0.00    -0.049 A 
ATOM     81  C   UNL A   1      43.599  25.513  25.358  1.00  0.00    -0.049 A 
ATOM     82  C   UNL A   1      44.912  26.273  27.703  1.00  0.00    -0.053 A 
ATOM     83  H   UNL A   1      43.959  24.596  28.566  1.00  0.00     0.063 H 
ATOM     84  C   UNL A   1      44.465  26.603  25.346  1.00  0.00    -0.053 A 
ATOM     85  H   UNL A   1      43.062  25.272  24.510  1.00  0.00     0.063 H 
ATOM     86  C   UNL A   1      45.126  26.997  26.521  1.00  0.00    -0.014 A 
ATOM     87  H   UNL A   1      45.360  26.578  28.581  1.00  0.00     0.063 H 
ATOM     88  H   UNL A   1      44.621  27.126  24.470  1.00  0.00     0.063 H 
BRANCH  86  89
ATOM     89  C   UNL A   1      46.039  28.167  26.490  1.00  0.00     0.031 A 
ATOM     90  C   UNL A   1      47.513  27.973  26.266  1.00  0.00     0.074 A 
ATOM     91  C   UNL A   1      45.551  29.397  26.739  1.00  0.00     0.049 A 
ATOM     92  N   UNL A   1      48.477  28.859  26.280  1.00  0.00    -0.248 NA
ATOM     93  C   UNL A   1      47.967  26.595  26.024  1.00  0.00    -0.034 C 
ATOM     94  C   UNL A   1      44.150  29.705  27.027  1.00  0.00    -0.036 A 
ATOM     95  N   UNL A   1      46.182  30.613  26.810  1.00  0.00    -0.354 N 
ATOM     96  C   UNL A   1      49.649  28.144  26.070  1.00  0.00     0.074 A 
ATOM     97  C   UNL A   1      49.283  26.749  25.977  1.00  0.00    -0.034 C 
ATOM     98  H   UNL A   1      47.408  25.735  25.917  1.00  0.00     0.065 H 
ATOM     99  C   UNL A   1      44.025  31.025  27.235  1.00  0.00    -0.036 A 
ATOM    100  H   UNL A   1      43.381  29.017  27.065  1.00  0.00     0.065 H 
ATOM    101  C   UNL A   1      45.339  31.651  27.126  1.00  0.00     0.049 A 
ATOM    102  H   UNL A   1      47.145  30.732  26.648  1.00  0.00     0.167 HD
ATOM    103  C   UNL A   1      50.914  28.615  25.949  1.00  0.00     0.037 A 
ATOM    104  H   UNL A   1      49.957  25.972  25.886  1.00  0.00     0.065 H 
ATOM    105  H   UNL A   1      43.142  31.519  27.439  1.00  0.00     0.065 H 
ATOM    106  C   UNL A   1      45.599  32.957  27.319  1.00  0.00     0.037 A 
ATOM    107  C   UNL A   1      51.269  30.009  26.010  1.00  0.00     0.049 A 
ATOM    108  C   UNL A   1      47.007  33.458  27.155  1.00  0.00     0.074 A 
ATOM    109  C   UNL A   1      52.507  30.593  25.813  1.00  0.00    -0.036 A 
ATOM    110  N   UNL A   1      50.382  31.037  26.297  1.00  0.00    -0.354 N 
ATOM    111  N   UNL A   1      48.097  32.786  26.874  1.00  0.00    -0.248 NA
ATOM    112  C   UNL A   1      47.222  34.902  27.325  1.00  0.00    -0.034 C 
ATOM    113  C   UNL A   1      52.380  31.970  26.025  1.00  0.00    -0.036 A 
ATOM    114  H   UNL A   1      53.375  30.100  25.554  1.00  0.00     0.065 H 
ATOM    115  C   UNL A   1      51.052  32.250  26.307  1.00  0.00     0.049 A 
ATOM    116  H   UNL A   1      49.419  30.922  26.466  1.00  0.00     0.167 HD
ATOM    117  C   UNL A   1      49.120  33.722  26.813  1.00  0.00     0.074 A 
ATOM    118  C   UNL A   1      48.518  35.015  27.070  1.00  0.00    -0.034 C 
ATOM    119  H   UNL A   1      46.541  35.637  27.576  1.00  0.00     0.065 H 
ATOM    120  H   UNL A   1      53.145  32.662  25.980  1.00  0.00     0.065 H 
ATOM    121  C   UNL A   1      50.439  33.528  26.567  1.00  0.00     0.037 A 
ATOM    122  H   UNL A   1      49.033  35.908  27.056  1.00  0.00     0.065 H 
BRANCH 103 123
ATOM    123  C   UNL A   1      52.010  27.611  25.738  1.00  0.00     0.064 A 
ATOM    124  C   UNL A   1      52.438  27.243  24.454  1.00  0.00     0.173 A 
ATOM    125  C   UNL A   1      52.662  27.031  26.837  1.00  0.00     0.173 A 
ATOM    126  F   UNL A   1      51.842  27.762  23.369  1.00  0.00    -0.203 F 
ATOM    127  C   UNL A   1      53.455  26.309  24.277  1.00  0.00     0.198 A 
ATOM    128  C   UNL A   1      53.699  26.119  26.657  1.00  0.00     0.198 A 
ATOM    129  F   UNL A   1      52.298  27.352  28.088  1.00  0.00    -0.203 F 
ATOM    130  F   UNL A   1      53.811  25.934  23.040  1.00  0.00    -0.200 F 
ATOM    131  C   UNL A   1      54.089  25.752  25.377  1.00  0.00     0.200 A 
ATOM    132  F   UNL A   1      54.319  25.592  27.722  1.00  0.00    -0.200 F 
ATOM    133  F   UNL A   1      55.070  24.856  25.206  1.00  0.00    -0.200 F 
ENDBRANCH 103 123
BRANCH 106 134
ATOM    134  C   UNL A   1      44.492  33.884  27.668  1.00  0.00     0.064 A 
ATOM    135  C   UNL A   1      43.874  34.671  26.688  1.00  0.00     0.173 A 
ATOM    136  C   UNL A   1      44.017  33.985  28.984  1.00  0.00     0.173 A 
ATOM    137  F   UNL A   1      44.308  34.622  25.420  1.00  0.00    -0.203 F 
ATOM    138  C   UNL A   1      42.834  35.539  27.013  1.00  0.00     0.198 A 
ATOM    139  C   UNL A   1      42.959  34.833  29.303  1.00  0.00     0.198 A 
ATOM    140  F   UNL A   1      44.571  33.247  29.957  1.00  0.00    -0.203 F 
ATOM    141  F   UNL A   1      42.285  36.308  26.063  1.00  0.00    -0.200 F 
ATOM    142  C   UNL A   1      42.372  35.614  28.319  1.00  0.00     0.200 A 
ATOM    143  F   UNL A   1      42.505  34.890  30.563  1.00  0.00    -0.200 F 
ATOM    144  F   UNL A   1      41.364  36.440  28.629  1.00  0.00    -0.200 F 
ENDBRANCH 106 134
BRANCH 121 145
ATOM    145  C   UNL A   1      51.318  34.744  26.545  1.00  0.00     0.064 A 
ATOM    146  C   UNL A   1      51.490  35.504  25.380  1.00  0.00     0.173 A 
ATOM    147  C   UNL A   1      51.964  35.175  27.714  1.00  0.00     0.173 A 
ATOM    148  F   UNL A   1      50.908  35.123  24.233  1.00  0.00    -0.203 F 
ATOM    149  C   UNL A   1      52.295  36.641  25.379  1.00  0.00     0.198 A 
ATOM    150  C   UNL A   1      52.744  36.328  27.717  1.00  0.00     0.198 A 
ATOM    151  F   UNL A   1      51.827  34.486  28.857  1.00  0.00    -0.203 F 
ATOM    152  F   UNL A   1      52.481  37.327  24.243  1.00  0.00    -0.200 F 
ATOM    153  C   UNL A   1      52.914  37.055  26.549  1.00  0.00     0.200 A 
ATOM    154  F   UNL A   1      53.332  36.735  28.850  1.00  0.00    -0.200 F 
ATOM    155  F   UNL A   1      53.682  38.153  26.548  1.00  0.00    -0.200 F 
ENDBRANCH 121 145
ENDBRANCH  86  89
ENDBRANCH  76  79
ENDBRANCH  72  75
ENDBRANCH  69  72
ENDBRANCH  66  69
ENDBRANCH  63  66
ENDBRANCH  60  63
ENDBRANCH  57  60
ENDBRANCH   3  57
TORSDOF 25
ENDMDL
MODEL 8
REMARK VINA RESULT:      -8.7      5.996     11.300
REMARK SMILES CCCCCCNC(=O)Oc1cccc(-c2ccc([C@@H](C)C(=O)NCCCCCCNC(=O)c3ccc(-c4c5nc(c(-c6c(F)c(F)c(F)c(F)c6F)c6ccc([nH]6)c(-c6c(F)c(F)c(F)c(F)c6F)c6nc(c(-c7c(F)c(F)c(F)c(F)c7F)c7ccc4[nH]7)C=C6)C=C5)cc3)cc2[N+](=O)[O-])c1
REMARK SMILES IDX 22 1 23 2 24 3 20 5 19 7 16 8 17 9 98 10 18 11 97 13 15 16
REMARK SMILES IDX 11 17 12 18 102 19 13 20 14 23 10 26 8 27 7 28 9 30 6 31
REMARK SMILES IDX 5 34 4 37 3 40 2 43 1 46 99 50 100 51 101 52 21 53 25 57
REMARK SMILES IDX 26 60 27 63 28 66 29 69 30 72 31 75 32 76 33 78 34 79 35 80
REMARK SMILES IDX 96 81 36 82 95 84 37 86 38 89 39 90 89 91 40 92 94 93 88 94
REMARK SMILES IDX 90 95 41 96 93 97 87 99 86 101 42 103 74 106 54 107 73 108
REMARK SMILES IDX 55 109 58 110 72 111 91 112 56 113 57 115 71 117 92 118
REMARK SMILES IDX 59 121 43 123 44 124 52 125 45 126 46 127 50 128 53 129
REMARK SMILES IDX 47 130 48 131 51 132 49 133 75 134 76 135 84 136 77 137
REMARK SMILES IDX 78 138 82 139 85 140 79 141 80 142 83 143 81 144 60 145
REMARK SMILES IDX 61 146 69 147 62 148 63 149 67 150 70 151 64 152 65 153
REMARK SMILES IDX 68 154 66 155
REMARK H PARENT 24 4 20 6 17 12 18 14 97 15 12 21 102 22 13 24 14 25 7 29 6 32
REMARK H PARENT 6 33 5 35 5 36 4 38 4 39 3 41 3 42 2 44 2 45 1 47 1 48 1 49
REMARK H PARENT 21 54 21 55 21 56 25 58 25 59 26 61 26 62 27 64 27 65 28 67
REMARK H PARENT 28 68 29 70 29 71 30 73 30 74 31 77 35 83 96 85 36 87 95 88
REMARK H PARENT 94 98 88 100 90 102 93 104 87 105 55 114 58 116 91 119 56 120
REMARK H PARENT 92 122
REMARK Flexibility Score: inf
ROOT
ATOM      1  C   UNL A   1      32.137  28.903  27.044  1.00  0.00     0.227 C 
ATOM      2  O   UNL A   1      31.392  28.253  27.790  1.00  0.00    -0.274 OA
ATOM      3  N   UNL A   1      33.047  29.705  27.658  1.00  0.00    -0.356 N 
ATOM      4  H   UNL A   1      33.059  29.621  28.639  1.00  0.00     0.163 HD
ENDROOT
BRANCH   1   5
ATOM      5  C   UNL A   1      32.011  28.752  25.519  1.00  0.00     0.060 C 
ATOM      6  H   UNL A   1      32.935  29.120  25.128  1.00  0.00     0.045 H 
BRANCH   5   7
ATOM      7  C   UNL A   1      31.983  27.308  25.040  1.00  0.00    -0.029 A 
ATOM      8  C   UNL A   1      32.115  24.562  24.217  1.00  0.00     0.060 A 
ATOM      9  C   UNL A   1      31.178  25.015  25.163  1.00  0.00    -0.047 A 
ATOM     10  C   UNL A   1      32.933  25.544  23.625  1.00  0.00     0.277 A 
ATOM     11  C   UNL A   1      31.085  26.360  25.531  1.00  0.00    -0.057 A 
ATOM     12  H   UNL A   1      30.539  24.331  25.599  1.00  0.00     0.063 H 
ATOM     13  C   UNL A   1      32.899  26.884  24.065  1.00  0.00     0.021 A 
ATOM     14  H   UNL A   1      30.338  26.657  26.179  1.00  0.00     0.063 H 
ATOM     15  H   UNL A   1      33.560  27.566  23.661  1.00  0.00     0.070 H 
BRANCH   8  16
ATOM     16  C   UNL A   1      32.209  23.111  23.948  1.00  0.00    -0.008 A 
ATOM     17  C   UNL A   1      32.832  20.858  24.615  1.00  0.00     0.133 A 
ATOM     18  C   UNL A   1      32.350  20.335  23.419  1.00  0.00    -0.019 A 
ATOM     19  C   UNL A   1      32.754  22.224  24.892  1.00  0.00    -0.011 A 
ATOM     20  C   UNL A   1      31.779  21.191  22.486  1.00  0.00    -0.058 A 
ATOM     21  H   UNL A   1      32.417  19.323  23.228  1.00  0.00     0.066 H 
ATOM     22  H   UNL A   1      33.101  22.587  25.795  1.00  0.00     0.067 H 
ATOM     23  C   UNL A   1      31.721  22.565  22.744  1.00  0.00    -0.054 A 
ATOM     24  H   UNL A   1      31.398  20.814  21.604  1.00  0.00     0.062 H 
ATOM     25  H   UNL A   1      31.310  23.193  22.035  1.00  0.00     0.063 H 
BRANCH  17  26
ATOM     26  O   UNL A   1      33.542  19.978  25.449  1.00  0.00    -0.410 OA
BRANCH  26  27
ATOM     27  C   UNL A   1      34.546  19.188  24.910  1.00  0.00     0.412 C 
ATOM     28  N   UNL A   1      35.782  19.769  25.000  1.00  0.00    -0.321 N 
ATOM     29  H   UNL A   1      36.533  19.270  24.606  1.00  0.00     0.167 HD
ATOM     30  O   UNL A   1      34.396  18.088  24.394  1.00  0.00    -0.224 OA
BRANCH  28  31
ATOM     31  C   UNL A   1      36.098  21.044  25.614  1.00  0.00     0.021 C 
ATOM     32  H   UNL A   1      35.244  21.384  26.162  1.00  0.00     0.049 H 
ATOM     33  H   UNL A   1      36.940  20.899  26.260  1.00  0.00     0.049 H 
BRANCH  31  34
ATOM     34  C   UNL A   1      36.476  22.104  24.580  1.00  0.00    -0.036 C 
ATOM     35  H   UNL A   1      37.215  21.686  23.929  1.00  0.00     0.028 H 
ATOM     36  H   UNL A   1      35.569  22.368  24.077  1.00  0.00     0.028 H 
BRANCH  34  37
ATOM     37  C   UNL A   1      37.038  23.405  25.165  1.00  0.00    -0.052 C 
ATOM     38  H   UNL A   1      37.358  24.021  24.351  1.00  0.00     0.027 H 
ATOM     39  H   UNL A   1      36.245  23.833  25.743  1.00  0.00     0.027 H 
BRANCH  37  40
ATOM     40  C   UNL A   1      38.219  23.242  26.127  1.00  0.00    -0.054 C 
ATOM     41  H   UNL A   1      37.850  22.805  27.031  1.00  0.00     0.027 H 
ATOM     42  H   UNL A   1      38.934  22.632  25.615  1.00  0.00     0.027 H 
BRANCH  40  43
ATOM     43  C   UNL A   1      38.953  24.535  26.492  1.00  0.00    -0.056 C 
ATOM     44  H   UNL A   1      39.868  24.573  25.939  1.00  0.00     0.026 H 
ATOM     45  H   UNL A   1      38.301  25.348  26.252  1.00  0.00     0.026 H 
BRANCH  43  46
ATOM     46  C   UNL A   1      39.279  24.643  27.973  1.00  0.00    -0.065 C 
ATOM     47  H   UNL A   1      39.620  25.633  28.192  1.00  0.00     0.023 H 
ATOM     48  H   UNL A   1      40.046  23.939  28.222  1.00  0.00     0.023 H 
ATOM     49  H   UNL A   1      38.402  24.433  28.549  1.00  0.00     0.023 H 
ENDBRANCH  43  46
ENDBRANCH  40  43
ENDBRANCH  37  40
ENDBRANCH  34  37
ENDBRANCH  31  34
ENDBRANCH  28  31
ENDBRANCH  26  27
ENDBRANCH  17  26
ENDBRANCH   8  16
BRANCH  10  50
ATOM     50  N   UNL A   1      33.795  25.236  22.505  1.00  0.00     0.063 N 
ATOM     51  O   UNL A   1      34.749  24.499  22.643  1.00  0.00    -0.258 OA
ATOM     52  O   UNL A   1      33.649  25.874  21.296  1.00  0.00    -0.258 OA
ENDBRANCH  10  50
ENDBRANCH   5   7
BRANCH   5  53
ATOM     53  C   UNL A   1      30.975  29.679  24.884  1.00  0.00    -0.049 C 
ATOM     54  H   UNL A   1      30.212  29.905  25.599  1.00  0.00     0.024 H 
ATOM     55  H   UNL A   1      30.538  29.197  24.035  1.00  0.00     0.024 H 
ATOM     56  H   UNL A   1      31.452  30.586  24.573  1.00  0.00     0.024 H 
ENDBRANCH   5  53
ENDBRANCH   1   5
BRANCH   3  57
ATOM     57  C   UNL A   1      34.001  30.660  27.138  1.00  0.00     0.017 C 
ATOM     58  H   UNL A   1      33.601  31.099  26.246  1.00  0.00     0.049 H 
ATOM     59  H   UNL A   1      34.914  30.143  26.932  1.00  0.00     0.049 H 
BRANCH  57  60
ATOM     60  C   UNL A   1      34.297  31.772  28.148  1.00  0.00    -0.036 C 
ATOM     61  H   UNL A   1      33.442  31.888  28.781  1.00  0.00     0.028 H 
ATOM     62  H   UNL A   1      34.514  32.655  27.584  1.00  0.00     0.028 H 
BRANCH  60  63
ATOM     63  C   UNL A   1      35.519  31.497  29.031  1.00  0.00    -0.052 C 
ATOM     64  H   UNL A   1      36.329  31.208  28.395  1.00  0.00     0.027 H 
ATOM     65  H   UNL A   1      35.223  30.734  29.719  1.00  0.00     0.027 H 
BRANCH  63  66
ATOM     66  C   UNL A   1      35.986  32.684  29.884  1.00  0.00    -0.052 C 
ATOM     67  H   UNL A   1      35.760  33.583  29.349  1.00  0.00     0.027 H 
ATOM     68  H   UNL A   1      37.031  32.531  30.051  1.00  0.00     0.027 H 
BRANCH  66  69
ATOM     69  C   UNL A   1      35.348  32.790  31.274  1.00  0.00    -0.036 C 
ATOM     70  H   UNL A   1      34.533  32.099  31.319  1.00  0.00     0.028 H 
ATOM     71  H   UNL A   1      35.046  33.810  31.389  1.00  0.00     0.028 H 
BRANCH  69  72
ATOM     72  C   UNL A   1      36.293  32.489  32.435  1.00  0.00     0.018 C 
ATOM     73  H   UNL A   1      35.937  32.991  33.311  1.00  0.00     0.049 H 
ATOM     74  H   UNL A   1      37.270  32.831  32.165  1.00  0.00     0.049 H 
BRANCH  72  75
ATOM     75  N   UNL A   1      36.374  31.063  32.711  1.00  0.00    -0.352 N 
ATOM     76  C   UNL A   1      37.339  30.152  32.360  1.00  0.00     0.251 C 
ATOM     77  H   UNL A   1      35.622  30.695  33.228  1.00  0.00     0.163 HD
ATOM     78  O   UNL A   1      37.125  28.950  32.485  1.00  0.00    -0.269 OA
BRANCH  76  79
ATOM     79  C   UNL A   1      38.638  30.610  31.824  1.00  0.00     0.039 A 
ATOM     80  C   UNL A   1      38.850  30.570  30.443  1.00  0.00    -0.049 A 
ATOM     81  C   UNL A   1      39.659  31.036  32.677  1.00  0.00    -0.049 A 
ATOM     82  C   UNL A   1      40.066  31.009  29.913  1.00  0.00    -0.053 A 
ATOM     83  H   UNL A   1      38.110  30.218  29.815  1.00  0.00     0.063 H 
ATOM     84  C   UNL A   1      40.846  31.534  32.145  1.00  0.00    -0.053 A 
ATOM     85  H   UNL A   1      39.535  30.983  33.700  1.00  0.00     0.063 H 
ATOM     86  C   UNL A   1      41.063  31.520  30.758  1.00  0.00    -0.014 A 
ATOM     87  H   UNL A   1      40.231  30.957  28.896  1.00  0.00     0.063 H 
ATOM     88  H   UNL A   1      41.571  31.914  32.774  1.00  0.00     0.063 H 
BRANCH  86  89
ATOM     89  C   UNL A   1      42.338  32.049  30.211  1.00  0.00     0.031 A 
ATOM     90  C   UNL A   1      42.438  33.483  29.773  1.00  0.00     0.074 A 
ATOM     91  C   UNL A   1      43.382  31.216  30.040  1.00  0.00     0.049 A 
ATOM     92  N   UNL A   1      43.439  34.107  29.204  1.00  0.00    -0.248 NA
ATOM     93  C   UNL A   1      41.246  34.319  29.975  1.00  0.00    -0.034 C 
ATOM     94  C   UNL A   1      43.387  29.791  30.373  1.00  0.00    -0.036 A 
ATOM     95  N   UNL A   1      44.633  31.443  29.524  1.00  0.00    -0.354 N 
ATOM     96  C   UNL A   1      42.989  35.398  28.961  1.00  0.00     0.074 A 
ATOM     97  C   UNL A   1      41.614  35.457  29.403  1.00  0.00    -0.034 C 
ATOM     98  H   UNL A   1      40.356  34.083  30.441  1.00  0.00     0.065 H 
ATOM     99  C   UNL A   1      44.585  29.272  30.061  1.00  0.00    -0.036 A 
ATOM    100  H   UNL A   1      42.596  29.268  30.781  1.00  0.00     0.065 H 
ATOM    101  C   UNL A   1      45.420  30.318  29.478  1.00  0.00     0.049 A 
ATOM    102  H   UNL A   1      44.938  32.326  29.216  1.00  0.00     0.167 HD
ATOM    103  C   UNL A   1      43.671  36.444  28.434  1.00  0.00     0.037 A 
ATOM    104  H   UNL A   1      40.997  36.278  29.289  1.00  0.00     0.065 H 
ATOM    105  H   UNL A   1      44.871  28.292  30.210  1.00  0.00     0.065 H 
ATOM    106  C   UNL A   1      46.670  30.147  29.009  1.00  0.00     0.037 A 
ATOM    107  C   UNL A   1      45.050  36.389  28.026  1.00  0.00     0.049 A 
ATOM    108  C   UNL A   1      47.413  31.329  28.450  1.00  0.00     0.074 A 
ATOM    109  C   UNL A   1      45.854  37.414  27.561  1.00  0.00    -0.036 A 
ATOM    110  N   UNL A   1      45.829  35.240  28.028  1.00  0.00    -0.354 N 
ATOM    111  N   UNL A   1      47.008  32.566  28.302  1.00  0.00    -0.248 NA
ATOM    112  C   UNL A   1      48.793  31.094  28.003  1.00  0.00    -0.034 C 
ATOM    113  C   UNL A   1      47.105  36.877  27.239  1.00  0.00    -0.036 A 
ATOM    114  H   UNL A   1      45.579  38.405  27.468  1.00  0.00     0.065 H 
ATOM    115  C   UNL A   1      47.096  35.526  27.548  1.00  0.00     0.049 A 
ATOM    116  H   UNL A   1      45.525  34.353  28.327  1.00  0.00     0.167 HD
ATOM    117  C   UNL A   1      48.082  33.260  27.765  1.00  0.00     0.074 A 
ATOM    118  C   UNL A   1      49.167  32.309  27.629  1.00  0.00    -0.034 C 
ATOM    119  H   UNL A   1      49.331  30.212  27.984  1.00  0.00     0.065 H 
ATOM    120  H   UNL A   1      47.901  37.399  26.838  1.00  0.00     0.065 H 
ATOM    121  C   UNL A   1      48.164  34.568  27.416  1.00  0.00     0.037 A 
ATOM    122  H   UNL A   1      50.109  32.548  27.285  1.00  0.00     0.065 H 
BRANCH 103 123
ATOM    123  C   UNL A   1      42.931  37.740  28.267  1.00  0.00     0.064 A 
ATOM    124  C   UNL A   1      42.970  38.744  29.245  1.00  0.00     0.173 A 
ATOM    125  C   UNL A   1      42.197  37.993  27.097  1.00  0.00     0.173 A 
ATOM    126  F   UNL A   1      43.650  38.549  30.386  1.00  0.00    -0.203 F 
ATOM    127  C   UNL A   1      42.277  39.940  29.075  1.00  0.00     0.198 A 
ATOM    128  C   UNL A   1      41.530  39.201  26.917  1.00  0.00     0.198 A 
ATOM    129  F   UNL A   1      42.132  37.070  26.126  1.00  0.00    -0.203 F 
ATOM    130  F   UNL A   1      42.286  40.863  30.047  1.00  0.00    -0.200 F 
ATOM    131  C   UNL A   1      41.562  40.170  27.910  1.00  0.00     0.200 A 
ATOM    132  F   UNL A   1      40.850  39.428  25.784  1.00  0.00    -0.200 F 
ATOM    133  F   UNL A   1      40.898  41.322  27.745  1.00  0.00    -0.200 F 
ENDBRANCH 103 123
BRANCH 106 134
ATOM    134  C   UNL A   1      47.301  28.804  29.069  1.00  0.00     0.064 A 
ATOM    135  C   UNL A   1      47.193  27.907  27.999  1.00  0.00     0.173 A 
ATOM    136  C   UNL A   1      48.040  28.398  30.191  1.00  0.00     0.173 A 
ATOM    137  F   UNL A   1      46.480  28.244  26.913  1.00  0.00    -0.203 F 
ATOM    138  C   UNL A   1      47.786  26.648  28.052  1.00  0.00     0.198 A 
ATOM    139  C   UNL A   1      48.655  27.150  30.232  1.00  0.00     0.198 A 
ATOM    140  F   UNL A   1      48.178  29.223  31.239  1.00  0.00    -0.203 F 
ATOM    141  F   UNL A   1      47.637  25.795  27.030  1.00  0.00    -0.200 F 
ATOM    142  C   UNL A   1      48.523  26.272  29.167  1.00  0.00     0.200 A 
ATOM    143  F   UNL A   1      49.379  26.797  31.303  1.00  0.00    -0.200 F 
ATOM    144  F   UNL A   1      49.103  25.066  29.213  1.00  0.00    -0.200 F 
ENDBRANCH 106 134
BRANCH 121 145
ATOM    145  C   UNL A   1      49.475  35.052  26.870  1.00  0.00     0.064 A 
ATOM    146  C   UNL A   1      49.671  35.249  25.496  1.00  0.00     0.173 A 
ATOM    147  C   UNL A   1      50.535  35.361  27.738  1.00  0.00     0.173 A 
ATOM    148  F   UNL A   1      48.695  34.953  24.626  1.00  0.00    -0.203 F 
ATOM    149  C   UNL A   1      50.888  35.717  25.007  1.00  0.00     0.198 A 
ATOM    150  C   UNL A   1      51.740  35.855  27.248  1.00  0.00     0.198 A 
ATOM    151  F   UNL A   1      50.396  35.195  29.062  1.00  0.00    -0.203 F 
ATOM    152  F   UNL A   1      51.069  35.855  23.686  1.00  0.00    -0.200 F 
ATOM    153  C   UNL A   1      51.918  36.026  25.884  1.00  0.00     0.200 A 
ATOM    154  F   UNL A   1      52.730  36.165  28.096  1.00  0.00    -0.200 F 
ATOM    155  F   UNL A   1      53.086  36.483  25.411  1.00  0.00    -0.200 F 
ENDBRANCH 121 145
ENDBRANCH  86  89
ENDBRANCH  76  79
ENDBRANCH  72  75
ENDBRANCH  69  72
ENDBRANCH  66  69
ENDBRANCH  63  66
ENDBRANCH  60  63
ENDBRANCH  57  60
ENDBRANCH   3  57
TORSDOF 25
ENDMDL
MODEL 9
REMARK VINA RESULT:      -8.7      4.393     10.238
REMARK SMILES CCCCCCNC(=O)Oc1cccc(-c2ccc([C@@H](C)C(=O)NCCCCCCNC(=O)c3ccc(-c4c5nc(c(-c6c(F)c(F)c(F)c(F)c6F)c6ccc([nH]6)c(-c6c(F)c(F)c(F)c(F)c6F)c6nc(c(-c7c(F)c(F)c(F)c(F)c7F)c7ccc4[nH]7)C=C6)C=C5)cc3)cc2[N+](=O)[O-])c1
REMARK SMILES IDX 22 1 23 2 24 3 20 5 19 7 16 8 17 9 98 10 18 11 97 13 15 16
REMARK SMILES IDX 11 17 12 18 102 19 13 20 14 23 10 26 8 27 7 28 9 30 6 31
REMARK SMILES IDX 5 34 4 37 3 40 2 43 1 46 99 50 100 51 101 52 21 53 25 57
REMARK SMILES IDX 26 60 27 63 28 66 29 69 30 72 31 75 32 76 33 78 34 79 35 80
REMARK SMILES IDX 96 81 36 82 95 84 37 86 38 89 39 90 89 91 40 92 94 93 88 94
REMARK SMILES IDX 90 95 41 96 93 97 87 99 86 101 42 103 74 106 54 107 73 108
REMARK SMILES IDX 55 109 58 110 72 111 91 112 56 113 57 115 71 117 92 118
REMARK SMILES IDX 59 121 43 123 44 124 52 125 45 126 46 127 50 128 53 129
REMARK SMILES IDX 47 130 48 131 51 132 49 133 75 134 76 135 84 136 77 137
REMARK SMILES IDX 78 138 82 139 85 140 79 141 80 142 83 143 81 144 60 145
REMARK SMILES IDX 61 146 69 147 62 148 63 149 67 150 70 151 64 152 65 153
REMARK SMILES IDX 68 154 66 155
REMARK H PARENT 24 4 20 6 17 12 18 14 97 15 12 21 102 22 13 24 14 25 7 29 6 32
REMARK H PARENT 6 33 5 35 5 36 4 38 4 39 3 41 3 42 2 44 2 45 1 47 1 48 1 49
REMARK H PARENT 21 54 21 55 21 56 25 58 25 59 26 61 26 62 27 64 27 65 28 67
REMARK H PARENT 28 68 29 70 29 71 30 73 30 74 31 77 35 83 96 85 36 87 95 88
REMARK H PARENT 94 98 88 100 90 102 93 104 87 105 55 114 58 116 91 119 56 120
REMARK H PARENT 92 122
REMARK Flexibility Score: inf
ROOT
ATOM      1  C   UNL A   1      40.955  24.028  27.775  1.00  0.00     0.227 C 
ATOM      2  O   UNL A   1      39.950  23.341  27.998  1.00  0.00    -0.274 OA
ATOM      3  N   UNL A   1      42.089  23.661  28.431  1.00  0.00    -0.356 N 
ATOM      4  H   UNL A   1      41.998  22.835  28.958  1.00  0.00     0.163 HD
ENDROOT
BRANCH   1   5
ATOM      5  C   UNL A   1      40.873  25.202  26.786  1.00  0.00     0.060 C 
ATOM      6  H   UNL A   1      40.014  24.997  26.183  1.00  0.00     0.045 H 
BRANCH   5   7
ATOM      7  C   UNL A   1      40.530  26.535  27.435  1.00  0.00    -0.029 A 
ATOM      8  C   UNL A   1      40.061  29.040  28.756  1.00  0.00     0.060 A 
ATOM      9  C   UNL A   1      40.218  28.948  27.361  1.00  0.00    -0.047 A 
ATOM     10  C   UNL A   1      40.058  27.824  29.468  1.00  0.00     0.277 A 
ATOM     11  C   UNL A   1      40.403  27.723  26.713  1.00  0.00    -0.057 A 
ATOM     12  H   UNL A   1      40.196  29.813  26.799  1.00  0.00     0.063 H 
ATOM     13  C   UNL A   1      40.335  26.601  28.824  1.00  0.00     0.021 A 
ATOM     14  H   UNL A   1      40.447  27.697  25.683  1.00  0.00     0.063 H 
ATOM     15  H   UNL A   1      40.396  25.737  29.384  1.00  0.00     0.070 H 
BRANCH   8  16
ATOM     16  C   UNL A   1      39.959  30.380  29.372  1.00  0.00    -0.008 A 
ATOM     17  C   UNL A   1      38.649  32.297  30.092  1.00  0.00     0.133 A 
ATOM     18  C   UNL A   1      39.787  32.933  30.581  1.00  0.00    -0.019 A 
ATOM     19  C   UNL A   1      38.720  31.032  29.507  1.00  0.00    -0.011 A 
ATOM     20  C   UNL A   1      41.016  32.291  30.485  1.00  0.00    -0.058 A 
ATOM     21  H   UNL A   1      39.719  33.869  31.009  1.00  0.00     0.066 H 
ATOM     22  H   UNL A   1      37.860  30.572  29.170  1.00  0.00     0.067 H 
ATOM     23  C   UNL A   1      41.101  31.034  29.876  1.00  0.00    -0.054 A 
ATOM     24  H   UNL A   1      41.865  32.740  30.862  1.00  0.00     0.062 H 
ATOM     25  H   UNL A   1      42.022  30.575  29.794  1.00  0.00     0.063 H 
BRANCH  17  26
ATOM     26  O   UNL A   1      37.465  33.054  30.068  1.00  0.00    -0.410 OA
BRANCH  26  27
ATOM     27  C   UNL A   1      36.315  32.539  30.645  1.00  0.00     0.412 C 
ATOM     28  N   UNL A   1      36.180  32.893  31.961  1.00  0.00    -0.321 N 
ATOM     29  H   UNL A   1      35.397  32.532  32.436  1.00  0.00     0.167 HD
ATOM     30  O   UNL A   1      35.483  31.836  30.087  1.00  0.00    -0.224 OA
BRANCH  28  31
ATOM     31  C   UNL A   1      37.070  33.744  32.725  1.00  0.00     0.021 C 
ATOM     32  H   UNL A   1      38.081  33.505  32.468  1.00  0.00     0.049 H 
ATOM     33  H   UNL A   1      36.840  34.762  32.486  1.00  0.00     0.049 H 
BRANCH  31  34
ATOM     34  C   UNL A   1      36.888  33.563  34.232  1.00  0.00    -0.036 C 
ATOM     35  H   UNL A   1      37.284  34.428  34.721  1.00  0.00     0.028 H 
ATOM     36  H   UNL A   1      35.838  33.428  34.392  1.00  0.00     0.028 H 
BRANCH  34  37
ATOM     37  C   UNL A   1      37.575  32.325  34.821  1.00  0.00    -0.052 C 
ATOM     38  H   UNL A   1      37.565  32.418  35.887  1.00  0.00     0.027 H 
ATOM     39  H   UNL A   1      37.025  31.482  34.456  1.00  0.00     0.027 H 
BRANCH  37  40
ATOM     40  C   UNL A   1      39.026  32.102  34.381  1.00  0.00    -0.054 C 
ATOM     41  H   UNL A   1      39.341  32.964  33.832  1.00  0.00     0.027 H 
ATOM     42  H   UNL A   1      39.584  31.936  35.279  1.00  0.00     0.027 H 
BRANCH  40  43
ATOM     43  C   UNL A   1      39.265  30.870  33.504  1.00  0.00    -0.056 C 
ATOM     44  H   UNL A   1      39.658  31.194  32.564  1.00  0.00     0.026 H 
ATOM     45  H   UNL A   1      39.946  30.234  34.030  1.00  0.00     0.026 H 
BRANCH  43  46
ATOM     46  C   UNL A   1      38.003  30.062  33.247  1.00  0.00    -0.065 C 
ATOM     47  H   UNL A   1      37.192  30.480  33.807  1.00  0.00     0.023 H 
ATOM     48  H   UNL A   1      38.161  29.048  33.551  1.00  0.00     0.023 H 
ATOM     49  H   UNL A   1      37.767  30.089  32.204  1.00  0.00     0.023 H 
ENDBRANCH  43  46
ENDBRANCH  40  43
ENDBRANCH  37  40
ENDBRANCH  34  37
ENDBRANCH  31  34
ENDBRANCH  28  31
ENDBRANCH  26  27
ENDBRANCH  17  26
ENDBRANCH   8  16
BRANCH  10  50
ATOM     50  N   UNL A   1      39.713  27.771  30.871  1.00  0.00     0.063 N 
ATOM     51  O   UNL A   1      40.515  28.102  31.719  1.00  0.00    -0.258 OA
ATOM     52  O   UNL A   1      38.529  27.214  31.293  1.00  0.00    -0.258 OA
ENDBRANCH  10  50
ENDBRANCH   5   7
BRANCH   5  53
ATOM     53  C   UNL A   1      42.008  25.237  25.764  1.00  0.00    -0.049 C 
ATOM     54  H   UNL A   1      41.642  24.909  24.813  1.00  0.00     0.024 H 
ATOM     55  H   UNL A   1      42.798  24.591  26.085  1.00  0.00     0.024 H 
ATOM     56  H   UNL A   1      42.379  26.238  25.676  1.00  0.00     0.024 H 
ENDBRANCH   5  53
ENDBRANCH   1   5
BRANCH   3  57
ATOM     57  C   UNL A   1      43.404  24.259  28.496  1.00  0.00     0.017 C 
ATOM     58  H   UNL A   1      43.430  25.113  27.851  1.00  0.00     0.049 H 
ATOM     59  H   UNL A   1      44.121  23.527  28.190  1.00  0.00     0.049 H 
BRANCH  57  60
ATOM     60  C   UNL A   1      43.753  24.703  29.919  1.00  0.00    -0.036 C 
ATOM     61  H   UNL A   1      43.022  25.418  30.238  1.00  0.00     0.028 H 
ATOM     62  H   UNL A   1      44.741  25.114  29.884  1.00  0.00     0.028 H 
BRANCH  60  63
ATOM     63  C   UNL A   1      43.783  23.558  30.936  1.00  0.00    -0.052 C 
ATOM     64  H   UNL A   1      44.385  22.771  30.531  1.00  0.00     0.027 H 
ATOM     65  H   UNL A   1      42.764  23.275  31.097  1.00  0.00     0.027 H 
BRANCH  63  66
ATOM     66  C   UNL A   1      44.347  23.926  32.315  1.00  0.00    -0.052 C 
ATOM     67  H   UNL A   1      43.974  24.894  32.575  1.00  0.00     0.027 H 
ATOM     68  H   UNL A   1      45.412  23.884  32.217  1.00  0.00     0.027 H 
BRANCH  66  69
ATOM     69  C   UNL A   1      43.992  22.963  33.453  1.00  0.00    -0.036 C 
ATOM     70  H   UNL A   1      43.963  21.971  33.053  1.00  0.00     0.028 H 
ATOM     71  H   UNL A   1      43.051  23.290  33.841  1.00  0.00     0.028 H 
BRANCH  69  72
ATOM     72  C   UNL A   1      44.967  22.973  34.627  1.00  0.00     0.018 C 
ATOM     73  H   UNL A   1      45.737  23.691  34.433  1.00  0.00     0.049 H 
ATOM     74  H   UNL A   1      45.376  21.988  34.728  1.00  0.00     0.049 H 
BRANCH  72  75
ATOM     75  N   UNL A   1      44.308  23.318  35.877  1.00  0.00    -0.352 N 
ATOM     76  C   UNL A   1      43.924  24.543  36.361  1.00  0.00     0.251 C 
ATOM     77  H   UNL A   1      44.107  22.555  36.466  1.00  0.00     0.163 HD
ATOM     78  O   UNL A   1      43.587  24.663  37.535  1.00  0.00    -0.269 OA
BRANCH  76  79
ATOM     79  C   UNL A   1      43.920  25.727  35.477  1.00  0.00     0.039 A 
ATOM     80  C   UNL A   1      42.729  26.093  34.843  1.00  0.00    -0.049 A 
ATOM     81  C   UNL A   1      45.092  26.449  35.236  1.00  0.00    -0.049 A 
ATOM     82  C   UNL A   1      42.700  27.215  34.012  1.00  0.00    -0.053 A 
ATOM     83  H   UNL A   1      41.872  25.536  34.990  1.00  0.00     0.063 H 
ATOM     84  C   UNL A   1      45.048  27.605  34.459  1.00  0.00    -0.053 A 
ATOM     85  H   UNL A   1      45.988  26.128  35.632  1.00  0.00     0.063 H 
ATOM     86  C   UNL A   1      43.853  27.995  33.835  1.00  0.00    -0.014 A 
ATOM     87  H   UNL A   1      41.827  27.470  33.525  1.00  0.00     0.063 H 
ATOM     88  H   UNL A   1      45.900  28.176  34.339  1.00  0.00     0.063 H 
BRANCH  86  89
ATOM     89  C   UNL A   1      43.828  29.226  33.005  1.00  0.00     0.031 A 
ATOM     90  C   UNL A   1      44.249  29.176  31.563  1.00  0.00     0.074 A 
ATOM     91  C   UNL A   1      43.498  30.402  33.571  1.00  0.00     0.049 A 
ATOM     92  N   UNL A   1      44.366  30.154  30.700  1.00  0.00    -0.248 NA
ATOM     93  C   UNL A   1      44.615  27.856  31.028  1.00  0.00    -0.034 C 
ATOM     94  C   UNL A   1      43.127  30.587  34.974  1.00  0.00    -0.036 A 
ATOM     95  N   UNL A   1      43.441  31.666  33.041  1.00  0.00    -0.354 N 
ATOM     96  C   UNL A   1      44.839  29.571  29.531  1.00  0.00     0.074 A 
ATOM     97  C   UNL A   1      45.029  28.164  29.807  1.00  0.00    -0.034 C 
ATOM     98  H   UNL A   1      44.563  26.931  31.484  1.00  0.00     0.065 H 
ATOM     99  C   UNL A   1      42.873  31.887  35.193  1.00  0.00    -0.036 A 
ATOM    100  H   UNL A   1      43.071  29.838  35.683  1.00  0.00     0.065 H 
ATOM    101  C   UNL A   1      43.093  32.630  33.956  1.00  0.00     0.049 A 
ATOM    102  H   UNL A   1      43.631  31.864  32.096  1.00  0.00     0.167 HD
ATOM    103  C   UNL A   1      45.074  30.156  28.332  1.00  0.00     0.037 A 
ATOM    104  H   UNL A   1      45.434  27.487  29.141  1.00  0.00     0.065 H 
ATOM    105  H   UNL A   1      42.570  32.295  36.091  1.00  0.00     0.065 H 
ATOM    106  C   UNL A   1      42.976  33.964  33.816  1.00  0.00     0.037 A 
ATOM    107  C   UNL A   1      44.852  31.550  28.053  1.00  0.00     0.049 A 
ATOM    108  C   UNL A   1      43.220  34.585  32.468  1.00  0.00     0.074 A 
ATOM    109  C   UNL A   1      44.977  32.220  26.849  1.00  0.00    -0.036 A 
ATOM    110  N   UNL A   1      44.463  32.491  28.996  1.00  0.00    -0.354 N 
ATOM    111  N   UNL A   1      43.585  34.013  31.347  1.00  0.00    -0.248 NA
ATOM    112  C   UNL A   1      43.024  36.038  32.363  1.00  0.00    -0.034 C 
ATOM    113  C   UNL A   1      44.710  33.575  27.073  1.00  0.00    -0.036 A 
ATOM    114  H   UNL A   1      45.226  31.795  25.942  1.00  0.00     0.065 H 
ATOM    115  C   UNL A   1      44.370  33.741  28.406  1.00  0.00     0.049 A 
ATOM    116  H   UNL A   1      44.280  32.298  29.944  1.00  0.00     0.167 HD
ATOM    117  C   UNL A   1      43.645  35.026  30.402  1.00  0.00     0.074 A 
ATOM    118  C   UNL A   1      43.260  36.249  31.076  1.00  0.00    -0.034 C 
ATOM    119  H   UNL A   1      42.769  36.716  33.098  1.00  0.00     0.065 H 
ATOM    120  H   UNL A   1      44.757  34.326  26.364  1.00  0.00     0.065 H 
ATOM    121  C   UNL A   1      43.988  34.950  29.092  1.00  0.00     0.037 A 
ATOM    122  H   UNL A   1      43.181  37.167  30.613  1.00  0.00     0.065 H 
BRANCH 103 123
ATOM    123  C   UNL A   1      45.602  29.285  27.227  1.00  0.00     0.064 A 
ATOM    124  C   UNL A   1      46.978  29.133  27.001  1.00  0.00     0.173 A 
ATOM    125  C   UNL A   1      44.719  28.571  26.403  1.00  0.00     0.173 A 
ATOM    126  F   UNL A   1      47.864  29.801  27.755  1.00  0.00    -0.203 F 
ATOM    127  C   UNL A   1      47.451  28.323  25.972  1.00  0.00     0.198 A 
ATOM    128  C   UNL A   1      45.196  27.739  25.394  1.00  0.00     0.198 A 
ATOM    129  F   UNL A   1      43.394  28.674  26.581  1.00  0.00    -0.203 F 
ATOM    130  F   UNL A   1      48.768  28.234  25.741  1.00  0.00    -0.200 F 
ATOM    131  C   UNL A   1      46.560  27.623  25.172  1.00  0.00     0.200 A 
ATOM    132  F   UNL A   1      44.334  27.052  24.631  1.00  0.00    -0.200 F 
ATOM    133  F   UNL A   1      47.016  26.841  24.184  1.00  0.00    -0.200 F 
ENDBRANCH 103 123
BRANCH 106 134
ATOM    134  C   UNL A   1      42.588  34.794  34.984  1.00  0.00     0.064 A 
ATOM    135  C   UNL A   1      43.537  35.186  35.937  1.00  0.00     0.173 A 
ATOM    136  C   UNL A   1      41.266  35.228  35.160  1.00  0.00     0.173 A 
ATOM    137  F   UNL A   1      44.810  34.779  35.821  1.00  0.00    -0.203 F 
ATOM    138  C   UNL A   1      43.176  35.968  37.033  1.00  0.00     0.198 A 
ATOM    139  C   UNL A   1      40.911  36.032  36.241  1.00  0.00     0.198 A 
ATOM    140  F   UNL A   1      40.322  34.885  34.271  1.00  0.00    -0.203 F 
ATOM    141  F   UNL A   1      44.095  36.299  37.949  1.00  0.00    -0.200 F 
ATOM    142  C   UNL A   1      41.864  36.396  37.180  1.00  0.00     0.200 A 
ATOM    143  F   UNL A   1      39.647  36.457  36.371  1.00  0.00    -0.200 F 
ATOM    144  F   UNL A   1      41.520  37.157  38.227  1.00  0.00    -0.200 F 
ENDBRANCH 106 134
BRANCH 121 145
ATOM    145  C   UNL A   1      43.944  36.222  28.296  1.00  0.00     0.064 A 
ATOM    146  C   UNL A   1      42.745  36.711  27.759  1.00  0.00     0.173 A 
ATOM    147  C   UNL A   1      45.109  36.981  28.105  1.00  0.00     0.173 A 
ATOM    148  F   UNL A   1      41.608  36.013  27.901  1.00  0.00    -0.203 F 
ATOM    149  C   UNL A   1      42.717  37.903  27.039  1.00  0.00     0.198 A 
ATOM    150  C   UNL A   1      45.073  38.186  27.410  1.00  0.00     0.198 A 
ATOM    151  F   UNL A   1      46.281  36.559  28.605  1.00  0.00    -0.203 F 
ATOM    152  F   UNL A   1      41.568  38.328  26.496  1.00  0.00    -0.200 F 
ATOM    153  C   UNL A   1      43.879  38.642  26.872  1.00  0.00     0.200 A 
ATOM    154  F   UNL A   1      46.193  38.906  27.260  1.00  0.00    -0.200 F 
ATOM    155  F   UNL A   1      43.848  39.792  26.186  1.00  0.00    -0.200 F 
ENDBRANCH 121 145
ENDBRANCH  86  89
ENDBRANCH  76  79
ENDBRANCH  72  75
ENDBRANCH  69  72
ENDBRANCH  66  69
ENDBRANCH  63  66
ENDBRANCH  60  63
ENDBRANCH  57  60
ENDBRANCH   3  57
TORSDOF 25
ENDMDL
MODEL 10
REMARK VINA RESULT:      -8.7      4.774     11.706
REMARK SMILES CCCCCCNC(=O)Oc1cccc(-c2ccc([C@@H](C)C(=O)NCCCCCCNC(=O)c3ccc(-c4c5nc(c(-c6c(F)c(F)c(F)c(F)c6F)c6ccc([nH]6)c(-c6c(F)c(F)c(F)c(F)c6F)c6nc(c(-c7c(F)c(F)c(F)c(F)c7F)c7ccc4[nH]7)C=C6)C=C5)cc3)cc2[N+](=O)[O-])c1
REMARK SMILES IDX 22 1 23 2 24 3 20 5 19 7 16 8 17 9 98 10 18 11 97 13 15 16
REMARK SMILES IDX 11 17 12 18 102 19 13 20 14 23 10 26 8 27 7 28 9 30 6 31
REMARK SMILES IDX 5 34 4 37 3 40 2 43 1 46 99 50 100 51 101 52 21 53 25 57
REMARK SMILES IDX 26 60 27 63 28 66 29 69 30 72 31 75 32 76 33 78 34 79 35 80
REMARK SMILES IDX 96 81 36 82 95 84 37 86 38 89 39 90 89 91 40 92 94 93 88 94
REMARK SMILES IDX 90 95 41 96 93 97 87 99 86 101 42 103 74 106 54 107 73 108
REMARK SMILES IDX 55 109 58 110 72 111 91 112 56 113 57 115 71 117 92 118
REMARK SMILES IDX 59 121 43 123 44 124 52 125 45 126 46 127 50 128 53 129
REMARK SMILES IDX 47 130 48 131 51 132 49 133 75 134 76 135 84 136 77 137
REMARK SMILES IDX 78 138 82 139 85 140 79 141 80 142 83 143 81 144 60 145
REMARK SMILES IDX 61 146 69 147 62 148 63 149 67 150 70 151 64 152 65 153
REMARK SMILES IDX 68 154 66 155
REMARK H PARENT 24 4 20 6 17 12 18 14 97 15 12 21 102 22 13 24 14 25 7 29 6 32
REMARK H PARENT 6 33 5 35 5 36 4 38 4 39 3 41 3 42 2 44 2 45 1 47 1 48 1 49
REMARK H PARENT 21 54 21 55 21 56 25 58 25 59 26 61 26 62 27 64 27 65 28 67
REMARK H PARENT 28 68 29 70 29 71 30 73 30 74 31 77 35 83 96 85 36 87 95 88
REMARK H PARENT 94 98 88 100 90 102 93 104 87 105 55 114 58 116 91 119 56 120
REMARK H PARENT 92 122
REMARK Flexibility Score: inf
ROOT
ATOM      1  C   UNL A   1      31.304  23.549  26.615  1.00  0.00     0.227 C 
ATOM      2  O   UNL A   1      30.495  23.091  27.432  1.00  0.00    -0.274 OA
ATOM      3  N   UNL A   1      32.586  23.109  26.730  1.00  0.00    -0.356 N 
ATOM      4  H   UNL A   1      32.711  22.411  27.413  1.00  0.00     0.163 HD
ENDROOT
BRANCH   1   5
ATOM      5  C   UNL A   1      30.825  24.536  25.537  1.00  0.00     0.060 C 
ATOM      6  H   UNL A   1      29.761  24.556  25.634  1.00  0.00     0.045 H 
BRANCH   5   7
ATOM      7  C   UNL A   1      31.225  25.980  25.800  1.00  0.00    -0.029 A 
ATOM      8  C   UNL A   1      31.802  28.761  26.213  1.00  0.00     0.060 A 
ATOM      9  C   UNL A   1      31.626  27.866  27.284  1.00  0.00    -0.047 A 
ATOM     10  C   UNL A   1      31.767  28.205  24.920  1.00  0.00     0.277 A 
ATOM     11  C   UNL A   1      31.388  26.504  27.083  1.00  0.00    -0.057 A 
ATOM     12  H   UNL A   1      31.674  28.229  28.250  1.00  0.00     0.063 H 
ATOM     13  C   UNL A   1      31.437  26.849  24.718  1.00  0.00     0.021 A 
ATOM     14  H   UNL A   1      31.333  25.873  27.898  1.00  0.00     0.063 H 
ATOM     15  H   UNL A   1      31.350  26.487  23.755  1.00  0.00     0.070 H 
BRANCH   8  16
ATOM     16  C   UNL A   1      31.961  30.201  26.510  1.00  0.00    -0.008 A 
ATOM     17  C   UNL A   1      33.185  32.045  27.515  1.00  0.00     0.133 A 
ATOM     18  C   UNL A   1      32.256  32.965  27.039  1.00  0.00    -0.019 A 
ATOM     19  C   UNL A   1      33.057  30.680  27.248  1.00  0.00    -0.011 A 
ATOM     20  C   UNL A   1      31.182  32.514  26.281  1.00  0.00    -0.058 A 
ATOM     21  H   UNL A   1      32.364  33.970  27.246  1.00  0.00     0.066 H 
ATOM     22  H   UNL A   1      33.770  30.019  27.595  1.00  0.00     0.067 H 
ATOM     23  C   UNL A   1      31.031  31.146  26.031  1.00  0.00    -0.054 A 
ATOM     24  H   UNL A   1      30.497  33.187  25.903  1.00  0.00     0.062 H 
ATOM     25  H   UNL A   1      30.220  30.821  25.482  1.00  0.00     0.063 H 
BRANCH  17  26
ATOM     26  O   UNL A   1      34.157  32.531  28.406  1.00  0.00    -0.410 OA
BRANCH  26  27
ATOM     27  C   UNL A   1      33.973  33.768  29.006  1.00  0.00     0.412 C 
ATOM     28  N   UNL A   1      35.153  34.351  29.385  1.00  0.00    -0.321 N 
ATOM     29  H   UNL A   1      35.087  35.219  29.846  1.00  0.00     0.167 HD
ATOM     30  O   UNL A   1      32.899  34.319  29.204  1.00  0.00    -0.224 OA
BRANCH  28  31
ATOM     31  C   UNL A   1      36.487  33.824  29.179  1.00  0.00     0.021 C 
ATOM     32  H   UNL A   1      36.409  32.856  28.727  1.00  0.00     0.049 H 
ATOM     33  H   UNL A   1      37.017  34.505  28.545  1.00  0.00     0.049 H 
BRANCH  31  34
ATOM     34  C   UNL A   1      37.265  33.696  30.488  1.00  0.00    -0.036 C 
ATOM     35  H   UNL A   1      37.275  34.654  30.964  1.00  0.00     0.028 H 
ATOM     36  H   UNL A   1      36.765  32.943  31.061  1.00  0.00     0.028 H 
BRANCH  34  37
ATOM     37  C   UNL A   1      38.716  33.225  30.333  1.00  0.00    -0.052 C 
ATOM     38  H   UNL A   1      38.700  32.182  30.094  1.00  0.00     0.027 H 
ATOM     39  H   UNL A   1      39.144  33.837  29.566  1.00  0.00     0.027 H 
BRANCH  37  40
ATOM     40  C   UNL A   1      39.607  33.412  31.566  1.00  0.00    -0.054 C 
ATOM     41  H   UNL A   1      39.570  32.511  32.140  1.00  0.00     0.027 H 
ATOM     42  H   UNL A   1      40.583  33.645  31.191  1.00  0.00     0.027 H 
BRANCH  40  43
ATOM     43  C   UNL A   1      39.222  34.574  32.485  1.00  0.00    -0.056 C 
ATOM     44  H   UNL A   1      39.616  35.479  32.071  1.00  0.00     0.026 H 
ATOM     45  H   UNL A   1      38.153  34.590  32.545  1.00  0.00     0.026 H 
BRANCH  43  46
ATOM     46  C   UNL A   1      39.749  34.420  33.902  1.00  0.00    -0.065 C 
ATOM     47  H   UNL A   1      38.943  34.530  34.597  1.00  0.00     0.023 H 
ATOM     48  H   UNL A   1      40.488  35.171  34.091  1.00  0.00     0.023 H 
ATOM     49  H   UNL A   1      40.189  33.451  34.016  1.00  0.00     0.023 H 
ENDBRANCH  43  46
ENDBRANCH  40  43
ENDBRANCH  37  40
ENDBRANCH  34  37
ENDBRANCH  31  34
ENDBRANCH  28  31
ENDBRANCH  26  27
ENDBRANCH  17  26
ENDBRANCH   8  16
BRANCH  10  50
ATOM     50  N   UNL A   1      32.125  28.981  23.753  1.00  0.00     0.063 N 
ATOM     51  O   UNL A   1      33.274  29.326  23.569  1.00  0.00    -0.258 OA
ATOM     52  O   UNL A   1      31.165  29.469  22.900  1.00  0.00    -0.258 OA
ENDBRANCH  10  50
ENDBRANCH   5   7
BRANCH   5  53
ATOM     53  C   UNL A   1      31.029  24.044  24.105  1.00  0.00    -0.049 C 
ATOM     54  H   UNL A   1      31.839  23.344  24.080  1.00  0.00     0.024 H 
ATOM     55  H   UNL A   1      31.256  24.875  23.471  1.00  0.00     0.024 H 
ATOM     56  H   UNL A   1      30.135  23.566  23.761  1.00  0.00     0.024 H 
ENDBRANCH   5  53
ENDBRANCH   1   5
BRANCH   3  57
ATOM     57  C   UNL A   1      33.800  23.476  26.034  1.00  0.00     0.017 C 
ATOM     58  H   UNL A   1      34.527  23.799  26.751  1.00  0.00     0.049 H 
ATOM     59  H   UNL A   1      33.568  24.260  25.346  1.00  0.00     0.049 H 
BRANCH  57  60
ATOM     60  C   UNL A   1      34.375  22.299  25.241  1.00  0.00    -0.036 C 
ATOM     61  H   UNL A   1      34.834  22.683  24.354  1.00  0.00     0.028 H 
ATOM     62  H   UNL A   1      33.560  21.639  25.029  1.00  0.00     0.028 H 
BRANCH  60  63
ATOM     63  C   UNL A   1      35.419  21.484  26.011  1.00  0.00    -0.052 C 
ATOM     64  H   UNL A   1      34.918  20.663  26.481  1.00  0.00     0.027 H 
ATOM     65  H   UNL A   1      35.873  22.160  26.705  1.00  0.00     0.027 H 
BRANCH  63  66
ATOM     66  C   UNL A   1      36.562  20.917  25.158  1.00  0.00    -0.052 C 
ATOM     67  H   UNL A   1      36.724  21.586  24.339  1.00  0.00     0.027 H 
ATOM     68  H   UNL A   1      36.247  19.938  24.861  1.00  0.00     0.027 H 
BRANCH  66  69
ATOM     69  C   UNL A   1      37.898  20.728  25.884  1.00  0.00    -0.036 C 
ATOM     70  H   UNL A   1      37.743  20.047  26.694  1.00  0.00     0.028 H 
ATOM     71  H   UNL A   1      38.208  21.701  26.202  1.00  0.00     0.028 H 
BRANCH  69  72
ATOM     72  C   UNL A   1      39.027  20.181  25.013  1.00  0.00     0.018 C 
ATOM     73  H   UNL A   1      39.622  20.998  24.663  1.00  0.00     0.049 H 
ATOM     74  H   UNL A   1      38.587  19.647  24.196  1.00  0.00     0.049 H 
BRANCH  72  75
ATOM     75  N   UNL A   1      39.880  19.259  25.747  1.00  0.00    -0.352 N 
ATOM     76  C   UNL A   1      41.069  19.485  26.394  1.00  0.00     0.251 C 
ATOM     77  H   UNL A   1      39.554  18.331  25.786  1.00  0.00     0.163 HD
ATOM     78  O   UNL A   1      41.758  18.539  26.763  1.00  0.00    -0.269 OA
BRANCH  76  79
ATOM     79  C   UNL A   1      41.532  20.866  26.643  1.00  0.00     0.039 A 
ATOM     80  C   UNL A   1      41.364  21.415  27.918  1.00  0.00    -0.049 A 
ATOM     81  C   UNL A   1      42.088  21.635  25.618  1.00  0.00    -0.049 A 
ATOM     82  C   UNL A   1      41.805  22.715  28.179  1.00  0.00    -0.053 A 
ATOM     83  H   UNL A   1      40.917  20.861  28.665  1.00  0.00     0.063 H 
ATOM     84  C   UNL A   1      42.586  22.906  25.894  1.00  0.00    -0.053 A 
ATOM     85  H   UNL A   1      42.131  21.262  24.656  1.00  0.00     0.063 H 
ATOM     86  C   UNL A   1      42.444  23.460  27.176  1.00  0.00    -0.014 A 
ATOM     87  H   UNL A   1      41.659  23.128  29.113  1.00  0.00     0.063 H 
ATOM     88  H   UNL A   1      43.060  23.445  25.152  1.00  0.00     0.063 H 
BRANCH  86  89
ATOM     89  C   UNL A   1      42.974  24.820  27.449  1.00  0.00     0.031 A 
ATOM     90  C   UNL A   1      42.059  25.906  27.940  1.00  0.00     0.074 A 
ATOM     91  C   UNL A   1      44.265  25.094  27.183  1.00  0.00     0.049 A 
ATOM     92  N   UNL A   1      42.319  27.170  28.163  1.00  0.00    -0.248 NA
ATOM     93  C   UNL A   1      40.659  25.528  28.185  1.00  0.00    -0.034 C 
ATOM     94  C   UNL A   1      45.237  24.139  26.650  1.00  0.00    -0.036 A 
ATOM     95  N   UNL A   1      44.976  26.261  27.306  1.00  0.00    -0.354 N 
ATOM     96  C   UNL A   1      41.113  27.740  28.552  1.00  0.00     0.074 A 
ATOM     97  C   UNL A   1      40.113  26.696  28.492  1.00  0.00    -0.034 C 
ATOM     98  H   UNL A   1      40.217  24.597  28.132  1.00  0.00     0.065 H 
ATOM     99  C   UNL A   1      46.420  24.756  26.499  1.00  0.00    -0.036 A 
ATOM    100  H   UNL A   1      45.044  23.150  26.426  1.00  0.00     0.065 H 
ATOM    101  C   UNL A   1      46.282  26.154  26.894  1.00  0.00     0.049 A 
ATOM    102  H   UNL A   1      44.588  27.095  27.656  1.00  0.00     0.167 HD
ATOM    103  C   UNL A   1      40.869  29.014  28.940  1.00  0.00     0.037 A 
ATOM    104  H   UNL A   1      39.106  26.842  28.665  1.00  0.00     0.065 H 
ATOM    105  H   UNL A   1      47.288  24.312  26.159  1.00  0.00     0.065 H 
ATOM    106  C   UNL A   1      47.255  27.082  26.831  1.00  0.00     0.037 A 
ATOM    107  C   UNL A   1      41.874  30.041  29.030  1.00  0.00     0.049 A 
ATOM    108  C   UNL A   1      46.965  28.484  27.291  1.00  0.00     0.074 A 
ATOM    109  C   UNL A   1      41.744  31.338  29.494  1.00  0.00    -0.036 A 
ATOM    110  N   UNL A   1      43.196  29.887  28.639  1.00  0.00    -0.354 N 
ATOM    111  N   UNL A   1      45.842  28.992  27.736  1.00  0.00    -0.248 NA
ATOM    112  C   UNL A   1      48.080  29.440  27.249  1.00  0.00    -0.034 C 
ATOM    113  C   UNL A   1      42.977  31.982  29.341  1.00  0.00    -0.036 A 
ATOM    114  H   UNL A   1      40.887  31.758  29.886  1.00  0.00     0.065 H 
ATOM    115  C   UNL A   1      43.887  31.072  28.827  1.00  0.00     0.049 A 
ATOM    116  H   UNL A   1      43.586  29.056  28.281  1.00  0.00     0.167 HD
ATOM    117  C   UNL A   1      46.117  30.316  28.046  1.00  0.00     0.074 A 
ATOM    118  C   UNL A   1      47.520  30.530  27.754  1.00  0.00    -0.034 C 
ATOM    119  H   UNL A   1      49.047  29.299  26.915  1.00  0.00     0.065 H 
ATOM    120  H   UNL A   1      43.175  32.969  29.573  1.00  0.00     0.065 H 
ATOM    121  C   UNL A   1      45.283  31.270  28.529  1.00  0.00     0.037 A 
ATOM    122  H   UNL A   1      48.019  31.418  27.918  1.00  0.00     0.065 H 
BRANCH 103 123
ATOM    123  C   UNL A   1      39.454  29.371  29.299  1.00  0.00     0.064 A 
ATOM    124  C   UNL A   1      39.016  29.403  30.631  1.00  0.00     0.173 A 
ATOM    125  C   UNL A   1      38.534  29.715  28.297  1.00  0.00     0.173 A 
ATOM    126  F   UNL A   1      39.854  29.075  31.626  1.00  0.00    -0.203 F 
ATOM    127  C   UNL A   1      37.700  29.735  30.945  1.00  0.00     0.198 A 
ATOM    128  C   UNL A   1      37.227  30.075  28.617  1.00  0.00     0.198 A 
ATOM    129  F   UNL A   1      38.902  29.708  27.007  1.00  0.00    -0.203 F 
ATOM    130  F   UNL A   1      37.290  29.707  32.221  1.00  0.00    -0.200 F 
ATOM    131  C   UNL A   1      36.809  30.075  29.940  1.00  0.00     0.200 A 
ATOM    132  F   UNL A   1      36.370  30.416  27.645  1.00  0.00    -0.200 F 
ATOM    133  F   UNL A   1      35.544  30.398  30.243  1.00  0.00    -0.200 F 
ENDBRANCH 103 123
BRANCH 106 134
ATOM    134  C   UNL A   1      48.601  26.703  26.330  1.00  0.00     0.064 A 
ATOM    135  C   UNL A   1      49.545  26.108  27.178  1.00  0.00     0.173 A 
ATOM    136  C   UNL A   1      48.964  26.910  24.991  1.00  0.00     0.173 A 
ATOM    137  F   UNL A   1      49.250  25.908  28.471  1.00  0.00    -0.203 F 
ATOM    138  C   UNL A   1      50.807  25.749  26.710  1.00  0.00     0.198 A 
ATOM    139  C   UNL A   1      50.216  26.526  24.518  1.00  0.00     0.198 A 
ATOM    140  F   UNL A   1      48.093  27.471  24.139  1.00  0.00    -0.203 F 
ATOM    141  F   UNL A   1      51.704  25.215  27.550  1.00  0.00    -0.200 F 
ATOM    142  C   UNL A   1      51.139  25.952  25.378  1.00  0.00     0.200 A 
ATOM    143  F   UNL A   1      50.527  26.709  23.227  1.00  0.00    -0.200 F 
ATOM    144  F   UNL A   1      52.349  25.596  24.926  1.00  0.00    -0.200 F 
ENDBRANCH 106 134
BRANCH 121 145
ATOM    145  C   UNL A   1      45.869  32.626  28.790  1.00  0.00     0.064 A 
ATOM    146  C   UNL A   1      46.460  32.946  30.021  1.00  0.00     0.173 A 
ATOM    147  C   UNL A   1      45.877  33.603  27.782  1.00  0.00     0.173 A 
ATOM    148  F   UNL A   1      46.463  32.052  31.021  1.00  0.00    -0.203 F 
ATOM    149  C   UNL A   1      47.017  34.203  30.242  1.00  0.00     0.198 A 
ATOM    150  C   UNL A   1      46.460  34.849  27.997  1.00  0.00     0.198 A 
ATOM    151  F   UNL A   1      45.330  33.345  26.585  1.00  0.00    -0.203 F 
ATOM    152  F   UNL A   1      47.536  34.502  31.441  1.00  0.00    -0.200 F 
ATOM    153  C   UNL A   1      47.023  35.150  29.228  1.00  0.00     0.200 A 
ATOM    154  F   UNL A   1      46.477  35.758  27.013  1.00  0.00    -0.200 F 
ATOM    155  F   UNL A   1      47.566  36.356  29.440  1.00  0.00    -0.200 F 
ENDBRANCH 121 145
ENDBRANCH  86  89
ENDBRANCH  76  79
ENDBRANCH  72  75
ENDBRANCH  69  72
ENDBRANCH  66  69
ENDBRANCH  63  66
ENDBRANCH  60  63
ENDBRANCH  57  60
ENDBRANCH   3  57
TORSDOF 25
ENDMDL
