MODEL 1
REMARK VINA RESULT:     -12.8      0.000      0.000
REMARK SMILES CC1=C(CC(=O)NCCCCCCNC(=O)c2ccc(-c3c4nc(c(-c5c(F)c(F)c(F)c(F)c5F)c5ccc([nH]5)c(-c5c(F)c(F)c(F)c(F)c5F)c5nc(c(-c6c(F)c(F)c(F)c(F)c6F)c6ccc3[nH]6)C=C5)C=C4)cc2)c2cc(F)ccc2/C1=C\c1ccc([S@@+](C)O)cc1
REMARK SMILES IDX 9 1 8 4 7 7 5 8 6 9 4 11 3 14 2 15 87 16 80 17 86 18 88 19
REMARK SMILES IDX 81 20 85 21 82 23 84 25 83 27 1 29 89 33 90 34 97 35 91 36
REMARK SMILES IDX 96 38 92 40 93 43 94 44 95 48 10 50 11 53 12 56 13 59 14 62
REMARK SMILES IDX 15 63 16 65 17 66 18 67 79 68 19 69 78 71 20 73 21 76 22 77
REMARK SMILES IDX 72 78 23 79 77 80 71 81 73 82 24 83 76 84 70 86 69 88 25 90
REMARK SMILES IDX 57 93 37 94 56 95 38 96 41 97 55 98 74 99 39 100 40 102
REMARK SMILES IDX 54 104 75 105 42 108 26 110 27 111 35 112 28 113 29 114
REMARK SMILES IDX 33 115 36 116 30 117 31 118 34 119 32 120 58 121 59 122
REMARK SMILES IDX 67 123 60 124 61 125 65 126 68 127 62 128 63 129 66 130
REMARK SMILES IDX 64 131 43 132 44 133 52 134 45 135 46 136 50 137 53 138
REMARK SMILES IDX 47 139 48 140 51 141 49 142
REMARK H PARENT 9 2 9 3 8 5 8 6 7 10 4 12 4 13 88 22 81 24 85 26 84 28 1 30
REMARK H PARENT 1 31 1 32 90 37 97 39 91 41 96 42 94 45 94 46 94 47 95 49
REMARK H PARENT 10 51 10 52 11 54 11 55 12 57 12 58 13 60 13 61 14 64 18 70
REMARK H PARENT 79 72 19 74 78 75 77 85 71 87 73 89 76 91 70 92 38 101 41 103
REMARK H PARENT 74 106 39 107 75 109
REMARK Flexibility Score: inf
ROOT
ATOM      1  C   UNL A   1      33.763  29.606  27.204  1.00  0.00    -0.036 C 
ATOM      2  H   UNL A   1      34.214  30.519  26.875  1.00  0.00     0.028 H 
ATOM      3  H   UNL A   1      34.070  29.327  28.190  1.00  0.00     0.028 H 
ENDROOT
BRANCH   1   4
ATOM      4  C   UNL A   1      34.211  28.483  26.267  1.00  0.00     0.017 C 
ATOM      5  H   UNL A   1      35.202  28.181  26.535  1.00  0.00     0.049 H 
ATOM      6  H   UNL A   1      33.526  27.668  26.366  1.00  0.00     0.049 H 
BRANCH   4   7
ATOM      7  N   UNL A   1      34.208  28.917  24.886  1.00  0.00    -0.356 N 
ATOM      8  C   UNL A   1      33.365  28.560  23.877  1.00  0.00     0.224 C 
ATOM      9  O   UNL A   1      33.600  28.984  22.743  1.00  0.00    -0.275 OA
ATOM     10  H   UNL A   1      34.913  29.560  24.642  1.00  0.00     0.163 HD
BRANCH   8  11
ATOM     11  C   UNL A   1      32.131  27.706  24.162  1.00  0.00     0.053 C 
ATOM     12  H   UNL A   1      31.776  27.948  25.143  1.00  0.00     0.042 H 
ATOM     13  H   UNL A   1      31.421  27.931  23.394  1.00  0.00     0.042 H 
BRANCH  11  14
ATOM     14  C   UNL A   1      32.370  26.232  24.102  1.00  0.00    -0.027 C 
ATOM     15  C   UNL A   1      32.365  25.321  25.104  1.00  0.00    -0.039 C 
ATOM     16  C   UNL A   1      32.670  23.986  24.563  1.00  0.00    -0.014 C 
ATOM     17  C   UNL A   1      32.605  25.510  22.839  1.00  0.00    -0.011 A 
ATOM     18  C   UNL A   1      32.737  24.132  23.095  1.00  0.00    -0.010 A 
ATOM     19  C   UNL A   1      32.893  22.892  25.320  1.00  0.00    -0.047 C 
ATOM     20  C   UNL A   1      32.674  25.999  21.541  1.00  0.00    -0.018 A 
ATOM     21  C   UNL A   1      32.868  23.233  22.045  1.00  0.00    -0.051 A 
ATOM     22  H   UNL A   1      32.826  23.002  26.344  1.00  0.00     0.064 H 
ATOM     23  C   UNL A   1      32.866  25.092  20.503  1.00  0.00     0.123 A 
ATOM     24  H   UNL A   1      32.584  27.010  21.350  1.00  0.00     0.066 H 
ATOM     25  C   UNL A   1      32.952  23.722  20.740  1.00  0.00    -0.026 A 
ATOM     26  H   UNL A   1      32.904  22.217  22.227  1.00  0.00     0.063 H 
ATOM     27  F   UNL A   1      32.953  25.541  19.244  1.00  0.00    -0.207 F 
ATOM     28  H   UNL A   1      33.077  23.068  19.952  1.00  0.00     0.065 H 
BRANCH  15  29
ATOM     29  C   UNL A   1      32.085  25.550  26.554  1.00  0.00    -0.039 C 
ATOM     30  H   UNL A   1      31.045  25.766  26.687  1.00  0.00     0.028 H 
ATOM     31  H   UNL A   1      32.668  26.375  26.905  1.00  0.00     0.028 H 
ATOM     32  H   UNL A   1      32.340  24.672  27.110  1.00  0.00     0.028 H 
ENDBRANCH  15  29
BRANCH  19  33
ATOM     33  C   UNL A   1      33.224  21.561  24.805  1.00  0.00    -0.025 A 
ATOM     34  C   UNL A   1      32.225  20.681  24.376  1.00  0.00    -0.050 A 
ATOM     35  C   UNL A   1      34.547  21.119  24.871  1.00  0.00    -0.050 A 
ATOM     36  C   UNL A   1      32.527  19.334  24.155  1.00  0.00    -0.003 A 
ATOM     37  H   UNL A   1      31.263  21.027  24.222  1.00  0.00     0.063 H 
ATOM     38  C   UNL A   1      34.849  19.776  24.630  1.00  0.00    -0.003 A 
ATOM     39  H   UNL A   1      35.302  21.785  25.098  1.00  0.00     0.063 H 
ATOM     40  C   UNL A   1      33.836  18.864  24.311  1.00  0.00     0.189 A 
ATOM     41  H   UNL A   1      31.779  18.680  23.874  1.00  0.00     0.068 H 
ATOM     42  H   UNL A   1      35.828  19.454  24.688  1.00  0.00     0.068 H 
BRANCH  40  43
ATOM     43  S   UNL A   1      34.153  17.079  24.348  1.00  0.00     0.178 S 
BRANCH  43  44
ATOM     44  C   UNL A   1      32.945  16.607  25.612  1.00  0.00     0.137 C 
ATOM     45  H   UNL A   1      31.957  16.776  25.241  1.00  0.00     0.085 H 
ATOM     46  H   UNL A   1      33.102  17.195  26.491  1.00  0.00     0.085 H 
ATOM     47  H   UNL A   1      33.065  15.570  25.849  1.00  0.00     0.085 H 
ENDBRANCH  43  44
BRANCH  43  48
ATOM     48  O   UNL A   1      33.163  16.726  23.130  1.00  0.00    -0.182 OA
ATOM     49  H   UNL A   1      32.246  16.901  23.397  1.00  0.00     0.283 HD
ENDBRANCH  43  48
ENDBRANCH  40  43
ENDBRANCH  19  33
ENDBRANCH  11  14
ENDBRANCH   8  11
ENDBRANCH   4   7
ENDBRANCH   1   4
BRANCH   1  50
ATOM     50  C   UNL A   1      32.243  29.808  27.252  1.00  0.00    -0.052 C 
ATOM     51  H   UNL A   1      31.986  30.157  28.230  1.00  0.00     0.027 H 
ATOM     52  H   UNL A   1      31.811  28.860  27.007  1.00  0.00     0.027 H 
BRANCH  50  53
ATOM     53  C   UNL A   1      31.678  30.804  26.231  1.00  0.00    -0.052 C 
ATOM     54  H   UNL A   1      30.749  30.416  25.871  1.00  0.00     0.027 H 
ATOM     55  H   UNL A   1      32.424  30.905  25.472  1.00  0.00     0.027 H 
BRANCH  53  56
ATOM     56  C   UNL A   1      31.425  32.214  26.768  1.00  0.00    -0.036 C 
ATOM     57  H   UNL A   1      30.656  32.156  27.509  1.00  0.00     0.028 H 
ATOM     58  H   UNL A   1      31.154  32.813  25.924  1.00  0.00     0.028 H 
BRANCH  56  59
ATOM     59  C   UNL A   1      32.641  32.883  27.398  1.00  0.00     0.018 C 
ATOM     60  H   UNL A   1      33.476  32.767  26.739  1.00  0.00     0.049 H 
ATOM     61  H   UNL A   1      32.814  32.412  28.343  1.00  0.00     0.049 H 
BRANCH  59  62
ATOM     62  N   UNL A   1      32.437  34.302  27.647  1.00  0.00    -0.352 N 
ATOM     63  C   UNL A   1      33.034  35.116  28.581  1.00  0.00     0.251 C 
ATOM     64  H   UNL A   1      31.779  34.743  27.062  1.00  0.00     0.163 HD
ATOM     65  O   UNL A   1      32.635  36.264  28.751  1.00  0.00    -0.269 OA
BRANCH  63  66
ATOM     66  C   UNL A   1      34.139  34.589  29.412  1.00  0.00     0.039 A 
ATOM     67  C   UNL A   1      35.444  34.554  28.919  1.00  0.00    -0.049 A 
ATOM     68  C   UNL A   1      33.859  34.099  30.690  1.00  0.00    -0.049 A 
ATOM     69  C   UNL A   1      36.428  33.871  29.627  1.00  0.00    -0.053 A 
ATOM     70  H   UNL A   1      35.678  35.030  28.034  1.00  0.00     0.063 H 
ATOM     71  C   UNL A   1      34.872  33.492  31.440  1.00  0.00    -0.053 A 
ATOM     72  H   UNL A   1      32.907  34.187  31.081  1.00  0.00     0.063 H 
ATOM     73  C   UNL A   1      36.152  33.323  30.891  1.00  0.00    -0.014 A 
ATOM     74  H   UNL A   1      37.370  33.766  29.219  1.00  0.00     0.063 H 
ATOM     75  H   UNL A   1      34.677  33.167  32.400  1.00  0.00     0.063 H 
BRANCH  73  76
ATOM     76  C   UNL A   1      37.218  32.566  31.601  1.00  0.00     0.031 A 
ATOM     77  C   UNL A   1      37.952  31.445  30.914  1.00  0.00     0.074 A 
ATOM     78  C   UNL A   1      37.579  32.945  32.842  1.00  0.00     0.049 A 
ATOM     79  N   UNL A   1      38.949  30.719  31.358  1.00  0.00    -0.248 NA
ATOM     80  C   UNL A   1      37.515  31.089  29.556  1.00  0.00    -0.034 C 
ATOM     81  C   UNL A   1      36.947  34.021  33.608  1.00  0.00    -0.036 A 
ATOM     82  N   UNL A   1      38.582  32.498  33.664  1.00  0.00    -0.354 N 
ATOM     83  C   UNL A   1      39.245  29.817  30.344  1.00  0.00     0.074 A 
ATOM     84  C   UNL A   1      38.305  30.061  29.274  1.00  0.00    -0.034 C 
ATOM     85  H   UNL A   1      36.785  31.525  28.972  1.00  0.00     0.065 H 
ATOM     86  C   UNL A   1      37.615  34.193  34.757  1.00  0.00    -0.036 A 
ATOM     87  H   UNL A   1      36.119  34.561  33.310  1.00  0.00     0.065 H 
ATOM     88  C   UNL A   1      38.683  33.202  34.840  1.00  0.00     0.049 A 
ATOM     89  H   UNL A   1      39.172  31.744  33.434  1.00  0.00     0.167 HD
ATOM     90  C   UNL A   1      40.227  28.885  30.303  1.00  0.00     0.037 A 
ATOM     91  H   UNL A   1      38.255  29.508  28.404  1.00  0.00     0.065 H 
ATOM     92  H   UNL A   1      37.408  34.911  35.469  1.00  0.00     0.065 H 
ATOM     93  C   UNL A   1      39.537  33.062  35.872  1.00  0.00     0.037 A 
ATOM     94  C   UNL A   1      41.183  28.663  31.357  1.00  0.00     0.049 A 
ATOM     95  C   UNL A   1      40.587  31.989  35.816  1.00  0.00     0.074 A 
ATOM     96  C   UNL A   1      42.231  27.760  31.391  1.00  0.00    -0.036 A 
ATOM     97  N   UNL A   1      41.207  29.351  32.560  1.00  0.00    -0.354 N 
ATOM     98  N   UNL A   1      40.867  31.159  34.843  1.00  0.00    -0.248 NA
ATOM     99  C   UNL A   1      41.432  31.826  37.008  1.00  0.00    -0.034 C 
ATOM    100  C   UNL A   1      42.865  27.872  32.632  1.00  0.00    -0.036 A 
ATOM    101  H   UNL A   1      42.499  27.115  30.632  1.00  0.00     0.065 H 
ATOM    102  C   UNL A   1      42.240  28.877  33.353  1.00  0.00     0.049 A 
ATOM    103  H   UNL A   1      40.585  30.072  32.812  1.00  0.00     0.167 HD
ATOM    104  C   UNL A   1      41.922  30.380  35.298  1.00  0.00     0.074 A 
ATOM    105  C   UNL A   1      42.250  30.855  36.626  1.00  0.00    -0.034 C 
ATOM    106  H   UNL A   1      41.398  32.335  37.905  1.00  0.00     0.065 H 
ATOM    107  H   UNL A   1      43.663  27.305  32.955  1.00  0.00     0.065 H 
ATOM    108  C   UNL A   1      42.555  29.359  34.673  1.00  0.00     0.037 A 
ATOM    109  H   UNL A   1      43.022  30.485  37.203  1.00  0.00     0.065 H 
BRANCH  90 110
ATOM    110  C   UNL A   1      40.335  28.027  29.076  1.00  0.00     0.064 A 
ATOM    111  C   UNL A   1      39.627  26.822  28.961  1.00  0.00     0.173 A 
ATOM    112  C   UNL A   1      41.084  28.457  27.970  1.00  0.00     0.173 A 
ATOM    113  F   UNL A   1      38.904  26.363  29.994  1.00  0.00    -0.203 F 
ATOM    114  C   UNL A   1      39.672  26.075  27.787  1.00  0.00     0.198 A 
ATOM    115  C   UNL A   1      41.107  27.720  26.789  1.00  0.00     0.198 A 
ATOM    116  F   UNL A   1      41.773  29.607  28.025  1.00  0.00    -0.203 F 
ATOM    117  F   UNL A   1      39.007  24.913  27.709  1.00  0.00    -0.200 F 
ATOM    118  C   UNL A   1      40.403  26.529  26.699  1.00  0.00     0.200 A 
ATOM    119  F   UNL A   1      41.801  28.168  25.734  1.00  0.00    -0.200 F 
ATOM    120  F   UNL A   1      40.428  25.818  25.563  1.00  0.00    -0.200 F 
ENDBRANCH  90 110
BRANCH  93 121
ATOM    121  C   UNL A   1      39.429  33.971  37.042  1.00  0.00     0.064 A 
ATOM    122  C   UNL A   1      38.688  33.605  38.173  1.00  0.00     0.173 A 
ATOM    123  C   UNL A   1      40.082  35.213  37.064  1.00  0.00     0.173 A 
ATOM    124  F   UNL A   1      38.027  32.438  38.191  1.00  0.00    -0.203 F 
ATOM    125  C   UNL A   1      38.598  34.449  39.278  1.00  0.00     0.198 A 
ATOM    126  C   UNL A   1      40.016  36.042  38.180  1.00  0.00     0.198 A 
ATOM    127  F   UNL A   1      40.807  35.609  36.006  1.00  0.00    -0.203 F 
ATOM    128  F   UNL A   1      37.854  34.090  40.334  1.00  0.00    -0.200 F 
ATOM    129  C   UNL A   1      39.270  35.663  39.285  1.00  0.00     0.200 A 
ATOM    130  F   UNL A   1      40.681  37.206  38.188  1.00  0.00    -0.200 F 
ATOM    131  F   UNL A   1      39.194  36.468  40.354  1.00  0.00    -0.200 F 
ENDBRANCH  93 121
BRANCH 108 132
ATOM    132  C   UNL A   1      43.670  28.678  35.410  1.00  0.00     0.064 A 
ATOM    133  C   UNL A   1      44.993  29.131  35.309  1.00  0.00     0.173 A 
ATOM    134  C   UNL A   1      43.400  27.616  36.287  1.00  0.00     0.173 A 
ATOM    135  F   UNL A   1      45.300  30.134  34.473  1.00  0.00    -0.203 F 
ATOM    136  C   UNL A   1      46.009  28.540  36.053  1.00  0.00     0.198 A 
ATOM    137  C   UNL A   1      44.415  27.045  37.049  1.00  0.00     0.198 A 
ATOM    138  F   UNL A   1      42.149  27.152  36.424  1.00  0.00    -0.203 F 
ATOM    139  F   UNL A   1      47.271  28.970  35.920  1.00  0.00    -0.200 F 
ATOM    140  C   UNL A   1      45.718  27.505  36.930  1.00  0.00     0.200 A 
ATOM    141  F   UNL A   1      44.130  26.056  37.908  1.00  0.00    -0.200 F 
ATOM    142  F   UNL A   1      46.695  26.950  37.660  1.00  0.00    -0.200 F 
ENDBRANCH 108 132
ENDBRANCH  73  76
ENDBRANCH  63  66
ENDBRANCH  59  62
ENDBRANCH  56  59
ENDBRANCH  53  56
ENDBRANCH  50  53
ENDBRANCH   1  50
TORSDOF 19
ENDMDL
MODEL 2
REMARK VINA RESULT:     -12.7      1.465      7.324
REMARK SMILES CC1=C(CC(=O)NCCCCCCNC(=O)c2ccc(-c3c4nc(c(-c5c(F)c(F)c(F)c(F)c5F)c5ccc([nH]5)c(-c5c(F)c(F)c(F)c(F)c5F)c5nc(c(-c6c(F)c(F)c(F)c(F)c6F)c6ccc3[nH]6)C=C5)C=C4)cc2)c2cc(F)ccc2/C1=C\c1ccc([S@@+](C)O)cc1
REMARK SMILES IDX 9 1 8 4 7 7 5 8 6 9 4 11 3 14 2 15 87 16 80 17 86 18 88 19
REMARK SMILES IDX 81 20 85 21 82 23 84 25 83 27 1 29 89 33 90 34 97 35 91 36
REMARK SMILES IDX 96 38 92 40 93 43 94 44 95 48 10 50 11 53 12 56 13 59 14 62
REMARK SMILES IDX 15 63 16 65 17 66 18 67 79 68 19 69 78 71 20 73 21 76 22 77
REMARK SMILES IDX 72 78 23 79 77 80 71 81 73 82 24 83 76 84 70 86 69 88 25 90
REMARK SMILES IDX 57 93 37 94 56 95 38 96 41 97 55 98 74 99 39 100 40 102
REMARK SMILES IDX 54 104 75 105 42 108 26 110 27 111 35 112 28 113 29 114
REMARK SMILES IDX 33 115 36 116 30 117 31 118 34 119 32 120 58 121 59 122
REMARK SMILES IDX 67 123 60 124 61 125 65 126 68 127 62 128 63 129 66 130
REMARK SMILES IDX 64 131 43 132 44 133 52 134 45 135 46 136 50 137 53 138
REMARK SMILES IDX 47 139 48 140 51 141 49 142
REMARK H PARENT 9 2 9 3 8 5 8 6 7 10 4 12 4 13 88 22 81 24 85 26 84 28 1 30
REMARK H PARENT 1 31 1 32 90 37 97 39 91 41 96 42 94 45 94 46 94 47 95 49
REMARK H PARENT 10 51 10 52 11 54 11 55 12 57 12 58 13 60 13 61 14 64 18 70
REMARK H PARENT 79 72 19 74 78 75 77 85 71 87 73 89 76 91 70 92 38 101 41 103
REMARK H PARENT 74 106 39 107 75 109
REMARK Flexibility Score: inf
ROOT
ATOM      1  C   UNL A   1      31.923  29.375  24.514  1.00  0.00    -0.036 C 
ATOM      2  H   UNL A   1      31.670  30.395  24.313  1.00  0.00     0.028 H 
ATOM      3  H   UNL A   1      32.971  29.184  24.417  1.00  0.00     0.028 H 
ENDROOT
BRANCH   1   4
ATOM      4  C   UNL A   1      31.215  28.493  23.484  1.00  0.00     0.017 C 
ATOM      5  H   UNL A   1      30.753  27.670  23.989  1.00  0.00     0.049 H 
ATOM      6  H   UNL A   1      30.482  29.087  22.979  1.00  0.00     0.049 H 
BRANCH   4   7
ATOM      7  N   UNL A   1      32.145  27.981  22.501  1.00  0.00    -0.356 N 
ATOM      8  C   UNL A   1      33.226  27.173  22.683  1.00  0.00     0.224 C 
ATOM      9  O   UNL A   1      33.943  26.929  21.708  1.00  0.00    -0.275 OA
ATOM     10  H   UNL A   1      31.972  28.255  21.570  1.00  0.00     0.163 HD
BRANCH   8  11
ATOM     11  C   UNL A   1      33.503  26.541  24.045  1.00  0.00     0.053 C 
ATOM     12  H   UNL A   1      34.498  26.806  24.340  1.00  0.00     0.042 H 
ATOM     13  H   UNL A   1      32.756  26.917  24.713  1.00  0.00     0.042 H 
BRANCH  11  14
ATOM     14  C   UNL A   1      33.388  25.051  24.073  1.00  0.00    -0.027 C 
ATOM     15  C   UNL A   1      32.335  24.267  23.743  1.00  0.00    -0.039 C 
ATOM     16  C   UNL A   1      32.687  22.852  23.948  1.00  0.00    -0.014 C 
ATOM     17  C   UNL A   1      34.510  24.169  24.438  1.00  0.00    -0.011 A 
ATOM     18  C   UNL A   1      34.117  22.823  24.315  1.00  0.00    -0.010 A 
ATOM     19  C   UNL A   1      31.810  21.830  23.860  1.00  0.00    -0.047 C 
ATOM     20  C   UNL A   1      35.803  24.496  24.825  1.00  0.00    -0.018 A 
ATOM     21  C   UNL A   1      35.037  21.802  24.512  1.00  0.00    -0.051 A 
ATOM     22  H   UNL A   1      30.835  22.062  23.614  1.00  0.00     0.064 H 
ATOM     23  C   UNL A   1      36.699  23.462  25.076  1.00  0.00     0.123 A 
ATOM     24  H   UNL A   1      36.093  25.483  24.922  1.00  0.00     0.066 H 
ATOM     25  C   UNL A   1      36.335  22.126  24.914  1.00  0.00    -0.026 A 
ATOM     26  H   UNL A   1      34.767  20.817  24.363  1.00  0.00     0.063 H 
ATOM     27  F   UNL A   1      37.948  23.752  25.467  1.00  0.00    -0.207 F 
ATOM     28  H   UNL A   1      37.022  21.378  25.090  1.00  0.00     0.065 H 
BRANCH  15  29
ATOM     29  C   UNL A   1      30.998  24.690  23.228  1.00  0.00    -0.039 C 
ATOM     30  H   UNL A   1      31.091  25.005  22.209  1.00  0.00     0.028 H 
ATOM     31  H   UNL A   1      30.627  25.501  23.819  1.00  0.00     0.028 H 
ATOM     32  H   UNL A   1      30.316  23.868  23.285  1.00  0.00     0.028 H 
ENDBRANCH  15  29
BRANCH  19  33
ATOM     33  C   UNL A   1      32.132  20.419  24.085  1.00  0.00    -0.025 A 
ATOM     34  C   UNL A   1      32.347  19.922  25.375  1.00  0.00    -0.050 A 
ATOM     35  C   UNL A   1      32.356  19.591  22.983  1.00  0.00    -0.050 A 
ATOM     36  C   UNL A   1      32.919  18.658  25.551  1.00  0.00    -0.003 A 
ATOM     37  H   UNL A   1      32.084  20.488  26.198  1.00  0.00     0.063 H 
ATOM     38  C   UNL A   1      32.910  18.321  23.163  1.00  0.00    -0.003 A 
ATOM     39  H   UNL A   1      32.113  19.918  22.035  1.00  0.00     0.063 H 
ATOM     40  C   UNL A   1      33.234  17.860  24.444  1.00  0.00     0.189 A 
ATOM     41  H   UNL A   1      33.111  18.310  26.504  1.00  0.00     0.068 H 
ATOM     42  H   UNL A   1      33.081  17.717  22.343  1.00  0.00     0.068 H 
BRANCH  40  43
ATOM     43  S   UNL A   1      34.268  16.386  24.663  1.00  0.00     0.178 S 
BRANCH  43  44
ATOM     44  C   UNL A   1      32.991  15.230  25.222  1.00  0.00     0.137 C 
ATOM     45  H   UNL A   1      33.209  14.251  24.850  1.00  0.00     0.085 H 
ATOM     46  H   UNL A   1      32.038  15.547  24.855  1.00  0.00     0.085 H 
ATOM     47  H   UNL A   1      32.973  15.209  26.292  1.00  0.00     0.085 H 
ENDBRANCH  43  44
BRANCH  43  48
ATOM     48  O   UNL A   1      34.170  15.906  23.130  1.00  0.00    -0.182 OA
ATOM     49  H   UNL A   1      33.559  16.486  22.648  1.00  0.00     0.283 HD
ENDBRANCH  43  48
ENDBRANCH  40  43
ENDBRANCH  19  33
ENDBRANCH  11  14
ENDBRANCH   8  11
ENDBRANCH   4   7
ENDBRANCH   1   4
BRANCH   1  50
ATOM     50  C   UNL A   1      31.546  29.061  25.967  1.00  0.00    -0.052 C 
ATOM     51  H   UNL A   1      31.871  28.065  26.186  1.00  0.00     0.027 H 
ATOM     52  H   UNL A   1      30.485  29.190  26.032  1.00  0.00     0.027 H 
BRANCH  50  53
ATOM     53  C   UNL A   1      32.149  29.998  27.021  1.00  0.00    -0.052 C 
ATOM     54  H   UNL A   1      33.212  29.888  26.991  1.00  0.00     0.027 H 
ATOM     55  H   UNL A   1      31.715  29.712  27.956  1.00  0.00     0.027 H 
BRANCH  53  56
ATOM     56  C   UNL A   1      31.822  31.481  26.838  1.00  0.00    -0.036 C 
ATOM     57  H   UNL A   1      31.042  31.739  27.524  1.00  0.00     0.028 H 
ATOM     58  H   UNL A   1      31.541  31.604  25.813  1.00  0.00     0.028 H 
BRANCH  56  59
ATOM     59  C   UNL A   1      32.995  32.425  27.078  1.00  0.00     0.018 C 
ATOM     60  H   UNL A   1      33.556  32.511  26.171  1.00  0.00     0.049 H 
ATOM     61  H   UNL A   1      33.583  32.013  27.871  1.00  0.00     0.049 H 
BRANCH  59  62
ATOM     62  N   UNL A   1      32.572  33.755  27.492  1.00  0.00    -0.352 N 
ATOM     63  C   UNL A   1      33.060  34.547  28.504  1.00  0.00     0.251 C 
ATOM     64  H   UNL A   1      31.830  34.142  26.973  1.00  0.00     0.163 HD
ATOM     65  O   UNL A   1      32.486  35.587  28.812  1.00  0.00    -0.269 OA
BRANCH  63  66
ATOM     66  C   UNL A   1      34.265  34.122  29.251  1.00  0.00     0.039 A 
ATOM     67  C   UNL A   1      35.540  34.459  28.794  1.00  0.00    -0.049 A 
ATOM     68  C   UNL A   1      34.115  33.352  30.408  1.00  0.00    -0.049 A 
ATOM     69  C   UNL A   1      36.658  33.881  29.387  1.00  0.00    -0.053 A 
ATOM     70  H   UNL A   1      35.653  35.131  28.020  1.00  0.00     0.063 H 
ATOM     71  C   UNL A   1      35.246  32.845  31.057  1.00  0.00    -0.053 A 
ATOM     72  H   UNL A   1      33.173  33.159  30.783  1.00  0.00     0.063 H 
ATOM     73  C   UNL A   1      36.524  33.059  30.520  1.00  0.00    -0.014 A 
ATOM     74  H   UNL A   1      37.593  34.058  28.992  1.00  0.00     0.063 H 
ATOM     75  H   UNL A   1      35.140  32.311  31.934  1.00  0.00     0.063 H 
BRANCH  73  76
ATOM     76  C   UNL A   1      37.738  32.427  31.103  1.00  0.00     0.031 A 
ATOM     77  C   UNL A   1      38.193  32.776  32.495  1.00  0.00     0.074 A 
ATOM     78  C   UNL A   1      38.385  31.475  30.403  1.00  0.00     0.049 A 
ATOM     79  N   UNL A   1      39.191  32.279  33.184  1.00  0.00    -0.248 NA
ATOM     80  C   UNL A   1      37.436  33.816  33.209  1.00  0.00    -0.034 C 
ATOM     81  C   UNL A   1      38.034  31.046  29.048  1.00  0.00    -0.036 A 
ATOM     82  N   UNL A   1      39.445  30.673  30.741  1.00  0.00    -0.354 N 
ATOM     83  C   UNL A   1      39.188  32.952  34.399  1.00  0.00     0.074 A 
ATOM     84  C   UNL A   1      38.113  33.918  34.345  1.00  0.00    -0.034 C 
ATOM     85  H   UNL A   1      36.597  34.333  32.905  1.00  0.00     0.065 H 
ATOM     86  C   UNL A   1      38.820  30.019  28.695  1.00  0.00    -0.036 A 
ATOM     87  H   UNL A   1      37.299  31.467  28.458  1.00  0.00     0.065 H 
ATOM     88  C   UNL A   1      39.770  29.756  29.771  1.00  0.00     0.049 A 
ATOM     89  H   UNL A   1      39.927  30.748  31.596  1.00  0.00     0.167 HD
ATOM     90  C   UNL A   1      39.997  32.766  35.470  1.00  0.00     0.037 A 
ATOM     91  H   UNL A   1      37.900  34.596  35.093  1.00  0.00     0.065 H 
ATOM     92  H   UNL A   1      38.762  29.498  27.806  1.00  0.00     0.065 H 
ATOM     93  C   UNL A   1      40.730  28.811  29.747  1.00  0.00     0.037 A 
ATOM     94  C   UNL A   1      41.048  31.785  35.535  1.00  0.00     0.049 A 
ATOM     95  C   UNL A   1      41.640  28.659  30.933  1.00  0.00     0.074 A 
ATOM     96  C   UNL A   1      41.899  31.505  36.590  1.00  0.00    -0.036 A 
ATOM     97  N   UNL A   1      41.389  30.922  34.505  1.00  0.00    -0.354 N 
ATOM     98  N   UNL A   1      41.612  29.290  32.080  1.00  0.00    -0.248 NA
ATOM     99  C   UNL A   1      42.724  27.674  30.815  1.00  0.00    -0.034 C 
ATOM    100  C   UNL A   1      42.783  30.502  36.184  1.00  0.00    -0.036 A 
ATOM    101  H   UNL A   1      41.884  31.959  37.517  1.00  0.00     0.065 H 
ATOM    102  C   UNL A   1      42.454  30.125  34.892  1.00  0.00     0.049 A 
ATOM    103  H   UNL A   1      40.940  30.881  33.630  1.00  0.00     0.167 HD
ATOM    104  C   UNL A   1      42.665  28.774  32.824  1.00  0.00     0.074 A 
ATOM    105  C   UNL A   1      43.297  27.760  32.007  1.00  0.00    -0.034 C 
ATOM    106  H   UNL A   1      42.972  27.071  30.014  1.00  0.00     0.065 H 
ATOM    107  H   UNL A   1      43.551  30.109  36.750  1.00  0.00     0.065 H 
ATOM    108  C   UNL A   1      43.073  29.119  34.068  1.00  0.00     0.037 A 
ATOM    109  H   UNL A   1      44.093  27.179  32.313  1.00  0.00     0.065 H 
BRANCH  90 110
ATOM    110  C   UNL A   1      39.783  33.636  36.675  1.00  0.00     0.064 A 
ATOM    111  C   UNL A   1      40.367  34.907  36.774  1.00  0.00     0.173 A 
ATOM    112  C   UNL A   1      38.915  33.231  37.701  1.00  0.00     0.173 A 
ATOM    113  F   UNL A   1      41.213  35.336  35.824  1.00  0.00    -0.203 F 
ATOM    114  C   UNL A   1      40.098  35.736  37.859  1.00  0.00     0.198 A 
ATOM    115  C   UNL A   1      38.628  34.073  38.772  1.00  0.00     0.198 A 
ATOM    116  F   UNL A   1      38.323  32.027  37.650  1.00  0.00    -0.203 F 
ATOM    117  F   UNL A   1      40.688  36.937  37.945  1.00  0.00    -0.200 F 
ATOM    118  C   UNL A   1      39.221  35.323  38.851  1.00  0.00     0.200 A 
ATOM    119  F   UNL A   1      37.768  33.678  39.721  1.00  0.00    -0.200 F 
ATOM    120  F   UNL A   1      38.947  36.132  39.885  1.00  0.00    -0.200 F 
ENDBRANCH  90 110
BRANCH  93 121
ATOM    121  C   UNL A   1      40.869  27.935  28.556  1.00  0.00     0.064 A 
ATOM    122  C   UNL A   1      40.242  26.683  28.505  1.00  0.00     0.173 A 
ATOM    123  C   UNL A   1      41.612  28.338  27.436  1.00  0.00     0.173 A 
ATOM    124  F   UNL A   1      39.539  26.244  29.560  1.00  0.00    -0.203 F 
ATOM    125  C   UNL A   1      40.358  25.865  27.384  1.00  0.00     0.198 A 
ATOM    126  C   UNL A   1      41.703  27.532  26.303  1.00  0.00     0.198 A 
ATOM    127  F   UNL A   1      42.230  29.529  27.434  1.00  0.00    -0.203 F 
ATOM    128  F   UNL A   1      39.776  24.657  27.373  1.00  0.00    -0.200 F 
ATOM    129  C   UNL A   1      41.081  26.294  26.280  1.00  0.00     0.200 A 
ATOM    130  F   UNL A   1      42.388  27.959  25.234  1.00  0.00    -0.200 F 
ATOM    131  F   UNL A   1      41.180  25.513  25.195  1.00  0.00    -0.200 F 
ENDBRANCH  93 121
BRANCH 108 132
ATOM    132  C   UNL A   1      44.261  28.398  34.633  1.00  0.00     0.064 A 
ATOM    133  C   UNL A   1      44.118  27.175  35.306  1.00  0.00     0.173 A 
ATOM    134  C   UNL A   1      45.558  28.892  34.430  1.00  0.00     0.173 A 
ATOM    135  F   UNL A   1      42.897  26.671  35.536  1.00  0.00    -0.203 F 
ATOM    136  C   UNL A   1      45.232  26.477  35.762  1.00  0.00     0.198 A 
ATOM    137  C   UNL A   1      46.671  28.177  34.865  1.00  0.00     0.198 A 
ATOM    138  F   UNL A   1      45.747  30.053  33.785  1.00  0.00    -0.203 F 
ATOM    139  F   UNL A   1      45.071  25.325  36.426  1.00  0.00    -0.200 F 
ATOM    140  C   UNL A   1      46.507  26.973  35.532  1.00  0.00     0.200 A 
ATOM    141  F   UNL A   1      47.902  28.649  34.628  1.00  0.00    -0.200 F 
ATOM    142  F   UNL A   1      47.579  26.289  35.955  1.00  0.00    -0.200 F 
ENDBRANCH 108 132
ENDBRANCH  73  76
ENDBRANCH  63  66
ENDBRANCH  59  62
ENDBRANCH  56  59
ENDBRANCH  53  56
ENDBRANCH  50  53
ENDBRANCH   1  50
TORSDOF 19
ENDMDL
MODEL 3
REMARK VINA RESULT:     -12.4      4.543      7.825
REMARK SMILES CC1=C(CC(=O)NCCCCCCNC(=O)c2ccc(-c3c4nc(c(-c5c(F)c(F)c(F)c(F)c5F)c5ccc([nH]5)c(-c5c(F)c(F)c(F)c(F)c5F)c5nc(c(-c6c(F)c(F)c(F)c(F)c6F)c6ccc3[nH]6)C=C5)C=C4)cc2)c2cc(F)ccc2/C1=C\c1ccc([S@@+](C)O)cc1
REMARK SMILES IDX 9 1 8 4 7 7 5 8 6 9 4 11 3 14 2 15 87 16 80 17 86 18 88 19
REMARK SMILES IDX 81 20 85 21 82 23 84 25 83 27 1 29 89 33 90 34 97 35 91 36
REMARK SMILES IDX 96 38 92 40 93 43 94 44 95 48 10 50 11 53 12 56 13 59 14 62
REMARK SMILES IDX 15 63 16 65 17 66 18 67 79 68 19 69 78 71 20 73 21 76 22 77
REMARK SMILES IDX 72 78 23 79 77 80 71 81 73 82 24 83 76 84 70 86 69 88 25 90
REMARK SMILES IDX 57 93 37 94 56 95 38 96 41 97 55 98 74 99 39 100 40 102
REMARK SMILES IDX 54 104 75 105 42 108 26 110 27 111 35 112 28 113 29 114
REMARK SMILES IDX 33 115 36 116 30 117 31 118 34 119 32 120 58 121 59 122
REMARK SMILES IDX 67 123 60 124 61 125 65 126 68 127 62 128 63 129 66 130
REMARK SMILES IDX 64 131 43 132 44 133 52 134 45 135 46 136 50 137 53 138
REMARK SMILES IDX 47 139 48 140 51 141 49 142
REMARK H PARENT 9 2 9 3 8 5 8 6 7 10 4 12 4 13 88 22 81 24 85 26 84 28 1 30
REMARK H PARENT 1 31 1 32 90 37 97 39 91 41 96 42 94 45 94 46 94 47 95 49
REMARK H PARENT 10 51 10 52 11 54 11 55 12 57 12 58 13 60 13 61 14 64 18 70
REMARK H PARENT 79 72 19 74 78 75 77 85 71 87 73 89 76 91 70 92 38 101 41 103
REMARK H PARENT 74 106 39 107 75 109
REMARK Flexibility Score: inf
ROOT
ATOM      1  C   UNL A   1      34.037  26.257  25.679  1.00  0.00    -0.036 C 
ATOM      2  H   UNL A   1      34.828  26.726  26.226  1.00  0.00     0.028 H 
ATOM      3  H   UNL A   1      34.089  26.453  24.629  1.00  0.00     0.028 H 
ENDROOT
BRANCH   1   4
ATOM      4  C   UNL A   1      32.707  26.833  26.170  1.00  0.00     0.017 C 
ATOM      5  H   UNL A   1      32.023  26.029  26.346  1.00  0.00     0.049 H 
ATOM      6  H   UNL A   1      32.889  27.380  27.072  1.00  0.00     0.049 H 
BRANCH   4   7
ATOM      7  N   UNL A   1      32.133  27.736  25.196  1.00  0.00    -0.356 N 
ATOM      8  C   UNL A   1      31.012  27.580  24.438  1.00  0.00     0.224 C 
ATOM      9  O   UNL A   1      30.752  28.444  23.597  1.00  0.00    -0.275 OA
ATOM     10  H   UNL A   1      32.621  28.582  25.063  1.00  0.00     0.163 HD
BRANCH   8  11
ATOM     11  C   UNL A   1      30.076  26.396  24.671  1.00  0.00     0.053 C 
ATOM     12  H   UNL A   1      29.694  26.463  25.669  1.00  0.00     0.042 H 
ATOM     13  H   UNL A   1      29.312  26.460  23.925  1.00  0.00     0.042 H 
BRANCH  11  14
ATOM     14  C   UNL A   1      30.719  25.056  24.507  1.00  0.00    -0.027 C 
ATOM     15  C   UNL A   1      30.664  23.974  25.320  1.00  0.00    -0.039 C 
ATOM     16  C   UNL A   1      31.474  22.884  24.749  1.00  0.00    -0.014 C 
ATOM     17  C   UNL A   1      31.512  24.689  23.321  1.00  0.00    -0.011 A 
ATOM     18  C   UNL A   1      31.935  23.351  23.426  1.00  0.00    -0.010 A 
ATOM     19  C   UNL A   1      31.752  21.730  25.388  1.00  0.00    -0.047 C 
ATOM     20  C   UNL A   1      31.830  25.447  22.201  1.00  0.00    -0.018 A 
ATOM     21  C   UNL A   1      32.619  22.747  22.379  1.00  0.00    -0.051 A 
ATOM     22  H   UNL A   1      31.352  21.601  26.331  1.00  0.00     0.064 H 
ATOM     23  C   UNL A   1      32.567  24.846  21.185  1.00  0.00     0.123 A 
ATOM     24  H   UNL A   1      31.527  26.431  22.124  1.00  0.00     0.066 H 
ATOM     25  C   UNL A   1      32.952  23.509  21.257  1.00  0.00    -0.026 A 
ATOM     26  H   UNL A   1      32.876  21.749  22.429  1.00  0.00     0.063 H 
ATOM     27  F   UNL A   1      32.900  25.562  20.102  1.00  0.00    -0.207 F 
ATOM     28  H   UNL A   1      33.483  23.082  20.483  1.00  0.00     0.065 H 
BRANCH  15  29
ATOM     29  C   UNL A   1      29.910  23.822  26.600  1.00  0.00    -0.039 C 
ATOM     30  H   UNL A   1      29.036  23.228  26.432  1.00  0.00     0.028 H 
ATOM     31  H   UNL A   1      29.622  24.787  26.962  1.00  0.00     0.028 H 
ATOM     32  H   UNL A   1      30.532  23.341  27.326  1.00  0.00     0.028 H 
ENDBRANCH  15  29
BRANCH  19  33
ATOM     33  C   UNL A   1      32.576  20.644  24.852  1.00  0.00    -0.025 A 
ATOM     34  C   UNL A   1      32.040  19.693  23.975  1.00  0.00    -0.050 A 
ATOM     35  C   UNL A   1      33.878  20.481  25.329  1.00  0.00    -0.050 A 
ATOM     36  C   UNL A   1      32.749  18.521  23.696  1.00  0.00    -0.003 A 
ATOM     37  H   UNL A   1      31.121  19.858  23.534  1.00  0.00     0.063 H 
ATOM     38  C   UNL A   1      34.592  19.317  25.033  1.00  0.00    -0.003 A 
ATOM     39  H   UNL A   1      34.312  21.222  25.901  1.00  0.00     0.063 H 
ATOM     40  C   UNL A   1      34.018  18.310  24.249  1.00  0.00     0.189 A 
ATOM     41  H   UNL A   1      32.335  17.805  23.079  1.00  0.00     0.068 H 
ATOM     42  H   UNL A   1      35.551  19.200  25.396  1.00  0.00     0.068 H 
BRANCH  40  43
ATOM     43  S   UNL A   1      34.778  16.666  24.155  1.00  0.00     0.178 S 
BRANCH  43  44
ATOM     44  C   UNL A   1      33.579  15.746  25.153  1.00  0.00     0.137 C 
ATOM     45  H   UNL A   1      32.763  15.436  24.534  1.00  0.00     0.085 H 
ATOM     46  H   UNL A   1      33.214  16.373  25.938  1.00  0.00     0.085 H 
ATOM     47  H   UNL A   1      34.054  14.885  25.575  1.00  0.00     0.085 H 
ENDBRANCH  43  44
BRANCH  43  48
ATOM     48  O   UNL A   1      34.080  16.258  22.763  1.00  0.00    -0.182 OA
ATOM     49  H   UNL A   1      34.627  16.569  22.024  1.00  0.00     0.283 HD
ENDBRANCH  43  48
ENDBRANCH  40  43
ENDBRANCH  19  33
ENDBRANCH  11  14
ENDBRANCH   8  11
ENDBRANCH   4   7
ENDBRANCH   1   4
BRANCH   1  50
ATOM     50  C   UNL A   1      34.161  24.738  25.856  1.00  0.00    -0.052 C 
ATOM     51  H   UNL A   1      33.574  24.267  25.095  1.00  0.00     0.027 H 
ATOM     52  H   UNL A   1      33.823  24.528  26.850  1.00  0.00     0.027 H 
BRANCH  50  53
ATOM     53  C   UNL A   1      35.586  24.180  25.769  1.00  0.00    -0.052 C 
ATOM     54  H   UNL A   1      35.880  23.870  26.750  1.00  0.00     0.027 H 
ATOM     55  H   UNL A   1      36.190  24.967  25.369  1.00  0.00     0.027 H 
BRANCH  53  56
ATOM     56  C   UNL A   1      35.763  22.989  24.826  1.00  0.00    -0.036 C 
ATOM     57  H   UNL A   1      35.166  23.161  23.954  1.00  0.00     0.028 H 
ATOM     58  H   UNL A   1      35.465  22.121  25.377  1.00  0.00     0.028 H 
BRANCH  56  59
ATOM     59  C   UNL A   1      37.198  22.740  24.376  1.00  0.00     0.018 C 
ATOM     60  H   UNL A   1      37.791  23.592  24.638  1.00  0.00     0.049 H 
ATOM     61  H   UNL A   1      37.181  22.579  23.319  1.00  0.00     0.049 H 
BRANCH  59  62
ATOM     62  N   UNL A   1      37.784  21.559  24.991  1.00  0.00    -0.352 N 
ATOM     63  C   UNL A   1      38.806  21.472  25.907  1.00  0.00     0.251 C 
ATOM     64  H   UNL A   1      37.394  20.699  24.711  1.00  0.00     0.163 HD
ATOM     65  O   UNL A   1      39.277  20.380  26.212  1.00  0.00    -0.269 OA
BRANCH  63  66
ATOM     66  C   UNL A   1      39.365  22.706  26.501  1.00  0.00     0.039 A 
ATOM     67  C   UNL A   1      38.884  23.960  26.121  1.00  0.00    -0.049 A 
ATOM     68  C   UNL A   1      40.404  22.607  27.431  1.00  0.00    -0.049 A 
ATOM     69  C   UNL A   1      39.555  25.107  26.529  1.00  0.00    -0.053 A 
ATOM     70  H   UNL A   1      38.036  24.035  25.538  1.00  0.00     0.063 H 
ATOM     71  C   UNL A   1      41.020  23.767  27.912  1.00  0.00    -0.053 A 
ATOM     72  H   UNL A   1      40.714  21.680  27.763  1.00  0.00     0.063 H 
ATOM     73  C   UNL A   1      40.637  25.025  27.422  1.00  0.00    -0.014 A 
ATOM     74  H   UNL A   1      39.255  26.027  26.173  1.00  0.00     0.063 H 
ATOM     75  H   UNL A   1      41.759  23.698  28.628  1.00  0.00     0.063 H 
BRANCH  73  76
ATOM     76  C   UNL A   1      41.356  26.270  27.805  1.00  0.00     0.031 A 
ATOM     77  C   UNL A   1      42.756  26.531  27.319  1.00  0.00     0.074 A 
ATOM     78  C   UNL A   1      40.710  27.205  28.530  1.00  0.00     0.049 A 
ATOM     79  N   UNL A   1      43.510  27.587  27.504  1.00  0.00    -0.248 NA
ATOM     80  C   UNL A   1      43.399  25.473  26.523  1.00  0.00    -0.034 C 
ATOM     81  C   UNL A   1      39.350  27.070  29.053  1.00  0.00    -0.036 A 
ATOM     82  N   UNL A   1      41.094  28.462  28.923  1.00  0.00    -0.354 N 
ATOM     83  C   UNL A   1      44.712  27.315  26.863  1.00  0.00     0.074 A 
ATOM     84  C   UNL A   1      44.605  25.983  26.312  1.00  0.00    -0.034 C 
ATOM     85  H   UNL A   1      43.013  24.570  26.210  1.00  0.00     0.065 H 
ATOM     86  C   UNL A   1      38.989  28.220  29.640  1.00  0.00    -0.036 A 
ATOM     87  H   UNL A   1      38.762  26.224  28.980  1.00  0.00     0.065 H 
ATOM     88  C   UNL A   1      40.111  29.151  29.592  1.00  0.00     0.049 A 
ATOM     89  H   UNL A   1      41.987  28.834  28.744  1.00  0.00     0.167 HD
ATOM     90  C   UNL A   1      45.797  28.115  26.730  1.00  0.00     0.037 A 
ATOM     91  H   UNL A   1      45.368  25.494  25.817  1.00  0.00     0.065 H 
ATOM     92  H   UNL A   1      38.066  28.414  30.059  1.00  0.00     0.065 H 
ATOM     93  C   UNL A   1      40.114  30.393  30.113  1.00  0.00     0.037 A 
ATOM     94  C   UNL A   1      45.892  29.452  27.254  1.00  0.00     0.049 A 
ATOM     95  C   UNL A   1      41.349  31.239  29.988  1.00  0.00     0.074 A 
ATOM     96  C   UNL A   1      46.942  30.347  27.142  1.00  0.00    -0.036 A 
ATOM     97  N   UNL A   1      44.900  30.087  27.984  1.00  0.00    -0.354 N 
ATOM     98  N   UNL A   1      42.470  30.975  29.363  1.00  0.00    -0.248 NA
ATOM     99  C   UNL A   1      41.325  32.549  30.652  1.00  0.00    -0.034 C 
ATOM    100  C   UNL A   1      46.603  31.509  27.841  1.00  0.00    -0.036 A 
ATOM    101  H   UNL A   1      47.824  30.185  26.631  1.00  0.00     0.065 H 
ATOM    102  C   UNL A   1      45.323  31.355  28.350  1.00  0.00     0.049 A 
ATOM    103  H   UNL A   1      44.024  29.697  28.208  1.00  0.00     0.167 HD
ATOM    104  C   UNL A   1      43.281  32.086  29.550  1.00  0.00     0.074 A 
ATOM    105  C   UNL A   1      42.514  33.038  30.326  1.00  0.00    -0.034 C 
ATOM    106  H   UNL A   1      40.579  32.978  31.222  1.00  0.00     0.065 H 
ATOM    107  H   UNL A   1      47.203  32.339  27.958  1.00  0.00     0.065 H 
ATOM    108  C   UNL A   1      44.549  32.292  29.122  1.00  0.00     0.037 A 
ATOM    109  H   UNL A   1      42.849  33.978  30.591  1.00  0.00     0.065 H 
BRANCH  90 110
ATOM    110  C   UNL A   1      46.982  27.577  25.982  1.00  0.00     0.064 A 
ATOM    111  C   UNL A   1      47.080  27.688  24.587  1.00  0.00     0.173 A 
ATOM    112  C   UNL A   1      48.070  27.023  26.674  1.00  0.00     0.173 A 
ATOM    113  F   UNL A   1      46.062  28.201  23.878  1.00  0.00    -0.203 F 
ATOM    114  C   UNL A   1      48.218  27.257  23.912  1.00  0.00     0.198 A 
ATOM    115  C   UNL A   1      49.218  26.616  25.998  1.00  0.00     0.198 A 
ATOM    116  F   UNL A   1      48.031  26.902  28.009  1.00  0.00    -0.203 F 
ATOM    117  F   UNL A   1      48.279  27.351  22.576  1.00  0.00    -0.200 F 
ATOM    118  C   UNL A   1      49.290  26.732  24.619  1.00  0.00     0.200 A 
ATOM    119  F   UNL A   1      50.259  26.124  26.684  1.00  0.00    -0.200 F 
ATOM    120  F   UNL A   1      50.394  26.336  23.969  1.00  0.00    -0.200 F 
ENDBRANCH  90 110
BRANCH  93 121
ATOM    121  C   UNL A   1      38.899  30.906  30.796  1.00  0.00     0.064 A 
ATOM    122  C   UNL A   1      37.875  31.531  30.072  1.00  0.00     0.173 A 
ATOM    123  C   UNL A   1      38.725  30.764  32.181  1.00  0.00     0.173 A 
ATOM    124  F   UNL A   1      38.004  31.710  28.749  1.00  0.00    -0.203 F 
ATOM    125  C   UNL A   1      36.727  32.000  30.707  1.00  0.00     0.198 A 
ATOM    126  C   UNL A   1      37.564  31.206  32.811  1.00  0.00     0.198 A 
ATOM    127  F   UNL A   1      39.676  30.171  32.920  1.00  0.00    -0.203 F 
ATOM    128  F   UNL A   1      35.777  32.624  29.996  1.00  0.00    -0.200 F 
ATOM    129  C   UNL A   1      36.569  31.829  32.075  1.00  0.00     0.200 A 
ATOM    130  F   UNL A   1      37.409  31.023  34.129  1.00  0.00    -0.200 F 
ATOM    131  F   UNL A   1      35.458  32.267  32.683  1.00  0.00    -0.200 F 
ENDBRANCH  93 121
BRANCH 108 132
ATOM    132  C   UNL A   1      45.199  33.597  29.480  1.00  0.00     0.064 A 
ATOM    133  C   UNL A   1      45.972  33.729  30.642  1.00  0.00     0.173 A 
ATOM    134  C   UNL A   1      45.114  34.697  28.614  1.00  0.00     0.173 A 
ATOM    135  F   UNL A   1      46.071  32.709  31.507  1.00  0.00    -0.203 F 
ATOM    136  C   UNL A   1      46.632  34.921  30.928  1.00  0.00     0.198 A 
ATOM    137  C   UNL A   1      45.795  35.878  28.891  1.00  0.00     0.198 A 
ATOM    138  F   UNL A   1      44.391  34.616  27.486  1.00  0.00    -0.203 F 
ATOM    139  F   UNL A   1      47.343  35.035  32.057  1.00  0.00    -0.200 F 
ATOM    140  C   UNL A   1      46.551  35.990  30.048  1.00  0.00     0.200 A 
ATOM    141  F   UNL A   1      45.730  36.904  28.031  1.00  0.00    -0.200 F 
ATOM    142  F   UNL A   1      47.203  37.130  30.316  1.00  0.00    -0.200 F 
ENDBRANCH 108 132
ENDBRANCH  73  76
ENDBRANCH  63  66
ENDBRANCH  59  62
ENDBRANCH  56  59
ENDBRANCH  53  56
ENDBRANCH  50  53
ENDBRANCH   1  50
TORSDOF 19
ENDMDL
MODEL 4
REMARK VINA RESULT:     -12.4      4.606      7.657
REMARK SMILES CC1=C(CC(=O)NCCCCCCNC(=O)c2ccc(-c3c4nc(c(-c5c(F)c(F)c(F)c(F)c5F)c5ccc([nH]5)c(-c5c(F)c(F)c(F)c(F)c5F)c5nc(c(-c6c(F)c(F)c(F)c(F)c6F)c6ccc3[nH]6)C=C5)C=C4)cc2)c2cc(F)ccc2/C1=C\c1ccc([S@@+](C)O)cc1
REMARK SMILES IDX 9 1 8 4 7 7 5 8 6 9 4 11 3 14 2 15 87 16 80 17 86 18 88 19
REMARK SMILES IDX 81 20 85 21 82 23 84 25 83 27 1 29 89 33 90 34 97 35 91 36
REMARK SMILES IDX 96 38 92 40 93 43 94 44 95 48 10 50 11 53 12 56 13 59 14 62
REMARK SMILES IDX 15 63 16 65 17 66 18 67 79 68 19 69 78 71 20 73 21 76 22 77
REMARK SMILES IDX 72 78 23 79 77 80 71 81 73 82 24 83 76 84 70 86 69 88 25 90
REMARK SMILES IDX 57 93 37 94 56 95 38 96 41 97 55 98 74 99 39 100 40 102
REMARK SMILES IDX 54 104 75 105 42 108 26 110 27 111 35 112 28 113 29 114
REMARK SMILES IDX 33 115 36 116 30 117 31 118 34 119 32 120 58 121 59 122
REMARK SMILES IDX 67 123 60 124 61 125 65 126 68 127 62 128 63 129 66 130
REMARK SMILES IDX 64 131 43 132 44 133 52 134 45 135 46 136 50 137 53 138
REMARK SMILES IDX 47 139 48 140 51 141 49 142
REMARK H PARENT 9 2 9 3 8 5 8 6 7 10 4 12 4 13 88 22 81 24 85 26 84 28 1 30
REMARK H PARENT 1 31 1 32 90 37 97 39 91 41 96 42 94 45 94 46 94 47 95 49
REMARK H PARENT 10 51 10 52 11 54 11 55 12 57 12 58 13 60 13 61 14 64 18 70
REMARK H PARENT 79 72 19 74 78 75 77 85 71 87 73 89 76 91 70 92 38 101 41 103
REMARK H PARENT 74 106 39 107 75 109
REMARK Flexibility Score: inf
ROOT
ATOM      1  C   UNL A   1      33.614  27.337  26.141  1.00  0.00    -0.036 C 
ATOM      2  H   UNL A   1      33.585  26.979  27.148  1.00  0.00     0.028 H 
ATOM      3  H   UNL A   1      34.297  28.151  26.013  1.00  0.00     0.028 H 
ENDROOT
BRANCH   1   4
ATOM      4  C   UNL A   1      32.225  27.866  25.778  1.00  0.00     0.017 C 
ATOM      5  H   UNL A   1      31.546  27.042  25.708  1.00  0.00     0.049 H 
ATOM      6  H   UNL A   1      31.914  28.549  26.541  1.00  0.00     0.049 H 
BRANCH   4   7
ATOM      7  N   UNL A   1      32.243  28.571  24.514  1.00  0.00    -0.356 N 
ATOM      8  C   UNL A   1      31.543  28.308  23.376  1.00  0.00     0.224 C 
ATOM      9  O   UNL A   1      31.781  28.989  22.375  1.00  0.00    -0.275 OA
ATOM     10  H   UNL A   1      32.846  29.350  24.472  1.00  0.00     0.163 HD
BRANCH   8  11
ATOM     11  C   UNL A   1      30.453  27.238  23.364  1.00  0.00     0.053 C 
ATOM     12  H   UNL A   1      29.803  27.415  24.195  1.00  0.00     0.042 H 
ATOM     13  H   UNL A   1      29.957  27.319  22.420  1.00  0.00     0.042 H 
BRANCH  11  14
ATOM     14  C   UNL A   1      30.961  25.835  23.458  1.00  0.00    -0.027 C 
ATOM     15  C   UNL A   1      31.835  25.184  22.654  1.00  0.00    -0.039 C 
ATOM     16  C   UNL A   1      32.019  23.805  23.136  1.00  0.00    -0.014 C 
ATOM     17  C   UNL A   1      30.593  24.923  24.555  1.00  0.00    -0.011 A 
ATOM     18  C   UNL A   1      31.271  23.698  24.404  1.00  0.00    -0.010 A 
ATOM     19  C   UNL A   1      32.702  22.852  22.469  1.00  0.00    -0.047 C 
ATOM     20  C   UNL A   1      29.749  25.136  25.637  1.00  0.00    -0.018 A 
ATOM     21  C   UNL A   1      31.159  22.710  25.374  1.00  0.00    -0.051 A 
ATOM     22  H   UNL A   1      33.138  23.120  21.572  1.00  0.00     0.064 H 
ATOM     23  C   UNL A   1      29.600  24.115  26.570  1.00  0.00     0.123 A 
ATOM     24  H   UNL A   1      29.245  26.031  25.747  1.00  0.00     0.066 H 
ATOM     25  C   UNL A   1      30.300  22.916  26.456  1.00  0.00    -0.026 A 
ATOM     26  H   UNL A   1      31.702  21.836  25.296  1.00  0.00     0.063 H 
ATOM     27  F   UNL A   1      28.778  24.291  27.614  1.00  0.00    -0.207 F 
ATOM     28  H   UNL A   1      30.186  22.180  27.170  1.00  0.00     0.065 H 
BRANCH  15  29
ATOM     29  C   UNL A   1      32.556  25.715  21.458  1.00  0.00    -0.039 C 
ATOM     30  H   UNL A   1      32.844  26.730  21.636  1.00  0.00     0.028 H 
ATOM     31  H   UNL A   1      31.912  25.672  20.604  1.00  0.00     0.028 H 
ATOM     32  H   UNL A   1      33.429  25.123  21.275  1.00  0.00     0.028 H 
ENDBRANCH  15  29
BRANCH  19  33
ATOM     33  C   UNL A   1      32.876  21.468  22.915  1.00  0.00    -0.025 A 
ATOM     34  C   UNL A   1      32.153  20.422  22.330  1.00  0.00    -0.050 A 
ATOM     35  C   UNL A   1      33.677  21.210  24.030  1.00  0.00    -0.050 A 
ATOM     36  C   UNL A   1      32.121  19.166  22.944  1.00  0.00    -0.003 A 
ATOM     37  H   UNL A   1      31.644  20.577  21.445  1.00  0.00     0.063 H 
ATOM     38  C   UNL A   1      33.657  19.949  24.630  1.00  0.00    -0.003 A 
ATOM     39  H   UNL A   1      34.282  21.954  24.411  1.00  0.00     0.063 H 
ATOM     40  C   UNL A   1      32.848  18.928  24.116  1.00  0.00     0.189 A 
ATOM     41  H   UNL A   1      31.556  18.407  22.529  1.00  0.00     0.068 H 
ATOM     42  H   UNL A   1      34.245  19.767  25.459  1.00  0.00     0.068 H 
BRANCH  40  43
ATOM     43  S   UNL A   1      32.540  17.421  25.076  1.00  0.00     0.178 S 
BRANCH  43  44
ATOM     44  C   UNL A   1      34.163  16.638  24.897  1.00  0.00     0.137 C 
ATOM     45  H   UNL A   1      34.500  16.742  23.887  1.00  0.00     0.085 H 
ATOM     46  H   UNL A   1      34.087  15.601  25.144  1.00  0.00     0.085 H 
ATOM     47  H   UNL A   1      34.861  17.112  25.556  1.00  0.00     0.085 H 
ENDBRANCH  43  44
BRANCH  43  48
ATOM     48  O   UNL A   1      32.903  18.074  26.501  1.00  0.00    -0.182 OA
ATOM     49  H   UNL A   1      33.131  19.010  26.379  1.00  0.00     0.283 HD
ENDBRANCH  43  48
ENDBRANCH  40  43
ENDBRANCH  19  33
ENDBRANCH  11  14
ENDBRANCH   8  11
ENDBRANCH   4   7
ENDBRANCH   1   4
BRANCH   1  50
ATOM     50  C   UNL A   1      34.103  26.199  25.237  1.00  0.00    -0.052 C 
ATOM     51  H   UNL A   1      35.103  26.426  24.930  1.00  0.00     0.027 H 
ATOM     52  H   UNL A   1      33.407  26.146  24.425  1.00  0.00     0.027 H 
BRANCH  50  53
ATOM     53  C   UNL A   1      34.109  24.806  25.877  1.00  0.00    -0.052 C 
ATOM     54  H   UNL A   1      33.198  24.315  25.609  1.00  0.00     0.027 H 
ATOM     55  H   UNL A   1      34.217  24.964  26.930  1.00  0.00     0.027 H 
BRANCH  53  56
ATOM     56  C   UNL A   1      35.272  23.902  25.463  1.00  0.00    -0.036 C 
ATOM     57  H   UNL A   1      36.039  24.518  25.042  1.00  0.00     0.028 H 
ATOM     58  H   UNL A   1      34.870  23.194  24.769  1.00  0.00     0.028 H 
BRANCH  56  59
ATOM     59  C   UNL A   1      35.885  23.092  26.599  1.00  0.00     0.018 C 
ATOM     60  H   UNL A   1      35.097  22.740  27.232  1.00  0.00     0.049 H 
ATOM     61  H   UNL A   1      36.559  23.734  27.125  1.00  0.00     0.049 H 
BRANCH  59  62
ATOM     62  N   UNL A   1      36.648  21.947  26.125  1.00  0.00    -0.352 N 
ATOM     63  C   UNL A   1      37.999  21.839  25.892  1.00  0.00     0.251 C 
ATOM     64  H   UNL A   1      36.123  21.133  25.948  1.00  0.00     0.163 HD
ATOM     65  O   UNL A   1      38.458  20.838  25.350  1.00  0.00    -0.269 OA
BRANCH  63  66
ATOM     66  C   UNL A   1      38.898  22.954  26.262  1.00  0.00     0.039 A 
ATOM     67  C   UNL A   1      39.715  22.864  27.390  1.00  0.00    -0.049 A 
ATOM     68  C   UNL A   1      38.901  24.116  25.485  1.00  0.00    -0.049 A 
ATOM     69  C   UNL A   1      40.395  23.991  27.838  1.00  0.00    -0.053 A 
ATOM     70  H   UNL A   1      39.814  21.966  27.889  1.00  0.00     0.063 H 
ATOM     71  C   UNL A   1      39.657  25.221  25.889  1.00  0.00    -0.053 A 
ATOM     72  H   UNL A   1      38.348  24.158  24.614  1.00  0.00     0.063 H 
ATOM     73  C   UNL A   1      40.367  25.187  27.100  1.00  0.00    -0.014 A 
ATOM     74  H   UNL A   1      40.925  23.949  28.722  1.00  0.00     0.063 H 
ATOM     75  H   UNL A   1      39.693  26.065  25.296  1.00  0.00     0.063 H 
BRANCH  73  76
ATOM     76  C   UNL A   1      41.073  26.383  27.631  1.00  0.00     0.031 A 
ATOM     77  C   UNL A   1      42.533  26.608  27.338  1.00  0.00     0.074 A 
ATOM     78  C   UNL A   1      40.373  27.311  28.313  1.00  0.00     0.049 A 
ATOM     79  N   UNL A   1      43.293  27.623  27.667  1.00  0.00    -0.248 NA
ATOM     80  C   UNL A   1      43.234  25.561  26.579  1.00  0.00    -0.034 C 
ATOM     81  C   UNL A   1      38.953  27.209  28.652  1.00  0.00    -0.036 A 
ATOM     82  N   UNL A   1      40.747  28.534  28.811  1.00  0.00    -0.354 N 
ATOM     83  C   UNL A   1      44.556  27.331  27.170  1.00  0.00     0.074 A 
ATOM     84  C   UNL A   1      44.475  26.030  26.546  1.00  0.00    -0.034 C 
ATOM     85  H   UNL A   1      42.860  24.688  26.177  1.00  0.00     0.065 H 
ATOM     86  C   UNL A   1      38.561  28.346  29.244  1.00  0.00    -0.036 A 
ATOM     87  H   UNL A   1      38.350  26.393  28.465  1.00  0.00     0.065 H 
ATOM     88  C   UNL A   1      39.711  29.233  29.383  1.00  0.00     0.049 A 
ATOM     89  H   UNL A   1      41.668  28.877  28.764  1.00  0.00     0.167 HD
ATOM     90  C   UNL A   1      45.677  28.091  27.214  1.00  0.00     0.037 A 
ATOM     91  H   UNL A   1      45.277  25.532  26.129  1.00  0.00     0.065 H 
ATOM     92  H   UNL A   1      37.599  28.560  29.553  1.00  0.00     0.065 H 
ATOM     93  C   UNL A   1      39.691  30.449  29.960  1.00  0.00     0.037 A 
ATOM     94  C   UNL A   1      45.751  29.399  27.810  1.00  0.00     0.049 A 
ATOM     95  C   UNL A   1      40.961  31.249  30.032  1.00  0.00     0.074 A 
ATOM     96  C   UNL A   1      46.837  30.255  27.875  1.00  0.00    -0.036 A 
ATOM     97  N   UNL A   1      44.697  30.042  28.439  1.00  0.00    -0.354 N 
ATOM     98  N   UNL A   1      42.142  30.967  29.541  1.00  0.00    -0.248 NA
ATOM     99  C   UNL A   1      40.898  32.529  30.751  1.00  0.00    -0.034 C 
ATOM    100  C   UNL A   1      46.452  31.398  28.581  1.00  0.00    -0.036 A 
ATOM    101  H   UNL A   1      47.771  30.079  27.472  1.00  0.00     0.065 H 
ATOM    102  C   UNL A   1      45.113  31.275  28.916  1.00  0.00     0.049 A 
ATOM    103  H   UNL A   1      43.786  29.678  28.532  1.00  0.00     0.167 HD
ATOM    104  C   UNL A   1      42.961  32.035  29.882  1.00  0.00     0.074 A 
ATOM    105  C   UNL A   1      42.135  32.983  30.601  1.00  0.00    -0.034 C 
ATOM    106  H   UNL A   1      40.100  32.962  31.242  1.00  0.00     0.065 H 
ATOM    107  H   UNL A   1      47.061  32.197  28.813  1.00  0.00     0.065 H 
ATOM    108  C   UNL A   1      44.280  32.208  29.629  1.00  0.00     0.037 A 
ATOM    109  H   UNL A   1      42.466  33.896  30.951  1.00  0.00     0.065 H 
BRANCH  90 110
ATOM    110  C   UNL A   1      46.928  27.538  26.596  1.00  0.00     0.064 A 
ATOM    111  C   UNL A   1      47.802  26.715  27.323  1.00  0.00     0.173 A 
ATOM    112  C   UNL A   1      47.211  27.760  25.240  1.00  0.00     0.173 A 
ATOM    113  F   UNL A   1      47.581  26.481  28.625  1.00  0.00    -0.203 F 
ATOM    114  C   UNL A   1      48.918  26.144  26.716  1.00  0.00     0.198 A 
ATOM    115  C   UNL A   1      48.314  27.166  24.630  1.00  0.00     0.198 A 
ATOM    116  F   UNL A   1      46.403  28.532  24.498  1.00  0.00    -0.203 F 
ATOM    117  F   UNL A   1      49.753  25.381  27.437  1.00  0.00    -0.200 F 
ATOM    118  C   UNL A   1      49.166  26.361  25.369  1.00  0.00     0.200 A 
ATOM    119  F   UNL A   1      48.543  27.364  23.325  1.00  0.00    -0.200 F 
ATOM    120  F   UNL A   1      50.230  25.793  24.782  1.00  0.00    -0.200 F 
ENDBRANCH  90 110
BRANCH  93 121
ATOM    121  C   UNL A   1      38.417  30.981  30.508  1.00  0.00     0.064 A 
ATOM    122  C   UNL A   1      38.118  30.872  31.872  1.00  0.00     0.173 A 
ATOM    123  C   UNL A   1      37.482  31.629  29.685  1.00  0.00     0.173 A 
ATOM    124  F   UNL A   1      38.970  30.242  32.695  1.00  0.00    -0.203 F 
ATOM    125  C   UNL A   1      36.931  31.383  32.392  1.00  0.00     0.198 A 
ATOM    126  C   UNL A   1      36.310  32.166  30.211  1.00  0.00     0.198 A 
ATOM    127  F   UNL A   1      37.723  31.761  28.372  1.00  0.00    -0.203 F 
ATOM    128  F   UNL A   1      36.653  31.236  33.695  1.00  0.00    -0.200 F 
ATOM    129  C   UNL A   1      36.032  32.038  31.562  1.00  0.00     0.200 A 
ATOM    130  F   UNL A   1      35.454  32.812  29.408  1.00  0.00    -0.200 F 
ATOM    131  F   UNL A   1      34.897  32.542  32.065  1.00  0.00    -0.200 F 
ENDBRANCH  93 121
BRANCH 108 132
ATOM    132  C   UNL A   1      44.923  33.468  30.128  1.00  0.00     0.064 A 
ATOM    133  C   UNL A   1      44.924  34.639  29.358  1.00  0.00     0.173 A 
ATOM    134  C   UNL A   1      45.471  33.526  31.419  1.00  0.00     0.173 A 
ATOM    135  F   UNL A   1      44.425  34.628  28.113  1.00  0.00    -0.203 F 
ATOM    136  C   UNL A   1      45.458  35.823  29.859  1.00  0.00     0.198 A 
ATOM    137  C   UNL A   1      45.980  34.718  31.926  1.00  0.00     0.198 A 
ATOM    138  F   UNL A   1      45.487  32.433  32.197  1.00  0.00    -0.203 F 
ATOM    139  F   UNL A   1      45.473  36.924  29.095  1.00  0.00    -0.200 F 
ATOM    140  C   UNL A   1      45.975  35.864  31.145  1.00  0.00     0.200 A 
ATOM    141  F   UNL A   1      46.465  34.760  33.174  1.00  0.00    -0.200 F 
ATOM    142  F   UNL A   1      46.471  37.009  31.632  1.00  0.00    -0.200 F 
ENDBRANCH 108 132
ENDBRANCH  73  76
ENDBRANCH  63  66
ENDBRANCH  59  62
ENDBRANCH  56  59
ENDBRANCH  53  56
ENDBRANCH  50  53
ENDBRANCH   1  50
TORSDOF 19
ENDMDL
MODEL 5
REMARK VINA RESULT:     -12.4      1.386      2.400
REMARK SMILES CC1=C(CC(=O)NCCCCCCNC(=O)c2ccc(-c3c4nc(c(-c5c(F)c(F)c(F)c(F)c5F)c5ccc([nH]5)c(-c5c(F)c(F)c(F)c(F)c5F)c5nc(c(-c6c(F)c(F)c(F)c(F)c6F)c6ccc3[nH]6)C=C5)C=C4)cc2)c2cc(F)ccc2/C1=C\c1ccc([S@@+](C)O)cc1
REMARK SMILES IDX 9 1 8 4 7 7 5 8 6 9 4 11 3 14 2 15 87 16 80 17 86 18 88 19
REMARK SMILES IDX 81 20 85 21 82 23 84 25 83 27 1 29 89 33 90 34 97 35 91 36
REMARK SMILES IDX 96 38 92 40 93 43 94 44 95 48 10 50 11 53 12 56 13 59 14 62
REMARK SMILES IDX 15 63 16 65 17 66 18 67 79 68 19 69 78 71 20 73 21 76 22 77
REMARK SMILES IDX 72 78 23 79 77 80 71 81 73 82 24 83 76 84 70 86 69 88 25 90
REMARK SMILES IDX 57 93 37 94 56 95 38 96 41 97 55 98 74 99 39 100 40 102
REMARK SMILES IDX 54 104 75 105 42 108 26 110 27 111 35 112 28 113 29 114
REMARK SMILES IDX 33 115 36 116 30 117 31 118 34 119 32 120 58 121 59 122
REMARK SMILES IDX 67 123 60 124 61 125 65 126 68 127 62 128 63 129 66 130
REMARK SMILES IDX 64 131 43 132 44 133 52 134 45 135 46 136 50 137 53 138
REMARK SMILES IDX 47 139 48 140 51 141 49 142
REMARK H PARENT 9 2 9 3 8 5 8 6 7 10 4 12 4 13 88 22 81 24 85 26 84 28 1 30
REMARK H PARENT 1 31 1 32 90 37 97 39 91 41 96 42 94 45 94 46 94 47 95 49
REMARK H PARENT 10 51 10 52 11 54 11 55 12 57 12 58 13 60 13 61 14 64 18 70
REMARK H PARENT 79 72 19 74 78 75 77 85 71 87 73 89 76 91 70 92 38 101 41 103
REMARK H PARENT 74 106 39 107 75 109
REMARK Flexibility Score: inf
ROOT
ATOM      1  C   UNL A   1      32.064  29.397  24.264  1.00  0.00    -0.036 C 
ATOM      2  H   UNL A   1      32.135  30.424  23.972  1.00  0.00     0.028 H 
ATOM      3  H   UNL A   1      33.022  28.932  24.367  1.00  0.00     0.028 H 
ENDROOT
BRANCH   1   4
ATOM      4  C   UNL A   1      31.319  28.635  23.166  1.00  0.00     0.017 C 
ATOM      5  H   UNL A   1      30.647  27.938  23.621  1.00  0.00     0.049 H 
ATOM      6  H   UNL A   1      30.784  29.343  22.568  1.00  0.00     0.049 H 
BRANCH   4   7
ATOM      7  N   UNL A   1      32.236  27.916  22.309  1.00  0.00    -0.356 N 
ATOM      8  C   UNL A   1      33.118  26.929  22.633  1.00  0.00     0.224 C 
ATOM      9  O   UNL A   1      33.876  26.512  21.754  1.00  0.00    -0.275 OA
ATOM     10  H   UNL A   1      32.221  28.175  21.359  1.00  0.00     0.163 HD
BRANCH   8  11
ATOM     11  C   UNL A   1      33.119  26.318  24.034  1.00  0.00     0.053 C 
ATOM     12  H   UNL A   1      33.971  26.694  24.561  1.00  0.00     0.042 H 
ATOM     13  H   UNL A   1      32.190  26.595  24.487  1.00  0.00     0.042 H 
BRANCH  11  14
ATOM     14  C   UNL A   1      33.176  24.825  24.059  1.00  0.00    -0.027 C 
ATOM     15  C   UNL A   1      32.216  23.925  23.737  1.00  0.00    -0.039 C 
ATOM     16  C   UNL A   1      32.730  22.559  23.934  1.00  0.00    -0.014 C 
ATOM     17  C   UNL A   1      34.395  24.076  24.411  1.00  0.00    -0.011 A 
ATOM     18  C   UNL A   1      34.158  22.694  24.288  1.00  0.00    -0.010 A 
ATOM     19  C   UNL A   1      31.976  21.444  23.852  1.00  0.00    -0.047 C 
ATOM     20  C   UNL A   1      35.646  24.549  24.787  1.00  0.00    -0.018 A 
ATOM     21  C   UNL A   1      35.191  21.785  24.474  1.00  0.00    -0.051 A 
ATOM     22  H   UNL A   1      30.978  21.563  23.616  1.00  0.00     0.064 H 
ATOM     23  C   UNL A   1      36.657  23.624  25.028  1.00  0.00     0.123 A 
ATOM     24  H   UNL A   1      35.821  25.562  24.884  1.00  0.00     0.066 H 
ATOM     25  C   UNL A   1      36.446  22.256  24.866  1.00  0.00    -0.026 A 
ATOM     26  H   UNL A   1      35.034  20.776  24.326  1.00  0.00     0.063 H 
ATOM     27  F   UNL A   1      37.867  24.055  25.408  1.00  0.00    -0.207 F 
ATOM     28  H   UNL A   1      37.217  21.591  25.034  1.00  0.00     0.065 H 
BRANCH  15  29
ATOM     29  C   UNL A   1      30.835  24.193  23.234  1.00  0.00    -0.039 C 
ATOM     30  H   UNL A   1      30.132  24.054  24.030  1.00  0.00     0.028 H 
ATOM     31  H   UNL A   1      30.607  23.517  22.436  1.00  0.00     0.028 H 
ATOM     32  H   UNL A   1      30.774  25.199  22.877  1.00  0.00     0.028 H 
ENDBRANCH  15  29
BRANCH  19  33
ATOM     33  C   UNL A   1      32.459  20.079  24.070  1.00  0.00    -0.025 A 
ATOM     34  C   UNL A   1      32.571  19.171  23.011  1.00  0.00    -0.050 A 
ATOM     35  C   UNL A   1      32.683  19.640  25.377  1.00  0.00    -0.050 A 
ATOM     36  C   UNL A   1      32.762  17.811  23.272  1.00  0.00    -0.003 A 
ATOM     37  H   UNL A   1      32.512  19.506  22.035  1.00  0.00     0.063 H 
ATOM     38  C   UNL A   1      32.894  18.283  25.634  1.00  0.00    -0.003 A 
ATOM     39  H   UNL A   1      32.693  20.320  26.153  1.00  0.00     0.063 H 
ATOM     40  C   UNL A   1      32.894  17.352  24.588  1.00  0.00     0.189 A 
ATOM     41  H   UNL A   1      32.806  17.140  22.489  1.00  0.00     0.068 H 
ATOM     42  H   UNL A   1      33.051  17.964  26.603  1.00  0.00     0.068 H 
BRANCH  40  43
ATOM     43  S   UNL A   1      32.807  15.574  24.933  1.00  0.00     0.178 S 
BRANCH  43  44
ATOM     44  C   UNL A   1      34.559  15.268  25.272  1.00  0.00     0.137 C 
ATOM     45  H   UNL A   1      34.976  16.111  25.782  1.00  0.00     0.085 H 
ATOM     46  H   UNL A   1      35.079  15.117  24.350  1.00  0.00     0.085 H 
ATOM     47  H   UNL A   1      34.657  14.397  25.885  1.00  0.00     0.085 H 
ENDBRANCH  43  44
BRANCH  43  48
ATOM     48  O   UNL A   1      32.434  15.742  26.490  1.00  0.00    -0.182 OA
ATOM     49  H   UNL A   1      32.014  16.605  26.630  1.00  0.00     0.283 HD
ENDBRANCH  43  48
ENDBRANCH  40  43
ENDBRANCH  19  33
ENDBRANCH  11  14
ENDBRANCH   8  11
ENDBRANCH   4   7
ENDBRANCH   1   4
BRANCH   1  50
ATOM     50  C   UNL A   1      31.386  29.331  25.638  1.00  0.00    -0.052 C 
ATOM     51  H   UNL A   1      31.332  28.304  25.931  1.00  0.00     0.027 H 
ATOM     52  H   UNL A   1      30.428  29.794  25.517  1.00  0.00     0.027 H 
BRANCH  50  53
ATOM     53  C   UNL A   1      32.090  30.107  26.758  1.00  0.00    -0.052 C 
ATOM     54  H   UNL A   1      33.143  29.956  26.652  1.00  0.00     0.027 H 
ATOM     55  H   UNL A   1      31.693  29.728  27.676  1.00  0.00     0.027 H 
BRANCH  53  56
ATOM     56  C   UNL A   1      31.828  31.614  26.771  1.00  0.00    -0.036 C 
ATOM     57  H   UNL A   1      31.037  31.809  27.465  1.00  0.00     0.028 H 
ATOM     58  H   UNL A   1      31.585  31.887  25.766  1.00  0.00     0.028 H 
BRANCH  56  59
ATOM     59  C   UNL A   1      33.028  32.465  27.170  1.00  0.00     0.018 C 
ATOM     60  H   UNL A   1      33.713  32.498  26.348  1.00  0.00     0.049 H 
ATOM     61  H   UNL A   1      33.468  32.016  28.035  1.00  0.00     0.049 H 
BRANCH  59  62
ATOM     62  N   UNL A   1      32.659  33.828  27.523  1.00  0.00    -0.352 N 
ATOM     63  C   UNL A   1      33.110  34.609  28.560  1.00  0.00     0.251 C 
ATOM     64  H   UNL A   1      31.992  34.251  26.935  1.00  0.00     0.163 HD
ATOM     65  O   UNL A   1      32.582  35.691  28.799  1.00  0.00    -0.269 OA
BRANCH  63  66
ATOM     66  C   UNL A   1      34.216  34.125  29.416  1.00  0.00     0.039 A 
ATOM     67  C   UNL A   1      35.545  34.323  29.041  1.00  0.00    -0.049 A 
ATOM     68  C   UNL A   1      33.915  33.438  30.596  1.00  0.00    -0.049 A 
ATOM     69  C   UNL A   1      36.561  33.685  29.745  1.00  0.00    -0.053 A 
ATOM     70  H   UNL A   1      35.773  34.938  28.245  1.00  0.00     0.063 H 
ATOM     71  C   UNL A   1      34.946  32.872  31.354  1.00  0.00    -0.053 A 
ATOM     72  H   UNL A   1      32.935  33.349  30.908  1.00  0.00     0.063 H 
ATOM     73  C   UNL A   1      36.274  32.944  30.904  1.00  0.00    -0.014 A 
ATOM     74  H   UNL A   1      37.534  33.758  29.413  1.00  0.00     0.063 H 
ATOM     75  H   UNL A   1      34.730  32.400  32.246  1.00  0.00     0.063 H 
BRANCH  73  76
ATOM     76  C   UNL A   1      37.380  32.243  31.608  1.00  0.00     0.031 A 
ATOM     77  C   UNL A   1      38.128  31.120  30.941  1.00  0.00     0.074 A 
ATOM     78  C   UNL A   1      37.764  32.676  32.825  1.00  0.00     0.049 A 
ATOM     79  N   UNL A   1      39.158  30.439  31.381  1.00  0.00    -0.248 NA
ATOM     80  C   UNL A   1      37.664  30.703  29.608  1.00  0.00    -0.034 C 
ATOM     81  C   UNL A   1      37.122  33.760  33.571  1.00  0.00    -0.036 A 
ATOM     82  N   UNL A   1      38.803  32.287  33.633  1.00  0.00    -0.354 N 
ATOM     83  C   UNL A   1      39.453  29.511  30.390  1.00  0.00     0.074 A 
ATOM     84  C   UNL A   1      38.476  29.689  29.339  1.00  0.00    -0.034 C 
ATOM     85  H   UNL A   1      36.905  31.097  29.031  1.00  0.00     0.065 H 
ATOM     86  C   UNL A   1      37.817  33.992  34.694  1.00  0.00    -0.036 A 
ATOM     87  H   UNL A   1      36.271  34.266  33.279  1.00  0.00     0.065 H 
ATOM     88  C   UNL A   1      38.916  33.035  34.780  1.00  0.00     0.049 A 
ATOM     89  H   UNL A   1      39.408  31.543  33.412  1.00  0.00     0.167 HD
ATOM     90  C   UNL A   1      40.460  28.606  30.354  1.00  0.00     0.037 A 
ATOM     91  H   UNL A   1      38.418  29.104  28.491  1.00  0.00     0.065 H 
ATOM     92  H   UNL A   1      37.609  34.729  35.386  1.00  0.00     0.065 H 
ATOM     93  C   UNL A   1      39.801  32.957  35.792  1.00  0.00     0.037 A 
ATOM     94  C   UNL A   1      41.451  28.449  31.386  1.00  0.00     0.049 A 
ATOM     95  C   UNL A   1      40.881  31.913  35.743  1.00  0.00     0.074 A 
ATOM     96  C   UNL A   1      42.526  27.578  31.422  1.00  0.00    -0.036 A 
ATOM     97  N   UNL A   1      41.488  29.180  32.563  1.00  0.00    -0.354 N 
ATOM     98  N   UNL A   1      41.158  31.057  34.792  1.00  0.00    -0.248 NA
ATOM     99  C   UNL A   1      41.763  31.817  36.914  1.00  0.00    -0.034 C 
ATOM    100  C   UNL A   1      43.190  27.752  32.639  1.00  0.00    -0.036 A 
ATOM    101  H   UNL A   1      42.792  26.914  30.678  1.00  0.00     0.065 H 
ATOM    102  C   UNL A   1      42.556  28.764  33.343  1.00  0.00     0.049 A 
ATOM    103  H   UNL A   1      40.853  29.891  32.809  1.00  0.00     0.167 HD
ATOM    104  C   UNL A   1      42.248  30.326  35.243  1.00  0.00     0.074 A 
ATOM    105  C   UNL A   1      42.598  30.857  36.543  1.00  0.00    -0.034 C 
ATOM    106  H   UNL A   1      41.739  32.356  37.795  1.00  0.00     0.065 H 
ATOM    107  H   UNL A   1      44.013  27.220  32.959  1.00  0.00     0.065 H 
ATOM    108  C   UNL A   1      42.893  29.301  34.635  1.00  0.00     0.037 A 
ATOM    109  H   UNL A   1      43.397  30.529  37.110  1.00  0.00     0.065 H 
BRANCH  90 110
ATOM    110  C   UNL A   1      40.559  27.709  29.155  1.00  0.00     0.064 A 
ATOM    111  C   UNL A   1      41.496  27.946  28.138  1.00  0.00     0.173 A 
ATOM    112  C   UNL A   1      39.771  26.552  29.064  1.00  0.00     0.173 A 
ATOM    113  F   UNL A   1      42.266  29.044  28.173  1.00  0.00    -0.203 F 
ATOM    114  C   UNL A   1      41.632  27.063  27.070  1.00  0.00     0.198 A 
ATOM    115  C   UNL A   1      39.928  25.657  28.008  1.00  0.00     0.198 A 
ATOM    116  F   UNL A   1      38.866  26.273  30.015  1.00  0.00    -0.203 F 
ATOM    117  F   UNL A   1      42.517  27.323  26.097  1.00  0.00    -0.200 F 
ATOM    118  C   UNL A   1      40.857  25.914  27.012  1.00  0.00     0.200 A 
ATOM    119  F   UNL A   1      39.189  24.540  27.962  1.00  0.00    -0.200 F 
ATOM    120  F   UNL A   1      41.005  25.055  25.994  1.00  0.00    -0.200 F 
ENDBRANCH  90 110
BRANCH  93 121
ATOM    121  C   UNL A   1      39.700  33.903  36.932  1.00  0.00     0.064 A 
ATOM    122  C   UNL A   1      38.936  33.589  38.064  1.00  0.00     0.173 A 
ATOM    123  C   UNL A   1      40.380  35.131  36.925  1.00  0.00     0.173 A 
ATOM    124  F   UNL A   1      38.250  32.437  38.109  1.00  0.00    -0.203 F 
ATOM    125  C   UNL A   1      38.851  34.468  39.141  1.00  0.00     0.198 A 
ATOM    126  C   UNL A   1      40.318  35.995  38.015  1.00  0.00     0.198 A 
ATOM    127  F   UNL A   1      41.126  35.478  35.865  1.00  0.00    -0.203 F 
ATOM    128  F   UNL A   1      38.087  34.157  40.198  1.00  0.00    -0.200 F 
ATOM    129  C   UNL A   1      39.550  35.666  39.120  1.00  0.00     0.200 A 
ATOM    130  F   UNL A   1      41.008  37.144  37.996  1.00  0.00    -0.200 F 
ATOM    131  F   UNL A   1      39.479  36.505  40.163  1.00  0.00    -0.200 F 
ENDBRANCH  93 121
BRANCH 108 132
ATOM    132  C   UNL A   1      44.048  28.679  35.363  1.00  0.00     0.064 A 
ATOM    133  C   UNL A   1      43.871  27.552  36.179  1.00  0.00     0.173 A 
ATOM    134  C   UNL A   1      45.351  29.163  35.179  1.00  0.00     0.173 A 
ATOM    135  F   UNL A   1      42.641  27.062  36.396  1.00  0.00    -0.203 F 
ATOM    136  C   UNL A   1      44.958  26.937  36.792  1.00  0.00     0.198 A 
ATOM    137  C   UNL A   1      46.439  28.529  35.773  1.00  0.00     0.198 A 
ATOM    138  F   UNL A   1      45.572  30.234  34.402  1.00  0.00    -0.203 F 
ATOM    139  F   UNL A   1      44.764  25.878  37.589  1.00  0.00    -0.200 F 
ATOM    140  C   UNL A   1      46.242  27.419  36.580  1.00  0.00     0.200 A 
ATOM    141  F   UNL A   1      47.680  28.986  35.554  1.00  0.00    -0.200 F 
ATOM    142  F   UNL A   1      47.289  26.813  37.155  1.00  0.00    -0.200 F 
ENDBRANCH 108 132
ENDBRANCH  73  76
ENDBRANCH  63  66
ENDBRANCH  59  62
ENDBRANCH  56  59
ENDBRANCH  53  56
ENDBRANCH  50  53
ENDBRANCH   1  50
TORSDOF 19
ENDMDL
MODEL 6
REMARK VINA RESULT:     -12.3      1.452      7.260
REMARK SMILES CC1=C(CC(=O)NCCCCCCNC(=O)c2ccc(-c3c4nc(c(-c5c(F)c(F)c(F)c(F)c5F)c5ccc([nH]5)c(-c5c(F)c(F)c(F)c(F)c5F)c5nc(c(-c6c(F)c(F)c(F)c(F)c6F)c6ccc3[nH]6)C=C5)C=C4)cc2)c2cc(F)ccc2/C1=C\c1ccc([S@@+](C)O)cc1
REMARK SMILES IDX 9 1 8 4 7 7 5 8 6 9 4 11 3 14 2 15 87 16 80 17 86 18 88 19
REMARK SMILES IDX 81 20 85 21 82 23 84 25 83 27 1 29 89 33 90 34 97 35 91 36
REMARK SMILES IDX 96 38 92 40 93 43 94 44 95 48 10 50 11 53 12 56 13 59 14 62
REMARK SMILES IDX 15 63 16 65 17 66 18 67 79 68 19 69 78 71 20 73 21 76 22 77
REMARK SMILES IDX 72 78 23 79 77 80 71 81 73 82 24 83 76 84 70 86 69 88 25 90
REMARK SMILES IDX 57 93 37 94 56 95 38 96 41 97 55 98 74 99 39 100 40 102
REMARK SMILES IDX 54 104 75 105 42 108 26 110 27 111 35 112 28 113 29 114
REMARK SMILES IDX 33 115 36 116 30 117 31 118 34 119 32 120 58 121 59 122
REMARK SMILES IDX 67 123 60 124 61 125 65 126 68 127 62 128 63 129 66 130
REMARK SMILES IDX 64 131 43 132 44 133 52 134 45 135 46 136 50 137 53 138
REMARK SMILES IDX 47 139 48 140 51 141 49 142
REMARK H PARENT 9 2 9 3 8 5 8 6 7 10 4 12 4 13 88 22 81 24 85 26 84 28 1 30
REMARK H PARENT 1 31 1 32 90 37 97 39 91 41 96 42 94 45 94 46 94 47 95 49
REMARK H PARENT 10 51 10 52 11 54 11 55 12 57 12 58 13 60 13 61 14 64 18 70
REMARK H PARENT 79 72 19 74 78 75 77 85 71 87 73 89 76 91 70 92 38 101 41 103
REMARK H PARENT 74 106 39 107 75 109
REMARK Flexibility Score: inf
ROOT
ATOM      1  C   UNL A   1      33.020  28.636  27.251  1.00  0.00    -0.036 C 
ATOM      2  H   UNL A   1      33.252  27.598  27.140  1.00  0.00     0.028 H 
ATOM      3  H   UNL A   1      32.654  28.874  28.228  1.00  0.00     0.028 H 
ENDROOT
BRANCH   1   4
ATOM      4  C   UNL A   1      31.905  28.988  26.264  1.00  0.00     0.017 C 
ATOM      5  H   UNL A   1      31.274  28.134  26.133  1.00  0.00     0.049 H 
ATOM      6  H   UNL A   1      31.350  29.811  26.662  1.00  0.00     0.049 H 
BRANCH   4   7
ATOM      7  N   UNL A   1      32.444  29.377  24.979  1.00  0.00    -0.356 N 
ATOM      8  C   UNL A   1      32.155  28.883  23.743  1.00  0.00     0.224 C 
ATOM      9  O   UNL A   1      32.804  29.302  22.781  1.00  0.00    -0.275 OA
ATOM     10  H   UNL A   1      33.111  30.102  25.001  1.00  0.00     0.163 HD
BRANCH   8  11
ATOM     11  C   UNL A   1      31.018  27.881  23.553  1.00  0.00     0.053 C 
ATOM     12  H   UNL A   1      30.285  28.060  24.311  1.00  0.00     0.042 H 
ATOM     13  H   UNL A   1      30.642  28.031  22.563  1.00  0.00     0.042 H 
BRANCH  11  14
ATOM     14  C   UNL A   1      31.435  26.447  23.637  1.00  0.00    -0.027 C 
ATOM     15  C   UNL A   1      32.375  25.785  22.921  1.00  0.00    -0.039 C 
ATOM     16  C   UNL A   1      32.420  24.376  23.346  1.00  0.00    -0.014 C 
ATOM     17  C   UNL A   1      30.874  25.507  24.622  1.00  0.00    -0.011 A 
ATOM     18  C   UNL A   1      31.502  24.253  24.496  1.00  0.00    -0.010 A 
ATOM     19  C   UNL A   1      33.137  23.418  22.724  1.00  0.00    -0.047 C 
ATOM     20  C   UNL A   1      29.903  25.718  25.593  1.00  0.00    -0.018 A 
ATOM     21  C   UNL A   1      31.208  23.228  25.386  1.00  0.00    -0.051 A 
ATOM     22  H   UNL A   1      33.703  23.702  21.909  1.00  0.00     0.064 H 
ATOM     23  C   UNL A   1      29.577  24.664  26.441  1.00  0.00     0.123 A 
ATOM     24  H   UNL A   1      29.437  26.635  25.685  1.00  0.00     0.066 H 
ATOM     25  C   UNL A   1      30.223  23.433  26.354  1.00  0.00    -0.026 A 
ATOM     26  H   UNL A   1      31.711  22.329  25.333  1.00  0.00     0.063 H 
ATOM     27  F   UNL A   1      28.631  24.838  27.374  1.00  0.00    -0.207 F 
ATOM     28  H   UNL A   1      29.975  22.672  27.005  1.00  0.00     0.065 H 
BRANCH  15  29
ATOM     29  C   UNL A   1      33.278  26.329  21.862  1.00  0.00    -0.039 C 
ATOM     30  H   UNL A   1      34.249  26.504  22.277  1.00  0.00     0.028 H 
ATOM     31  H   UNL A   1      32.879  27.249  21.490  1.00  0.00     0.028 H 
ATOM     32  H   UNL A   1      33.354  25.624  21.061  1.00  0.00     0.028 H 
ENDBRANCH  15  29
BRANCH  19  33
ATOM     33  C   UNL A   1      33.177  22.006  23.112  1.00  0.00    -0.025 A 
ATOM     34  C   UNL A   1      32.289  21.077  22.558  1.00  0.00    -0.050 A 
ATOM     35  C   UNL A   1      34.024  21.611  24.149  1.00  0.00    -0.050 A 
ATOM     36  C   UNL A   1      32.153  19.809  23.133  1.00  0.00    -0.003 A 
ATOM     37  H   UNL A   1      31.735  21.326  21.723  1.00  0.00     0.063 H 
ATOM     38  C   UNL A   1      33.900  20.338  24.711  1.00  0.00    -0.003 A 
ATOM     39  H   UNL A   1      34.744  22.262  24.502  1.00  0.00     0.063 H 
ATOM     40  C   UNL A   1      32.935  19.441  24.235  1.00  0.00     0.189 A 
ATOM     41  H   UNL A   1      31.470  19.140  22.744  1.00  0.00     0.068 H 
ATOM     42  H   UNL A   1      34.524  20.055  25.482  1.00  0.00     0.068 H 
BRANCH  40  43
ATOM     43  S   UNL A   1      32.523  17.944  25.170  1.00  0.00     0.178 S 
BRANCH  43  44
ATOM     44  C   UNL A   1      34.099  17.068  25.005  1.00  0.00     0.137 C 
ATOM     45  H   UNL A   1      34.902  17.725  25.266  1.00  0.00     0.085 H 
ATOM     46  H   UNL A   1      34.221  16.741  23.994  1.00  0.00     0.085 H 
ATOM     47  H   UNL A   1      34.106  16.220  25.658  1.00  0.00     0.085 H 
ENDBRANCH  43  44
BRANCH  43  48
ATOM     48  O   UNL A   1      32.903  18.557  26.609  1.00  0.00    -0.182 OA
ATOM     49  H   UNL A   1      32.322  18.176  27.286  1.00  0.00     0.283 HD
ENDBRANCH  43  48
ENDBRANCH  40  43
ENDBRANCH  19  33
ENDBRANCH  11  14
ENDBRANCH   8  11
ENDBRANCH   4   7
ENDBRANCH   1   4
BRANCH   1  50
ATOM     50  C   UNL A   1      34.309  29.443  27.049  1.00  0.00    -0.052 C 
ATOM     51  H   UNL A   1      34.357  29.738  26.022  1.00  0.00     0.027 H 
ATOM     52  H   UNL A   1      35.110  28.800  27.349  1.00  0.00     0.027 H 
BRANCH  50  53
ATOM     53  C   UNL A   1      34.437  30.705  27.911  1.00  0.00    -0.052 C 
ATOM     54  H   UNL A   1      35.469  30.830  28.161  1.00  0.00     0.027 H 
ATOM     55  H   UNL A   1      33.806  30.550  28.760  1.00  0.00     0.027 H 
BRANCH  53  56
ATOM     56  C   UNL A   1      33.951  31.997  27.251  1.00  0.00    -0.036 C 
ATOM     57  H   UNL A   1      34.012  31.873  26.190  1.00  0.00     0.028 H 
ATOM     58  H   UNL A   1      34.579  32.779  27.622  1.00  0.00     0.028 H 
BRANCH  56  59
ATOM     59  C   UNL A   1      32.521  32.391  27.601  1.00  0.00     0.018 C 
ATOM     60  H   UNL A   1      32.248  31.911  28.518  1.00  0.00     0.049 H 
ATOM     61  H   UNL A   1      31.894  32.082  26.790  1.00  0.00     0.049 H 
BRANCH  59  62
ATOM     62  N   UNL A   1      32.356  33.828  27.761  1.00  0.00    -0.352 N 
ATOM     63  C   UNL A   1      33.055  34.699  28.562  1.00  0.00     0.251 C 
ATOM     64  H   UNL A   1      31.641  34.234  27.218  1.00  0.00     0.163 HD
ATOM     65  O   UNL A   1      32.685  35.863  28.686  1.00  0.00    -0.269 OA
BRANCH  63  66
ATOM     66  C   UNL A   1      34.239  34.220  29.308  1.00  0.00     0.039 A 
ATOM     67  C   UNL A   1      35.528  34.525  28.869  1.00  0.00    -0.049 A 
ATOM     68  C   UNL A   1      34.055  33.429  30.446  1.00  0.00    -0.049 A 
ATOM     69  C   UNL A   1      36.622  33.899  29.458  1.00  0.00    -0.053 A 
ATOM     70  H   UNL A   1      35.669  35.211  28.111  1.00  0.00     0.063 H 
ATOM     71  C   UNL A   1      35.163  32.872  31.093  1.00  0.00    -0.053 A 
ATOM     72  H   UNL A   1      33.104  33.259  30.810  1.00  0.00     0.063 H 
ATOM     73  C   UNL A   1      36.453  33.057  30.570  1.00  0.00    -0.014 A 
ATOM     74  H   UNL A   1      37.566  34.055  29.073  1.00  0.00     0.063 H 
ATOM     75  H   UNL A   1      35.033  32.322  31.956  1.00  0.00     0.063 H 
BRANCH  73  76
ATOM     76  C   UNL A   1      37.640  32.374  31.148  1.00  0.00     0.031 A 
ATOM     77  C   UNL A   1      38.101  32.684  32.548  1.00  0.00     0.074 A 
ATOM     78  C   UNL A   1      38.257  31.411  30.436  1.00  0.00     0.049 A 
ATOM     79  N   UNL A   1      39.078  32.142  33.233  1.00  0.00    -0.248 NA
ATOM     80  C   UNL A   1      37.378  33.739  33.274  1.00  0.00    -0.034 C 
ATOM     81  C   UNL A   1      37.898  31.016  29.073  1.00  0.00    -0.036 A 
ATOM     82  N   UNL A   1      39.287  30.567  30.766  1.00  0.00    -0.354 N 
ATOM     83  C   UNL A   1      39.092  32.796  34.459  1.00  0.00     0.074 A 
ATOM     84  C   UNL A   1      38.052  33.799  34.415  1.00  0.00    -0.034 C 
ATOM     85  H   UNL A   1      36.558  34.290  32.975  1.00  0.00     0.065 H 
ATOM     86  C   UNL A   1      38.649  29.967  28.707  1.00  0.00    -0.036 A 
ATOM     87  H   UNL A   1      37.181  31.471  28.487  1.00  0.00     0.065 H 
ATOM     88  C   UNL A   1      39.584  29.654  29.782  1.00  0.00     0.049 A 
ATOM     89  H   UNL A   1      39.767  30.611  31.624  1.00  0.00     0.167 HD
ATOM     90  C   UNL A   1      39.889  32.565  35.530  1.00  0.00     0.037 A 
ATOM     91  H   UNL A   1      37.859  34.473  35.173  1.00  0.00     0.065 H 
ATOM     92  H   UNL A   1      38.577  29.462  27.810  1.00  0.00     0.065 H 
ATOM     93  C   UNL A   1      40.510  28.677  29.748  1.00  0.00     0.037 A 
ATOM     94  C   UNL A   1      40.905  31.546  35.584  1.00  0.00     0.049 A 
ATOM     95  C   UNL A   1      41.409  28.474  30.935  1.00  0.00     0.074 A 
ATOM     96  C   UNL A   1      41.741  31.220  36.637  1.00  0.00    -0.036 A 
ATOM     97  N   UNL A   1      41.220  30.688  34.542  1.00  0.00    -0.354 N 
ATOM     98  N   UNL A   1      41.398  29.087  32.092  1.00  0.00    -0.248 NA
ATOM     99  C   UNL A   1      42.458  27.453  30.806  1.00  0.00    -0.034 C 
ATOM    100  C   UNL A   1      42.591  30.193  36.220  1.00  0.00    -0.036 A 
ATOM    101  H   UNL A   1      41.737  31.660  37.571  1.00  0.00     0.065 H 
ATOM    102  C   UNL A   1      42.255  29.848  34.920  1.00  0.00     0.049 A 
ATOM    103  H   UNL A   1      40.774  30.676  33.664  1.00  0.00     0.167 HD
ATOM    104  C   UNL A   1      42.428  28.523  32.832  1.00  0.00     0.074 A 
ATOM    105  C   UNL A   1      43.028  27.501  32.002  1.00  0.00    -0.034 C 
ATOM    106  H   UNL A   1      42.689  26.854  29.996  1.00  0.00     0.065 H 
ATOM    107  H   UNL A   1      43.341  29.764  36.782  1.00  0.00     0.065 H 
ATOM    108  C   UNL A   1      42.842  28.834  34.083  1.00  0.00     0.037 A 
ATOM    109  H   UNL A   1      43.802  26.887  32.302  1.00  0.00     0.065 H 
BRANCH  90 110
ATOM    110  C   UNL A   1      39.700  33.422  36.747  1.00  0.00     0.064 A 
ATOM    111  C   UNL A   1      40.354  34.656  36.883  1.00  0.00     0.173 A 
ATOM    112  C   UNL A   1      38.790  33.048  37.747  1.00  0.00     0.173 A 
ATOM    113  F   UNL A   1      41.242  35.054  35.959  1.00  0.00    -0.203 F 
ATOM    114  C   UNL A   1      40.110  35.478  37.979  1.00  0.00     0.198 A 
ATOM    115  C   UNL A   1      38.529  33.885  38.830  1.00  0.00     0.198 A 
ATOM    116  F   UNL A   1      38.131  31.882  37.661  1.00  0.00    -0.203 F 
ATOM    117  F   UNL A   1      40.765  36.642  38.100  1.00  0.00    -0.200 F 
ATOM    118  C   UNL A   1      39.190  35.098  38.945  1.00  0.00     0.200 A 
ATOM    119  F   UNL A   1      37.629  33.523  39.754  1.00  0.00    -0.200 F 
ATOM    120  F   UNL A   1      38.942  35.901  39.990  1.00  0.00    -0.200 F 
ENDBRANCH  90 110
BRANCH  93 121
ATOM    121  C   UNL A   1      40.624  27.814  28.543  1.00  0.00     0.064 A 
ATOM    122  C   UNL A   1      39.940  26.594  28.463  1.00  0.00     0.173 A 
ATOM    123  C   UNL A   1      41.400  28.201  27.440  1.00  0.00     0.173 A 
ATOM    124  F   UNL A   1      39.203  26.171  29.501  1.00  0.00    -0.203 F 
ATOM    125  C   UNL A   1      40.033  25.791  27.329  1.00  0.00     0.198 A 
ATOM    126  C   UNL A   1      41.469  27.411  26.295  1.00  0.00     0.198 A 
ATOM    127  F   UNL A   1      42.074  29.361  27.466  1.00  0.00    -0.203 F 
ATOM    128  F   UNL A   1      39.395  24.612  27.291  1.00  0.00    -0.200 F 
ATOM    129  C   UNL A   1      40.789  26.204  26.242  1.00  0.00     0.200 A 
ATOM    130  F   UNL A   1      42.187  27.823  25.242  1.00  0.00    -0.200 F 
ATOM    131  F   UNL A   1      40.867  25.437  25.146  1.00  0.00    -0.200 F 
ENDBRANCH  93 121
BRANCH 108 132
ATOM    132  C   UNL A   1      44.001  28.062  34.642  1.00  0.00     0.064 A 
ATOM    133  C   UNL A   1      45.308  28.566  34.579  1.00  0.00     0.173 A 
ATOM    134  C   UNL A   1      43.792  26.850  35.317  1.00  0.00     0.173 A 
ATOM    135  F   UNL A   1      45.558  29.714  33.932  1.00  0.00    -0.203 F 
ATOM    136  C   UNL A   1      46.367  27.879  35.165  1.00  0.00     0.198 A 
ATOM    137  C   UNL A   1      44.850  26.179  35.924  1.00  0.00     0.198 A 
ATOM    138  F   UNL A   1      42.559  26.331  35.410  1.00  0.00    -0.203 F 
ATOM    139  F   UNL A   1      47.612  28.364  35.069  1.00  0.00    -0.200 F 
ATOM    140  C   UNL A   1      46.136  26.692  35.845  1.00  0.00     0.200 A 
ATOM    141  F   UNL A   1      44.623  25.041  36.594  1.00  0.00    -0.200 F 
ATOM    142  F   UNL A   1      47.154  26.042  36.425  1.00  0.00    -0.200 F 
ENDBRANCH 108 132
ENDBRANCH  73  76
ENDBRANCH  63  66
ENDBRANCH  59  62
ENDBRANCH  56  59
ENDBRANCH  53  56
ENDBRANCH  50  53
ENDBRANCH   1  50
TORSDOF 19
ENDMDL
MODEL 7
REMARK VINA RESULT:     -12.2      1.222      2.129
REMARK SMILES CC1=C(CC(=O)NCCCCCCNC(=O)c2ccc(-c3c4nc(c(-c5c(F)c(F)c(F)c(F)c5F)c5ccc([nH]5)c(-c5c(F)c(F)c(F)c(F)c5F)c5nc(c(-c6c(F)c(F)c(F)c(F)c6F)c6ccc3[nH]6)C=C5)C=C4)cc2)c2cc(F)ccc2/C1=C\c1ccc([S@@+](C)O)cc1
REMARK SMILES IDX 9 1 8 4 7 7 5 8 6 9 4 11 3 14 2 15 87 16 80 17 86 18 88 19
REMARK SMILES IDX 81 20 85 21 82 23 84 25 83 27 1 29 89 33 90 34 97 35 91 36
REMARK SMILES IDX 96 38 92 40 93 43 94 44 95 48 10 50 11 53 12 56 13 59 14 62
REMARK SMILES IDX 15 63 16 65 17 66 18 67 79 68 19 69 78 71 20 73 21 76 22 77
REMARK SMILES IDX 72 78 23 79 77 80 71 81 73 82 24 83 76 84 70 86 69 88 25 90
REMARK SMILES IDX 57 93 37 94 56 95 38 96 41 97 55 98 74 99 39 100 40 102
REMARK SMILES IDX 54 104 75 105 42 108 26 110 27 111 35 112 28 113 29 114
REMARK SMILES IDX 33 115 36 116 30 117 31 118 34 119 32 120 58 121 59 122
REMARK SMILES IDX 67 123 60 124 61 125 65 126 68 127 62 128 63 129 66 130
REMARK SMILES IDX 64 131 43 132 44 133 52 134 45 135 46 136 50 137 53 138
REMARK SMILES IDX 47 139 48 140 51 141 49 142
REMARK H PARENT 9 2 9 3 8 5 8 6 7 10 4 12 4 13 88 22 81 24 85 26 84 28 1 30
REMARK H PARENT 1 31 1 32 90 37 97 39 91 41 96 42 94 45 94 46 94 47 95 49
REMARK H PARENT 10 51 10 52 11 54 11 55 12 57 12 58 13 60 13 61 14 64 18 70
REMARK H PARENT 79 72 19 74 78 75 77 85 71 87 73 89 76 91 70 92 38 101 41 103
REMARK H PARENT 74 106 39 107 75 109
REMARK Flexibility Score: inf
ROOT
ATOM      1  C   UNL A   1      32.867  28.640  27.278  1.00  0.00    -0.036 C 
ATOM      2  H   UNL A   1      33.070  27.591  27.316  1.00  0.00     0.028 H 
ATOM      3  H   UNL A   1      32.423  29.006  28.180  1.00  0.00     0.028 H 
ENDROOT
BRANCH   1   4
ATOM      4  C   UNL A   1      31.859  28.894  26.156  1.00  0.00     0.017 C 
ATOM      5  H   UNL A   1      31.292  28.002  25.988  1.00  0.00     0.049 H 
ATOM      6  H   UNL A   1      31.219  29.699  26.453  1.00  0.00     0.049 H 
BRANCH   4   7
ATOM      7  N   UNL A   1      32.523  29.269  24.926  1.00  0.00    -0.356 N 
ATOM      8  C   UNL A   1      32.360  28.759  23.674  1.00  0.00     0.224 C 
ATOM      9  O   UNL A   1      33.101  29.168  22.777  1.00  0.00    -0.275 OA
ATOM     10  H   UNL A   1      33.185  29.995  25.006  1.00  0.00     0.163 HD
BRANCH   8  11
ATOM     11  C   UNL A   1      31.247  27.754  23.383  1.00  0.00     0.053 C 
ATOM     12  H   UNL A   1      30.408  27.996  24.002  1.00  0.00     0.042 H 
ATOM     13  H   UNL A   1      31.032  27.831  22.338  1.00  0.00     0.042 H 
BRANCH  11  14
ATOM     14  C   UNL A   1      31.619  26.328  23.637  1.00  0.00    -0.027 C 
ATOM     15  C   UNL A   1      32.593  25.582  23.065  1.00  0.00    -0.039 C 
ATOM     16  C   UNL A   1      32.569  24.220  23.626  1.00  0.00    -0.014 C 
ATOM     17  C   UNL A   1      30.960  25.500  24.661  1.00  0.00    -0.011 A 
ATOM     18  C   UNL A   1      31.562  24.228  24.706  1.00  0.00    -0.010 A 
ATOM     19  C   UNL A   1      33.307  23.193  23.158  1.00  0.00    -0.047 C 
ATOM     20  C   UNL A   1      29.923  25.823  25.528  1.00  0.00    -0.018 A 
ATOM     21  C   UNL A   1      31.174  23.301  25.664  1.00  0.00    -0.051 A 
ATOM     22  H   UNL A   1      33.941  23.385  22.367  1.00  0.00     0.064 H 
ATOM     23  C   UNL A   1      29.504  24.863  26.444  1.00  0.00     0.123 A 
ATOM     24  H   UNL A   1      29.475  26.753  25.493  1.00  0.00     0.066 H 
ATOM     25  C   UNL A   1      30.123  23.617  26.528  1.00  0.00    -0.026 A 
ATOM     26  H   UNL A   1      31.656  22.391  25.738  1.00  0.00     0.063 H 
ATOM     27  F   UNL A   1      28.495  25.145  27.278  1.00  0.00    -0.207 F 
ATOM     28  H   UNL A   1      29.806  22.929  27.227  1.00  0.00     0.065 H 
BRANCH  15  29
ATOM     29  C   UNL A   1      33.589  26.002  22.034  1.00  0.00    -0.039 C 
ATOM     30  H   UNL A   1      33.364  26.995  21.703  1.00  0.00     0.028 H 
ATOM     31  H   UNL A   1      33.546  25.332  21.201  1.00  0.00     0.028 H 
ATOM     32  H   UNL A   1      34.572  25.982  22.457  1.00  0.00     0.028 H 
ENDBRANCH  15  29
BRANCH  19  33
ATOM     33  C   UNL A   1      33.280  21.825  23.682  1.00  0.00    -0.025 A 
ATOM     34  C   UNL A   1      34.266  21.367  24.564  1.00  0.00    -0.050 A 
ATOM     35  C   UNL A   1      32.330  20.929  23.188  1.00  0.00    -0.050 A 
ATOM     36  C   UNL A   1      34.384  20.000  24.832  1.00  0.00    -0.003 A 
ATOM     37  H   UNL A   1      34.905  22.039  25.017  1.00  0.00     0.063 H 
ATOM     38  C   UNL A   1      32.439  19.565  23.473  1.00  0.00    -0.003 A 
ATOM     39  H   UNL A   1      31.547  21.274  22.612  1.00  0.00     0.063 H 
ATOM     40  C   UNL A   1      33.490  19.085  24.263  1.00  0.00     0.189 A 
ATOM     41  H   UNL A   1      35.136  19.663  25.453  1.00  0.00     0.068 H 
ATOM     42  H   UNL A   1      31.738  18.907  23.098  1.00  0.00     0.068 H 
BRANCH  40  43
ATOM     43  S   UNL A   1      33.849  17.309  24.345  1.00  0.00     0.178 S 
BRANCH  43  44
ATOM     44  C   UNL A   1      32.610  16.830  25.576  1.00  0.00     0.137 C 
ATOM     45  H   UNL A   1      31.691  17.337  25.372  1.00  0.00     0.085 H 
ATOM     46  H   UNL A   1      32.957  17.096  26.552  1.00  0.00     0.085 H 
ATOM     47  H   UNL A   1      32.452  15.772  25.529  1.00  0.00     0.085 H 
ENDBRANCH  43  44
BRANCH  43  48
ATOM     48  O   UNL A   1      32.909  16.909  23.100  1.00  0.00    -0.182 OA
ATOM     49  H   UNL A   1      33.168  17.427  22.321  1.00  0.00     0.283 HD
ENDBRANCH  43  48
ENDBRANCH  40  43
ENDBRANCH  19  33
ENDBRANCH  11  14
ENDBRANCH   8  11
ENDBRANCH   4   7
ENDBRANCH   1   4
BRANCH   1  50
ATOM     50  C   UNL A   1      34.196  29.384  27.102  1.00  0.00    -0.052 C 
ATOM     51  H   UNL A   1      34.282  29.670  26.074  1.00  0.00     0.027 H 
ATOM     52  H   UNL A   1      34.959  28.706  27.423  1.00  0.00     0.027 H 
BRANCH  50  53
ATOM     53  C   UNL A   1      34.364  30.644  27.959  1.00  0.00    -0.052 C 
ATOM     54  H   UNL A   1      35.394  30.719  28.239  1.00  0.00     0.027 H 
ATOM     55  H   UNL A   1      33.702  30.528  28.791  1.00  0.00     0.027 H 
BRANCH  53  56
ATOM     56  C   UNL A   1      33.964  31.954  27.278  1.00  0.00    -0.036 C 
ATOM     57  H   UNL A   1      33.949  31.790  26.221  1.00  0.00     0.028 H 
ATOM     58  H   UNL A   1      34.684  32.684  27.582  1.00  0.00     0.028 H 
BRANCH  56  59
ATOM     59  C   UNL A   1      32.601  32.496  27.693  1.00  0.00     0.018 C 
ATOM     60  H   UNL A   1      32.367  32.124  28.669  1.00  0.00     0.049 H 
ATOM     61  H   UNL A   1      31.889  32.170  26.964  1.00  0.00     0.049 H 
BRANCH  59  62
ATOM     62  N   UNL A   1      32.559  33.950  27.726  1.00  0.00    -0.352 N 
ATOM     63  C   UNL A   1      33.285  34.823  28.501  1.00  0.00     0.251 C 
ATOM     64  H   UNL A   1      31.920  34.369  27.105  1.00  0.00     0.163 HD
ATOM     65  O   UNL A   1      33.017  36.021  28.507  1.00  0.00    -0.269 OA
BRANCH  63  66
ATOM     66  C   UNL A   1      34.372  34.308  29.363  1.00  0.00     0.039 A 
ATOM     67  C   UNL A   1      35.709  34.477  28.999  1.00  0.00    -0.049 A 
ATOM     68  C   UNL A   1      34.046  33.622  30.537  1.00  0.00    -0.049 A 
ATOM     69  C   UNL A   1      36.704  33.812  29.707  1.00  0.00    -0.053 A 
ATOM     70  H   UNL A   1      35.957  35.091  28.208  1.00  0.00     0.063 H 
ATOM     71  C   UNL A   1      35.058  33.029  31.299  1.00  0.00    -0.053 A 
ATOM     72  H   UNL A   1      33.062  33.555  30.841  1.00  0.00     0.063 H 
ATOM     73  C   UNL A   1      36.390  33.071  30.860  1.00  0.00    -0.014 A 
ATOM     74  H   UNL A   1      37.681  33.863  29.383  1.00  0.00     0.063 H 
ATOM     75  H   UNL A   1      34.824  32.557  32.187  1.00  0.00     0.063 H 
BRANCH  73  76
ATOM     76  C   UNL A   1      37.475  32.341  31.569  1.00  0.00     0.031 A 
ATOM     77  C   UNL A   1      38.227  31.229  30.887  1.00  0.00     0.074 A 
ATOM     78  C   UNL A   1      37.836  32.738  32.805  1.00  0.00     0.049 A 
ATOM     79  N   UNL A   1      39.240  30.526  31.331  1.00  0.00    -0.248 NA
ATOM     80  C   UNL A   1      37.788  30.853  29.534  1.00  0.00    -0.034 C 
ATOM     81  C   UNL A   1      37.188  33.807  33.566  1.00  0.00    -0.036 A 
ATOM     82  N   UNL A   1      38.853  32.317  33.624  1.00  0.00    -0.354 N 
ATOM     83  C   UNL A   1      39.548  29.622  30.322  1.00  0.00     0.074 A 
ATOM     84  C   UNL A   1      38.596  29.838  29.256  1.00  0.00    -0.034 C 
ATOM     85  H   UNL A   1      37.046  31.270  28.952  1.00  0.00     0.065 H 
ATOM     86  C   UNL A   1      37.860  34.002  34.709  1.00  0.00    -0.036 A 
ATOM     87  H   UNL A   1      36.348  34.329  33.269  1.00  0.00     0.065 H 
ATOM     88  C   UNL A   1      38.947  33.033  34.793  1.00  0.00     0.049 A 
ATOM     89  H   UNL A   1      39.456  31.573  33.397  1.00  0.00     0.167 HD
ATOM     90  C   UNL A   1      40.547  28.709  30.283  1.00  0.00     0.037 A 
ATOM     91  H   UNL A   1      38.551  29.277  28.391  1.00  0.00     0.065 H 
ATOM     92  H   UNL A   1      37.643  34.722  35.417  1.00  0.00     0.065 H 
ATOM     93  C   UNL A   1      39.810  32.918  35.821  1.00  0.00     0.037 A 
ATOM     94  C   UNL A   1      41.513  28.514  31.332  1.00  0.00     0.049 A 
ATOM     95  C   UNL A   1      40.881  31.866  35.768  1.00  0.00     0.074 A 
ATOM     96  C   UNL A   1      42.580  27.632  31.367  1.00  0.00    -0.036 A 
ATOM     97  N   UNL A   1      41.532  29.213  32.529  1.00  0.00    -0.354 N 
ATOM     98  N   UNL A   1      41.170  31.032  34.800  1.00  0.00    -0.248 NA
ATOM     99  C   UNL A   1      41.736  31.729  36.955  1.00  0.00    -0.034 C 
ATOM    100  C   UNL A   1      43.219  27.767  32.603  1.00  0.00    -0.036 A 
ATOM    101  H   UNL A   1      42.855  26.986  30.611  1.00  0.00     0.065 H 
ATOM    102  C   UNL A   1      42.578  28.765  33.320  1.00  0.00     0.049 A 
ATOM    103  H   UNL A   1      40.898  29.923  32.780  1.00  0.00     0.167 HD
ATOM    104  C   UNL A   1      42.244  30.279  35.254  1.00  0.00     0.074 A 
ATOM    105  C   UNL A   1      42.571  30.771  36.576  1.00  0.00    -0.034 C 
ATOM    106  H   UNL A   1      41.698  32.245  37.849  1.00  0.00     0.065 H 
ATOM    107  H   UNL A   1      44.029  27.218  32.926  1.00  0.00     0.065 H 
ATOM    108  C   UNL A   1      42.892  29.265  34.633  1.00  0.00     0.037 A 
ATOM    109  H   UNL A   1      43.353  30.421  37.151  1.00  0.00     0.065 H 
BRANCH  90 110
ATOM    110  C   UNL A   1      40.664  27.843  29.063  1.00  0.00     0.064 A 
ATOM    111  C   UNL A   1      39.874  26.696  28.900  1.00  0.00     0.173 A 
ATOM    112  C   UNL A   1      41.511  28.211  28.006  1.00  0.00     0.173 A 
ATOM    113  F   UNL A   1      39.055  26.295  29.885  1.00  0.00    -0.203 F 
ATOM    114  C   UNL A   1      39.934  25.945  27.729  1.00  0.00     0.198 A 
ATOM    115  C   UNL A   1      41.550  27.473  26.826  1.00  0.00     0.198 A 
ATOM    116  F   UNL A   1      42.282  29.305  28.107  1.00  0.00    -0.203 F 
ATOM    117  F   UNL A   1      39.187  24.838  27.606  1.00  0.00    -0.200 F 
ATOM    118  C   UNL A   1      40.763  26.340  26.690  1.00  0.00     0.200 A 
ATOM    119  F   UNL A   1      42.340  27.864  25.817  1.00  0.00    -0.200 F 
ATOM    120  F   UNL A   1      40.804  25.627  25.555  1.00  0.00    -0.200 F 
ENDBRANCH  90 110
BRANCH  93 121
ATOM    121  C   UNL A   1      39.692  33.835  36.985  1.00  0.00     0.064 A 
ATOM    122  C   UNL A   1      38.950  33.471  38.116  1.00  0.00     0.173 A 
ATOM    123  C   UNL A   1      40.336  35.082  36.999  1.00  0.00     0.173 A 
ATOM    124  F   UNL A   1      38.299  32.299  38.141  1.00  0.00    -0.203 F 
ATOM    125  C   UNL A   1      38.850  34.322  39.214  1.00  0.00     0.198 A 
ATOM    126  C   UNL A   1      40.260  35.918  38.110  1.00  0.00     0.198 A 
ATOM    127  F   UNL A   1      41.061  35.475  35.941  1.00  0.00    -0.203 F 
ATOM    128  F   UNL A   1      38.106  33.965  40.271  1.00  0.00    -0.200 F 
ATOM    129  C   UNL A   1      39.513  35.541  39.214  1.00  0.00     0.200 A 
ATOM    130  F   UNL A   1      40.916  37.087  38.111  1.00  0.00    -0.200 F 
ATOM    131  F   UNL A   1      39.428  36.353  40.277  1.00  0.00    -0.200 F 
ENDBRANCH  93 121
BRANCH 108 132
ATOM    132  C   UNL A   1      44.025  28.612  35.369  1.00  0.00     0.064 A 
ATOM    133  C   UNL A   1      43.807  27.513  36.212  1.00  0.00     0.173 A 
ATOM    134  C   UNL A   1      45.346  29.036  35.166  1.00  0.00     0.173 A 
ATOM    135  F   UNL A   1      42.559  27.080  36.448  1.00  0.00    -0.203 F 
ATOM    136  C   UNL A   1      44.872  26.867  36.833  1.00  0.00     0.198 A 
ATOM    137  C   UNL A   1      46.411  28.371  35.768  1.00  0.00     0.198 A 
ATOM    138  F   UNL A   1      45.607  30.078  34.362  1.00  0.00    -0.203 F 
ATOM    139  F   UNL A   1      44.639  25.836  37.657  1.00  0.00    -0.200 F 
ATOM    140  C   UNL A   1      46.173  27.290  36.602  1.00  0.00     0.200 A 
ATOM    141  F   UNL A   1      47.668  28.770  35.531  1.00  0.00    -0.200 F 
ATOM    142  F   UNL A   1      47.198  26.654  37.185  1.00  0.00    -0.200 F 
ENDBRANCH 108 132
ENDBRANCH  73  76
ENDBRANCH  63  66
ENDBRANCH  59  62
ENDBRANCH  56  59
ENDBRANCH  53  56
ENDBRANCH  50  53
ENDBRANCH   1  50
TORSDOF 19
ENDMDL
MODEL 8
REMARK VINA RESULT:     -12.1      1.841      7.394
REMARK SMILES CC1=C(CC(=O)NCCCCCCNC(=O)c2ccc(-c3c4nc(c(-c5c(F)c(F)c(F)c(F)c5F)c5ccc([nH]5)c(-c5c(F)c(F)c(F)c(F)c5F)c5nc(c(-c6c(F)c(F)c(F)c(F)c6F)c6ccc3[nH]6)C=C5)C=C4)cc2)c2cc(F)ccc2/C1=C\c1ccc([S@@+](C)O)cc1
REMARK SMILES IDX 9 1 8 4 7 7 5 8 6 9 4 11 3 14 2 15 87 16 80 17 86 18 88 19
REMARK SMILES IDX 81 20 85 21 82 23 84 25 83 27 1 29 89 33 90 34 97 35 91 36
REMARK SMILES IDX 96 38 92 40 93 43 94 44 95 48 10 50 11 53 12 56 13 59 14 62
REMARK SMILES IDX 15 63 16 65 17 66 18 67 79 68 19 69 78 71 20 73 21 76 22 77
REMARK SMILES IDX 72 78 23 79 77 80 71 81 73 82 24 83 76 84 70 86 69 88 25 90
REMARK SMILES IDX 57 93 37 94 56 95 38 96 41 97 55 98 74 99 39 100 40 102
REMARK SMILES IDX 54 104 75 105 42 108 26 110 27 111 35 112 28 113 29 114
REMARK SMILES IDX 33 115 36 116 30 117 31 118 34 119 32 120 58 121 59 122
REMARK SMILES IDX 67 123 60 124 61 125 65 126 68 127 62 128 63 129 66 130
REMARK SMILES IDX 64 131 43 132 44 133 52 134 45 135 46 136 50 137 53 138
REMARK SMILES IDX 47 139 48 140 51 141 49 142
REMARK H PARENT 9 2 9 3 8 5 8 6 7 10 4 12 4 13 88 22 81 24 85 26 84 28 1 30
REMARK H PARENT 1 31 1 32 90 37 97 39 91 41 96 42 94 45 94 46 94 47 95 49
REMARK H PARENT 10 51 10 52 11 54 11 55 12 57 12 58 13 60 13 61 14 64 18 70
REMARK H PARENT 79 72 19 74 78 75 77 85 71 87 73 89 76 91 70 92 38 101 41 103
REMARK H PARENT 74 106 39 107 75 109
REMARK Flexibility Score: inf
ROOT
ATOM      1  C   UNL A   1      35.576  31.615  28.123  1.00  0.00    -0.036 C 
ATOM      2  H   UNL A   1      35.873  32.245  27.311  1.00  0.00     0.028 H 
ATOM      3  H   UNL A   1      36.407  31.266  28.699  1.00  0.00     0.028 H 
ENDROOT
BRANCH   1   4
ATOM      4  C   UNL A   1      34.889  30.377  27.543  1.00  0.00     0.017 C 
ATOM      5  H   UNL A   1      35.167  30.273  26.515  1.00  0.00     0.049 H 
ATOM      6  H   UNL A   1      35.200  29.524  28.108  1.00  0.00     0.049 H 
BRANCH   4   7
ATOM      7  N   UNL A   1      33.449  30.484  27.633  1.00  0.00    -0.356 N 
ATOM      8  C   UNL A   1      32.512  30.274  26.667  1.00  0.00     0.224 C 
ATOM      9  O   UNL A   1      31.332  30.512  26.938  1.00  0.00    -0.275 OA
ATOM     10  H   UNL A   1      33.097  30.744  28.516  1.00  0.00     0.163 HD
BRANCH   8  11
ATOM     11  C   UNL A   1      32.912  29.704  25.308  1.00  0.00     0.053 C 
ATOM     12  H   UNL A   1      32.303  30.167  24.559  1.00  0.00     0.042 H 
ATOM     13  H   UNL A   1      33.954  29.911  25.186  1.00  0.00     0.042 H 
BRANCH  11  14
ATOM     14  C   UNL A   1      32.756  28.222  25.187  1.00  0.00    -0.027 C 
ATOM     15  C   UNL A   1      33.580  27.236  25.614  1.00  0.00    -0.039 C 
ATOM     16  C   UNL A   1      33.014  25.926  25.253  1.00  0.00    -0.014 C 
ATOM     17  C   UNL A   1      31.567  27.589  24.591  1.00  0.00    -0.011 A 
ATOM     18  C   UNL A   1      31.682  26.188  24.672  1.00  0.00    -0.010 A 
ATOM     19  C   UNL A   1      33.663  24.752  25.397  1.00  0.00    -0.047 C 
ATOM     20  C   UNL A   1      30.435  28.175  24.038  1.00  0.00    -0.018 A 
ATOM     21  C   UNL A   1      30.635  25.373  24.262  1.00  0.00    -0.051 A 
ATOM     22  H   UNL A   1      34.611  24.781  25.805  1.00  0.00     0.064 H 
ATOM     23  C   UNL A   1      29.419  27.345  23.577  1.00  0.00     0.123 A 
ATOM     24  H   UNL A   1      30.351  29.203  23.972  1.00  0.00     0.066 H 
ATOM     25  C   UNL A   1      29.502  25.958  23.693  1.00  0.00    -0.026 A 
ATOM     26  H   UNL A   1      30.693  24.349  24.377  1.00  0.00     0.063 H 
ATOM     27  F   UNL A   1      28.326  27.887  23.023  1.00  0.00    -0.207 F 
ATOM     28  H   UNL A   1      28.727  25.365  23.359  1.00  0.00     0.065 H 
BRANCH  15  29
ATOM     29  C   UNL A   1      34.870  27.371  26.356  1.00  0.00    -0.039 C 
ATOM     30  H   UNL A   1      35.591  26.695  25.946  1.00  0.00     0.028 H 
ATOM     31  H   UNL A   1      34.713  27.141  27.390  1.00  0.00     0.028 H 
ATOM     32  H   UNL A   1      35.230  28.375  26.266  1.00  0.00     0.028 H 
ENDBRANCH  15  29
BRANCH  19  33
ATOM     33  C   UNL A   1      33.130  23.440  25.022  1.00  0.00    -0.025 A 
ATOM     34  C   UNL A   1      32.414  22.660  25.937  1.00  0.00    -0.050 A 
ATOM     35  C   UNL A   1      33.459  22.907  23.774  1.00  0.00    -0.050 A 
ATOM     36  C   UNL A   1      32.158  21.314  25.658  1.00  0.00    -0.003 A 
ATOM     37  H   UNL A   1      32.074  23.078  26.817  1.00  0.00     0.063 H 
ATOM     38  C   UNL A   1      33.185  21.566  23.490  1.00  0.00    -0.003 A 
ATOM     39  H   UNL A   1      33.906  23.504  23.061  1.00  0.00     0.063 H 
ATOM     40  C   UNL A   1      32.569  20.748  24.445  1.00  0.00     0.189 A 
ATOM     41  H   UNL A   1      31.662  20.732  26.352  1.00  0.00     0.068 H 
ATOM     42  H   UNL A   1      33.438  21.177  22.569  1.00  0.00     0.068 H 
BRANCH  40  43
ATOM     43  S   UNL A   1      32.532  18.947  24.234  1.00  0.00     0.178 S 
BRANCH  43  44
ATOM     44  C   UNL A   1      34.292  18.600  24.481  1.00  0.00     0.137 C 
ATOM     45  H   UNL A   1      34.757  18.423  23.534  1.00  0.00     0.085 H 
ATOM     46  H   UNL A   1      34.401  17.734  25.099  1.00  0.00     0.085 H 
ATOM     47  H   UNL A   1      34.757  19.439  24.955  1.00  0.00     0.085 H 
ENDBRANCH  43  44
BRANCH  43  48
ATOM     48  O   UNL A   1      32.153  18.625  25.765  1.00  0.00    -0.182 OA
ATOM     49  H   UNL A   1      31.191  18.673  25.876  1.00  0.00     0.283 HD
ENDBRANCH  43  48
ENDBRANCH  40  43
ENDBRANCH  19  33
ENDBRANCH  11  14
ENDBRANCH   8  11
ENDBRANCH   4   7
ENDBRANCH   1   4
BRANCH   1  50
ATOM     50  C   UNL A   1      34.690  32.434  29.071  1.00  0.00    -0.052 C 
ATOM     51  H   UNL A   1      34.857  32.080  30.067  1.00  0.00     0.027 H 
ATOM     52  H   UNL A   1      33.685  32.295  28.729  1.00  0.00     0.027 H 
BRANCH  50  53
ATOM     53  C   UNL A   1      34.935  33.947  29.058  1.00  0.00    -0.052 C 
ATOM     54  H   UNL A   1      35.648  34.160  28.290  1.00  0.00     0.027 H 
ATOM     55  H   UNL A   1      35.274  34.201  30.040  1.00  0.00     0.027 H 
BRANCH  53  56
ATOM     56  C   UNL A   1      33.695  34.806  28.801  1.00  0.00    -0.036 C 
ATOM     57  H   UNL A   1      32.829  34.209  28.998  1.00  0.00     0.028 H 
ATOM     58  H   UNL A   1      33.760  35.133  27.785  1.00  0.00     0.028 H 
BRANCH  56  59
ATOM     59  C   UNL A   1      33.605  36.065  29.655  1.00  0.00     0.018 C 
ATOM     60  H   UNL A   1      33.436  36.903  29.011  1.00  0.00     0.049 H 
ATOM     61  H   UNL A   1      34.526  36.157  30.191  1.00  0.00     0.049 H 
BRANCH  59  62
ATOM     62  N   UNL A   1      32.531  36.006  30.635  1.00  0.00    -0.352 N 
ATOM     63  C   UNL A   1      32.516  35.408  31.873  1.00  0.00     0.251 C 
ATOM     64  H   UNL A   1      31.696  36.459  30.374  1.00  0.00     0.163 HD
ATOM     65  O   UNL A   1      31.470  35.328  32.512  1.00  0.00    -0.269 OA
BRANCH  63  66
ATOM     66  C   UNL A   1      33.760  34.826  32.421  1.00  0.00     0.039 A 
ATOM     67  C   UNL A   1      34.929  35.585  32.494  1.00  0.00    -0.049 A 
ATOM     68  C   UNL A   1      33.763  33.493  32.841  1.00  0.00    -0.049 A 
ATOM     69  C   UNL A   1      36.132  34.967  32.816  1.00  0.00    -0.053 A 
ATOM     70  H   UNL A   1      34.901  36.600  32.310  1.00  0.00     0.063 H 
ATOM     71  C   UNL A   1      34.959  32.895  33.251  1.00  0.00    -0.053 A 
ATOM     72  H   UNL A   1      32.884  32.951  32.850  1.00  0.00     0.063 H 
ATOM     73  C   UNL A   1      36.165  33.612  33.189  1.00  0.00    -0.014 A 
ATOM     74  H   UNL A   1      37.009  35.508  32.780  1.00  0.00     0.063 H 
ATOM     75  H   UNL A   1      34.957  31.924  33.600  1.00  0.00     0.063 H 
BRANCH  73  76
ATOM     76  C   UNL A   1      37.474  32.974  33.487  1.00  0.00     0.031 A 
ATOM     77  C   UNL A   1      38.175  33.231  34.795  1.00  0.00     0.074 A 
ATOM     78  C   UNL A   1      37.995  32.096  32.607  1.00  0.00     0.049 A 
ATOM     79  N   UNL A   1      39.290  32.713  35.248  1.00  0.00    -0.248 NA
ATOM     80  C   UNL A   1      37.548  34.192  35.715  1.00  0.00    -0.034 C 
ATOM     81  C   UNL A   1      37.405  31.760  31.310  1.00  0.00    -0.036 A 
ATOM     82  N   UNL A   1      39.111  31.303  32.680  1.00  0.00    -0.354 N 
ATOM     83  C   UNL A   1      39.502  33.293  36.492  1.00  0.00     0.074 A 
ATOM     84  C   UNL A   1      38.422  34.228  36.713  1.00  0.00    -0.034 C 
ATOM     85  H   UNL A   1      36.659  34.705  35.613  1.00  0.00     0.065 H 
ATOM     86  C   UNL A   1      38.128  30.785  30.739  1.00  0.00    -0.036 A 
ATOM     87  H   UNL A   1      36.567  32.201  30.900  1.00  0.00     0.065 H 
ATOM     88  C   UNL A   1      39.265  30.470  31.598  1.00  0.00     0.049 A 
ATOM     89  H   UNL A   1      39.742  31.328  33.435  1.00  0.00     0.167 HD
ATOM     90  C   UNL A   1      40.498  33.052  37.378  1.00  0.00     0.037 A 
ATOM     91  H   UNL A   1      38.341  34.842  37.538  1.00  0.00     0.065 H 
ATOM     92  H   UNL A   1      37.914  30.330  29.837  1.00  0.00     0.065 H 
ATOM     93  C   UNL A   1      40.218  29.559  31.324  1.00  0.00     0.037 A 
ATOM     94  C   UNL A   1      41.558  32.100  37.171  1.00  0.00     0.049 A 
ATOM     95  C   UNL A   1      41.334  29.346  32.306  1.00  0.00     0.074 A 
ATOM     96  C   UNL A   1      42.594  31.767  38.026  1.00  0.00    -0.036 A 
ATOM     97  N   UNL A   1      41.715  31.327  36.032  1.00  0.00    -0.354 N 
ATOM     98  N   UNL A   1      41.510  29.888  33.485  1.00  0.00    -0.248 NA
ATOM     99  C   UNL A   1      42.392  28.404  31.914  1.00  0.00    -0.034 C 
ATOM    100  C   UNL A   1      43.403  30.823  37.387  1.00  0.00    -0.036 A 
ATOM    101  H   UNL A   1      42.745  32.150  38.973  1.00  0.00     0.065 H 
ATOM    102  C   UNL A   1      42.845  30.534  36.152  1.00  0.00     0.049 A 
ATOM    103  H   UNL A   1      41.112  31.338  35.253  1.00  0.00     0.167 HD
ATOM    104  C   UNL A   1      42.690  29.349  33.980  1.00  0.00     0.074 A 
ATOM    105  C   UNL A   1      43.175  28.418  32.983  1.00  0.00    -0.034 C 
ATOM    106  H   UNL A   1      42.496  27.870  31.036  1.00  0.00     0.065 H 
ATOM    107  H   UNL A   1      44.268  30.411  37.770  1.00  0.00     0.065 H 
ATOM    108  C   UNL A   1      43.316  29.611  35.152  1.00  0.00     0.037 A 
ATOM    109  H   UNL A   1      44.022  27.839  33.091  1.00  0.00     0.065 H 
BRANCH  90 110
ATOM    110  C   UNL A   1      40.499  33.822  38.666  1.00  0.00     0.064 A 
ATOM    111  C   UNL A   1      39.752  33.395  39.775  1.00  0.00     0.173 A 
ATOM    112  C   UNL A   1      41.321  34.948  38.823  1.00  0.00     0.173 A 
ATOM    113  F   UNL A   1      38.942  32.330  39.673  1.00  0.00    -0.203 F 
ATOM    114  C   UNL A   1      39.822  34.073  40.989  1.00  0.00     0.198 A 
ATOM    115  C   UNL A   1      41.409  35.608  40.046  1.00  0.00     0.198 A 
ATOM    116  F   UNL A   1      42.062  35.392  37.797  1.00  0.00    -0.203 F 
ATOM    117  F   UNL A   1      39.081  33.661  42.027  1.00  0.00    -0.200 F 
ATOM    118  C   UNL A   1      40.658  35.171  41.127  1.00  0.00     0.200 A 
ATOM    119  F   UNL A   1      42.228  36.660  40.182  1.00  0.00    -0.200 F 
ATOM    120  F   UNL A   1      40.739  35.810  42.303  1.00  0.00    -0.200 F 
ENDBRANCH  90 110
BRANCH  93 121
ATOM    121  C   UNL A   1      40.146  28.778  30.062  1.00  0.00     0.064 A 
ATOM    122  C   UNL A   1      40.737  29.257  28.884  1.00  0.00     0.173 A 
ATOM    123  C   UNL A   1      39.507  27.530  30.010  1.00  0.00     0.173 A 
ATOM    124  F   UNL A   1      41.340  30.455  28.877  1.00  0.00    -0.203 F 
ATOM    125  C   UNL A   1      40.684  28.520  27.703  1.00  0.00     0.198 A 
ATOM    126  C   UNL A   1      39.482  26.782  28.837  1.00  0.00     0.198 A 
ATOM    127  F   UNL A   1      38.928  27.027  31.112  1.00  0.00    -0.203 F 
ATOM    128  F   UNL A   1      41.228  29.015  26.582  1.00  0.00    -0.200 F 
ATOM    129  C   UNL A   1      40.065  27.279  27.683  1.00  0.00     0.200 A 
ATOM    130  F   UNL A   1      38.897  25.576  28.827  1.00  0.00    -0.200 F 
ATOM    131  F   UNL A   1      40.028  26.564  26.549  1.00  0.00    -0.200 F 
ENDBRANCH  93 121
BRANCH 108 132
ATOM    132  C   UNL A   1      44.599  28.885  35.430  1.00  0.00     0.064 A 
ATOM    133  C   UNL A   1      45.840  29.444  35.091  1.00  0.00     0.173 A 
ATOM    134  C   UNL A   1      44.591  27.660  36.114  1.00  0.00     0.173 A 
ATOM    135  F   UNL A   1      45.896  30.606  34.424  1.00  0.00    -0.203 F 
ATOM    136  C   UNL A   1      47.027  28.797  35.420  1.00  0.00     0.198 A 
ATOM    137  C   UNL A   1      45.782  27.029  36.464  1.00  0.00     0.198 A 
ATOM    138  F   UNL A   1      43.429  27.089  36.467  1.00  0.00    -0.203 F 
ATOM    139  F   UNL A   1      48.201  29.335  35.062  1.00  0.00    -0.200 F 
ATOM    140  C   UNL A   1      46.998  27.597  36.114  1.00  0.00     0.200 A 
ATOM    141  F   UNL A   1      45.752  25.878  37.149  1.00  0.00    -0.200 F 
ATOM    142  F   UNL A   1      48.143  26.986  36.446  1.00  0.00    -0.200 F 
ENDBRANCH 108 132
ENDBRANCH  73  76
ENDBRANCH  63  66
ENDBRANCH  59  62
ENDBRANCH  56  59
ENDBRANCH  53  56
ENDBRANCH  50  53
ENDBRANCH   1  50
TORSDOF 19
ENDMDL
MODEL 9
REMARK VINA RESULT:     -12.1      5.465     12.761
REMARK SMILES CC1=C(CC(=O)NCCCCCCNC(=O)c2ccc(-c3c4nc(c(-c5c(F)c(F)c(F)c(F)c5F)c5ccc([nH]5)c(-c5c(F)c(F)c(F)c(F)c5F)c5nc(c(-c6c(F)c(F)c(F)c(F)c6F)c6ccc3[nH]6)C=C5)C=C4)cc2)c2cc(F)ccc2/C1=C\c1ccc([S@@+](C)O)cc1
REMARK SMILES IDX 9 1 8 4 7 7 5 8 6 9 4 11 3 14 2 15 87 16 80 17 86 18 88 19
REMARK SMILES IDX 81 20 85 21 82 23 84 25 83 27 1 29 89 33 90 34 97 35 91 36
REMARK SMILES IDX 96 38 92 40 93 43 94 44 95 48 10 50 11 53 12 56 13 59 14 62
REMARK SMILES IDX 15 63 16 65 17 66 18 67 79 68 19 69 78 71 20 73 21 76 22 77
REMARK SMILES IDX 72 78 23 79 77 80 71 81 73 82 24 83 76 84 70 86 69 88 25 90
REMARK SMILES IDX 57 93 37 94 56 95 38 96 41 97 55 98 74 99 39 100 40 102
REMARK SMILES IDX 54 104 75 105 42 108 26 110 27 111 35 112 28 113 29 114
REMARK SMILES IDX 33 115 36 116 30 117 31 118 34 119 32 120 58 121 59 122
REMARK SMILES IDX 67 123 60 124 61 125 65 126 68 127 62 128 63 129 66 130
REMARK SMILES IDX 64 131 43 132 44 133 52 134 45 135 46 136 50 137 53 138
REMARK SMILES IDX 47 139 48 140 51 141 49 142
REMARK H PARENT 9 2 9 3 8 5 8 6 7 10 4 12 4 13 88 22 81 24 85 26 84 28 1 30
REMARK H PARENT 1 31 1 32 90 37 97 39 91 41 96 42 94 45 94 46 94 47 95 49
REMARK H PARENT 10 51 10 52 11 54 11 55 12 57 12 58 13 60 13 61 14 64 18 70
REMARK H PARENT 79 72 19 74 78 75 77 85 71 87 73 89 76 91 70 92 38 101 41 103
REMARK H PARENT 74 106 39 107 75 109
REMARK Flexibility Score: inf
ROOT
ATOM      1  C   UNL A   1      39.232  33.918  30.008  1.00  0.00    -0.036 C 
ATOM      2  H   UNL A   1      39.998  33.269  29.640  1.00  0.00     0.028 H 
ATOM      3  H   UNL A   1      39.145  34.818  29.436  1.00  0.00     0.028 H 
ENDROOT
BRANCH   1   4
ATOM      4  C   UNL A   1      39.598  34.334  31.433  1.00  0.00     0.017 C 
ATOM      5  H   UNL A   1      40.076  33.512  31.924  1.00  0.00     0.049 H 
ATOM      6  H   UNL A   1      40.255  35.177  31.380  1.00  0.00     0.049 H 
BRANCH   4   7
ATOM      7  N   UNL A   1      38.425  34.717  32.189  1.00  0.00    -0.356 N 
ATOM      8  C   UNL A   1      38.179  34.576  33.521  1.00  0.00     0.224 C 
ATOM      9  O   UNL A   1      37.064  34.891  33.945  1.00  0.00    -0.275 OA
ATOM     10  H   UNL A   1      37.703  35.138  31.666  1.00  0.00     0.163 HD
BRANCH   8  11
ATOM     11  C   UNL A   1      39.279  34.098  34.467  1.00  0.00     0.053 C 
ATOM     12  H   UNL A   1      39.746  33.240  34.030  1.00  0.00     0.042 H 
ATOM     13  H   UNL A   1      39.951  34.921  34.594  1.00  0.00     0.042 H 
BRANCH  11  14
ATOM     14  C   UNL A   1      38.802  33.725  35.834  1.00  0.00    -0.027 C 
ATOM     15  C   UNL A   1      38.164  32.602  36.242  1.00  0.00    -0.039 C 
ATOM     16  C   UNL A   1      37.878  32.691  37.684  1.00  0.00    -0.014 C 
ATOM     17  C   UNL A   1      39.029  34.570  37.019  1.00  0.00    -0.011 A 
ATOM     18  C   UNL A   1      38.520  33.931  38.165  1.00  0.00    -0.010 A 
ATOM     19  C   UNL A   1      37.118  31.807  38.363  1.00  0.00    -0.047 C 
ATOM     20  C   UNL A   1      39.661  35.803  37.118  1.00  0.00    -0.018 A 
ATOM     21  C   UNL A   1      38.704  34.492  39.422  1.00  0.00    -0.051 A 
ATOM     22  H   UNL A   1      36.731  31.010  37.835  1.00  0.00     0.064 H 
ATOM     23  C   UNL A   1      39.786  36.382  38.377  1.00  0.00     0.123 A 
ATOM     24  H   UNL A   1      40.030  36.278  36.278  1.00  0.00     0.066 H 
ATOM     25  C   UNL A   1      39.326  35.737  39.524  1.00  0.00    -0.026 A 
ATOM     26  H   UNL A   1      38.385  33.995  40.269  1.00  0.00     0.063 H 
ATOM     27  F   UNL A   1      40.376  37.579  38.496  1.00  0.00    -0.207 F 
ATOM     28  H   UNL A   1      39.446  36.180  40.448  1.00  0.00     0.065 H 
BRANCH  15  29
ATOM     29  C   UNL A   1      37.791  31.407  35.426  1.00  0.00    -0.039 C 
ATOM     30  H   UNL A   1      36.746  31.443  35.199  1.00  0.00     0.028 H 
ATOM     31  H   UNL A   1      38.005  30.516  35.979  1.00  0.00     0.028 H 
ATOM     32  H   UNL A   1      38.354  31.406  34.517  1.00  0.00     0.028 H 
ENDBRANCH  15  29
BRANCH  19  33
ATOM     33  C   UNL A   1      36.798  31.890  39.790  1.00  0.00    -0.025 A 
ATOM     34  C   UNL A   1      37.541  31.183  40.742  1.00  0.00    -0.050 A 
ATOM     35  C   UNL A   1      35.650  32.579  40.189  1.00  0.00    -0.050 A 
ATOM     36  C   UNL A   1      37.060  31.049  42.048  1.00  0.00    -0.003 A 
ATOM     37  H   UNL A   1      38.446  30.760  40.480  1.00  0.00     0.063 H 
ATOM     38  C   UNL A   1      35.182  32.460  41.500  1.00  0.00    -0.003 A 
ATOM     39  H   UNL A   1      35.148  33.176  39.514  1.00  0.00     0.063 H 
ATOM     40  C   UNL A   1      35.860  31.661  42.428  1.00  0.00     0.189 A 
ATOM     41  H   UNL A   1      37.593  30.496  42.737  1.00  0.00     0.068 H 
ATOM     42  H   UNL A   1      34.329  32.965  41.786  1.00  0.00     0.068 H 
BRANCH  40  43
ATOM     43  S   UNL A   1      35.083  31.214  44.005  1.00  0.00     0.178 S 
BRANCH  43  44
ATOM     44  C   UNL A   1      34.542  32.861  44.528  1.00  0.00     0.137 C 
ATOM     45  H   UNL A   1      33.907  32.773  45.384  1.00  0.00     0.085 H 
ATOM     46  H   UNL A   1      34.004  33.329  43.730  1.00  0.00     0.085 H 
ATOM     47  H   UNL A   1      35.397  33.454  44.777  1.00  0.00     0.085 H 
ENDBRANCH  43  44
BRANCH  43  48
ATOM     48  O   UNL A   1      33.653  30.840  43.366  1.00  0.00    -0.182 OA
ATOM     49  H   UNL A   1      32.952  31.030  44.010  1.00  0.00     0.283 HD
ENDBRANCH  43  48
ENDBRANCH  40  43
ENDBRANCH  19  33
ENDBRANCH  11  14
ENDBRANCH   8  11
ENDBRANCH   4   7
ENDBRANCH   1   4
BRANCH   1  50
ATOM     50  C   UNL A   1      37.887  33.189  29.898  1.00  0.00    -0.052 C 
ATOM     51  H   UNL A   1      37.417  33.214  30.859  1.00  0.00     0.027 H 
ATOM     52  H   UNL A   1      38.114  32.200  29.557  1.00  0.00     0.027 H 
BRANCH  50  53
ATOM     53  C   UNL A   1      36.904  33.772  28.875  1.00  0.00    -0.052 C 
ATOM     54  H   UNL A   1      36.863  33.106  28.039  1.00  0.00     0.027 H 
ATOM     55  H   UNL A   1      37.273  34.745  28.630  1.00  0.00     0.027 H 
BRANCH  53  56
ATOM     56  C   UNL A   1      35.476  33.975  29.386  1.00  0.00    -0.036 C 
ATOM     57  H   UNL A   1      34.886  34.364  28.582  1.00  0.00     0.028 H 
ATOM     58  H   UNL A   1      35.547  34.643  30.219  1.00  0.00     0.028 H 
BRANCH  56  59
ATOM     59  C   UNL A   1      34.799  32.712  29.903  1.00  0.00     0.018 C 
ATOM     60  H   UNL A   1      34.083  32.987  30.649  1.00  0.00     0.049 H 
ATOM     61  H   UNL A   1      35.563  32.077  30.302  1.00  0.00     0.049 H 
BRANCH  59  62
ATOM     62  N   UNL A   1      34.116  31.969  28.854  1.00  0.00    -0.352 N 
ATOM     63  C   UNL A   1      34.549  30.880  28.137  1.00  0.00     0.251 C 
ATOM     64  H   UNL A   1      33.215  32.294  28.626  1.00  0.00     0.163 HD
ATOM     65  O   UNL A   1      33.899  30.466  27.181  1.00  0.00    -0.269 OA
BRANCH  63  66
ATOM     66  C   UNL A   1      35.826  30.225  28.498  1.00  0.00     0.039 A 
ATOM     67  C   UNL A   1      35.961  29.549  29.711  1.00  0.00    -0.049 A 
ATOM     68  C   UNL A   1      36.910  30.313  27.620  1.00  0.00    -0.049 A 
ATOM     69  C   UNL A   1      37.218  29.122  30.124  1.00  0.00    -0.053 A 
ATOM     70  H   UNL A   1      35.133  29.370  30.300  1.00  0.00     0.063 H 
ATOM     71  C   UNL A   1      38.156  29.801  28.000  1.00  0.00    -0.053 A 
ATOM     72  H   UNL A   1      36.792  30.754  26.694  1.00  0.00     0.063 H 
ATOM     73  C   UNL A   1      38.333  29.251  29.278  1.00  0.00    -0.014 A 
ATOM     74  H   UNL A   1      37.333  28.705  31.061  1.00  0.00     0.063 H 
ATOM     75  H   UNL A   1      38.947  29.829  27.338  1.00  0.00     0.063 H 
BRANCH  73  76
ATOM     76  C   UNL A   1      39.668  28.818  29.769  1.00  0.00     0.031 A 
ATOM     77  C   UNL A   1      40.304  29.486  30.960  1.00  0.00     0.074 A 
ATOM     78  C   UNL A   1      40.274  27.765  29.187  1.00  0.00     0.049 A 
ATOM     79  N   UNL A   1      41.432  29.199  31.561  1.00  0.00    -0.248 NA
ATOM     80  C   UNL A   1      39.585  30.624  31.555  1.00  0.00    -0.034 C 
ATOM     81  C   UNL A   1      39.754  27.031  28.032  1.00  0.00    -0.036 A 
ATOM     82  N   UNL A   1      41.434  27.105  29.504  1.00  0.00    -0.354 N 
ATOM     83  C   UNL A   1      41.563  30.124  32.589  1.00  0.00     0.074 A 
ATOM     84  C   UNL A   1      40.419  31.004  32.514  1.00  0.00    -0.034 C 
ATOM     85  H   UNL A   1      38.670  31.022  31.294  1.00  0.00     0.065 H 
ATOM     86  C   UNL A   1      40.555  25.987  27.777  1.00  0.00    -0.036 A 
ATOM     87  H   UNL A   1      38.905  27.278  27.499  1.00  0.00     0.065 H 
ATOM     88  C   UNL A   1      41.678  26.011  28.709  1.00  0.00     0.049 A 
ATOM     89  H   UNL A   1      42.035  27.389  30.230  1.00  0.00     0.167 HD
ATOM     90  C   UNL A   1      42.540  30.215  33.523  1.00  0.00     0.037 A 
ATOM     91  H   UNL A   1      40.270  31.821  33.127  1.00  0.00     0.065 H 
ATOM     92  H   UNL A   1      40.403  25.280  27.041  1.00  0.00     0.065 H 
ATOM     93  C   UNL A   1      42.695  25.129  28.724  1.00  0.00     0.037 A 
ATOM     94  C   UNL A   1      43.663  29.320  33.617  1.00  0.00     0.049 A 
ATOM     95  C   UNL A   1      43.787  25.283  29.745  1.00  0.00     0.074 A 
ATOM     96  C   UNL A   1      44.687  29.319  34.548  1.00  0.00    -0.036 A 
ATOM     97  N   UNL A   1      43.909  28.267  32.750  1.00  0.00    -0.354 N 
ATOM     98  N   UNL A   1      43.886  26.151  30.721  1.00  0.00    -0.248 NA
ATOM     99  C   UNL A   1      44.914  24.345  29.657  1.00  0.00    -0.034 C 
ATOM    100  C   UNL A   1      45.575  28.291  34.221  1.00  0.00    -0.036 A 
ATOM    101  H   UNL A   1      44.779  29.966  35.347  1.00  0.00     0.065 H 
ATOM    102  C   UNL A   1      45.082  27.623  33.111  1.00  0.00     0.049 A 
ATOM    103  H   UNL A   1      43.335  28.013  31.991  1.00  0.00     0.167 HD
ATOM    104  C   UNL A   1      45.078  25.860  31.369  1.00  0.00     0.074 A 
ATOM    105  C   UNL A   1      45.656  24.719  30.690  1.00  0.00    -0.034 C 
ATOM    106  H   UNL A   1      45.084  23.592  28.971  1.00  0.00     0.065 H 
ATOM    107  H   UNL A   1      46.450  28.067  34.720  1.00  0.00     0.065 H 
ATOM    108  C   UNL A   1      45.645  26.489  32.426  1.00  0.00     0.037 A 
ATOM    109  H   UNL A   1      46.534  24.255  30.974  1.00  0.00     0.065 H 
BRANCH  90 110
ATOM    110  C   UNL A   1      42.446  31.319  34.536  1.00  0.00     0.064 A 
ATOM    111  C   UNL A   1      41.812  31.127  35.773  1.00  0.00     0.173 A 
ATOM    112  C   UNL A   1      43.071  32.554  34.305  1.00  0.00     0.173 A 
ATOM    113  F   UNL A   1      41.190  29.967  36.039  1.00  0.00    -0.203 F 
ATOM    114  C   UNL A   1      41.800  32.132  36.735  1.00  0.00     0.198 A 
ATOM    115  C   UNL A   1      43.080  33.548  35.280  1.00  0.00     0.198 A 
ATOM    116  F   UNL A   1      43.699  32.786  33.142  1.00  0.00    -0.203 F 
ATOM    117  F   UNL A   1      41.167  31.934  37.901  1.00  0.00    -0.200 F 
ATOM    118  C   UNL A   1      42.443  33.337  36.493  1.00  0.00     0.200 A 
ATOM    119  F   UNL A   1      43.714  34.706  35.049  1.00  0.00    -0.200 F 
ATOM    120  F   UNL A   1      42.448  34.296  37.429  1.00  0.00    -0.200 F 
ENDBRANCH  90 110
BRANCH  93 121
ATOM    121  C   UNL A   1      42.718  24.017  27.738  1.00  0.00     0.064 A 
ATOM    122  C   UNL A   1      43.195  24.219  26.436  1.00  0.00     0.173 A 
ATOM    123  C   UNL A   1      42.286  22.727  28.082  1.00  0.00     0.173 A 
ATOM    124  F   UNL A   1      43.598  25.439  26.053  1.00  0.00    -0.203 F 
ATOM    125  C   UNL A   1      43.231  23.175  25.514  1.00  0.00     0.198 A 
ATOM    126  C   UNL A   1      42.351  21.678  27.169  1.00  0.00     0.198 A 
ATOM    127  F   UNL A   1      41.823  22.482  29.318  1.00  0.00    -0.203 F 
ATOM    128  F   UNL A   1      43.660  23.402  24.264  1.00  0.00    -0.200 F 
ATOM    129  C   UNL A   1      42.819  21.904  25.884  1.00  0.00     0.200 A 
ATOM    130  F   UNL A   1      41.967  20.448  27.537  1.00  0.00    -0.200 F 
ATOM    131  F   UNL A   1      42.868  20.897  25.001  1.00  0.00    -0.200 F 
ENDBRANCH  93 121
BRANCH 108 132
ATOM    132  C   UNL A   1      46.960  25.964  32.923  1.00  0.00     0.064 A 
ATOM    133  C   UNL A   1      48.173  26.524  32.500  1.00  0.00     0.173 A 
ATOM    134  C   UNL A   1      47.003  24.949  33.890  1.00  0.00     0.173 A 
ATOM    135  F   UNL A   1      48.182  27.487  31.566  1.00  0.00    -0.203 F 
ATOM    136  C   UNL A   1      49.385  26.081  33.021  1.00  0.00     0.198 A 
ATOM    137  C   UNL A   1      48.215  24.526  34.429  1.00  0.00     0.198 A 
ATOM    138  F   UNL A   1      45.868  24.387  34.333  1.00  0.00    -0.203 F 
ATOM    139  F   UNL A   1      50.534  26.611  32.583  1.00  0.00    -0.200 F 
ATOM    140  C   UNL A   1      49.404  25.090  33.992  1.00  0.00     0.200 A 
ATOM    141  F   UNL A   1      48.231  23.580  35.378  1.00  0.00    -0.200 F 
ATOM    142  F   UNL A   1      50.570  24.678  34.507  1.00  0.00    -0.200 F 
ENDBRANCH 108 132
ENDBRANCH  73  76
ENDBRANCH  63  66
ENDBRANCH  59  62
ENDBRANCH  56  59
ENDBRANCH  53  56
ENDBRANCH  50  53
ENDBRANCH   1  50
TORSDOF 19
ENDMDL
MODEL 10
REMARK VINA RESULT:     -12.0      0.846      7.144
REMARK SMILES CC1=C(CC(=O)NCCCCCCNC(=O)c2ccc(-c3c4nc(c(-c5c(F)c(F)c(F)c(F)c5F)c5ccc([nH]5)c(-c5c(F)c(F)c(F)c(F)c5F)c5nc(c(-c6c(F)c(F)c(F)c(F)c6F)c6ccc3[nH]6)C=C5)C=C4)cc2)c2cc(F)ccc2/C1=C\c1ccc([S@@+](C)O)cc1
REMARK SMILES IDX 9 1 8 4 7 7 5 8 6 9 4 11 3 14 2 15 87 16 80 17 86 18 88 19
REMARK SMILES IDX 81 20 85 21 82 23 84 25 83 27 1 29 89 33 90 34 97 35 91 36
REMARK SMILES IDX 96 38 92 40 93 43 94 44 95 48 10 50 11 53 12 56 13 59 14 62
REMARK SMILES IDX 15 63 16 65 17 66 18 67 79 68 19 69 78 71 20 73 21 76 22 77
REMARK SMILES IDX 72 78 23 79 77 80 71 81 73 82 24 83 76 84 70 86 69 88 25 90
REMARK SMILES IDX 57 93 37 94 56 95 38 96 41 97 55 98 74 99 39 100 40 102
REMARK SMILES IDX 54 104 75 105 42 108 26 110 27 111 35 112 28 113 29 114
REMARK SMILES IDX 33 115 36 116 30 117 31 118 34 119 32 120 58 121 59 122
REMARK SMILES IDX 67 123 60 124 61 125 65 126 68 127 62 128 63 129 66 130
REMARK SMILES IDX 64 131 43 132 44 133 52 134 45 135 46 136 50 137 53 138
REMARK SMILES IDX 47 139 48 140 51 141 49 142
REMARK H PARENT 9 2 9 3 8 5 8 6 7 10 4 12 4 13 88 22 81 24 85 26 84 28 1 30
REMARK H PARENT 1 31 1 32 90 37 97 39 91 41 96 42 94 45 94 46 94 47 95 49
REMARK H PARENT 10 51 10 52 11 54 11 55 12 57 12 58 13 60 13 61 14 64 18 70
REMARK H PARENT 79 72 19 74 78 75 77 85 71 87 73 89 76 91 70 92 38 101 41 103
REMARK H PARENT 74 106 39 107 75 109
REMARK Flexibility Score: inf
ROOT
ATOM      1  C   UNL A   1      32.850  29.090  27.234  1.00  0.00    -0.036 C 
ATOM      2  H   UNL A   1      33.022  28.035  27.203  1.00  0.00     0.028 H 
ATOM      3  H   UNL A   1      32.469  29.418  28.178  1.00  0.00     0.028 H 
ENDROOT
BRANCH   1   4
ATOM      4  C   UNL A   1      31.790  29.435  26.186  1.00  0.00     0.017 C 
ATOM      5  H   UNL A   1      31.070  28.645  26.146  1.00  0.00     0.049 H 
ATOM      6  H   UNL A   1      31.325  30.357  26.468  1.00  0.00     0.049 H 
BRANCH   4   7
ATOM      7  N   UNL A   1      32.380  29.603  24.876  1.00  0.00    -0.356 N 
ATOM      8  C   UNL A   1      32.132  28.912  23.729  1.00  0.00     0.224 C 
ATOM      9  O   UNL A   1      32.821  29.163  22.736  1.00  0.00    -0.275 OA
ATOM     10  H   UNL A   1      33.055  30.318  24.803  1.00  0.00     0.163 HD
BRANCH   8  11
ATOM     11  C   UNL A   1      30.992  27.899  23.664  1.00  0.00     0.053 C 
ATOM     12  H   UNL A   1      30.326  28.093  24.479  1.00  0.00     0.042 H 
ATOM     13  H   UNL A   1      30.529  28.022  22.707  1.00  0.00     0.042 H 
BRANCH  11  14
ATOM     14  C   UNL A   1      31.426  26.471  23.746  1.00  0.00    -0.027 C 
ATOM     15  C   UNL A   1      31.356  25.612  24.791  1.00  0.00    -0.039 C 
ATOM     16  C   UNL A   1      31.925  24.311  24.402  1.00  0.00    -0.014 C 
ATOM     17  C   UNL A   1      31.978  25.735  22.595  1.00  0.00    -0.011 A 
ATOM     18  C   UNL A   1      32.238  24.401  22.962  1.00  0.00    -0.010 A 
ATOM     19  C   UNL A   1      32.146  23.292  25.258  1.00  0.00    -0.047 C 
ATOM     20  C   UNL A   1      32.218  26.172  21.298  1.00  0.00    -0.018 A 
ATOM     21  C   UNL A   1      32.673  23.484  22.014  1.00  0.00    -0.051 A 
ATOM     22  H   UNL A   1      31.880  23.436  26.245  1.00  0.00     0.064 H 
ATOM     23  C   UNL A   1      32.710  25.257  20.373  1.00  0.00     0.123 A 
ATOM     24  H   UNL A   1      32.035  27.152  21.028  1.00  0.00     0.066 H 
ATOM     25  C   UNL A   1      32.928  23.923  20.713  1.00  0.00    -0.026 A 
ATOM     26  H   UNL A   1      32.806  22.493  22.267  1.00  0.00     0.063 H 
ATOM     27  F   UNL A   1      32.966  25.659  19.121  1.00  0.00    -0.207 F 
ATOM     28  H   UNL A   1      33.278  23.260  20.004  1.00  0.00     0.065 H 
BRANCH  15  29
ATOM     29  C   UNL A   1      30.791  25.862  26.151  1.00  0.00    -0.039 C 
ATOM     30  H   UNL A   1      29.731  25.994  26.078  1.00  0.00     0.028 H 
ATOM     31  H   UNL A   1      31.232  26.745  26.565  1.00  0.00     0.028 H 
ATOM     32  H   UNL A   1      31.003  25.027  26.785  1.00  0.00     0.028 H 
ENDBRANCH  15  29
BRANCH  19  33
ATOM     33  C   UNL A   1      32.734  21.999  24.900  1.00  0.00    -0.025 A 
ATOM     34  C   UNL A   1      31.963  20.991  24.312  1.00  0.00    -0.050 A 
ATOM     35  C   UNL A   1      34.051  21.726  25.275  1.00  0.00    -0.050 A 
ATOM     36  C   UNL A   1      32.460  19.686  24.234  1.00  0.00    -0.003 A 
ATOM     37  H   UNL A   1      31.027  21.210  23.934  1.00  0.00     0.063 H 
ATOM     38  C   UNL A   1      34.552  20.426  25.178  1.00  0.00    -0.003 A 
ATOM     39  H   UNL A   1      34.655  22.487  25.625  1.00  0.00     0.063 H 
ATOM     40  C   UNL A   1      33.747  19.387  24.695  1.00  0.00     0.189 A 
ATOM     41  H   UNL A   1      31.873  18.937  23.833  1.00  0.00     0.068 H 
ATOM     42  H   UNL A   1      35.524  20.229  25.465  1.00  0.00     0.068 H 
BRANCH  40  43
ATOM     43  S   UNL A   1      34.251  17.656  24.896  1.00  0.00     0.178 S 
BRANCH  43  44
ATOM     44  C   UNL A   1      34.071  17.111  23.179  1.00  0.00     0.137 C 
ATOM     45  H   UNL A   1      34.253  17.936  22.522  1.00  0.00     0.085 H 
ATOM     46  H   UNL A   1      33.078  16.744  23.025  1.00  0.00     0.085 H 
ATOM     47  H   UNL A   1      34.776  16.332  22.977  1.00  0.00     0.085 H 
ENDBRANCH  43  44
BRANCH  43  48
ATOM     48  O   UNL A   1      35.828  17.942  24.743  1.00  0.00    -0.182 OA
ATOM     49  H   UNL A   1      36.084  17.848  23.812  1.00  0.00     0.283 HD
ENDBRANCH  43  48
ENDBRANCH  40  43
ENDBRANCH  19  33
ENDBRANCH  11  14
ENDBRANCH   8  11
ENDBRANCH   4   7
ENDBRANCH   1   4
BRANCH   1  50
ATOM     50  C   UNL A   1      34.191  29.804  27.023  1.00  0.00    -0.052 C 
ATOM     51  H   UNL A   1      34.229  30.144  26.009  1.00  0.00     0.027 H 
ATOM     52  H   UNL A   1      34.949  29.087  27.263  1.00  0.00     0.027 H 
BRANCH  50  53
ATOM     53  C   UNL A   1      34.446  31.009  27.936  1.00  0.00    -0.052 C 
ATOM     54  H   UNL A   1      35.497  31.058  28.132  1.00  0.00     0.027 H 
ATOM     55  H   UNL A   1      33.854  30.849  28.811  1.00  0.00     0.027 H 
BRANCH  53  56
ATOM     56  C   UNL A   1      34.010  32.361  27.368  1.00  0.00    -0.036 C 
ATOM     57  H   UNL A   1      34.166  32.345  26.309  1.00  0.00     0.028 H 
ATOM     58  H   UNL A   1      34.595  33.102  27.870  1.00  0.00     0.028 H 
BRANCH  56  59
ATOM     59  C   UNL A   1      32.550  32.717  27.626  1.00  0.00     0.018 C 
ATOM     60  H   UNL A   1      32.217  32.189  28.495  1.00  0.00     0.049 H 
ATOM     61  H   UNL A   1      31.992  32.441  26.757  1.00  0.00     0.049 H 
BRANCH  59  62
ATOM     62  N   UNL A   1      32.348  34.143  27.842  1.00  0.00    -0.352 N 
ATOM     63  C   UNL A   1      33.024  34.999  28.678  1.00  0.00     0.251 C 
ATOM     64  H   UNL A   1      31.625  34.551  27.314  1.00  0.00     0.163 HD
ATOM     65  O   UNL A   1      32.625  36.148  28.847  1.00  0.00    -0.269 OA
BRANCH  63  66
ATOM     66  C   UNL A   1      34.219  34.521  29.408  1.00  0.00     0.039 A 
ATOM     67  C   UNL A   1      35.500  34.761  28.909  1.00  0.00    -0.049 A 
ATOM     68  C   UNL A   1      34.052  33.798  30.592  1.00  0.00    -0.049 A 
ATOM     69  C   UNL A   1      36.594  34.131  29.492  1.00  0.00    -0.053 A 
ATOM     70  H   UNL A   1      35.635  35.401  28.111  1.00  0.00     0.063 H 
ATOM     71  C   UNL A   1      35.165  33.240  31.229  1.00  0.00    -0.053 A 
ATOM     72  H   UNL A   1      33.110  33.678  30.997  1.00  0.00     0.063 H 
ATOM     73  C   UNL A   1      36.440  33.355  30.654  1.00  0.00    -0.014 A 
ATOM     74  H   UNL A   1      37.529  34.236  29.068  1.00  0.00     0.063 H 
ATOM     75  H   UNL A   1      35.049  32.740  32.125  1.00  0.00     0.063 H 
BRANCH  73  76
ATOM     76  C   UNL A   1      37.626  32.664  31.226  1.00  0.00     0.031 A 
ATOM     77  C   UNL A   1      38.116  32.997  32.611  1.00  0.00     0.074 A 
ATOM     78  C   UNL A   1      38.214  31.676  30.525  1.00  0.00     0.049 A 
ATOM     79  N   UNL A   1      39.095  32.453  33.292  1.00  0.00    -0.248 NA
ATOM     80  C   UNL A   1      37.422  34.079  33.327  1.00  0.00    -0.034 C 
ATOM     81  C   UNL A   1      37.825  31.258  29.177  1.00  0.00    -0.036 A 
ATOM     82  N   UNL A   1      39.236  30.822  30.856  1.00  0.00    -0.354 N 
ATOM     83  C   UNL A   1      39.141  33.133  34.502  1.00  0.00     0.074 A 
ATOM     84  C   UNL A   1      38.117  34.152  34.454  1.00  0.00    -0.034 C 
ATOM     85  H   UNL A   1      36.607  34.637  33.030  1.00  0.00     0.065 H 
ATOM     86  C   UNL A   1      38.553  30.189  28.822  1.00  0.00    -0.036 A 
ATOM     87  H   UNL A   1      37.106  31.712  28.593  1.00  0.00     0.065 H 
ATOM     88  C   UNL A   1      39.501  29.883  29.888  1.00  0.00     0.049 A 
ATOM     89  H   UNL A   1      39.731  30.877  31.704  1.00  0.00     0.167 HD
ATOM     90  C   UNL A   1      39.952  32.911  35.564  1.00  0.00     0.037 A 
ATOM     91  H   UNL A   1      37.948  34.845  35.200  1.00  0.00     0.065 H 
ATOM     92  H   UNL A   1      38.457  29.666  27.937  1.00  0.00     0.065 H 
ATOM     93  C   UNL A   1      40.410  28.890  29.859  1.00  0.00     0.037 A 
ATOM     94  C   UNL A   1      40.952  31.877  35.623  1.00  0.00     0.049 A 
ATOM     95  C   UNL A   1      41.326  28.698  31.034  1.00  0.00     0.074 A 
ATOM     96  C   UNL A   1      41.800  31.560  36.670  1.00  0.00    -0.036 A 
ATOM     97  N   UNL A   1      41.235  30.992  34.595  1.00  0.00    -0.354 N 
ATOM     98  N   UNL A   1      41.344  29.336  32.178  1.00  0.00    -0.248 NA
ATOM     99  C   UNL A   1      42.356  27.657  30.910  1.00  0.00    -0.034 C 
ATOM    100  C   UNL A   1      42.627  30.510  36.260  1.00  0.00    -0.036 A 
ATOM    101  H   UNL A   1      41.820  32.019  37.594  1.00  0.00     0.065 H 
ATOM    102  C   UNL A   1      42.262  30.143  34.974  1.00  0.00     0.049 A 
ATOM    103  H   UNL A   1      40.774  30.969  33.725  1.00  0.00     0.167 HD
ATOM    104  C   UNL A   1      42.378  28.771  32.913  1.00  0.00     0.074 A 
ATOM    105  C   UNL A   1      42.947  27.721  32.095  1.00  0.00    -0.034 C 
ATOM    106  H   UNL A   1      42.563  27.038  30.110  1.00  0.00     0.065 H 
ATOM    107  H   UNL A   1      43.379  30.081  36.819  1.00  0.00     0.065 H 
ATOM    108  C   UNL A   1      42.819  29.101  34.150  1.00  0.00     0.037 A 
ATOM    109  H   UNL A   1      43.716  27.100  32.395  1.00  0.00     0.065 H 
BRANCH  90 110
ATOM    110  C   UNL A   1      39.798  33.797  36.766  1.00  0.00     0.064 A 
ATOM    111  C   UNL A   1      40.428  35.049  36.839  1.00  0.00     0.173 A 
ATOM    112  C   UNL A   1      38.943  33.431  37.816  1.00  0.00     0.173 A 
ATOM    113  F   UNL A   1      41.263  35.441  35.864  1.00  0.00    -0.203 F 
ATOM    114  C   UNL A   1      40.215  35.896  37.923  1.00  0.00     0.198 A 
ATOM    115  C   UNL A   1      38.712  34.292  38.887  1.00  0.00     0.198 A 
ATOM    116  F   UNL A   1      38.309  32.249  37.792  1.00  0.00    -0.203 F 
ATOM    117  F   UNL A   1      40.847  37.077  37.983  1.00  0.00    -0.200 F 
ATOM    118  C   UNL A   1      39.349  35.522  38.940  1.00  0.00     0.200 A 
ATOM    119  F   UNL A   1      37.863  33.935  39.861  1.00  0.00    -0.200 F 
ATOM    120  F   UNL A   1      39.129  36.348  39.973  1.00  0.00    -0.200 F 
ENDBRANCH  90 110
BRANCH  93 121
ATOM    121  C   UNL A   1      40.489  28.001  28.671  1.00  0.00     0.064 A 
ATOM    122  C   UNL A   1      41.253  28.358  27.552  1.00  0.00     0.173 A 
ATOM    123  C   UNL A   1      39.822  26.767  28.638  1.00  0.00     0.173 A 
ATOM    124  F   UNL A   1      41.891  29.538  27.527  1.00  0.00    -0.203 F 
ATOM    125  C   UNL A   1      41.341  27.520  26.444  1.00  0.00     0.198 A 
ATOM    126  C   UNL A   1      39.935  25.916  27.542  1.00  0.00     0.198 A 
ATOM    127  F   UNL A   1      39.079  26.377  29.686  1.00  0.00    -0.203 F 
ATOM    128  F   UNL A   1      42.051  27.900  25.372  1.00  0.00    -0.200 F 
ATOM    129  C   UNL A   1      40.690  26.295  26.443  1.00  0.00     0.200 A 
ATOM    130  F   UNL A   1      39.318  24.726  27.554  1.00  0.00    -0.200 F 
ATOM    131  F   UNL A   1      40.787  25.482  25.382  1.00  0.00    -0.200 F 
ENDBRANCH  93 121
BRANCH 108 132
ATOM    132  C   UNL A   1      43.974  28.323  34.706  1.00  0.00     0.064 A 
ATOM    133  C   UNL A   1      45.293  28.776  34.560  1.00  0.00     0.173 A 
ATOM    134  C   UNL A   1      43.755  27.159  35.458  1.00  0.00     0.173 A 
ATOM    135  F   UNL A   1      45.553  29.875  33.838  1.00  0.00    -0.203 F 
ATOM    136  C   UNL A   1      46.353  28.086  35.142  1.00  0.00     0.198 A 
ATOM    137  C   UNL A   1      44.814  26.487  36.060  1.00  0.00     0.198 A 
ATOM    138  F   UNL A   1      42.510  26.691  35.632  1.00  0.00    -0.203 F 
ATOM    139  F   UNL A   1      47.608  28.521  34.968  1.00  0.00    -0.200 F 
ATOM    140  C   UNL A   1      46.112  26.949  35.900  1.00  0.00     0.200 A 
ATOM    141  F   UNL A   1      44.578  25.398  36.805  1.00  0.00    -0.200 F 
ATOM    142  F   UNL A   1      47.132  26.298  36.475  1.00  0.00    -0.200 F 
ENDBRANCH 108 132
ENDBRANCH  73  76
ENDBRANCH  63  66
ENDBRANCH  59  62
ENDBRANCH  56  59
ENDBRANCH  53  56
ENDBRANCH  50  53
ENDBRANCH   1  50
TORSDOF 19
ENDMDL
