MODEL 1
REMARK VINA RESULT:     -11.9      0.000      0.000
REMARK SMILES C[C@@H](C(=O)NCCCCCCNC(=O)c1ccc(-c2c3nc(c(-c4c(F)c(F)c(F)c(F)c4F)c4ccc([nH]4)c(-c4c(F)c(F)c(F)c(F)c4F)c4nc(c(-c5c(F)c(F)c(F)c(F)c5F)c5ccc2[nH]5)C=C4)C=C3)cc1)c1ccc(C[C@H]2CCCC2=O)cc1[N+](=O)[O-]
REMARK SMILES IDX 8 1 7 4 6 7 5 10 3 11 4 12 2 14 1 16 78 20 79 21 90 22 80 23
REMARK SMILES IDX 89 25 81 26 91 29 92 30 93 31 82 32 83 35 84 36 87 37 85 39
REMARK SMILES IDX 86 42 88 43 9 48 10 51 11 54 12 57 13 58 14 60 15 61 16 62
REMARK SMILES IDX 77 63 17 64 76 66 18 68 19 71 20 72 70 73 21 74 75 75 69 76
REMARK SMILES IDX 71 77 22 78 74 79 68 81 67 83 23 85 55 88 35 89 54 90 36 91
REMARK SMILES IDX 39 92 53 93 72 94 37 95 38 97 52 99 73 100 40 103 24 105
REMARK SMILES IDX 25 106 33 107 26 108 27 109 31 110 34 111 28 112 29 113
REMARK SMILES IDX 32 114 30 115 56 116 57 117 65 118 58 119 59 120 63 121
REMARK SMILES IDX 66 122 60 123 61 124 64 125 62 126 41 127 42 128 50 129
REMARK SMILES IDX 43 130 44 131 48 132 51 133 45 134 46 135 49 136 47 137
REMARK H PARENT 8 2 8 3 7 5 7 6 6 8 6 9 5 13 2 15 1 17 1 18 1 19 79 24 80 27
REMARK H PARENT 89 28 82 33 82 34 83 38 84 40 84 41 85 44 85 45 86 46 86 47
REMARK H PARENT 9 49 9 50 10 52 10 53 11 55 11 56 12 59 16 65 77 67 17 69
REMARK H PARENT 76 70 75 80 69 82 71 84 74 86 68 87 36 96 39 98 72 101 37 102
REMARK H PARENT 73 104
REMARK Flexibility Score: inf
ROOT
ATOM      1  C   UNL A   1      32.386  29.567  26.030  1.00  0.00    -0.052 C 
ATOM      2  H   UNL A   1      32.533  28.874  25.228  1.00  0.00     0.027 H 
ATOM      3  H   UNL A   1      33.267  30.125  26.271  1.00  0.00     0.027 H 
ENDROOT
BRANCH   1   4
ATOM      4  C   UNL A   1      32.019  28.773  27.289  1.00  0.00    -0.036 C 
ATOM      5  H   UNL A   1      32.895  28.681  27.898  1.00  0.00     0.028 H 
ATOM      6  H   UNL A   1      31.235  29.310  27.779  1.00  0.00     0.028 H 
BRANCH   4   7
ATOM      7  C   UNL A   1      31.483  27.366  26.997  1.00  0.00     0.017 C 
ATOM      8  H   UNL A   1      31.056  26.955  27.889  1.00  0.00     0.049 H 
ATOM      9  H   UNL A   1      30.735  27.421  26.236  1.00  0.00     0.049 H 
BRANCH   7  10
ATOM     10  N   UNL A   1      32.568  26.518  26.547  1.00  0.00    -0.356 N 
ATOM     11  C   UNL A   1      32.520  25.392  25.776  1.00  0.00     0.227 C 
ATOM     12  O   UNL A   1      33.486  24.630  25.857  1.00  0.00    -0.274 OA
ATOM     13  H   UNL A   1      33.467  26.792  26.839  1.00  0.00     0.163 HD
BRANCH  11  14
ATOM     14  C   UNL A   1      31.333  25.156  24.808  1.00  0.00     0.067 C 
ATOM     15  H   UNL A   1      30.422  25.000  25.348  1.00  0.00     0.045 H 
BRANCH  14  16
ATOM     16  C   UNL A   1      31.544  23.853  24.038  1.00  0.00    -0.049 C 
ATOM     17  H   UNL A   1      32.590  23.633  23.989  1.00  0.00     0.024 H 
ATOM     18  H   UNL A   1      31.154  23.956  23.048  1.00  0.00     0.024 H 
ATOM     19  H   UNL A   1      31.035  23.056  24.540  1.00  0.00     0.024 H 
ENDBRANCH  14  16
BRANCH  14  20
ATOM     20  C   UNL A   1      31.020  26.419  23.984  1.00  0.00     0.042 A 
ATOM     21  C   UNL A   1      29.680  26.869  24.007  1.00  0.00    -0.051 A 
ATOM     22  C   UNL A   1      31.902  27.163  23.177  1.00  0.00     0.273 A 
ATOM     23  C   UNL A   1      29.256  28.002  23.304  1.00  0.00    -0.058 A 
ATOM     24  H   UNL A   1      28.988  26.343  24.564  1.00  0.00     0.063 H 
ATOM     25  C   UNL A   1      31.466  28.270  22.424  1.00  0.00     0.019 A 
ATOM     26  C   UNL A   1      30.138  28.696  22.477  1.00  0.00    -0.040 A 
ATOM     27  H   UNL A   1      28.281  28.327  23.397  1.00  0.00     0.063 H 
ATOM     28  H   UNL A   1      32.138  28.773  21.825  1.00  0.00     0.070 H 
BRANCH  22  29
ATOM     29  N   UNL A   1      33.300  26.874  23.063  1.00  0.00     0.063 N 
ATOM     30  O   UNL A   1      34.097  27.399  23.813  1.00  0.00    -0.258 OA
ATOM     31  O   UNL A   1      33.745  25.909  22.194  1.00  0.00    -0.258 OA
ENDBRANCH  22  29
BRANCH  26  32
ATOM     32  C   UNL A   1      29.680  29.879  21.661  1.00  0.00    -0.018 C 
ATOM     33  H   UNL A   1      29.484  29.535  20.667  1.00  0.00     0.032 H 
ATOM     34  H   UNL A   1      30.470  30.597  21.733  1.00  0.00     0.032 H 
BRANCH  32  35
ATOM     35  C   UNL A   1      28.424  30.606  22.157  1.00  0.00     0.022 C 
ATOM     36  C   UNL A   1      28.554  31.378  23.475  1.00  0.00    -0.043 C 
ATOM     37  C   UNL A   1      27.965  31.684  21.204  1.00  0.00     0.136 C 
ATOM     38  H   UNL A   1      27.755  29.778  22.264  1.00  0.00     0.039 H 
ATOM     39  C   UNL A   1      28.796  32.834  23.095  1.00  0.00    -0.046 C 
ATOM     40  H   UNL A   1      29.379  31.001  24.044  1.00  0.00     0.027 H 
ATOM     41  H   UNL A   1      27.676  31.274  24.076  1.00  0.00     0.027 H 
ATOM     42  C   UNL A   1      27.998  33.058  21.818  1.00  0.00     0.006 C 
ATOM     43  O   UNL A   1      27.589  31.466  20.057  1.00  0.00    -0.299 OA
ATOM     44  H   UNL A   1      29.837  33.008  22.921  1.00  0.00     0.027 H 
ATOM     45  H   UNL A   1      28.495  33.503  23.874  1.00  0.00     0.027 H 
ATOM     46  H   UNL A   1      28.491  33.757  21.174  1.00  0.00     0.035 H 
ATOM     47  H   UNL A   1      27.026  33.469  21.992  1.00  0.00     0.035 H 
ENDBRANCH  32  35
ENDBRANCH  26  32
ENDBRANCH  14  20
ENDBRANCH  11  14
ENDBRANCH   7  10
ENDBRANCH   4   7
ENDBRANCH   1   4
BRANCH   1  48
ATOM     48  C   UNL A   1      31.336  30.589  25.589  1.00  0.00    -0.052 C 
ATOM     49  H   UNL A   1      30.384  30.099  25.564  1.00  0.00     0.027 H 
ATOM     50  H   UNL A   1      31.649  30.950  24.632  1.00  0.00     0.027 H 
BRANCH  48  51
ATOM     51  C   UNL A   1      31.215  31.818  26.494  1.00  0.00    -0.036 C 
ATOM     52  H   UNL A   1      30.684  31.532  27.377  1.00  0.00     0.028 H 
ATOM     53  H   UNL A   1      30.707  32.567  25.922  1.00  0.00     0.028 H 
BRANCH  51  54
ATOM     54  C   UNL A   1      32.548  32.429  26.917  1.00  0.00     0.018 C 
ATOM     55  H   UNL A   1      33.213  32.424  26.079  1.00  0.00     0.049 H 
ATOM     56  H   UNL A   1      32.941  31.845  27.723  1.00  0.00     0.049 H 
BRANCH  54  57
ATOM     57  N   UNL A   1      32.393  33.796  27.386  1.00  0.00    -0.352 N 
ATOM     58  C   UNL A   1      33.049  34.458  28.392  1.00  0.00     0.251 C 
ATOM     59  H   UNL A   1      31.714  34.326  26.909  1.00  0.00     0.163 HD
ATOM     60  O   UNL A   1      32.630  35.540  28.786  1.00  0.00    -0.269 OA
BRANCH  58  61
ATOM     61  C   UNL A   1      34.255  33.869  29.014  1.00  0.00     0.039 A 
ATOM     62  C   UNL A   1      34.086  32.911  30.019  1.00  0.00    -0.049 A 
ATOM     63  C   UNL A   1      35.540  34.286  28.654  1.00  0.00    -0.049 A 
ATOM     64  C   UNL A   1      35.204  32.342  30.629  1.00  0.00    -0.053 A 
ATOM     65  H   UNL A   1      33.137  32.626  30.306  1.00  0.00     0.063 H 
ATOM     66  C   UNL A   1      36.657  33.671  29.219  1.00  0.00    -0.053 A 
ATOM     67  H   UNL A   1      35.662  35.048  27.969  1.00  0.00     0.063 H 
ATOM     68  C   UNL A   1      36.499  32.700  30.218  1.00  0.00    -0.014 A 
ATOM     69  H   UNL A   1      35.079  31.654  31.388  1.00  0.00     0.063 H 
ATOM     70  H   UNL A   1      37.603  33.933  28.902  1.00  0.00     0.063 H 
BRANCH  68  71
ATOM     71  C   UNL A   1      37.686  32.055  30.833  1.00  0.00     0.031 A 
ATOM     72  C   UNL A   1      38.153  32.461  32.204  1.00  0.00     0.074 A 
ATOM     73  C   UNL A   1      38.360  31.117  30.142  1.00  0.00     0.049 A 
ATOM     74  N   UNL A   1      39.163  32.003  32.902  1.00  0.00    -0.248 NA
ATOM     75  C   UNL A   1      37.401  33.534  32.871  1.00  0.00    -0.034 C 
ATOM     76  C   UNL A   1      38.040  30.681  28.780  1.00  0.00    -0.036 A 
ATOM     77  N   UNL A   1      39.452  30.360  30.484  1.00  0.00    -0.354 N 
ATOM     78  C   UNL A   1      39.164  32.728  34.087  1.00  0.00     0.074 A 
ATOM     79  C   UNL A   1      38.093  33.697  33.990  1.00  0.00    -0.034 C 
ATOM     80  H   UNL A   1      36.555  34.031  32.552  1.00  0.00     0.065 H 
ATOM     81  C   UNL A   1      38.902  29.721  28.413  1.00  0.00    -0.036 A 
ATOM     82  H   UNL A   1      37.274  31.053  28.197  1.00  0.00     0.065 H 
ATOM     83  C   UNL A   1      39.848  29.489  29.500  1.00  0.00     0.049 A 
ATOM     84  H   UNL A   1      39.909  30.436  31.354  1.00  0.00     0.167 HD
ATOM     85  C   UNL A   1      39.965  32.579  35.168  1.00  0.00     0.037 A 
ATOM     86  H   UNL A   1      37.894  34.419  34.699  1.00  0.00     0.065 H 
ATOM     87  H   UNL A   1      38.897  29.226  27.507  1.00  0.00     0.065 H 
ATOM     88  C   UNL A   1      40.859  28.600  29.479  1.00  0.00     0.037 A 
ATOM     89  C   UNL A   1      41.024  31.607  35.268  1.00  0.00     0.049 A 
ATOM     90  C   UNL A   1      41.724  28.445  30.700  1.00  0.00     0.074 A 
ATOM     91  C   UNL A   1      41.872  31.359  36.333  1.00  0.00    -0.036 A 
ATOM     92  N   UNL A   1      41.376  30.720  34.261  1.00  0.00    -0.354 N 
ATOM     93  N   UNL A   1      41.673  29.093  31.838  1.00  0.00    -0.248 NA
ATOM     94  C   UNL A   1      42.778  27.423  30.637  1.00  0.00    -0.034 C 
ATOM     95  C   UNL A   1      42.760  30.343  35.959  1.00  0.00    -0.036 A 
ATOM     96  H   UNL A   1      41.854  31.839  37.246  1.00  0.00     0.065 H 
ATOM     97  C   UNL A   1      42.436  29.931  34.677  1.00  0.00     0.049 A 
ATOM     98  H   UNL A   1      40.938  30.661  33.382  1.00  0.00     0.167 HD
ATOM     99  C   UNL A   1      42.672  28.547  32.633  1.00  0.00     0.074 A 
ATOM    100  C   UNL A   1      43.295  27.495  31.856  1.00  0.00    -0.034 C 
ATOM    101  H   UNL A   1      43.046  26.809  29.852  1.00  0.00     0.065 H 
ATOM    102  H   UNL A   1      43.526  29.967  36.539  1.00  0.00     0.065 H 
ATOM    103  C   UNL A   1      43.045  28.888  33.890  1.00  0.00     0.037 A 
ATOM    104  H   UNL A   1      44.045  26.880  32.207  1.00  0.00     0.065 H 
BRANCH  85 105
ATOM    105  C   UNL A   1      39.717  33.478  36.345  1.00  0.00     0.064 A 
ATOM    106  C   UNL A   1      40.279  34.763  36.411  1.00  0.00     0.173 A 
ATOM    107  C   UNL A   1      38.873  33.076  37.391  1.00  0.00     0.173 A 
ATOM    108  F   UNL A   1      41.102  35.190  35.443  1.00  0.00    -0.203 F 
ATOM    109  C   UNL A   1      40.023  35.602  37.492  1.00  0.00     0.198 A 
ATOM    110  C   UNL A   1      38.597  33.929  38.456  1.00  0.00     0.198 A 
ATOM    111  F   UNL A   1      38.306  31.861  37.374  1.00  0.00    -0.203 F 
ATOM    112  F   UNL A   1      40.603  36.808  37.553  1.00  0.00    -0.200 F 
ATOM    113  C   UNL A   1      39.176  35.188  38.509  1.00  0.00     0.200 A 
ATOM    114  F   UNL A   1      37.769  33.533  39.434  1.00  0.00    -0.200 F 
ATOM    115  F   UNL A   1      38.922  36.002  39.544  1.00  0.00    -0.200 F 
ENDBRANCH  85 105
BRANCH  88 116
ATOM    116  C   UNL A   1      41.092  27.770  28.269  1.00  0.00     0.064 A 
ATOM    117  C   UNL A   1      40.495  26.510  28.130  1.00  0.00     0.173 A 
ATOM    118  C   UNL A   1      41.927  28.215  27.233  1.00  0.00     0.173 A 
ATOM    119  F   UNL A   1      39.704  26.034  29.102  1.00  0.00    -0.203 F 
ATOM    120  C   UNL A   1      40.744  25.715  27.013  1.00  0.00     0.198 A 
ATOM    121  C   UNL A   1      42.151  27.431  26.104  1.00  0.00     0.198 A 
ATOM    122  F   UNL A   1      42.517  29.416  27.315  1.00  0.00    -0.203 F 
ATOM    123  F   UNL A   1      40.200  24.493  26.930  1.00  0.00    -0.200 F 
ATOM    124  C   UNL A   1      41.568  26.178  25.999  1.00  0.00     0.200 A 
ATOM    125  F   UNL A   1      42.937  27.889  25.120  1.00  0.00    -0.200 F 
ATOM    126  F   UNL A   1      41.807  25.413  24.925  1.00  0.00    -0.200 F 
ENDBRANCH  88 116
BRANCH 103 127
ATOM    127  C   UNL A   1      44.165  28.103  34.506  1.00  0.00     0.064 A 
ATOM    128  C   UNL A   1      43.925  26.913  35.209  1.00  0.00     0.173 A 
ATOM    129  C   UNL A   1      45.493  28.536  34.378  1.00  0.00     0.173 A 
ATOM    130  F   UNL A   1      42.671  26.465  35.371  1.00  0.00    -0.203 F 
ATOM    131  C   UNL A   1      44.973  26.204  35.791  1.00  0.00     0.198 A 
ATOM    132  C   UNL A   1      46.540  27.809  34.936  1.00  0.00     0.198 A 
ATOM    133  F   UNL A   1      45.775  29.665  33.709  1.00  0.00    -0.203 F 
ATOM    134  F   UNL A   1      44.716  25.099  36.506  1.00  0.00    -0.200 F 
ATOM    135  C   UNL A   1      46.279  26.649  35.650  1.00  0.00     0.200 A 
ATOM    136  F   UNL A   1      47.802  28.235  34.790  1.00  0.00    -0.200 F 
ATOM    137  F   UNL A   1      47.285  25.965  36.212  1.00  0.00    -0.200 F 
ENDBRANCH 103 127
ENDBRANCH  68  71
ENDBRANCH  58  61
ENDBRANCH  54  57
ENDBRANCH  51  54
ENDBRANCH  48  51
ENDBRANCH   1  48
TORSDOF 18
ENDMDL
MODEL 2
REMARK VINA RESULT:     -11.8      1.838      4.689
REMARK SMILES C[C@@H](C(=O)NCCCCCCNC(=O)c1ccc(-c2c3nc(c(-c4c(F)c(F)c(F)c(F)c4F)c4ccc([nH]4)c(-c4c(F)c(F)c(F)c(F)c4F)c4nc(c(-c5c(F)c(F)c(F)c(F)c5F)c5ccc2[nH]5)C=C4)C=C3)cc1)c1ccc(C[C@H]2CCCC2=O)cc1[N+](=O)[O-]
REMARK SMILES IDX 8 1 7 4 6 7 5 10 3 11 4 12 2 14 1 16 78 20 79 21 90 22 80 23
REMARK SMILES IDX 89 25 81 26 91 29 92 30 93 31 82 32 83 35 84 36 87 37 85 39
REMARK SMILES IDX 86 42 88 43 9 48 10 51 11 54 12 57 13 58 14 60 15 61 16 62
REMARK SMILES IDX 77 63 17 64 76 66 18 68 19 71 20 72 70 73 21 74 75 75 69 76
REMARK SMILES IDX 71 77 22 78 74 79 68 81 67 83 23 85 55 88 35 89 54 90 36 91
REMARK SMILES IDX 39 92 53 93 72 94 37 95 38 97 52 99 73 100 40 103 24 105
REMARK SMILES IDX 25 106 33 107 26 108 27 109 31 110 34 111 28 112 29 113
REMARK SMILES IDX 32 114 30 115 56 116 57 117 65 118 58 119 59 120 63 121
REMARK SMILES IDX 66 122 60 123 61 124 64 125 62 126 41 127 42 128 50 129
REMARK SMILES IDX 43 130 44 131 48 132 51 133 45 134 46 135 49 136 47 137
REMARK H PARENT 8 2 8 3 7 5 7 6 6 8 6 9 5 13 2 15 1 17 1 18 1 19 79 24 80 27
REMARK H PARENT 89 28 82 33 82 34 83 38 84 40 84 41 85 44 85 45 86 46 86 47
REMARK H PARENT 9 49 9 50 10 52 10 53 11 55 11 56 12 59 16 65 77 67 17 69
REMARK H PARENT 76 70 75 80 69 82 71 84 74 86 68 87 36 96 39 98 72 101 37 102
REMARK H PARENT 73 104
REMARK Flexibility Score: inf
ROOT
ATOM      1  C   UNL A   1      32.313  30.071  26.370  1.00  0.00    -0.052 C 
ATOM      2  H   UNL A   1      32.927  29.742  25.558  1.00  0.00     0.027 H 
ATOM      3  H   UNL A   1      32.848  30.648  27.095  1.00  0.00     0.027 H 
ENDROOT
BRANCH   1   4
ATOM      4  C   UNL A   1      31.787  28.832  27.105  1.00  0.00    -0.036 C 
ATOM      5  H   UNL A   1      32.138  28.864  28.115  1.00  0.00     0.028 H 
ATOM      6  H   UNL A   1      30.720  28.862  27.041  1.00  0.00     0.028 H 
BRANCH   4   7
ATOM      7  C   UNL A   1      32.236  27.506  26.480  1.00  0.00     0.017 C 
ATOM      8  H   UNL A   1      32.236  27.596  25.413  1.00  0.00     0.049 H 
ATOM      9  H   UNL A   1      33.223  27.269  26.817  1.00  0.00     0.049 H 
BRANCH   7  10
ATOM     10  N   UNL A   1      31.325  26.451  26.874  1.00  0.00    -0.356 N 
ATOM     11  C   UNL A   1      30.462  25.723  26.106  1.00  0.00     0.227 C 
ATOM     12  O   UNL A   1      29.524  25.183  26.697  1.00  0.00    -0.274 OA
ATOM     13  H   UNL A   1      31.329  26.228  27.833  1.00  0.00     0.163 HD
BRANCH  11  14
ATOM     14  C   UNL A   1      30.723  25.548  24.589  1.00  0.00     0.067 C 
ATOM     15  H   UNL A   1      31.419  26.278  24.231  1.00  0.00     0.045 H 
BRANCH  14  16
ATOM     16  C   UNL A   1      29.441  25.833  23.807  1.00  0.00    -0.049 C 
ATOM     17  H   UNL A   1      29.689  26.273  22.864  1.00  0.00     0.024 H 
ATOM     18  H   UNL A   1      28.826  26.508  24.364  1.00  0.00     0.024 H 
ATOM     19  H   UNL A   1      28.911  24.918  23.646  1.00  0.00     0.024 H 
ENDBRANCH  14  16
BRANCH  14  20
ATOM     20  C   UNL A   1      31.449  24.222  24.293  1.00  0.00     0.042 A 
ATOM     21  C   UNL A   1      31.125  23.127  25.125  1.00  0.00    -0.051 A 
ATOM     22  C   UNL A   1      32.430  23.977  23.312  1.00  0.00     0.273 A 
ATOM     23  C   UNL A   1      31.710  21.865  24.969  1.00  0.00    -0.058 A 
ATOM     24  H   UNL A   1      30.430  23.262  25.876  1.00  0.00     0.063 H 
ATOM     25  C   UNL A   1      33.061  22.724  23.188  1.00  0.00     0.019 A 
ATOM     26  C   UNL A   1      32.710  21.659  24.020  1.00  0.00    -0.040 A 
ATOM     27  H   UNL A   1      31.399  21.080  25.562  1.00  0.00     0.063 H 
ATOM     28  H   UNL A   1      33.792  22.592  22.474  1.00  0.00     0.070 H 
BRANCH  22  29
ATOM     29  N   UNL A   1      32.856  24.958  22.359  1.00  0.00     0.063 N 
ATOM     30  O   UNL A   1      34.029  25.251  22.266  1.00  0.00    -0.258 OA
ATOM     31  O   UNL A   1      31.968  25.485  21.454  1.00  0.00    -0.258 OA
ENDBRANCH  22  29
BRANCH  26  32
ATOM     32  C   UNL A   1      33.396  20.323  23.883  1.00  0.00    -0.018 C 
ATOM     33  H   UNL A   1      34.061  20.211  24.714  1.00  0.00     0.032 H 
ATOM     34  H   UNL A   1      33.880  20.347  22.929  1.00  0.00     0.032 H 
BRANCH  32  35
ATOM     35  C   UNL A   1      32.487  19.088  23.845  1.00  0.00     0.022 C 
ATOM     36  C   UNL A   1      32.659  18.147  22.648  1.00  0.00    -0.043 C 
ATOM     37  C   UNL A   1      32.721  18.160  25.013  1.00  0.00     0.136 C 
ATOM     38  H   UNL A   1      31.527  19.560  23.824  1.00  0.00     0.039 H 
ATOM     39  C   UNL A   1      33.558  17.011  23.123  1.00  0.00    -0.046 C 
ATOM     40  H   UNL A   1      33.118  18.666  21.832  1.00  0.00     0.027 H 
ATOM     41  H   UNL A   1      31.716  17.778  22.303  1.00  0.00     0.027 H 
ATOM     42  C   UNL A   1      33.201  16.798  24.588  1.00  0.00     0.006 C 
ATOM     43  O   UNL A   1      32.528  18.474  26.182  1.00  0.00    -0.299 OA
ATOM     44  H   UNL A   1      34.588  17.282  23.025  1.00  0.00     0.027 H 
ATOM     45  H   UNL A   1      33.414  16.122  22.546  1.00  0.00     0.027 H 
ATOM     46  H   UNL A   1      34.059  16.497  25.153  1.00  0.00     0.035 H 
ATOM     47  H   UNL A   1      32.476  16.026  24.740  1.00  0.00     0.035 H 
ENDBRANCH  32  35
ENDBRANCH  26  32
ENDBRANCH  14  20
ENDBRANCH  11  14
ENDBRANCH   7  10
ENDBRANCH   4   7
ENDBRANCH   1   4
BRANCH   1  48
ATOM     48  C   UNL A   1      31.226  30.988  25.804  1.00  0.00    -0.052 C 
ATOM     49  H   UNL A   1      30.282  30.500  25.924  1.00  0.00     0.027 H 
ATOM     50  H   UNL A   1      31.483  31.164  24.780  1.00  0.00     0.027 H 
BRANCH  48  51
ATOM     51  C   UNL A   1      31.138  32.365  26.468  1.00  0.00    -0.036 C 
ATOM     52  H   UNL A   1      30.347  32.340  27.186  1.00  0.00     0.028 H 
ATOM     53  H   UNL A   1      30.969  33.071  25.681  1.00  0.00     0.028 H 
BRANCH  51  54
ATOM     54  C   UNL A   1      32.413  32.810  27.180  1.00  0.00     0.018 C 
ATOM     55  H   UNL A   1      33.238  32.713  26.506  1.00  0.00     0.049 H 
ATOM     56  H   UNL A   1      32.546  32.191  28.042  1.00  0.00     0.049 H 
BRANCH  54  57
ATOM     57  N   UNL A   1      32.331  34.191  27.625  1.00  0.00    -0.352 N 
ATOM     58  C   UNL A   1      33.033  34.838  28.609  1.00  0.00     0.251 C 
ATOM     59  H   UNL A   1      31.670  34.745  27.149  1.00  0.00     0.163 HD
ATOM     60  O   UNL A   1      32.672  35.947  28.989  1.00  0.00    -0.269 OA
BRANCH  58  61
ATOM     61  C   UNL A   1      34.219  34.203  29.225  1.00  0.00     0.039 A 
ATOM     62  C   UNL A   1      34.030  33.378  30.337  1.00  0.00    -0.049 A 
ATOM     63  C   UNL A   1      35.510  34.453  28.749  1.00  0.00    -0.049 A 
ATOM     64  C   UNL A   1      35.130  32.770  30.943  1.00  0.00    -0.053 A 
ATOM     65  H   UNL A   1      33.081  33.218  30.707  1.00  0.00     0.063 H 
ATOM     66  C   UNL A   1      36.602  33.795  29.315  1.00  0.00    -0.053 A 
ATOM     67  H   UNL A   1      35.655  35.123  27.978  1.00  0.00     0.063 H 
ATOM     68  C   UNL A   1      36.422  32.955  30.423  1.00  0.00    -0.014 A 
ATOM     69  H   UNL A   1      34.994  32.180  31.779  1.00  0.00     0.063 H 
ATOM     70  H   UNL A   1      37.545  33.929  28.918  1.00  0.00     0.063 H 
BRANCH  68  71
ATOM     71  C   UNL A   1      37.585  32.265  31.038  1.00  0.00     0.031 A 
ATOM     72  C   UNL A   1      38.059  32.645  32.414  1.00  0.00     0.074 A 
ATOM     73  C   UNL A   1      38.229  31.309  30.342  1.00  0.00     0.049 A 
ATOM     74  N   UNL A   1      39.050  32.148  33.113  1.00  0.00    -0.248 NA
ATOM     75  C   UNL A   1      37.341  33.738  33.086  1.00  0.00    -0.034 C 
ATOM     76  C   UNL A   1      37.900  30.895  28.977  1.00  0.00    -0.036 A 
ATOM     77  N   UNL A   1      39.294  30.514  30.683  1.00  0.00    -0.354 N 
ATOM     78  C   UNL A   1      39.069  32.864  34.303  1.00  0.00     0.074 A 
ATOM     79  C   UNL A   1      38.033  33.869  34.209  1.00  0.00    -0.034 C 
ATOM     80  H   UNL A   1      36.513  34.266  32.766  1.00  0.00     0.065 H 
ATOM     81  C   UNL A   1      38.731  29.908  28.606  1.00  0.00    -0.036 A 
ATOM     82  H   UNL A   1      37.151  31.297  28.393  1.00  0.00     0.065 H 
ATOM     83  C   UNL A   1      39.664  29.637  29.695  1.00  0.00     0.049 A 
ATOM     84  H   UNL A   1      39.748  30.568  31.556  1.00  0.00     0.167 HD
ATOM     85  C   UNL A   1      39.861  32.680  35.387  1.00  0.00     0.037 A 
ATOM     86  H   UNL A   1      37.855  34.593  34.923  1.00  0.00     0.065 H 
ATOM     87  H   UNL A   1      38.714  29.420  27.696  1.00  0.00     0.065 H 
ATOM     88  C   UNL A   1      40.644  28.714  29.671  1.00  0.00     0.037 A 
ATOM     89  C   UNL A   1      40.885  31.672  35.484  1.00  0.00     0.049 A 
ATOM     90  C   UNL A   1      41.498  28.521  30.895  1.00  0.00     0.074 A 
ATOM     91  C   UNL A   1      41.719  31.387  36.550  1.00  0.00    -0.036 A 
ATOM     92  N   UNL A   1      41.212  30.781  34.472  1.00  0.00    -0.354 N 
ATOM     93  N   UNL A   1      41.464  29.162  32.037  1.00  0.00    -0.248 NA
ATOM     94  C   UNL A   1      42.516  27.464  30.830  1.00  0.00    -0.034 C 
ATOM     95  C   UNL A   1      42.574  30.345  36.172  1.00  0.00    -0.036 A 
ATOM     96  H   UNL A   1      41.713  31.861  37.467  1.00  0.00     0.065 H 
ATOM     97  C   UNL A   1      42.242  29.953  34.886  1.00  0.00     0.049 A 
ATOM     98  H   UNL A   1      40.776  30.743  33.590  1.00  0.00     0.167 HD
ATOM     99  C   UNL A   1      42.440  28.576  32.833  1.00  0.00     0.074 A 
ATOM    100  C   UNL A   1      43.030  27.509  32.051  1.00  0.00    -0.034 C 
ATOM    101  H   UNL A   1      42.767  26.847  30.041  1.00  0.00     0.065 H 
ATOM    102  H   UNL A   1      43.325  29.939  36.753  1.00  0.00     0.065 H 
ATOM    103  C   UNL A   1      42.818  28.896  34.094  1.00  0.00     0.037 A 
ATOM    104  H   UNL A   1      43.758  26.867  32.400  1.00  0.00     0.065 H 
BRANCH  85 105
ATOM    105  C   UNL A   1      39.637  33.578  36.569  1.00  0.00     0.064 A 
ATOM    106  C   UNL A   1      38.788  33.199  37.621  1.00  0.00     0.173 A 
ATOM    107  C   UNL A   1      40.312  34.802  36.679  1.00  0.00     0.173 A 
ATOM    108  F   UNL A   1      38.111  32.043  37.559  1.00  0.00    -0.203 F 
ATOM    109  C   UNL A   1      38.606  34.024  38.728  1.00  0.00     0.198 A 
ATOM    110  C   UNL A   1      40.149  35.612  37.800  1.00  0.00     0.198 A 
ATOM    111  F   UNL A   1      41.139  35.209  35.705  1.00  0.00    -0.203 F 
ATOM    112  F   UNL A   1      37.760  33.660  39.700  1.00  0.00    -0.200 F 
ATOM    113  C   UNL A   1      39.293  35.225  38.821  1.00  0.00     0.200 A 
ATOM    114  F   UNL A   1      40.822  36.768  37.895  1.00  0.00    -0.200 F 
ATOM    115  F   UNL A   1      39.125  36.013  39.892  1.00  0.00    -0.200 F 
ENDBRANCH  85 105
BRANCH  88 116
ATOM    116  C   UNL A   1      40.855  27.886  28.457  1.00  0.00     0.064 A 
ATOM    117  C   UNL A   1      41.688  28.323  27.418  1.00  0.00     0.173 A 
ATOM    118  C   UNL A   1      40.216  26.646  28.303  1.00  0.00     0.173 A 
ATOM    119  F   UNL A   1      42.306  29.509  27.511  1.00  0.00    -0.203 F 
ATOM    120  C   UNL A   1      41.856  27.564  26.262  1.00  0.00     0.198 A 
ATOM    121  C   UNL A   1      40.408  25.875  27.160  1.00  0.00     0.198 A 
ATOM    122  F   UNL A   1      39.414  26.180  29.271  1.00  0.00    -0.203 F 
ATOM    123  F   UNL A   1      42.619  28.029  25.263  1.00  0.00    -0.200 F 
ATOM    124  C   UNL A   1      41.219  26.339  26.136  1.00  0.00     0.200 A 
ATOM    125  F   UNL A   1      39.802  24.685  27.048  1.00  0.00    -0.200 F 
ATOM    126  F   UNL A   1      41.381  25.609  25.023  1.00  0.00    -0.200 F 
ENDBRANCH  88 116
BRANCH 103 127
ATOM    127  C   UNL A   1      43.909  28.068  34.709  1.00  0.00     0.064 A 
ATOM    128  C   UNL A   1      45.257  28.442  34.607  1.00  0.00     0.173 A 
ATOM    129  C   UNL A   1      43.601  26.899  35.418  1.00  0.00     0.173 A 
ATOM    130  F   UNL A   1      45.604  29.544  33.925  1.00  0.00    -0.203 F 
ATOM    131  C   UNL A   1      46.260  27.655  35.166  1.00  0.00     0.198 A 
ATOM    132  C   UNL A   1      44.604  26.130  36.001  1.00  0.00     0.198 A 
ATOM    133  F   UNL A   1      42.326  26.502  35.550  1.00  0.00    -0.203 F 
ATOM    134  F   UNL A   1      47.546  28.000  35.010  1.00  0.00    -0.200 F 
ATOM    135  C   UNL A   1      45.933  26.503  35.867  1.00  0.00     0.200 A 
ATOM    136  F   UNL A   1      44.286  25.024  36.687  1.00  0.00    -0.200 F 
ATOM    137  F   UNL A   1      46.901  25.746  36.403  1.00  0.00    -0.200 F 
ENDBRANCH 103 127
ENDBRANCH  68  71
ENDBRANCH  58  61
ENDBRANCH  54  57
ENDBRANCH  51  54
ENDBRANCH  48  51
ENDBRANCH   1  48
TORSDOF 18
ENDMDL
MODEL 3
REMARK VINA RESULT:     -11.7      4.314      9.458
REMARK SMILES C[C@@H](C(=O)NCCCCCCNC(=O)c1ccc(-c2c3nc(c(-c4c(F)c(F)c(F)c(F)c4F)c4ccc([nH]4)c(-c4c(F)c(F)c(F)c(F)c4F)c4nc(c(-c5c(F)c(F)c(F)c(F)c5F)c5ccc2[nH]5)C=C4)C=C3)cc1)c1ccc(C[C@H]2CCCC2=O)cc1[N+](=O)[O-]
REMARK SMILES IDX 8 1 7 4 6 7 5 10 3 11 4 12 2 14 1 16 78 20 79 21 90 22 80 23
REMARK SMILES IDX 89 25 81 26 91 29 92 30 93 31 82 32 83 35 84 36 87 37 85 39
REMARK SMILES IDX 86 42 88 43 9 48 10 51 11 54 12 57 13 58 14 60 15 61 16 62
REMARK SMILES IDX 77 63 17 64 76 66 18 68 19 71 20 72 70 73 21 74 75 75 69 76
REMARK SMILES IDX 71 77 22 78 74 79 68 81 67 83 23 85 55 88 35 89 54 90 36 91
REMARK SMILES IDX 39 92 53 93 72 94 37 95 38 97 52 99 73 100 40 103 24 105
REMARK SMILES IDX 25 106 33 107 26 108 27 109 31 110 34 111 28 112 29 113
REMARK SMILES IDX 32 114 30 115 56 116 57 117 65 118 58 119 59 120 63 121
REMARK SMILES IDX 66 122 60 123 61 124 64 125 62 126 41 127 42 128 50 129
REMARK SMILES IDX 43 130 44 131 48 132 51 133 45 134 46 135 49 136 47 137
REMARK H PARENT 8 2 8 3 7 5 7 6 6 8 6 9 5 13 2 15 1 17 1 18 1 19 79 24 80 27
REMARK H PARENT 89 28 82 33 82 34 83 38 84 40 84 41 85 44 85 45 86 46 86 47
REMARK H PARENT 9 49 9 50 10 52 10 53 11 55 11 56 12 59 16 65 77 67 17 69
REMARK H PARENT 76 70 75 80 69 82 71 84 74 86 68 87 36 96 39 98 72 101 37 102
REMARK H PARENT 73 104
REMARK Flexibility Score: inf
ROOT
ATOM      1  C   UNL A   1      34.407  25.315  24.357  1.00  0.00    -0.052 C 
ATOM      2  H   UNL A   1      33.677  25.072  25.102  1.00  0.00     0.027 H 
ATOM      3  H   UNL A   1      35.244  25.853  24.749  1.00  0.00     0.027 H 
ENDROOT
BRANCH   1   4
ATOM      4  C   UNL A   1      33.747  26.235  23.323  1.00  0.00    -0.036 C 
ATOM      5  H   UNL A   1      34.511  26.822  22.857  1.00  0.00     0.028 H 
ATOM      6  H   UNL A   1      33.235  25.603  22.627  1.00  0.00     0.028 H 
BRANCH   4   7
ATOM      7  C   UNL A   1      32.701  27.186  23.918  1.00  0.00     0.017 C 
ATOM      8  H   UNL A   1      33.054  28.193  23.845  1.00  0.00     0.049 H 
ATOM      9  H   UNL A   1      31.784  27.089  23.377  1.00  0.00     0.049 H 
BRANCH   7  10
ATOM     10  N   UNL A   1      32.478  26.851  25.309  1.00  0.00    -0.356 N 
ATOM     11  C   UNL A   1      31.375  26.307  25.900  1.00  0.00     0.227 C 
ATOM     12  O   UNL A   1      31.259  26.483  27.115  1.00  0.00    -0.274 OA
ATOM     13  H   UNL A   1      33.230  27.045  25.915  1.00  0.00     0.163 HD
BRANCH  11  14
ATOM     14  C   UNL A   1      30.382  25.456  25.068  1.00  0.00     0.067 C 
ATOM     15  H   UNL A   1      30.223  25.886  24.101  1.00  0.00     0.045 H 
BRANCH  14  16
ATOM     16  C   UNL A   1      29.001  25.483  25.724  1.00  0.00    -0.049 C 
ATOM     17  H   UNL A   1      28.994  26.209  26.510  1.00  0.00     0.024 H 
ATOM     18  H   UNL A   1      28.779  24.518  26.128  1.00  0.00     0.024 H 
ATOM     19  H   UNL A   1      28.264  25.742  24.993  1.00  0.00     0.024 H 
ENDBRANCH  14  16
BRANCH  14  20
ATOM     20  C   UNL A   1      30.973  24.076  24.725  1.00  0.00     0.042 A 
ATOM     21  C   UNL A   1      31.195  23.809  23.355  1.00  0.00    -0.051 A 
ATOM     22  C   UNL A   1      31.286  23.028  25.612  1.00  0.00     0.273 A 
ATOM     23  C   UNL A   1      31.727  22.596  22.902  1.00  0.00    -0.058 A 
ATOM     24  H   UNL A   1      30.958  24.537  22.663  1.00  0.00     0.063 H 
ATOM     25  C   UNL A   1      31.768  21.786  25.155  1.00  0.00     0.019 A 
ATOM     26  C   UNL A   1      31.987  21.558  23.796  1.00  0.00    -0.040 A 
ATOM     27  H   UNL A   1      31.926  22.469  21.898  1.00  0.00     0.063 H 
ATOM     28  H   UNL A   1      31.961  21.035  25.835  1.00  0.00     0.070 H 
BRANCH  22  29
ATOM     29  N   UNL A   1      31.158  23.133  27.035  1.00  0.00     0.063 N 
ATOM     30  O   UNL A   1      32.116  23.441  27.714  1.00  0.00    -0.258 OA
ATOM     31  O   UNL A   1      29.930  23.016  27.637  1.00  0.00    -0.258 OA
ENDBRANCH  22  29
BRANCH  26  32
ATOM     32  C   UNL A   1      32.497  20.222  23.316  1.00  0.00    -0.018 C 
ATOM     33  H   UNL A   1      33.390  20.397  22.752  1.00  0.00     0.032 H 
ATOM     34  H   UNL A   1      31.694  19.795  22.753  1.00  0.00     0.032 H 
BRANCH  32  35
ATOM     35  C   UNL A   1      32.827  19.187  24.400  1.00  0.00     0.022 C 
ATOM     36  C   UNL A   1      32.317  17.761  24.164  1.00  0.00    -0.043 C 
ATOM     37  C   UNL A   1      34.313  18.969  24.558  1.00  0.00     0.136 C 
ATOM     38  H   UNL A   1      32.340  19.633  25.241  1.00  0.00     0.039 H 
ATOM     39  C   UNL A   1      33.489  16.979  23.583  1.00  0.00    -0.046 C 
ATOM     40  H   UNL A   1      31.499  17.770  23.474  1.00  0.00     0.027 H 
ATOM     41  H   UNL A   1      31.965  17.318  25.071  1.00  0.00     0.027 H 
ATOM     42  C   UNL A   1      34.731  17.557  24.247  1.00  0.00     0.006 C 
ATOM     43  O   UNL A   1      35.096  19.842  24.917  1.00  0.00    -0.299 OA
ATOM     44  H   UNL A   1      33.537  17.109  22.522  1.00  0.00     0.027 H 
ATOM     45  H   UNL A   1      33.394  15.929  23.764  1.00  0.00     0.027 H 
ATOM     46  H   UNL A   1      35.568  17.540  23.580  1.00  0.00     0.035 H 
ATOM     47  H   UNL A   1      35.045  17.007  25.110  1.00  0.00     0.035 H 
ENDBRANCH  32  35
ENDBRANCH  26  32
ENDBRANCH  14  20
ENDBRANCH  11  14
ENDBRANCH   7  10
ENDBRANCH   4   7
ENDBRANCH   1   4
BRANCH   1  48
ATOM     48  C   UNL A   1      34.961  24.006  23.790  1.00  0.00    -0.052 C 
ATOM     49  H   UNL A   1      35.736  24.247  23.093  1.00  0.00     0.027 H 
ATOM     50  H   UNL A   1      34.133  23.498  23.341  1.00  0.00     0.027 H 
BRANCH  48  51
ATOM     51  C   UNL A   1      35.540  23.048  24.834  1.00  0.00    -0.036 C 
ATOM     52  H   UNL A   1      35.916  22.186  24.325  1.00  0.00     0.028 H 
ATOM     53  H   UNL A   1      34.743  22.822  25.513  1.00  0.00     0.028 H 
BRANCH  51  54
ATOM     54  C   UNL A   1      36.670  23.634  25.677  1.00  0.00     0.018 C 
ATOM     55  H   UNL A   1      36.273  23.942  26.622  1.00  0.00     0.049 H 
ATOM     56  H   UNL A   1      37.085  24.464  25.145  1.00  0.00     0.049 H 
BRANCH  54  57
ATOM     57  N   UNL A   1      37.732  22.668  25.905  1.00  0.00    -0.352 N 
ATOM     58  C   UNL A   1      39.017  22.865  26.339  1.00  0.00     0.251 C 
ATOM     59  H   UNL A   1      37.492  21.732  25.719  1.00  0.00     0.163 HD
ATOM     60  O   UNL A   1      39.835  21.954  26.262  1.00  0.00    -0.269 OA
BRANCH  58  61
ATOM     61  C   UNL A   1      39.430  24.174  26.892  1.00  0.00     0.039 A 
ATOM     62  C   UNL A   1      39.132  24.456  28.229  1.00  0.00    -0.049 A 
ATOM     63  C   UNL A   1      40.058  25.137  26.097  1.00  0.00    -0.049 A 
ATOM     64  C   UNL A   1      39.502  25.684  28.777  1.00  0.00    -0.053 A 
ATOM     65  H   UNL A   1      38.640  23.757  28.807  1.00  0.00     0.063 H 
ATOM     66  C   UNL A   1      40.484  26.339  26.662  1.00  0.00    -0.053 A 
ATOM     67  H   UNL A   1      40.207  24.959  25.092  1.00  0.00     0.063 H 
ATOM     68  C   UNL A   1      40.202  26.626  28.005  1.00  0.00    -0.014 A 
ATOM     69  H   UNL A   1      39.260  25.902  29.756  1.00  0.00     0.063 H 
ATOM     70  H   UNL A   1      41.008  27.019  26.089  1.00  0.00     0.063 H 
BRANCH  68  71
ATOM     71  C   UNL A   1      40.641  27.912  28.606  1.00  0.00     0.031 A 
ATOM     72  C   UNL A   1      42.081  28.128  28.981  1.00  0.00     0.074 A 
ATOM     73  C   UNL A   1      39.731  28.877  28.836  1.00  0.00     0.049 A 
ATOM     74  N   UNL A   1      42.648  29.186  29.508  1.00  0.00    -0.248 NA
ATOM     75  C   UNL A   1      43.002  27.005  28.754  1.00  0.00    -0.034 C 
ATOM     76  C   UNL A   1      38.295  28.763  28.570  1.00  0.00    -0.036 A 
ATOM     77  N   UNL A   1      39.875  30.143  29.345  1.00  0.00    -0.354 N 
ATOM     78  C   UNL A   1      43.987  28.856  29.671  1.00  0.00     0.074 A 
ATOM     79  C   UNL A   1      44.138  27.482  29.245  1.00  0.00    -0.034 C 
ATOM     80  H   UNL A   1      42.814  26.085  28.325  1.00  0.00     0.065 H 
ATOM     81  C   UNL A   1      37.695  29.918  28.898  1.00  0.00    -0.036 A 
ATOM     82  H   UNL A   1      37.821  27.929  28.192  1.00  0.00     0.065 H 
ATOM     83  C   UNL A   1      38.697  30.844  29.417  1.00  0.00     0.049 A 
ATOM     84  H   UNL A   1      40.742  30.513  29.631  1.00  0.00     0.167 HD
ATOM     85  C   UNL A   1      45.002  29.638  30.108  1.00  0.00     0.037 A 
ATOM     86  H   UNL A   1      45.016  26.943  29.313  1.00  0.00     0.065 H 
ATOM     87  H   UNL A   1      36.688  30.119  28.798  1.00  0.00     0.065 H 
ATOM     88  C   UNL A   1      38.453  32.095  29.851  1.00  0.00     0.037 A 
ATOM     89  C   UNL A   1      44.853  31.009  30.522  1.00  0.00     0.049 A 
ATOM     90  C   UNL A   1      39.602  32.946  30.317  1.00  0.00     0.074 A 
ATOM     91  C   UNL A   1      45.825  31.893  30.953  1.00  0.00    -0.036 A 
ATOM     92  N   UNL A   1      43.647  31.695  30.553  1.00  0.00    -0.354 N 
ATOM     93  N   UNL A   1      40.874  32.643  30.405  1.00  0.00    -0.248 NA
ATOM     94  C   UNL A   1      39.283  34.320  30.728  1.00  0.00    -0.034 C 
ATOM     95  C   UNL A   1      45.205  33.105  31.277  1.00  0.00    -0.036 A 
ATOM     96  H   UNL A   1      46.836  31.695  31.024  1.00  0.00     0.065 H 
ATOM     97  C   UNL A   1      43.851  32.989  31.007  1.00  0.00     0.049 A 
ATOM     98  H   UNL A   1      42.776  31.319  30.293  1.00  0.00     0.167 HD
ATOM     99  C   UNL A   1      41.509  33.790  30.864  1.00  0.00     0.074 A 
ATOM    100  C   UNL A   1      40.485  34.804  31.008  1.00  0.00    -0.034 C 
ATOM    101  H   UNL A   1      38.364  34.788  30.785  1.00  0.00     0.065 H 
ATOM    102  H   UNL A   1      45.676  33.943  31.655  1.00  0.00     0.065 H 
ATOM    103  C   UNL A   1      42.820  33.985  31.145  1.00  0.00     0.037 A 
ATOM    104  H   UNL A   1      40.668  35.779  31.292  1.00  0.00     0.065 H 
BRANCH  85 105
ATOM    105  C   UNL A   1      46.377  29.034  30.144  1.00  0.00     0.064 A 
ATOM    106  C   UNL A   1      46.854  28.377  31.290  1.00  0.00     0.173 A 
ATOM    107  C   UNL A   1      47.206  29.067  29.013  1.00  0.00     0.173 A 
ATOM    108  F   UNL A   1      46.105  28.328  32.401  1.00  0.00    -0.203 F 
ATOM    109  C   UNL A   1      48.118  27.795  31.308  1.00  0.00     0.198 A 
ATOM    110  C   UNL A   1      48.459  28.459  29.027  1.00  0.00     0.198 A 
ATOM    111  F   UNL A   1      46.797  29.676  27.891  1.00  0.00    -0.203 F 
ATOM    112  F   UNL A   1      48.568  27.209  32.426  1.00  0.00    -0.200 F 
ATOM    113  C   UNL A   1      48.916  27.829  30.174  1.00  0.00     0.200 A 
ATOM    114  F   UNL A   1      49.225  28.483  27.927  1.00  0.00    -0.200 F 
ATOM    115  F   UNL A   1      50.129  27.259  30.190  1.00  0.00    -0.200 F 
ENDBRANCH  85 105
BRANCH  88 116
ATOM    116  C   UNL A   1      37.066  32.627  29.841  1.00  0.00     0.064 A 
ATOM    117  C   UNL A   1      36.561  33.310  28.726  1.00  0.00     0.173 A 
ATOM    118  C   UNL A   1      36.221  32.473  30.951  1.00  0.00     0.173 A 
ATOM    119  F   UNL A   1      37.337  33.498  27.649  1.00  0.00    -0.203 F 
ATOM    120  C   UNL A   1      35.273  33.842  28.731  1.00  0.00     0.198 A 
ATOM    121  C   UNL A   1      34.924  32.980  30.942  1.00  0.00     0.198 A 
ATOM    122  F   UNL A   1      36.655  31.821  32.039  1.00  0.00    -0.203 F 
ATOM    123  F   UNL A   1      34.834  34.534  27.671  1.00  0.00    -0.200 F 
ATOM    124  C   UNL A   1      34.454  33.673  29.837  1.00  0.00     0.200 A 
ATOM    125  F   UNL A   1      34.131  32.802  32.008  1.00  0.00    -0.200 F 
ATOM    126  F   UNL A   1      33.216  34.184  29.841  1.00  0.00    -0.200 F 
ENDBRANCH  88 116
BRANCH 103 127
ATOM    127  C   UNL A   1      43.219  35.352  31.619  1.00  0.00     0.064 A 
ATOM    128  C   UNL A   1      43.165  35.700  32.977  1.00  0.00     0.173 A 
ATOM    129  C   UNL A   1      43.674  36.317  30.709  1.00  0.00     0.173 A 
ATOM    130  F   UNL A   1      42.722  34.817  33.884  1.00  0.00    -0.203 F 
ATOM    131  C   UNL A   1      43.520  36.978  33.401  1.00  0.00     0.198 A 
ATOM    132  C   UNL A   1      44.056  37.584  31.141  1.00  0.00     0.198 A 
ATOM    133  F   UNL A   1      43.751  36.030  29.401  1.00  0.00    -0.203 F 
ATOM    134  F   UNL A   1      43.408  37.308  34.695  1.00  0.00    -0.200 F 
ATOM    135  C   UNL A   1      43.970  37.917  32.484  1.00  0.00     0.200 A 
ATOM    136  F   UNL A   1      44.501  38.485  30.255  1.00  0.00    -0.200 F 
ATOM    137  F   UNL A   1      44.311  39.146  32.895  1.00  0.00    -0.200 F 
ENDBRANCH 103 127
ENDBRANCH  68  71
ENDBRANCH  58  61
ENDBRANCH  54  57
ENDBRANCH  51  54
ENDBRANCH  48  51
ENDBRANCH   1  48
TORSDOF 18
ENDMDL
MODEL 4
REMARK VINA RESULT:     -11.7      0.482      1.634
REMARK SMILES C[C@@H](C(=O)NCCCCCCNC(=O)c1ccc(-c2c3nc(c(-c4c(F)c(F)c(F)c(F)c4F)c4ccc([nH]4)c(-c4c(F)c(F)c(F)c(F)c4F)c4nc(c(-c5c(F)c(F)c(F)c(F)c5F)c5ccc2[nH]5)C=C4)C=C3)cc1)c1ccc(C[C@H]2CCCC2=O)cc1[N+](=O)[O-]
REMARK SMILES IDX 8 1 7 4 6 7 5 10 3 11 4 12 2 14 1 16 78 20 79 21 90 22 80 23
REMARK SMILES IDX 89 25 81 26 91 29 92 30 93 31 82 32 83 35 84 36 87 37 85 39
REMARK SMILES IDX 86 42 88 43 9 48 10 51 11 54 12 57 13 58 14 60 15 61 16 62
REMARK SMILES IDX 77 63 17 64 76 66 18 68 19 71 20 72 70 73 21 74 75 75 69 76
REMARK SMILES IDX 71 77 22 78 74 79 68 81 67 83 23 85 55 88 35 89 54 90 36 91
REMARK SMILES IDX 39 92 53 93 72 94 37 95 38 97 52 99 73 100 40 103 24 105
REMARK SMILES IDX 25 106 33 107 26 108 27 109 31 110 34 111 28 112 29 113
REMARK SMILES IDX 32 114 30 115 56 116 57 117 65 118 58 119 59 120 63 121
REMARK SMILES IDX 66 122 60 123 61 124 64 125 62 126 41 127 42 128 50 129
REMARK SMILES IDX 43 130 44 131 48 132 51 133 45 134 46 135 49 136 47 137
REMARK H PARENT 8 2 8 3 7 5 7 6 6 8 6 9 5 13 2 15 1 17 1 18 1 19 79 24 80 27
REMARK H PARENT 89 28 82 33 82 34 83 38 84 40 84 41 85 44 85 45 86 46 86 47
REMARK H PARENT 9 49 9 50 10 52 10 53 11 55 11 56 12 59 16 65 77 67 17 69
REMARK H PARENT 76 70 75 80 69 82 71 84 74 86 68 87 36 96 39 98 72 101 37 102
REMARK H PARENT 73 104
REMARK Flexibility Score: inf
ROOT
ATOM      1  C   UNL A   1      32.380  29.498  26.436  1.00  0.00    -0.052 C 
ATOM      2  H   UNL A   1      33.131  29.204  25.731  1.00  0.00     0.027 H 
ATOM      3  H   UNL A   1      32.776  30.029  27.276  1.00  0.00     0.027 H 
ENDROOT
BRANCH   1   4
ATOM      4  C   UNL A   1      31.726  28.228  26.995  1.00  0.00    -0.036 C 
ATOM      5  H   UNL A   1      31.693  28.307  28.062  1.00  0.00     0.028 H 
ATOM      6  H   UNL A   1      30.751  28.163  26.559  1.00  0.00     0.028 H 
BRANCH   4   7
ATOM      7  C   UNL A   1      32.469  26.938  26.629  1.00  0.00     0.017 C 
ATOM      8  H   UNL A   1      32.685  26.936  25.581  1.00  0.00     0.049 H 
ATOM      9  H   UNL A   1      33.382  26.883  27.182  1.00  0.00     0.049 H 
BRANCH   7  10
ATOM     10  N   UNL A   1      31.641  25.794  26.952  1.00  0.00    -0.356 N 
ATOM     11  C   UNL A   1      30.892  25.009  26.123  1.00  0.00     0.227 C 
ATOM     12  O   UNL A   1      29.978  24.370  26.650  1.00  0.00    -0.274 OA
ATOM     13  H   UNL A   1      31.614  25.549  27.905  1.00  0.00     0.163 HD
BRANCH  11  14
ATOM     14  C   UNL A   1      31.248  24.896  24.620  1.00  0.00     0.067 C 
ATOM     15  H   UNL A   1      30.583  24.225  24.116  1.00  0.00     0.045 H 
BRANCH  14  16
ATOM     16  C   UNL A   1      32.625  24.251  24.460  1.00  0.00    -0.049 C 
ATOM     17  H   UNL A   1      32.611  23.270  24.887  1.00  0.00     0.024 H 
ATOM     18  H   UNL A   1      33.358  24.848  24.961  1.00  0.00     0.024 H 
ATOM     19  H   UNL A   1      32.869  24.185  23.421  1.00  0.00     0.024 H 
ENDBRANCH  14  16
BRANCH  14  20
ATOM     20  C   UNL A   1      31.002  26.225  23.882  1.00  0.00     0.042 A 
ATOM     21  C   UNL A   1      29.691  26.750  23.950  1.00  0.00    -0.051 A 
ATOM     22  C   UNL A   1      31.919  26.967  23.112  1.00  0.00     0.273 A 
ATOM     23  C   UNL A   1      29.328  27.949  23.326  1.00  0.00    -0.058 A 
ATOM     24  H   UNL A   1      28.975  26.230  24.481  1.00  0.00     0.063 H 
ATOM     25  C   UNL A   1      31.543  28.143  22.437  1.00  0.00     0.019 A 
ATOM     26  C   UNL A   1      30.242  28.641  22.533  1.00  0.00    -0.040 A 
ATOM     27  H   UNL A   1      28.375  28.323  23.452  1.00  0.00     0.063 H 
ATOM     28  H   UNL A   1      32.238  28.644  21.862  1.00  0.00     0.070 H 
BRANCH  22  29
ATOM     29  N   UNL A   1      33.297  26.605  22.962  1.00  0.00     0.063 N 
ATOM     30  O   UNL A   1      34.092  26.844  23.847  1.00  0.00    -0.258 OA
ATOM     31  O   UNL A   1      33.713  25.872  21.878  1.00  0.00    -0.258 OA
ENDBRANCH  22  29
BRANCH  26  32
ATOM     32  C   UNL A   1      29.848  29.900  21.800  1.00  0.00    -0.018 C 
ATOM     33  H   UNL A   1      29.700  29.645  20.771  1.00  0.00     0.032 H 
ATOM     34  H   UNL A   1      30.644  30.592  21.975  1.00  0.00     0.032 H 
BRANCH  32  35
ATOM     35  C   UNL A   1      28.579  30.607  22.292  1.00  0.00     0.022 C 
ATOM     36  C   UNL A   1      28.718  31.466  23.554  1.00  0.00    -0.043 C 
ATOM     37  C   UNL A   1      28.046  31.603  21.289  1.00  0.00     0.136 C 
ATOM     38  H   UNL A   1      27.948  29.762  22.472  1.00  0.00     0.039 H 
ATOM     39  C   UNL A   1      28.888  32.903  23.076  1.00  0.00    -0.046 C 
ATOM     40  H   UNL A   1      29.574  31.159  24.118  1.00  0.00     0.027 H 
ATOM     41  H   UNL A   1      27.863  31.365  24.189  1.00  0.00     0.027 H 
ATOM     42  C   UNL A   1      28.042  33.014  21.815  1.00  0.00     0.006 C 
ATOM     43  O   UNL A   1      27.645  31.298  20.171  1.00  0.00    -0.299 OA
ATOM     44  H   UNL A   1      29.915  33.106  22.857  1.00  0.00     0.027 H 
ATOM     45  H   UNL A   1      28.583  33.608  23.821  1.00  0.00     0.027 H 
ATOM     46  H   UNL A   1      28.486  33.689  21.112  1.00  0.00     0.035 H 
ATOM     47  H   UNL A   1      27.060  33.397  21.995  1.00  0.00     0.035 H 
ENDBRANCH  32  35
ENDBRANCH  26  32
ENDBRANCH  14  20
ENDBRANCH  11  14
ENDBRANCH   7  10
ENDBRANCH   4   7
ENDBRANCH   1   4
BRANCH   1  48
ATOM     48  C   UNL A   1      31.417  30.458  25.733  1.00  0.00    -0.052 C 
ATOM     49  H   UNL A   1      30.450  30.000  25.707  1.00  0.00     0.027 H 
ATOM     50  H   UNL A   1      31.826  30.635  24.760  1.00  0.00     0.027 H 
BRANCH  48  51
ATOM     51  C   UNL A   1      31.278  31.829  26.399  1.00  0.00    -0.036 C 
ATOM     52  H   UNL A   1      30.560  31.747  27.187  1.00  0.00     0.028 H 
ATOM     53  H   UNL A   1      30.981  32.511  25.629  1.00  0.00     0.028 H 
BRANCH  51  54
ATOM     54  C   UNL A   1      32.572  32.384  26.989  1.00  0.00     0.018 C 
ATOM     55  H   UNL A   1      33.336  32.351  26.241  1.00  0.00     0.049 H 
ATOM     56  H   UNL A   1      32.835  31.783  27.835  1.00  0.00     0.049 H 
BRANCH  54  57
ATOM     57  N   UNL A   1      32.416  33.755  27.442  1.00  0.00    -0.352 N 
ATOM     58  C   UNL A   1      33.072  34.429  28.440  1.00  0.00     0.251 C 
ATOM     59  H   UNL A   1      31.736  34.280  26.961  1.00  0.00     0.163 HD
ATOM     60  O   UNL A   1      32.653  35.516  28.822  1.00  0.00    -0.269 OA
BRANCH  58  61
ATOM     61  C   UNL A   1      34.280  33.849  29.067  1.00  0.00     0.039 A 
ATOM     62  C   UNL A   1      34.113  32.912  30.091  1.00  0.00    -0.049 A 
ATOM     63  C   UNL A   1      35.564  34.255  28.692  1.00  0.00    -0.049 A 
ATOM     64  C   UNL A   1      35.233  32.352  30.707  1.00  0.00    -0.053 A 
ATOM     65  H   UNL A   1      33.165  32.635  30.389  1.00  0.00     0.063 H 
ATOM     66  C   UNL A   1      36.683  33.648  29.263  1.00  0.00    -0.053 A 
ATOM     67  H   UNL A   1      35.685  35.003  27.991  1.00  0.00     0.063 H 
ATOM     68  C   UNL A   1      36.527  32.697  30.281  1.00  0.00    -0.014 A 
ATOM     69  H   UNL A   1      35.110  31.678  31.479  1.00  0.00     0.063 H 
ATOM     70  H   UNL A   1      37.628  33.901  28.935  1.00  0.00     0.063 H 
BRANCH  68  71
ATOM     71  C   UNL A   1      37.716  32.060  30.902  1.00  0.00     0.031 A 
ATOM     72  C   UNL A   1      38.178  32.474  32.273  1.00  0.00     0.074 A 
ATOM     73  C   UNL A   1      38.396  31.122  30.217  1.00  0.00     0.049 A 
ATOM     74  N   UNL A   1      39.188  32.024  32.976  1.00  0.00    -0.248 NA
ATOM     75  C   UNL A   1      37.419  33.547  32.933  1.00  0.00    -0.034 C 
ATOM     76  C   UNL A   1      38.081  30.679  28.856  1.00  0.00    -0.036 A 
ATOM     77  N   UNL A   1      39.491  30.373  30.565  1.00  0.00    -0.354 N 
ATOM     78  C   UNL A   1      39.181  32.754  34.157  1.00  0.00     0.074 A 
ATOM     79  C   UNL A   1      38.107  33.718  34.053  1.00  0.00    -0.034 C 
ATOM     80  H   UNL A   1      36.570  34.038  32.609  1.00  0.00     0.065 H 
ATOM     81  C   UNL A   1      38.949  29.721  28.495  1.00  0.00    -0.036 A 
ATOM     82  H   UNL A   1      37.316  31.045  28.270  1.00  0.00     0.065 H 
ATOM     83  C   UNL A   1      39.894  29.499  29.586  1.00  0.00     0.049 A 
ATOM     84  H   UNL A   1      39.945  30.454  31.436  1.00  0.00     0.167 HD
ATOM     85  C   UNL A   1      39.981  32.614  35.241  1.00  0.00     0.037 A 
ATOM     86  H   UNL A   1      37.902  34.442  34.759  1.00  0.00     0.065 H 
ATOM     87  H   UNL A   1      38.949  29.222  27.592  1.00  0.00     0.065 H 
ATOM     88  C   UNL A   1      40.909  28.614  29.571  1.00  0.00     0.037 A 
ATOM     89  C   UNL A   1      41.044  31.647  35.348  1.00  0.00     0.049 A 
ATOM     90  C   UNL A   1      41.771  28.469  30.795  1.00  0.00     0.074 A 
ATOM     91  C   UNL A   1      41.890  31.408  36.416  1.00  0.00    -0.036 A 
ATOM     92  N   UNL A   1      41.403  30.758  34.346  1.00  0.00    -0.354 N 
ATOM     93  N   UNL A   1      41.714  29.122  31.930  1.00  0.00    -0.248 NA
ATOM     94  C   UNL A   1      42.830  27.451  30.740  1.00  0.00    -0.034 C 
ATOM     95  C   UNL A   1      42.784  30.395  36.048  1.00  0.00    -0.036 A 
ATOM     96  H   UNL A   1      41.867  31.892  37.327  1.00  0.00     0.065 H 
ATOM     97  C   UNL A   1      42.466  29.975  34.768  1.00  0.00     0.049 A 
ATOM     98  H   UNL A   1      40.968  30.693  33.465  1.00  0.00     0.167 HD
ATOM     99  C   UNL A   1      42.714  28.584  32.730  1.00  0.00     0.074 A 
ATOM    100  C   UNL A   1      43.343  27.531  31.960  1.00  0.00    -0.034 C 
ATOM    101  H   UNL A   1      43.103  26.835  29.958  1.00  0.00     0.065 H 
ATOM    102  H   UNL A   1      43.551  30.025  36.633  1.00  0.00     0.065 H 
ATOM    103  C   UNL A   1      43.081  28.932  33.987  1.00  0.00     0.037 A 
ATOM    104  H   UNL A   1      44.096  26.921  32.315  1.00  0.00     0.065 H 
BRANCH  85 105
ATOM    105  C   UNL A   1      39.725  33.517  36.413  1.00  0.00     0.064 A 
ATOM    106  C   UNL A   1      40.313  34.789  36.494  1.00  0.00     0.173 A 
ATOM    107  C   UNL A   1      38.849  33.132  37.439  1.00  0.00     0.173 A 
ATOM    108  F   UNL A   1      41.167  35.200  35.545  1.00  0.00    -0.203 F 
ATOM    109  C   UNL A   1      40.051  35.633  37.570  1.00  0.00     0.198 A 
ATOM    110  C   UNL A   1      38.568  33.990  38.499  1.00  0.00     0.198 A 
ATOM    111  F   UNL A   1      38.257  31.929  37.407  1.00  0.00    -0.203 F 
ATOM    112  F   UNL A   1      40.655  36.826  37.646  1.00  0.00    -0.200 F 
ATOM    113  C   UNL A   1      39.172  35.236  38.567  1.00  0.00     0.200 A 
ATOM    114  F   UNL A   1      37.710  33.610  39.457  1.00  0.00    -0.200 F 
ATOM    115  F   UNL A   1      38.912  36.054  39.597  1.00  0.00    -0.200 F 
ENDBRANCH  85 105
BRANCH  88 116
ATOM    116  C   UNL A   1      41.149  27.780  28.366  1.00  0.00     0.064 A 
ATOM    117  C   UNL A   1      42.003  28.216  27.343  1.00  0.00     0.173 A 
ATOM    118  C   UNL A   1      40.520  26.537  28.205  1.00  0.00     0.173 A 
ATOM    119  F   UNL A   1      42.613  29.406  27.443  1.00  0.00    -0.203 F 
ATOM    120  C   UNL A   1      42.199  27.452  26.195  1.00  0.00     0.198 A 
ATOM    121  C   UNL A   1      40.740  25.761  27.070  1.00  0.00     0.198 A 
ATOM    122  F   UNL A   1      39.699  26.072  29.158  1.00  0.00    -0.203 F 
ATOM    123  F   UNL A   1      42.982  27.915  25.211  1.00  0.00    -0.200 F 
ATOM    124  C   UNL A   1      41.571  26.223  26.062  1.00  0.00     0.200 A 
ATOM    125  F   UNL A   1      40.141  24.568  26.952  1.00  0.00    -0.200 F 
ATOM    126  F   UNL A   1      41.760  25.488  24.957  1.00  0.00    -0.200 F 
ENDBRANCH  88 116
BRANCH 103 127
ATOM    127  C   UNL A   1      44.204  28.155  34.609  1.00  0.00     0.064 A 
ATOM    128  C   UNL A   1      45.536  28.579  34.501  1.00  0.00     0.173 A 
ATOM    129  C   UNL A   1      43.943  26.983  35.333  1.00  0.00     0.173 A 
ATOM    130  F   UNL A   1      45.839  29.686  33.805  1.00  0.00    -0.203 F 
ATOM    131  C   UNL A   1      46.570  27.838  35.067  1.00  0.00     0.198 A 
ATOM    132  C   UNL A   1      44.976  26.260  35.923  1.00  0.00     0.198 A 
ATOM    133  F   UNL A   1      42.684  26.539  35.472  1.00  0.00    -0.203 F 
ATOM    134  F   UNL A   1      47.841  28.231  34.904  1.00  0.00    -0.200 F 
ATOM    135  C   UNL A   1      46.289  26.683  35.781  1.00  0.00     0.200 A 
ATOM    136  F   UNL A   1      44.701  25.151  36.622  1.00  0.00    -0.200 F 
ATOM    137  F   UNL A   1      47.286  25.971  36.325  1.00  0.00    -0.200 F 
ENDBRANCH 103 127
ENDBRANCH  68  71
ENDBRANCH  58  61
ENDBRANCH  54  57
ENDBRANCH  51  54
ENDBRANCH  48  51
ENDBRANCH   1  48
TORSDOF 18
ENDMDL
MODEL 5
REMARK VINA RESULT:     -11.7      3.303      4.670
REMARK SMILES C[C@@H](C(=O)NCCCCCCNC(=O)c1ccc(-c2c3nc(c(-c4c(F)c(F)c(F)c(F)c4F)c4ccc([nH]4)c(-c4c(F)c(F)c(F)c(F)c4F)c4nc(c(-c5c(F)c(F)c(F)c(F)c5F)c5ccc2[nH]5)C=C4)C=C3)cc1)c1ccc(C[C@H]2CCCC2=O)cc1[N+](=O)[O-]
REMARK SMILES IDX 8 1 7 4 6 7 5 10 3 11 4 12 2 14 1 16 78 20 79 21 90 22 80 23
REMARK SMILES IDX 89 25 81 26 91 29 92 30 93 31 82 32 83 35 84 36 87 37 85 39
REMARK SMILES IDX 86 42 88 43 9 48 10 51 11 54 12 57 13 58 14 60 15 61 16 62
REMARK SMILES IDX 77 63 17 64 76 66 18 68 19 71 20 72 70 73 21 74 75 75 69 76
REMARK SMILES IDX 71 77 22 78 74 79 68 81 67 83 23 85 55 88 35 89 54 90 36 91
REMARK SMILES IDX 39 92 53 93 72 94 37 95 38 97 52 99 73 100 40 103 24 105
REMARK SMILES IDX 25 106 33 107 26 108 27 109 31 110 34 111 28 112 29 113
REMARK SMILES IDX 32 114 30 115 56 116 57 117 65 118 58 119 59 120 63 121
REMARK SMILES IDX 66 122 60 123 61 124 64 125 62 126 41 127 42 128 50 129
REMARK SMILES IDX 43 130 44 131 48 132 51 133 45 134 46 135 49 136 47 137
REMARK H PARENT 8 2 8 3 7 5 7 6 6 8 6 9 5 13 2 15 1 17 1 18 1 19 79 24 80 27
REMARK H PARENT 89 28 82 33 82 34 83 38 84 40 84 41 85 44 85 45 86 46 86 47
REMARK H PARENT 9 49 9 50 10 52 10 53 11 55 11 56 12 59 16 65 77 67 17 69
REMARK H PARENT 76 70 75 80 69 82 71 84 74 86 68 87 36 96 39 98 72 101 37 102
REMARK H PARENT 73 104
REMARK Flexibility Score: inf
ROOT
ATOM      1  C   UNL A   1      33.978  26.062  25.680  1.00  0.00    -0.052 C 
ATOM      2  H   UNL A   1      34.391  25.784  24.732  1.00  0.00     0.027 H 
ATOM      3  H   UNL A   1      34.708  26.451  26.358  1.00  0.00     0.027 H 
ENDROOT
BRANCH   1   4
ATOM      4  C   UNL A   1      33.402  24.802  26.338  1.00  0.00    -0.036 C 
ATOM      5  H   UNL A   1      33.606  24.847  27.388  1.00  0.00     0.028 H 
ATOM      6  H   UNL A   1      32.353  24.792  26.125  1.00  0.00     0.028 H 
BRANCH   4   7
ATOM      7  C   UNL A   1      33.984  23.495  25.788  1.00  0.00     0.017 C 
ATOM      8  H   UNL A   1      34.744  23.136  26.452  1.00  0.00     0.049 H 
ATOM      9  H   UNL A   1      33.207  22.765  25.707  1.00  0.00     0.049 H 
BRANCH   7  10
ATOM     10  N   UNL A   1      34.560  23.734  24.480  1.00  0.00    -0.356 N 
ATOM     11  C   UNL A   1      34.111  23.334  23.254  1.00  0.00     0.227 C 
ATOM     12  O   UNL A   1      34.947  23.301  22.348  1.00  0.00    -0.274 OA
ATOM     13  H   UNL A   1      35.393  24.258  24.476  1.00  0.00     0.163 HD
BRANCH  11  14
ATOM     14  C   UNL A   1      32.610  23.020  23.034  1.00  0.00     0.067 C 
ATOM     15  H   UNL A   1      32.215  22.446  23.846  1.00  0.00     0.045 H 
BRANCH  14  16
ATOM     16  C   UNL A   1      32.443  22.115  21.814  1.00  0.00    -0.049 C 
ATOM     17  H   UNL A   1      31.523  21.575  21.894  1.00  0.00     0.024 H 
ATOM     18  H   UNL A   1      33.259  21.424  21.768  1.00  0.00     0.024 H 
ATOM     19  H   UNL A   1      32.431  22.712  20.926  1.00  0.00     0.024 H 
ENDBRANCH  14  16
BRANCH  14  20
ATOM     20  C   UNL A   1      31.754  24.300  23.085  1.00  0.00     0.042 A 
ATOM     21  C   UNL A   1      30.654  24.287  23.972  1.00  0.00    -0.051 A 
ATOM     22  C   UNL A   1      31.913  25.474  22.324  1.00  0.00     0.273 A 
ATOM     23  C   UNL A   1      29.793  25.381  24.118  1.00  0.00    -0.058 A 
ATOM     24  H   UNL A   1      30.479  23.439  24.534  1.00  0.00     0.063 H 
ATOM     25  C   UNL A   1      31.017  26.555  22.427  1.00  0.00     0.019 A 
ATOM     26  C   UNL A   1      29.946  26.515  23.321  1.00  0.00    -0.040 A 
ATOM     27  H   UNL A   1      29.039  25.347  24.820  1.00  0.00     0.063 H 
ATOM     28  H   UNL A   1      31.153  27.387  21.833  1.00  0.00     0.070 H 
BRANCH  22  29
ATOM     29  N   UNL A   1      32.992  25.677  21.403  1.00  0.00     0.063 N 
ATOM     30  O   UNL A   1      32.947  25.192  20.291  1.00  0.00    -0.258 OA
ATOM     31  O   UNL A   1      34.026  26.525  21.714  1.00  0.00    -0.258 OA
ENDBRANCH  22  29
BRANCH  26  32
ATOM     32  C   UNL A   1      28.987  27.675  23.419  1.00  0.00    -0.018 C 
ATOM     33  H   UNL A   1      28.834  27.885  24.457  1.00  0.00     0.032 H 
ATOM     34  H   UNL A   1      28.107  27.363  22.896  1.00  0.00     0.032 H 
BRANCH  32  35
ATOM     35  C   UNL A   1      29.421  28.980  22.740  1.00  0.00     0.022 C 
ATOM     36  C   UNL A   1      28.345  29.730  21.946  1.00  0.00    -0.043 C 
ATOM     37  C   UNL A   1      29.870  30.027  23.731  1.00  0.00     0.136 C 
ATOM     38  H   UNL A   1      30.186  28.610  22.090  1.00  0.00     0.039 H 
ATOM     39  C   UNL A   1      27.817  30.821  22.870  1.00  0.00    -0.046 C 
ATOM     40  H   UNL A   1      27.555  29.063  21.671  1.00  0.00     0.027 H 
ATOM     41  H   UNL A   1      28.744  30.144  21.044  1.00  0.00     0.027 H 
ATOM     42  C   UNL A   1      29.013  31.264  23.701  1.00  0.00     0.006 C 
ATOM     43  O   UNL A   1      30.839  29.894  24.471  1.00  0.00    -0.299 OA
ATOM     44  H   UNL A   1      27.044  30.436  23.501  1.00  0.00     0.027 H 
ATOM     45  H   UNL A   1      27.392  31.636  22.320  1.00  0.00     0.027 H 
ATOM     46  H   UNL A   1      28.712  31.549  24.688  1.00  0.00     0.035 H 
ATOM     47  H   UNL A   1      29.515  32.119  23.300  1.00  0.00     0.035 H 
ENDBRANCH  32  35
ENDBRANCH  26  32
ENDBRANCH  14  20
ENDBRANCH  11  14
ENDBRANCH   7  10
ENDBRANCH   4   7
ENDBRANCH   1   4
BRANCH   1  48
ATOM     48  C   UNL A   1      32.963  27.184  25.446  1.00  0.00    -0.052 C 
ATOM     49  H   UNL A   1      32.031  26.737  25.169  1.00  0.00     0.027 H 
ATOM     50  H   UNL A   1      33.375  27.809  24.682  1.00  0.00     0.027 H 
BRANCH  48  51
ATOM     51  C   UNL A   1      32.717  28.088  26.657  1.00  0.00    -0.036 C 
ATOM     52  H   UNL A   1      32.154  27.535  27.378  1.00  0.00     0.028 H 
ATOM     53  H   UNL A   1      32.198  28.950  26.290  1.00  0.00     0.028 H 
BRANCH  51  54
ATOM     54  C   UNL A   1      33.984  28.603  27.334  1.00  0.00     0.018 C 
ATOM     55  H   UNL A   1      34.803  28.513  26.652  1.00  0.00     0.049 H 
ATOM     56  H   UNL A   1      34.150  28.019  28.215  1.00  0.00     0.049 H 
BRANCH  54  57
ATOM     57  N   UNL A   1      33.857  29.994  27.734  1.00  0.00    -0.352 N 
ATOM     58  C   UNL A   1      34.720  30.783  28.450  1.00  0.00     0.251 C 
ATOM     59  H   UNL A   1      33.025  30.437  27.448  1.00  0.00     0.163 HD
ATOM     60  O   UNL A   1      34.344  31.869  28.877  1.00  0.00    -0.269 OA
BRANCH  58  61
ATOM     61  C   UNL A   1      36.102  30.328  28.721  1.00  0.00     0.039 A 
ATOM     62  C   UNL A   1      37.071  30.521  27.733  1.00  0.00    -0.049 A 
ATOM     63  C   UNL A   1      36.434  29.675  29.911  1.00  0.00    -0.049 A 
ATOM     64  C   UNL A   1      38.382  30.096  27.956  1.00  0.00    -0.053 A 
ATOM     65  H   UNL A   1      36.819  30.975  26.842  1.00  0.00     0.063 H 
ATOM     66  C   UNL A   1      37.757  29.309  30.160  1.00  0.00    -0.053 A 
ATOM     67  H   UNL A   1      35.702  29.464  30.607  1.00  0.00     0.063 H 
ATOM     68  C   UNL A   1      38.741  29.509  29.181  1.00  0.00    -0.014 A 
ATOM     69  H   UNL A   1      39.092  30.216  27.217  1.00  0.00     0.063 H 
ATOM     70  H   UNL A   1      38.012  28.888  31.067  1.00  0.00     0.063 H 
BRANCH  68  71
ATOM     71  C   UNL A   1      40.147  29.106  29.436  1.00  0.00     0.031 A 
ATOM     72  C   UNL A   1      41.069  30.001  30.217  1.00  0.00     0.074 A 
ATOM     73  C   UNL A   1      40.600  27.939  28.941  1.00  0.00     0.049 A 
ATOM     74  N   UNL A   1      42.324  29.812  30.545  1.00  0.00    -0.248 NA
ATOM     75  C   UNL A   1      40.518  31.285  30.674  1.00  0.00    -0.034 C 
ATOM     76  C   UNL A   1      39.818  27.013  28.118  1.00  0.00    -0.036 A 
ATOM     77  N   UNL A   1      41.824  27.330  29.053  1.00  0.00    -0.354 N 
ATOM     78  C   UNL A   1      42.708  30.947  31.246  1.00  0.00     0.074 A 
ATOM     79  C   UNL A   1      41.575  31.847  31.245  1.00  0.00    -0.034 C 
ATOM     80  H   UNL A   1      39.559  31.654  30.576  1.00  0.00     0.065 H 
ATOM     81  C   UNL A   1      40.575  25.946  27.819  1.00  0.00    -0.036 A 
ATOM     82  H   UNL A   1      38.842  27.158  27.815  1.00  0.00     0.065 H 
ATOM     83  C   UNL A   1      41.899  26.121  28.407  1.00  0.00     0.049 A 
ATOM     84  H   UNL A   1      42.578  27.724  29.551  1.00  0.00     0.167 HD
ATOM     85  C   UNL A   1      43.888  31.203  31.859  1.00  0.00     0.037 A 
ATOM     86  H   UNL A   1      41.587  32.801  31.639  1.00  0.00     0.065 H 
ATOM     87  H   UNL A   1      40.270  25.132  27.262  1.00  0.00     0.065 H 
ATOM     88  C   UNL A   1      42.921  25.250  28.305  1.00  0.00     0.037 A 
ATOM     89  C   UNL A   1      45.012  30.302  31.867  1.00  0.00     0.049 A 
ATOM     90  C   UNL A   1      44.215  25.553  29.009  1.00  0.00     0.074 A 
ATOM     91  C   UNL A   1      46.240  30.458  32.485  1.00  0.00    -0.036 A 
ATOM     92  N   UNL A   1      45.040  29.072  31.227  1.00  0.00    -0.354 N 
ATOM     93  N   UNL A   1      44.543  26.603  29.722  1.00  0.00    -0.248 NA
ATOM     94  C   UNL A   1      45.276  24.542  28.905  1.00  0.00    -0.034 C 
ATOM     95  C   UNL A   1      47.025  29.337  32.191  1.00  0.00    -0.036 A 
ATOM     96  H   UNL A   1      46.529  31.262  33.063  1.00  0.00     0.065 H 
ATOM     97  C   UNL A   1      46.269  28.464  31.426  1.00  0.00     0.049 A 
ATOM     98  H   UNL A   1      44.297  28.689  30.707  1.00  0.00     0.167 HD
ATOM     99  C   UNL A   1      45.838  26.371  30.167  1.00  0.00     0.074 A 
ATOM    100  C   UNL A   1      46.225  25.068  29.667  1.00  0.00    -0.034 C 
ATOM    101  H   UNL A   1      45.282  23.654  28.379  1.00  0.00     0.065 H 
ATOM    102  H   UNL A   1      48.001  29.187  32.492  1.00  0.00     0.065 H 
ATOM    103  C   UNL A   1      46.637  27.166  30.919  1.00  0.00     0.037 A 
ATOM    104  H   UNL A   1      47.125  24.609  29.876  1.00  0.00     0.065 H 
BRANCH  85 105
ATOM    105  C   UNL A   1      44.021  32.507  32.592  1.00  0.00     0.064 A 
ATOM    106  C   UNL A   1      44.499  33.659  31.947  1.00  0.00     0.173 A 
ATOM    107  C   UNL A   1      43.622  32.622  33.931  1.00  0.00     0.173 A 
ATOM    108  F   UNL A   1      44.905  33.599  30.670  1.00  0.00    -0.203 F 
ATOM    109  C   UNL A   1      44.594  34.871  32.624  1.00  0.00     0.198 A 
ATOM    110  C   UNL A   1      43.692  33.843  34.596  1.00  0.00     0.198 A 
ATOM    111  F   UNL A   1      43.153  31.554  34.592  1.00  0.00    -0.203 F 
ATOM    112  F   UNL A   1      45.092  35.948  32.000  1.00  0.00    -0.200 F 
ATOM    113  C   UNL A   1      44.183  34.965  33.945  1.00  0.00     0.200 A 
ATOM    114  F   UNL A   1      43.284  33.936  35.870  1.00  0.00    -0.200 F 
ATOM    115  F   UNL A   1      44.266  36.136  34.592  1.00  0.00    -0.200 F 
ENDBRANCH  85 105
BRANCH  88 116
ATOM    116  C   UNL A   1      42.752  23.997  27.525  1.00  0.00     0.064 A 
ATOM    117  C   UNL A   1      42.311  22.817  28.139  1.00  0.00     0.173 A 
ATOM    118  C   UNL A   1      43.040  23.951  26.153  1.00  0.00     0.173 A 
ATOM    119  F   UNL A   1      42.041  22.807  29.452  1.00  0.00    -0.203 F 
ATOM    120  C   UNL A   1      42.189  21.632  27.416  1.00  0.00     0.198 A 
ATOM    121  C   UNL A   1      42.890  22.773  25.426  1.00  0.00     0.198 A 
ATOM    122  F   UNL A   1      43.459  25.055  25.517  1.00  0.00    -0.203 F 
ATOM    123  F   UNL A   1      41.814  20.506  28.039  1.00  0.00    -0.200 F 
ATOM    124  C   UNL A   1      42.474  21.612  26.060  1.00  0.00     0.200 A 
ATOM    125  F   UNL A   1      43.153  22.762  24.112  1.00  0.00    -0.200 F 
ATOM    126  F   UNL A   1      42.357  20.472  25.365  1.00  0.00    -0.200 F 
ENDBRANCH  88 116
BRANCH 103 127
ATOM    127  C   UNL A   1      48.001  26.638  31.256  1.00  0.00     0.064 A 
ATOM    128  C   UNL A   1      48.215  25.830  32.383  1.00  0.00     0.173 A 
ATOM    129  C   UNL A   1      49.100  26.931  30.437  1.00  0.00     0.173 A 
ATOM    130  F   UNL A   1      47.198  25.535  33.206  1.00  0.00    -0.203 F 
ATOM    131  C   UNL A   1      49.489  25.363  32.694  1.00  0.00     0.198 A 
ATOM    132  C   UNL A   1      50.367  26.437  30.735  1.00  0.00     0.198 A 
ATOM    133  F   UNL A   1      48.946  27.694  29.343  1.00  0.00    -0.203 F 
ATOM    134  F   UNL A   1      49.682  24.639  33.806  1.00  0.00    -0.200 F 
ATOM    135  C   UNL A   1      50.563  25.662  31.868  1.00  0.00     0.200 A 
ATOM    136  F   UNL A   1      51.401  26.717  29.930  1.00  0.00    -0.200 F 
ATOM    137  F   UNL A   1      51.788  25.211  32.171  1.00  0.00    -0.200 F 
ENDBRANCH 103 127
ENDBRANCH  68  71
ENDBRANCH  58  61
ENDBRANCH  54  57
ENDBRANCH  51  54
ENDBRANCH  48  51
ENDBRANCH   1  48
TORSDOF 18
ENDMDL
MODEL 6
REMARK VINA RESULT:     -11.6      3.989      9.223
REMARK SMILES C[C@@H](C(=O)NCCCCCCNC(=O)c1ccc(-c2c3nc(c(-c4c(F)c(F)c(F)c(F)c4F)c4ccc([nH]4)c(-c4c(F)c(F)c(F)c(F)c4F)c4nc(c(-c5c(F)c(F)c(F)c(F)c5F)c5ccc2[nH]5)C=C4)C=C3)cc1)c1ccc(C[C@H]2CCCC2=O)cc1[N+](=O)[O-]
REMARK SMILES IDX 8 1 7 4 6 7 5 10 3 11 4 12 2 14 1 16 78 20 79 21 90 22 80 23
REMARK SMILES IDX 89 25 81 26 91 29 92 30 93 31 82 32 83 35 84 36 87 37 85 39
REMARK SMILES IDX 86 42 88 43 9 48 10 51 11 54 12 57 13 58 14 60 15 61 16 62
REMARK SMILES IDX 77 63 17 64 76 66 18 68 19 71 20 72 70 73 21 74 75 75 69 76
REMARK SMILES IDX 71 77 22 78 74 79 68 81 67 83 23 85 55 88 35 89 54 90 36 91
REMARK SMILES IDX 39 92 53 93 72 94 37 95 38 97 52 99 73 100 40 103 24 105
REMARK SMILES IDX 25 106 33 107 26 108 27 109 31 110 34 111 28 112 29 113
REMARK SMILES IDX 32 114 30 115 56 116 57 117 65 118 58 119 59 120 63 121
REMARK SMILES IDX 66 122 60 123 61 124 64 125 62 126 41 127 42 128 50 129
REMARK SMILES IDX 43 130 44 131 48 132 51 133 45 134 46 135 49 136 47 137
REMARK H PARENT 8 2 8 3 7 5 7 6 6 8 6 9 5 13 2 15 1 17 1 18 1 19 79 24 80 27
REMARK H PARENT 89 28 82 33 82 34 83 38 84 40 84 41 85 44 85 45 86 46 86 47
REMARK H PARENT 9 49 9 50 10 52 10 53 11 55 11 56 12 59 16 65 77 67 17 69
REMARK H PARENT 76 70 75 80 69 82 71 84 74 86 68 87 36 96 39 98 72 101 37 102
REMARK H PARENT 73 104
REMARK Flexibility Score: inf
ROOT
ATOM      1  C   UNL A   1      33.603  25.420  26.122  1.00  0.00    -0.052 C 
ATOM      2  H   UNL A   1      32.770  24.807  25.845  1.00  0.00     0.027 H 
ATOM      3  H   UNL A   1      33.946  25.238  27.119  1.00  0.00     0.027 H 
ENDROOT
BRANCH   1   4
ATOM      4  C   UNL A   1      33.154  26.886  26.079  1.00  0.00    -0.036 C 
ATOM      5  H   UNL A   1      33.446  27.356  26.995  1.00  0.00     0.028 H 
ATOM      6  H   UNL A   1      33.621  27.329  25.224  1.00  0.00     0.028 H 
BRANCH   4   7
ATOM      7  C   UNL A   1      31.641  27.064  25.905  1.00  0.00     0.017 C 
ATOM      8  H   UNL A   1      31.193  26.116  25.691  1.00  0.00     0.049 H 
ATOM      9  H   UNL A   1      31.223  27.460  26.806  1.00  0.00     0.049 H 
BRANCH   7  10
ATOM     10  N   UNL A   1      31.383  27.978  24.812  1.00  0.00    -0.356 N 
ATOM     11  C   UNL A   1      30.969  27.707  23.540  1.00  0.00     0.227 C 
ATOM     12  O   UNL A   1      31.202  28.570  22.691  1.00  0.00    -0.274 OA
ATOM     13  H   UNL A   1      31.528  28.930  25.015  1.00  0.00     0.163 HD
BRANCH  11  14
ATOM     14  C   UNL A   1      30.184  26.407  23.233  1.00  0.00     0.067 C 
ATOM     15  H   UNL A   1      29.752  26.440  22.254  1.00  0.00     0.045 H 
BRANCH  14  16
ATOM     16  C   UNL A   1      28.984  26.291  24.172  1.00  0.00    -0.049 C 
ATOM     17  H   UNL A   1      29.303  26.454  25.180  1.00  0.00     0.024 H 
ATOM     18  H   UNL A   1      28.556  25.315  24.086  1.00  0.00     0.024 H 
ATOM     19  H   UNL A   1      28.252  27.026  23.906  1.00  0.00     0.024 H 
ENDBRANCH  14  16
BRANCH  14  20
ATOM     20  C   UNL A   1      31.126  25.191  23.139  1.00  0.00     0.042 A 
ATOM     21  C   UNL A   1      30.922  24.163  24.089  1.00  0.00    -0.051 A 
ATOM     22  C   UNL A   1      32.193  24.993  22.243  1.00  0.00     0.273 A 
ATOM     23  C   UNL A   1      31.705  23.003  24.120  1.00  0.00    -0.058 A 
ATOM     24  H   UNL A   1      30.168  24.272  24.785  1.00  0.00     0.063 H 
ATOM     25  C   UNL A   1      33.018  23.854  22.307  1.00  0.00     0.019 A 
ATOM     26  C   UNL A   1      32.784  22.852  23.250  1.00  0.00    -0.040 A 
ATOM     27  H   UNL A   1      31.482  22.254  24.793  1.00  0.00     0.063 H 
ATOM     28  H   UNL A   1      33.806  23.759  21.648  1.00  0.00     0.070 H 
BRANCH  22  29
ATOM     29  N   UNL A   1      32.522  25.912  21.193  1.00  0.00     0.063 N 
ATOM     30  O   UNL A   1      33.545  26.562  21.248  1.00  0.00    -0.258 OA
ATOM     31  O   UNL A   1      31.757  25.975  20.055  1.00  0.00    -0.258 OA
ENDBRANCH  22  29
BRANCH  26  32
ATOM     32  C   UNL A   1      33.677  21.638  23.315  1.00  0.00    -0.018 C 
ATOM     33  H   UNL A   1      34.690  21.980  23.367  1.00  0.00     0.032 H 
ATOM     34  H   UNL A   1      33.447  21.068  22.439  1.00  0.00     0.032 H 
BRANCH  32  35
ATOM     35  C   UNL A   1      33.448  20.682  24.492  1.00  0.00     0.022 C 
ATOM     36  C   UNL A   1      32.383  19.597  24.297  1.00  0.00    -0.043 C 
ATOM     37  C   UNL A   1      34.674  19.866  24.823  1.00  0.00     0.136 C 
ATOM     38  H   UNL A   1      33.148  21.379  25.246  1.00  0.00     0.039 H 
ATOM     39  C   UNL A   1      33.132  18.331  23.897  1.00  0.00    -0.046 C 
ATOM     40  H   UNL A   1      31.700  19.883  23.524  1.00  0.00     0.027 H 
ATOM     41  H   UNL A   1      31.812  19.446  25.189  1.00  0.00     0.027 H 
ATOM     42  C   UNL A   1      34.453  18.387  24.651  1.00  0.00     0.006 C 
ATOM     43  O   UNL A   1      35.733  20.350  25.205  1.00  0.00    -0.299 OA
ATOM     44  H   UNL A   1      33.304  18.315  22.841  1.00  0.00     0.027 H 
ATOM     45  H   UNL A   1      32.576  17.449  24.135  1.00  0.00     0.027 H 
ATOM     46  H   UNL A   1      35.242  17.943  24.079  1.00  0.00     0.035 H 
ATOM     47  H   UNL A   1      34.437  17.850  25.576  1.00  0.00     0.035 H 
ENDBRANCH  32  35
ENDBRANCH  26  32
ENDBRANCH  14  20
ENDBRANCH  11  14
ENDBRANCH   7  10
ENDBRANCH   4   7
ENDBRANCH   1   4
BRANCH   1  48
ATOM     48  C   UNL A   1      34.772  25.081  25.195  1.00  0.00    -0.052 C 
ATOM     49  H   UNL A   1      35.395  25.947  25.113  1.00  0.00     0.027 H 
ATOM     50  H   UNL A   1      34.341  24.782  24.263  1.00  0.00     0.027 H 
BRANCH  48  51
ATOM     51  C   UNL A   1      35.643  23.911  25.662  1.00  0.00    -0.036 C 
ATOM     52  H   UNL A   1      35.079  23.010  25.552  1.00  0.00     0.028 H 
ATOM     53  H   UNL A   1      35.911  24.119  26.677  1.00  0.00     0.028 H 
BRANCH  51  54
ATOM     54  C   UNL A   1      36.953  23.748  24.896  1.00  0.00     0.018 C 
ATOM     55  H   UNL A   1      37.493  24.672  24.933  1.00  0.00     0.049 H 
ATOM     56  H   UNL A   1      36.717  23.481  23.887  1.00  0.00     0.049 H 
BRANCH  54  57
ATOM     57  N   UNL A   1      37.783  22.696  25.458  1.00  0.00    -0.352 N 
ATOM     58  C   UNL A   1      38.925  22.788  26.210  1.00  0.00     0.251 C 
ATOM     59  H   UNL A   1      37.479  21.779  25.270  1.00  0.00     0.163 HD
ATOM     60  O   UNL A   1      39.608  21.789  26.410  1.00  0.00    -0.269 OA
BRANCH  58  61
ATOM     61  C   UNL A   1      39.348  24.089  26.775  1.00  0.00     0.039 A 
ATOM     62  C   UNL A   1      38.968  24.401  28.084  1.00  0.00    -0.049 A 
ATOM     63  C   UNL A   1      40.068  25.016  26.015  1.00  0.00    -0.049 A 
ATOM     64  C   UNL A   1      39.346  25.622  28.642  1.00  0.00    -0.053 A 
ATOM     65  H   UNL A   1      38.411  23.730  28.634  1.00  0.00     0.063 H 
ATOM     66  C   UNL A   1      40.500  26.209  26.595  1.00  0.00    -0.053 A 
ATOM     67  H   UNL A   1      40.280  24.817  25.025  1.00  0.00     0.063 H 
ATOM     68  C   UNL A   1      40.135  26.526  27.911  1.00  0.00    -0.014 A 
ATOM     69  H   UNL A   1      39.044  25.863  29.599  1.00  0.00     0.063 H 
ATOM     70  H   UNL A   1      41.088  26.860  26.053  1.00  0.00     0.063 H 
BRANCH  68  71
ATOM     71  C   UNL A   1      40.580  27.802  28.526  1.00  0.00     0.031 A 
ATOM     72  C   UNL A   1      42.019  28.004  28.913  1.00  0.00     0.074 A 
ATOM     73  C   UNL A   1      39.677  28.773  28.758  1.00  0.00     0.049 A 
ATOM     74  N   UNL A   1      42.591  29.053  29.453  1.00  0.00    -0.248 NA
ATOM     75  C   UNL A   1      42.933  26.876  28.682  1.00  0.00    -0.034 C 
ATOM     76  C   UNL A   1      38.242  28.673  28.482  1.00  0.00    -0.036 A 
ATOM     77  N   UNL A   1      39.827  30.033  29.280  1.00  0.00    -0.354 N 
ATOM     78  C   UNL A   1      43.927  28.711  29.621  1.00  0.00     0.074 A 
ATOM     79  C   UNL A   1      44.069  27.339  29.184  1.00  0.00    -0.034 C 
ATOM     80  H   UNL A   1      42.741  25.961  28.243  1.00  0.00     0.065 H 
ATOM     81  C   UNL A   1      37.649  29.830  28.816  1.00  0.00    -0.036 A 
ATOM     82  H   UNL A   1      37.763  27.845  28.094  1.00  0.00     0.065 H 
ATOM     83  C   UNL A   1      38.654  30.743  29.351  1.00  0.00     0.049 A 
ATOM     84  H   UNL A   1      40.695  30.394  29.575  1.00  0.00     0.167 HD
ATOM     85  C   UNL A   1      44.945  29.481  30.072  1.00  0.00     0.037 A 
ATOM     86  H   UNL A   1      44.943  26.792  29.252  1.00  0.00     0.065 H 
ATOM     87  H   UNL A   1      36.643  30.039  28.712  1.00  0.00     0.065 H 
ATOM     88  C   UNL A   1      38.417  31.992  29.794  1.00  0.00     0.037 A 
ATOM     89  C   UNL A   1      44.803  30.850  30.497  1.00  0.00     0.049 A 
ATOM     90  C   UNL A   1      39.570  32.830  30.274  1.00  0.00     0.074 A 
ATOM     91  C   UNL A   1      45.780  31.722  30.942  1.00  0.00    -0.036 A 
ATOM     92  N   UNL A   1      43.603  31.545  30.527  1.00  0.00    -0.354 N 
ATOM     93  N   UNL A   1      40.839  32.515  30.369  1.00  0.00    -0.248 NA
ATOM     94  C   UNL A   1      39.259  34.202  30.696  1.00  0.00    -0.034 C 
ATOM     95  C   UNL A   1      45.167  32.936  31.273  1.00  0.00    -0.036 A 
ATOM     96  H   UNL A   1      46.788  31.515  31.018  1.00  0.00     0.065 H 
ATOM     97  C   UNL A   1      43.815  32.832  30.993  1.00  0.00     0.049 A 
ATOM     98  H   UNL A   1      42.731  31.177  30.257  1.00  0.00     0.167 HD
ATOM     99  C   UNL A   1      41.480  33.653  30.841  1.00  0.00     0.074 A 
ATOM    100  C   UNL A   1      40.463  34.674  30.988  1.00  0.00    -0.034 C 
ATOM    101  H   UNL A   1      38.344  34.677  30.751  1.00  0.00     0.065 H 
ATOM    102  H   UNL A   1      45.642  33.766  31.661  1.00  0.00     0.065 H 
ATOM    103  C   UNL A   1      42.790  33.836  31.133  1.00  0.00     0.037 A 
ATOM    104  H   UNL A   1      40.652  35.645  31.282  1.00  0.00     0.065 H 
BRANCH  85 105
ATOM    105  C   UNL A   1      46.314  28.865  30.111  1.00  0.00     0.064 A 
ATOM    106  C   UNL A   1      47.178  28.940  29.007  1.00  0.00     0.173 A 
ATOM    107  C   UNL A   1      46.788  28.240  31.274  1.00  0.00     0.173 A 
ATOM    108  F   UNL A   1      46.769  29.517  27.868  1.00  0.00    -0.203 F 
ATOM    109  C   UNL A   1      48.457  28.392  29.059  1.00  0.00     0.198 A 
ATOM    110  C   UNL A   1      48.077  27.718  31.331  1.00  0.00     0.198 A 
ATOM    111  F   UNL A   1      46.005  28.146  32.359  1.00  0.00    -0.203 F 
ATOM    112  F   UNL A   1      49.249  28.440  27.979  1.00  0.00    -0.200 F 
ATOM    113  C   UNL A   1      48.909  27.789  30.223  1.00  0.00     0.200 A 
ATOM    114  F   UNL A   1      48.518  27.145  32.460  1.00  0.00    -0.200 F 
ATOM    115  F   UNL A   1      50.144  27.271  30.275  1.00  0.00    -0.200 F 
ENDBRANCH  85 105
BRANCH  88 116
ATOM    116  C   UNL A   1      37.034  32.534  29.779  1.00  0.00     0.064 A 
ATOM    117  C   UNL A   1      36.547  33.244  28.673  1.00  0.00     0.173 A 
ATOM    118  C   UNL A   1      36.176  32.366  30.877  1.00  0.00     0.173 A 
ATOM    119  F   UNL A   1      37.336  33.447  27.608  1.00  0.00    -0.203 F 
ATOM    120  C   UNL A   1      35.263  33.786  28.674  1.00  0.00     0.198 A 
ATOM    121  C   UNL A   1      34.883  32.883  30.864  1.00  0.00     0.198 A 
ATOM    122  F   UNL A   1      36.593  31.689  31.956  1.00  0.00    -0.203 F 
ATOM    123  F   UNL A   1      34.841  34.503  27.624  1.00  0.00    -0.200 F 
ATOM    124  C   UNL A   1      34.431  33.601  29.768  1.00  0.00     0.200 A 
ATOM    125  F   UNL A   1      34.078  32.690  31.918  1.00  0.00    -0.200 F 
ATOM    126  F   UNL A   1      33.197  34.122  29.769  1.00  0.00    -0.200 F 
ENDBRANCH  88 116
BRANCH 103 127
ATOM    127  C   UNL A   1      43.197  35.195  31.622  1.00  0.00     0.064 A 
ATOM    128  C   UNL A   1      43.699  36.169  30.746  1.00  0.00     0.173 A 
ATOM    129  C   UNL A   1      43.068  35.532  32.977  1.00  0.00     0.173 A 
ATOM    130  F   UNL A   1      43.855  35.889  29.443  1.00  0.00    -0.203 F 
ATOM    131  C   UNL A   1      44.089  37.419  31.216  1.00  0.00     0.198 A 
ATOM    132  C   UNL A   1      43.432  36.793  33.439  1.00  0.00     0.198 A 
ATOM    133  F   UNL A   1      42.586  34.638  33.855  1.00  0.00    -0.203 F 
ATOM    134  F   UNL A   1      44.619  38.315  30.372  1.00  0.00    -0.200 F 
ATOM    135  C   UNL A   1      43.951  37.732  32.561  1.00  0.00     0.200 A 
ATOM    136  F   UNL A   1      43.287  37.098  34.736  1.00  0.00    -0.200 F 
ATOM    137  F   UNL A   1      44.329  38.937  33.011  1.00  0.00    -0.200 F 
ENDBRANCH 103 127
ENDBRANCH  68  71
ENDBRANCH  58  61
ENDBRANCH  54  57
ENDBRANCH  51  54
ENDBRANCH  48  51
ENDBRANCH   1  48
TORSDOF 18
ENDMDL
MODEL 7
REMARK VINA RESULT:     -11.6      2.248      8.478
REMARK SMILES C[C@@H](C(=O)NCCCCCCNC(=O)c1ccc(-c2c3nc(c(-c4c(F)c(F)c(F)c(F)c4F)c4ccc([nH]4)c(-c4c(F)c(F)c(F)c(F)c4F)c4nc(c(-c5c(F)c(F)c(F)c(F)c5F)c5ccc2[nH]5)C=C4)C=C3)cc1)c1ccc(C[C@H]2CCCC2=O)cc1[N+](=O)[O-]
REMARK SMILES IDX 8 1 7 4 6 7 5 10 3 11 4 12 2 14 1 16 78 20 79 21 90 22 80 23
REMARK SMILES IDX 89 25 81 26 91 29 92 30 93 31 82 32 83 35 84 36 87 37 85 39
REMARK SMILES IDX 86 42 88 43 9 48 10 51 11 54 12 57 13 58 14 60 15 61 16 62
REMARK SMILES IDX 77 63 17 64 76 66 18 68 19 71 20 72 70 73 21 74 75 75 69 76
REMARK SMILES IDX 71 77 22 78 74 79 68 81 67 83 23 85 55 88 35 89 54 90 36 91
REMARK SMILES IDX 39 92 53 93 72 94 37 95 38 97 52 99 73 100 40 103 24 105
REMARK SMILES IDX 25 106 33 107 26 108 27 109 31 110 34 111 28 112 29 113
REMARK SMILES IDX 32 114 30 115 56 116 57 117 65 118 58 119 59 120 63 121
REMARK SMILES IDX 66 122 60 123 61 124 64 125 62 126 41 127 42 128 50 129
REMARK SMILES IDX 43 130 44 131 48 132 51 133 45 134 46 135 49 136 47 137
REMARK H PARENT 8 2 8 3 7 5 7 6 6 8 6 9 5 13 2 15 1 17 1 18 1 19 79 24 80 27
REMARK H PARENT 89 28 82 33 82 34 83 38 84 40 84 41 85 44 85 45 86 46 86 47
REMARK H PARENT 9 49 9 50 10 52 10 53 11 55 11 56 12 59 16 65 77 67 17 69
REMARK H PARENT 76 70 75 80 69 82 71 84 74 86 68 87 36 96 39 98 72 101 37 102
REMARK H PARENT 73 104
REMARK Flexibility Score: inf
ROOT
ATOM      1  C   UNL A   1      31.827  29.860  26.905  1.00  0.00    -0.052 C 
ATOM      2  H   UNL A   1      32.637  30.265  27.476  1.00  0.00     0.027 H 
ATOM      3  H   UNL A   1      30.976  29.606  27.503  1.00  0.00     0.027 H 
ENDROOT
BRANCH   1   4
ATOM      4  C   UNL A   1      32.305  28.555  26.257  1.00  0.00    -0.036 C 
ATOM      5  H   UNL A   1      32.021  28.567  25.225  1.00  0.00     0.028 H 
ATOM      6  H   UNL A   1      33.366  28.512  26.389  1.00  0.00     0.028 H 
BRANCH   4   7
ATOM      7  C   UNL A   1      31.722  27.293  26.904  1.00  0.00     0.017 C 
ATOM      8  H   UNL A   1      32.520  26.664  27.240  1.00  0.00     0.049 H 
ATOM      9  H   UNL A   1      31.110  27.570  27.736  1.00  0.00     0.049 H 
BRANCH   7  10
ATOM     10  N   UNL A   1      30.920  26.577  25.933  1.00  0.00    -0.356 N 
ATOM     11  C   UNL A   1      31.323  25.813  24.876  1.00  0.00     0.227 C 
ATOM     12  O   UNL A   1      30.499  25.643  23.975  1.00  0.00    -0.274 OA
ATOM     13  H   UNL A   1      29.946  26.654  26.052  1.00  0.00     0.163 HD
BRANCH  11  14
ATOM     14  C   UNL A   1      32.724  25.150  24.879  1.00  0.00     0.067 C 
ATOM     15  H   UNL A   1      33.188  25.237  25.839  1.00  0.00     0.045 H 
BRANCH  14  16
ATOM     16  C   UNL A   1      33.658  25.910  23.937  1.00  0.00    -0.049 C 
ATOM     17  H   UNL A   1      33.087  26.350  23.147  1.00  0.00     0.024 H 
ATOM     18  H   UNL A   1      34.376  25.233  23.524  1.00  0.00     0.024 H 
ATOM     19  H   UNL A   1      34.165  26.678  24.482  1.00  0.00     0.024 H 
ENDBRANCH  14  16
BRANCH  14  20
ATOM     20  C   UNL A   1      32.624  23.624  24.693  1.00  0.00     0.042 A 
ATOM     21  C   UNL A   1      32.951  23.123  23.413  1.00  0.00    -0.051 A 
ATOM     22  C   UNL A   1      32.210  22.666  25.638  1.00  0.00     0.273 A 
ATOM     23  C   UNL A   1      32.903  21.759  23.105  1.00  0.00    -0.058 A 
ATOM     24  H   UNL A   1      33.237  23.788  22.677  1.00  0.00     0.063 H 
ATOM     25  C   UNL A   1      32.106  21.299  25.316  1.00  0.00     0.019 A 
ATOM     26  C   UNL A   1      32.447  20.835  24.044  1.00  0.00    -0.040 A 
ATOM     27  H   UNL A   1      33.207  21.434  22.174  1.00  0.00     0.063 H 
ATOM     28  H   UNL A   1      31.774  20.633  26.029  1.00  0.00     0.070 H 
BRANCH  22  29
ATOM     29  N   UNL A   1      31.875  22.988  26.993  1.00  0.00     0.063 N 
ATOM     30  O   UNL A   1      30.820  23.530  27.251  1.00  0.00    -0.258 OA
ATOM     31  O   UNL A   1      32.677  22.576  28.028  1.00  0.00    -0.258 OA
ENDBRANCH  22  29
BRANCH  26  32
ATOM     32  C   UNL A   1      32.327  19.369  23.707  1.00  0.00    -0.018 C 
ATOM     33  H   UNL A   1      32.375  19.275  22.642  1.00  0.00     0.032 H 
ATOM     34  H   UNL A   1      31.401  19.053  24.139  1.00  0.00     0.032 H 
BRANCH  32  35
ATOM     35  C   UNL A   1      33.392  18.441  24.305  1.00  0.00     0.022 C 
ATOM     36  C   UNL A   1      33.169  17.986  25.752  1.00  0.00    -0.043 C 
ATOM     37  C   UNL A   1      33.490  17.125  23.571  1.00  0.00     0.136 C 
ATOM     38  H   UNL A   1      34.254  19.069  24.231  1.00  0.00     0.039 H 
ATOM     39  C   UNL A   1      32.539  16.601  25.672  1.00  0.00    -0.046 C 
ATOM     40  H   UNL A   1      32.513  18.664  26.256  1.00  0.00     0.027 H 
ATOM     41  H   UNL A   1      34.088  17.964  26.299  1.00  0.00     0.027 H 
ATOM     42  C   UNL A   1      33.156  15.945  24.444  1.00  0.00     0.006 C 
ATOM     43  O   UNL A   1      33.822  17.023  22.396  1.00  0.00    -0.299 OA
ATOM     44  H   UNL A   1      31.477  16.678  25.561  1.00  0.00     0.027 H 
ATOM     45  H   UNL A   1      32.718  16.030  26.559  1.00  0.00     0.027 H 
ATOM     46  H   UNL A   1      32.456  15.294  23.962  1.00  0.00     0.035 H 
ATOM     47  H   UNL A   1      34.002  15.331  24.672  1.00  0.00     0.035 H 
ENDBRANCH  32  35
ENDBRANCH  26  32
ENDBRANCH  14  20
ENDBRANCH  11  14
ENDBRANCH   7  10
ENDBRANCH   4   7
ENDBRANCH   1   4
BRANCH   1  48
ATOM     48  C   UNL A   1      31.358  30.931  25.918  1.00  0.00    -0.052 C 
ATOM     49  H   UNL A   1      30.386  30.657  25.565  1.00  0.00     0.027 H 
ATOM     50  H   UNL A   1      32.093  30.969  25.142  1.00  0.00     0.027 H 
BRANCH  48  51
ATOM     51  C   UNL A   1      31.272  32.345  26.499  1.00  0.00    -0.036 C 
ATOM     52  H   UNL A   1      30.448  32.378  27.179  1.00  0.00     0.028 H 
ATOM     53  H   UNL A   1      31.157  33.008  25.666  1.00  0.00     0.028 H 
BRANCH  51  54
ATOM     54  C   UNL A   1      32.523  32.804  27.245  1.00  0.00     0.018 C 
ATOM     55  H   UNL A   1      33.374  32.667  26.610  1.00  0.00     0.049 H 
ATOM     56  H   UNL A   1      32.610  32.220  28.137  1.00  0.00     0.049 H 
BRANCH  54  57
ATOM     57  N   UNL A   1      32.443  34.203  27.628  1.00  0.00    -0.352 N 
ATOM     58  C   UNL A   1      33.109  34.881  28.616  1.00  0.00     0.251 C 
ATOM     59  H   UNL A   1      31.814  34.746  27.099  1.00  0.00     0.163 HD
ATOM     60  O   UNL A   1      32.749  36.010  28.932  1.00  0.00    -0.269 OA
BRANCH  58  61
ATOM     61  C   UNL A   1      34.256  34.256  29.311  1.00  0.00     0.039 A 
ATOM     62  C   UNL A   1      34.003  33.478  30.445  1.00  0.00    -0.049 A 
ATOM     63  C   UNL A   1      35.571  34.470  28.888  1.00  0.00    -0.049 A 
ATOM     64  C   UNL A   1      35.063  32.881  31.126  1.00  0.00    -0.053 A 
ATOM     65  H   UNL A   1      33.034  33.346  30.775  1.00  0.00     0.063 H 
ATOM     66  C   UNL A   1      36.625  33.821  29.531  1.00  0.00    -0.053 A 
ATOM     67  H   UNL A   1      35.762  35.106  28.099  1.00  0.00     0.063 H 
ATOM     68  C   UNL A   1      36.381  33.028  30.661  1.00  0.00    -0.014 A 
ATOM     69  H   UNL A   1      34.879  32.327  31.977  1.00  0.00     0.063 H 
ATOM     70  H   UNL A   1      37.587  33.926  29.174  1.00  0.00     0.063 H 
BRANCH  68  71
ATOM     71  C   UNL A   1      37.503  32.348  31.358  1.00  0.00     0.031 A 
ATOM     72  C   UNL A   1      38.217  31.193  30.712  1.00  0.00     0.074 A 
ATOM     73  C   UNL A   1      37.862  32.761  32.588  1.00  0.00     0.049 A 
ATOM     74  N   UNL A   1      39.222  30.484  31.165  1.00  0.00    -0.248 NA
ATOM     75  C   UNL A   1      37.728  30.764  29.393  1.00  0.00    -0.034 C 
ATOM     76  C   UNL A   1      37.207  33.831  33.343  1.00  0.00    -0.036 A 
ATOM     77  N   UNL A   1      38.863  32.331  33.422  1.00  0.00    -0.354 N 
ATOM     78  C   UNL A   1      39.485  29.532  30.188  1.00  0.00     0.074 A 
ATOM     79  C   UNL A   1      38.497  29.713  29.146  1.00  0.00    -0.034 C 
ATOM     80  H   UNL A   1      36.980  31.174  28.811  1.00  0.00     0.065 H 
ATOM     81  C   UNL A   1      37.837  33.988  34.518  1.00  0.00    -0.036 A 
ATOM     82  H   UNL A   1      36.392  34.377  33.023  1.00  0.00     0.065 H 
ATOM     83  C   UNL A   1      38.923  33.017  34.610  1.00  0.00     0.049 A 
ATOM     84  H   UNL A   1      39.481  31.599  33.190  1.00  0.00     0.167 HD
ATOM     85  C   UNL A   1      40.476  28.611  30.152  1.00  0.00     0.037 A 
ATOM     86  H   UNL A   1      38.405  29.104  28.318  1.00  0.00     0.065 H 
ATOM     87  H   UNL A   1      37.593  34.683  35.240  1.00  0.00     0.065 H 
ATOM     88  C   UNL A   1      39.762  32.880  35.654  1.00  0.00     0.037 A 
ATOM     89  C   UNL A   1      41.465  28.439  31.186  1.00  0.00     0.049 A 
ATOM     90  C   UNL A   1      40.864  31.859  35.579  1.00  0.00     0.074 A 
ATOM     91  C   UNL A   1      42.527  27.554  31.227  1.00  0.00    -0.036 A 
ATOM     92  N   UNL A   1      41.511  29.174  32.362  1.00  0.00    -0.354 N 
ATOM     93  N   UNL A   1      41.140  31.008  34.622  1.00  0.00    -0.248 NA
ATOM     94  C   UNL A   1      41.780  31.791  36.725  1.00  0.00    -0.034 C 
ATOM     95  C   UNL A   1      43.197  27.729  32.444  1.00  0.00    -0.036 A 
ATOM     96  H   UNL A   1      42.782  26.880  30.489  1.00  0.00     0.065 H 
ATOM     97  C   UNL A   1      42.578  28.754  33.140  1.00  0.00     0.049 A 
ATOM     98  H   UNL A   1      40.879  29.887  32.607  1.00  0.00     0.167 HD
ATOM     99  C   UNL A   1      42.270  30.317  35.039  1.00  0.00     0.074 A 
ATOM    100  C   UNL A   1      42.644  30.869  36.325  1.00  0.00    -0.034 C 
ATOM    101  H   UNL A   1      41.759  32.322  37.610  1.00  0.00     0.065 H 
ATOM    102  H   UNL A   1      44.014  27.186  32.767  1.00  0.00     0.065 H 
ATOM    103  C   UNL A   1      42.935  29.314  34.418  1.00  0.00     0.037 A 
ATOM    104  H   UNL A   1      43.477  30.580  36.861  1.00  0.00     0.065 H 
BRANCH  85 105
ATOM    105  C   UNL A   1      40.556  27.726  28.942  1.00  0.00     0.064 A 
ATOM    106  C   UNL A   1      41.407  28.034  27.869  1.00  0.00     0.173 A 
ATOM    107  C   UNL A   1      39.817  26.536  28.873  1.00  0.00     0.173 A 
ATOM    108  F   UNL A   1      42.125  29.167  27.881  1.00  0.00    -0.203 F 
ATOM    109  C   UNL A   1      41.497  27.195  26.762  1.00  0.00     0.198 A 
ATOM    110  C   UNL A   1      39.931  25.685  27.776  1.00  0.00     0.198 A 
ATOM    111  F   UNL A   1      38.994  26.191  29.873  1.00  0.00    -0.203 F 
ATOM    112  F   UNL A   1      42.285  27.531  25.731  1.00  0.00    -0.200 F 
ATOM    113  C   UNL A   1      40.766  26.018  26.719  1.00  0.00     0.200 A 
ATOM    114  F   UNL A   1      39.233  24.541  27.741  1.00  0.00    -0.200 F 
ATOM    115  F   UNL A   1      40.862  25.206  25.657  1.00  0.00    -0.200 F 
ENDBRANCH  85 105
BRANCH  88 116
ATOM    116  C   UNL A   1      39.607  33.749  36.848  1.00  0.00     0.064 A 
ATOM    117  C   UNL A   1      38.788  33.367  37.920  1.00  0.00     0.173 A 
ATOM    118  C   UNL A   1      40.265  34.985  36.938  1.00  0.00     0.173 A 
ATOM    119  F   UNL A   1      38.123  32.204  37.872  1.00  0.00    -0.203 F 
ATOM    120  C   UNL A   1      38.612  34.199  39.024  1.00  0.00     0.198 A 
ATOM    121  C   UNL A   1      40.112  35.802  38.055  1.00  0.00     0.198 A 
ATOM    122  F   UNL A   1      41.066  35.393  35.943  1.00  0.00    -0.203 F 
ATOM    123  F   UNL A   1      37.784  33.832  40.010  1.00  0.00    -0.200 F 
ATOM    124  C   UNL A   1      39.278  35.414  39.092  1.00  0.00     0.200 A 
ATOM    125  F   UNL A   1      40.768  36.968  38.124  1.00  0.00    -0.200 F 
ATOM    126  F   UNL A   1      39.109  36.213  40.154  1.00  0.00    -0.200 F 
ENDBRANCH  88 116
BRANCH 103 127
ATOM    127  C   UNL A   1      44.144  28.763  35.116  1.00  0.00     0.064 A 
ATOM    128  C   UNL A   1      44.050  27.672  35.992  1.00  0.00     0.173 A 
ATOM    129  C   UNL A   1      45.410  29.323  34.894  1.00  0.00     0.173 A 
ATOM    130  F   UNL A   1      42.858  27.111  36.249  1.00  0.00    -0.203 F 
ATOM    131  C   UNL A   1      45.177  27.183  36.647  1.00  0.00     0.198 A 
ATOM    132  C   UNL A   1      46.540  28.812  35.528  1.00  0.00     0.198 A 
ATOM    133  F   UNL A   1      45.554  30.363  34.060  1.00  0.00    -0.203 F 
ATOM    134  F   UNL A   1      45.057  26.175  37.523  1.00  0.00    -0.200 F 
ATOM    135  C   UNL A   1      46.421  27.750  36.411  1.00  0.00     0.200 A 
ATOM    136  F   UNL A   1      47.742  29.354  35.290  1.00  0.00    -0.200 F 
ATOM    137  F   UNL A   1      47.504  27.278  37.044  1.00  0.00    -0.200 F 
ENDBRANCH 103 127
ENDBRANCH  68  71
ENDBRANCH  58  61
ENDBRANCH  54  57
ENDBRANCH  51  54
ENDBRANCH  48  51
ENDBRANCH   1  48
TORSDOF 18
ENDMDL
MODEL 8
REMARK VINA RESULT:     -11.6      1.817      3.015
REMARK SMILES C[C@@H](C(=O)NCCCCCCNC(=O)c1ccc(-c2c3nc(c(-c4c(F)c(F)c(F)c(F)c4F)c4ccc([nH]4)c(-c4c(F)c(F)c(F)c(F)c4F)c4nc(c(-c5c(F)c(F)c(F)c(F)c5F)c5ccc2[nH]5)C=C4)C=C3)cc1)c1ccc(C[C@H]2CCCC2=O)cc1[N+](=O)[O-]
REMARK SMILES IDX 8 1 7 4 6 7 5 10 3 11 4 12 2 14 1 16 78 20 79 21 90 22 80 23
REMARK SMILES IDX 89 25 81 26 91 29 92 30 93 31 82 32 83 35 84 36 87 37 85 39
REMARK SMILES IDX 86 42 88 43 9 48 10 51 11 54 12 57 13 58 14 60 15 61 16 62
REMARK SMILES IDX 77 63 17 64 76 66 18 68 19 71 20 72 70 73 21 74 75 75 69 76
REMARK SMILES IDX 71 77 22 78 74 79 68 81 67 83 23 85 55 88 35 89 54 90 36 91
REMARK SMILES IDX 39 92 53 93 72 94 37 95 38 97 52 99 73 100 40 103 24 105
REMARK SMILES IDX 25 106 33 107 26 108 27 109 31 110 34 111 28 112 29 113
REMARK SMILES IDX 32 114 30 115 56 116 57 117 65 118 58 119 59 120 63 121
REMARK SMILES IDX 66 122 60 123 61 124 64 125 62 126 41 127 42 128 50 129
REMARK SMILES IDX 43 130 44 131 48 132 51 133 45 134 46 135 49 136 47 137
REMARK H PARENT 8 2 8 3 7 5 7 6 6 8 6 9 5 13 2 15 1 17 1 18 1 19 79 24 80 27
REMARK H PARENT 89 28 82 33 82 34 83 38 84 40 84 41 85 44 85 45 86 46 86 47
REMARK H PARENT 9 49 9 50 10 52 10 53 11 55 11 56 12 59 16 65 77 67 17 69
REMARK H PARENT 76 70 75 80 69 82 71 84 74 86 68 87 36 96 39 98 72 101 37 102
REMARK H PARENT 73 104
REMARK Flexibility Score: inf
ROOT
ATOM      1  C   UNL A   1      33.817  26.632  24.954  1.00  0.00    -0.052 C 
ATOM      2  H   UNL A   1      32.901  26.397  24.452  1.00  0.00     0.027 H 
ATOM      3  H   UNL A   1      34.511  27.164  24.338  1.00  0.00     0.027 H 
ENDROOT
BRANCH   1   4
ATOM      4  C   UNL A   1      34.502  25.315  25.339  1.00  0.00    -0.036 C 
ATOM      5  H   UNL A   1      35.553  25.496  25.434  1.00  0.00     0.028 H 
ATOM      6  H   UNL A   1      34.058  24.991  26.257  1.00  0.00     0.028 H 
BRANCH   4   7
ATOM      7  C   UNL A   1      34.295  24.189  24.319  1.00  0.00     0.017 C 
ATOM      8  H   UNL A   1      33.421  24.393  23.736  1.00  0.00     0.049 H 
ATOM      9  H   UNL A   1      35.147  24.130  23.676  1.00  0.00     0.049 H 
BRANCH   7  10
ATOM     10  N   UNL A   1      34.128  22.930  25.015  1.00  0.00    -0.356 N 
ATOM     11  C   UNL A   1      32.991  22.204  25.226  1.00  0.00     0.227 C 
ATOM     12  O   UNL A   1      33.018  21.401  26.161  1.00  0.00    -0.274 OA
ATOM     13  H   UNL A   1      34.952  22.542  25.390  1.00  0.00     0.163 HD
BRANCH  11  14
ATOM     14  C   UNL A   1      31.778  22.356  24.274  1.00  0.00     0.067 C 
ATOM     15  H   UNL A   1      30.954  21.757  24.602  1.00  0.00     0.045 H 
BRANCH  14  16
ATOM     16  C   UNL A   1      32.128  21.793  22.896  1.00  0.00    -0.049 C 
ATOM     17  H   UNL A   1      31.229  21.520  22.384  1.00  0.00     0.024 H 
ATOM     18  H   UNL A   1      32.750  20.931  23.010  1.00  0.00     0.024 H 
ATOM     19  H   UNL A   1      32.649  22.537  22.330  1.00  0.00     0.024 H 
ENDBRANCH  14  16
BRANCH  14  20
ATOM     20  C   UNL A   1      31.196  23.781  24.327  1.00  0.00     0.042 A 
ATOM     21  C   UNL A   1      31.125  24.478  23.099  1.00  0.00    -0.051 A 
ATOM     22  C   UNL A   1      30.758  24.492  25.460  1.00  0.00     0.273 A 
ATOM     23  C   UNL A   1      30.619  25.779  23.001  1.00  0.00    -0.058 A 
ATOM     24  H   UNL A   1      31.458  24.009  22.241  1.00  0.00     0.063 H 
ATOM     25  C   UNL A   1      30.301  25.821  25.374  1.00  0.00     0.019 A 
ATOM     26  C   UNL A   1      30.234  26.477  24.144  1.00  0.00    -0.040 A 
ATOM     27  H   UNL A   1      30.532  26.225  22.076  1.00  0.00     0.063 H 
ATOM     28  H   UNL A   1      30.014  26.316  26.232  1.00  0.00     0.070 H 
BRANCH  22  29
ATOM     29  N   UNL A   1      30.725  23.932  26.779  1.00  0.00     0.063 N 
ATOM     30  O   UNL A   1      31.663  24.088  27.533  1.00  0.00    -0.258 OA
ATOM     31  O   UNL A   1      29.588  23.325  27.252  1.00  0.00    -0.258 OA
ENDBRANCH  22  29
BRANCH  26  32
ATOM     32  C   UNL A   1      29.748  27.904  24.064  1.00  0.00    -0.018 C 
ATOM     33  H   UNL A   1      30.608  28.541  24.050  1.00  0.00     0.032 H 
ATOM     34  H   UNL A   1      29.112  28.036  24.913  1.00  0.00     0.032 H 
BRANCH  32  35
ATOM     35  C   UNL A   1      28.883  28.263  22.849  1.00  0.00     0.022 C 
ATOM     36  C   UNL A   1      27.408  28.574  23.126  1.00  0.00    -0.043 C 
ATOM     37  C   UNL A   1      29.348  29.525  22.161  1.00  0.00     0.136 C 
ATOM     38  H   UNL A   1      28.983  27.368  22.273  1.00  0.00     0.039 H 
ATOM     39  C   UNL A   1      27.296  30.092  23.190  1.00  0.00    -0.046 C 
ATOM     40  H   UNL A   1      27.107  28.141  24.058  1.00  0.00     0.027 H 
ATOM     41  H   UNL A   1      26.775  28.169  22.365  1.00  0.00     0.027 H 
ATOM     42  C   UNL A   1      28.311  30.617  22.184  1.00  0.00     0.006 C 
ATOM     43  O   UNL A   1      30.444  29.646  21.627  1.00  0.00    -0.299 OA
ATOM     44  H   UNL A   1      27.527  30.445  24.173  1.00  0.00     0.027 H 
ATOM     45  H   UNL A   1      26.305  30.428  22.964  1.00  0.00     0.027 H 
ATOM     46  H   UNL A   1      28.734  31.544  22.511  1.00  0.00     0.035 H 
ATOM     47  H   UNL A   1      27.889  30.821  21.222  1.00  0.00     0.035 H 
ENDBRANCH  32  35
ENDBRANCH  26  32
ENDBRANCH  14  20
ENDBRANCH  11  14
ENDBRANCH   7  10
ENDBRANCH   4   7
ENDBRANCH   1   4
BRANCH   1  48
ATOM     48  C   UNL A   1      33.491  27.553  26.133  1.00  0.00    -0.052 C 
ATOM     49  H   UNL A   1      34.404  27.774  26.646  1.00  0.00     0.027 H 
ATOM     50  H   UNL A   1      32.783  27.027  26.739  1.00  0.00     0.027 H 
BRANCH  48  51
ATOM     51  C   UNL A   1      32.828  28.878  25.747  1.00  0.00    -0.036 C 
ATOM     52  H   UNL A   1      32.043  28.670  25.052  1.00  0.00     0.028 H 
ATOM     53  H   UNL A   1      33.601  29.494  25.336  1.00  0.00     0.028 H 
BRANCH  51  54
ATOM     54  C   UNL A   1      32.234  29.656  26.918  1.00  0.00     0.018 C 
ATOM     55  H   UNL A   1      32.751  29.382  27.814  1.00  0.00     0.049 H 
ATOM     56  H   UNL A   1      31.194  29.412  26.985  1.00  0.00     0.049 H 
BRANCH  54  57
ATOM     57  N   UNL A   1      32.349  31.092  26.729  1.00  0.00    -0.352 N 
ATOM     58  C   UNL A   1      33.258  31.975  27.251  1.00  0.00     0.251 C 
ATOM     59  H   UNL A   1      31.671  31.491  26.137  1.00  0.00     0.163 HD
ATOM     60  O   UNL A   1      33.065  33.182  27.152  1.00  0.00    -0.269 OA
BRANCH  58  61
ATOM     61  C   UNL A   1      34.469  31.482  27.945  1.00  0.00     0.039 A 
ATOM     62  C   UNL A   1      35.541  32.362  28.120  1.00  0.00    -0.049 A 
ATOM     63  C   UNL A   1      34.574  30.156  28.375  1.00  0.00    -0.049 A 
ATOM     64  C   UNL A   1      36.698  31.925  28.764  1.00  0.00    -0.053 A 
ATOM     65  H   UNL A   1      35.475  33.332  27.775  1.00  0.00     0.063 H 
ATOM     66  C   UNL A   1      35.706  29.738  29.076  1.00  0.00    -0.053 A 
ATOM     67  H   UNL A   1      33.814  29.487  28.176  1.00  0.00     0.063 H 
ATOM     68  C   UNL A   1      36.781  30.616  29.268  1.00  0.00    -0.014 A 
ATOM     69  H   UNL A   1      37.499  32.567  28.871  1.00  0.00     0.063 H 
ATOM     70  H   UNL A   1      35.752  28.778  29.451  1.00  0.00     0.063 H 
BRANCH  68  71
ATOM     71  C   UNL A   1      37.994  30.169  30.000  1.00  0.00     0.031 A 
ATOM     72  C   UNL A   1      38.255  30.635  31.406  1.00  0.00     0.074 A 
ATOM     73  C   UNL A   1      38.875  29.359  29.383  1.00  0.00     0.049 A 
ATOM     74  N   UNL A   1      39.254  30.343  32.201  1.00  0.00    -0.248 NA
ATOM     75  C   UNL A   1      37.277  31.566  31.989  1.00  0.00    -0.034 C 
ATOM     76  C   UNL A   1      38.763  28.887  28.001  1.00  0.00    -0.036 A 
ATOM     77  N   UNL A   1      40.038  28.789  29.835  1.00  0.00    -0.354 N 
ATOM     78  C   UNL A   1      39.022  31.050  33.375  1.00  0.00     0.074 A 
ATOM     79  C   UNL A   1      37.823  31.831  33.167  1.00  0.00    -0.034 C 
ATOM     80  H   UNL A   1      36.395  31.921  31.585  1.00  0.00     0.065 H 
ATOM     81  C   UNL A   1      39.802  28.083  27.726  1.00  0.00    -0.036 A 
ATOM     82  H   UNL A   1      38.006  29.134  27.344  1.00  0.00     0.065 H 
ATOM     83  C   UNL A   1      40.664  28.001  28.901  1.00  0.00     0.049 A 
ATOM     84  H   UNL A   1      40.391  28.931  30.744  1.00  0.00     0.167 HD
ATOM     85  C   UNL A   1      39.730  31.025  34.529  1.00  0.00     0.037 A 
ATOM     86  H   UNL A   1      37.441  32.506  33.848  1.00  0.00     0.065 H 
ATOM     87  H   UNL A   1      39.964  27.601  26.828  1.00  0.00     0.065 H 
ATOM     88  C   UNL A   1      41.804  27.289  28.984  1.00  0.00     0.037 A 
ATOM     89  C   UNL A   1      40.919  30.239  34.738  1.00  0.00     0.049 A 
ATOM     90  C   UNL A   1      42.561  27.269  30.284  1.00  0.00     0.074 A 
ATOM     91  C   UNL A   1      41.690  30.124  35.881  1.00  0.00    -0.036 A 
ATOM     92  N   UNL A   1      41.506  29.429  33.776  1.00  0.00    -0.354 N 
ATOM     93  N   UNL A   1      42.296  27.891  31.406  1.00  0.00    -0.248 NA
ATOM     94  C   UNL A   1      43.769  26.433  30.331  1.00  0.00    -0.034 C 
ATOM     95  C   UNL A   1      42.764  29.271  35.602  1.00  0.00    -0.036 A 
ATOM     96  H   UNL A   1      41.506  30.588  36.784  1.00  0.00     0.065 H 
ATOM     97  C   UNL A   1      42.636  28.820  34.298  1.00  0.00     0.049 A 
ATOM     98  H   UNL A   1      41.170  29.306  32.860  1.00  0.00     0.167 HD
ATOM     99  C   UNL A   1      43.290  27.509  32.298  1.00  0.00     0.074 A 
ATOM    100  C   UNL A   1      44.148  26.579  31.593  1.00  0.00    -0.034 C 
ATOM    101  H   UNL A   1      44.208  25.877  29.580  1.00  0.00     0.065 H 
ATOM    102  H   UNL A   1      43.522  29.021  36.256  1.00  0.00     0.065 H 
ATOM    103  C   UNL A   1      43.479  27.897  33.582  1.00  0.00     0.037 A 
ATOM    104  H   UNL A   1      44.951  26.092  32.019  1.00  0.00     0.065 H 
BRANCH  85 105
ATOM    105  C   UNL A   1      39.226  31.863  35.669  1.00  0.00     0.064 A 
ATOM    106  C   UNL A   1      38.345  31.335  36.626  1.00  0.00     0.173 A 
ATOM    107  C   UNL A   1      39.663  33.184  35.837  1.00  0.00     0.173 A 
ATOM    108  F   UNL A   1      37.889  30.079  36.504  1.00  0.00    -0.203 F 
ATOM    109  C   UNL A   1      37.903  32.107  37.696  1.00  0.00     0.198 A 
ATOM    110  C   UNL A   1      39.240  33.945  36.924  1.00  0.00     0.198 A 
ATOM    111  F   UNL A   1      40.509  33.736  34.955  1.00  0.00    -0.203 F 
ATOM    112  F   UNL A   1      37.030  31.595  38.574  1.00  0.00    -0.200 F 
ATOM    113  C   UNL A   1      38.356  33.409  37.850  1.00  0.00     0.200 A 
ATOM    114  F   UNL A   1      39.688  35.199  37.078  1.00  0.00    -0.200 F 
ATOM    115  F   UNL A   1      37.937  34.148  38.886  1.00  0.00    -0.200 F 
ENDBRANCH  85 105
BRANCH  88 116
ATOM    116  C   UNL A   1      42.284  26.518  27.809  1.00  0.00     0.064 A 
ATOM    117  C   UNL A   1      41.808  25.226  27.548  1.00  0.00     0.173 A 
ATOM    118  C   UNL A   1      43.239  27.052  26.931  1.00  0.00     0.173 A 
ATOM    119  F   UNL A   1      40.909  24.666  28.370  1.00  0.00    -0.203 F 
ATOM    120  C   UNL A   1      42.287  24.487  26.468  1.00  0.00     0.198 A 
ATOM    121  C   UNL A   1      43.695  26.323  25.835  1.00  0.00     0.198 A 
ATOM    122  F   UNL A   1      43.721  28.287  27.133  1.00  0.00    -0.203 F 
ATOM    123  F   UNL A   1      41.851  23.235  26.271  1.00  0.00    -0.200 F 
ATOM    124  C   UNL A   1      43.226  25.038  25.610  1.00  0.00     0.200 A 
ATOM    125  F   UNL A   1      44.592  26.865  25.000  1.00  0.00    -0.200 F 
ATOM    126  F   UNL A   1      43.686  24.327  24.571  1.00  0.00    -0.200 F 
ENDBRANCH  88 116
BRANCH 103 127
ATOM    127  C   UNL A   1      44.649  27.301  34.309  1.00  0.00     0.064 A 
ATOM    128  C   UNL A   1      45.902  27.932  34.322  1.00  0.00     0.173 A 
ATOM    129  C   UNL A   1      44.511  26.095  35.011  1.00  0.00     0.173 A 
ATOM    130  F   UNL A   1      46.088  29.079  33.652  1.00  0.00    -0.203 F 
ATOM    131  C   UNL A   1      46.983  27.358  34.985  1.00  0.00     0.198 A 
ATOM    132  C   UNL A   1      45.587  25.539  35.697  1.00  0.00     0.198 A 
ATOM    133  F   UNL A   1      43.331  25.456  35.035  1.00  0.00    -0.203 F 
ATOM    134  F   UNL A   1      48.186  27.948  34.938  1.00  0.00    -0.200 F 
ATOM    135  C   UNL A   1      46.824  26.165  35.676  1.00  0.00     0.200 A 
ATOM    136  F   UNL A   1      45.428  24.393  36.374  1.00  0.00    -0.200 F 
ATOM    137  F   UNL A   1      47.867  25.614  36.312  1.00  0.00    -0.200 F 
ENDBRANCH 103 127
ENDBRANCH  68  71
ENDBRANCH  58  61
ENDBRANCH  54  57
ENDBRANCH  51  54
ENDBRANCH  48  51
ENDBRANCH   1  48
TORSDOF 18
ENDMDL
MODEL 9
REMARK VINA RESULT:     -11.6      4.771     10.462
REMARK SMILES C[C@@H](C(=O)NCCCCCCNC(=O)c1ccc(-c2c3nc(c(-c4c(F)c(F)c(F)c(F)c4F)c4ccc([nH]4)c(-c4c(F)c(F)c(F)c(F)c4F)c4nc(c(-c5c(F)c(F)c(F)c(F)c5F)c5ccc2[nH]5)C=C4)C=C3)cc1)c1ccc(C[C@H]2CCCC2=O)cc1[N+](=O)[O-]
REMARK SMILES IDX 8 1 7 4 6 7 5 10 3 11 4 12 2 14 1 16 78 20 79 21 90 22 80 23
REMARK SMILES IDX 89 25 81 26 91 29 92 30 93 31 82 32 83 35 84 36 87 37 85 39
REMARK SMILES IDX 86 42 88 43 9 48 10 51 11 54 12 57 13 58 14 60 15 61 16 62
REMARK SMILES IDX 77 63 17 64 76 66 18 68 19 71 20 72 70 73 21 74 75 75 69 76
REMARK SMILES IDX 71 77 22 78 74 79 68 81 67 83 23 85 55 88 35 89 54 90 36 91
REMARK SMILES IDX 39 92 53 93 72 94 37 95 38 97 52 99 73 100 40 103 24 105
REMARK SMILES IDX 25 106 33 107 26 108 27 109 31 110 34 111 28 112 29 113
REMARK SMILES IDX 32 114 30 115 56 116 57 117 65 118 58 119 59 120 63 121
REMARK SMILES IDX 66 122 60 123 61 124 64 125 62 126 41 127 42 128 50 129
REMARK SMILES IDX 43 130 44 131 48 132 51 133 45 134 46 135 49 136 47 137
REMARK H PARENT 8 2 8 3 7 5 7 6 6 8 6 9 5 13 2 15 1 17 1 18 1 19 79 24 80 27
REMARK H PARENT 89 28 82 33 82 34 83 38 84 40 84 41 85 44 85 45 86 46 86 47
REMARK H PARENT 9 49 9 50 10 52 10 53 11 55 11 56 12 59 16 65 77 67 17 69
REMARK H PARENT 76 70 75 80 69 82 71 84 74 86 68 87 36 96 39 98 72 101 37 102
REMARK H PARENT 73 104
REMARK Flexibility Score: inf
ROOT
ATOM      1  C   UNL A   1      34.622  24.484  25.182  1.00  0.00    -0.052 C 
ATOM      2  H   UNL A   1      33.693  23.979  25.344  1.00  0.00     0.027 H 
ATOM      3  H   UNL A   1      35.310  24.369  25.993  1.00  0.00     0.027 H 
ENDROOT
BRANCH   1   4
ATOM      4  C   UNL A   1      34.336  25.986  25.067  1.00  0.00    -0.036 C 
ATOM      5  H   UNL A   1      35.022  26.510  25.699  1.00  0.00     0.028 H 
ATOM      6  H   UNL A   1      34.449  26.247  24.036  1.00  0.00     0.028 H 
BRANCH   4   7
ATOM      7  C   UNL A   1      32.910  26.377  25.474  1.00  0.00     0.017 C 
ATOM      8  H   UNL A   1      32.428  25.539  25.933  1.00  0.00     0.049 H 
ATOM      9  H   UNL A   1      32.948  27.190  26.168  1.00  0.00     0.049 H 
BRANCH   7  10
ATOM     10  N   UNL A   1      32.164  26.779  24.300  1.00  0.00    -0.356 N 
ATOM     11  C   UNL A   1      31.201  26.097  23.613  1.00  0.00     0.227 C 
ATOM     12  O   UNL A   1      31.004  26.450  22.448  1.00  0.00    -0.274 OA
ATOM     13  H   UNL A   1      32.384  27.672  23.946  1.00  0.00     0.163 HD
BRANCH  11  14
ATOM     14  C   UNL A   1      30.371  24.995  24.317  1.00  0.00     0.067 C 
ATOM     15  H   UNL A   1      29.531  24.705  23.720  1.00  0.00     0.045 H 
BRANCH  14  16
ATOM     16  C   UNL A   1      29.748  25.553  25.597  1.00  0.00    -0.049 C 
ATOM     17  H   UNL A   1      29.979  26.595  25.681  1.00  0.00     0.024 H 
ATOM     18  H   UNL A   1      30.143  25.032  26.443  1.00  0.00     0.024 H 
ATOM     19  H   UNL A   1      28.686  25.424  25.562  1.00  0.00     0.024 H 
ENDBRANCH  14  16
BRANCH  14  20
ATOM     20  C   UNL A   1      31.165  23.681  24.435  1.00  0.00     0.042 A 
ATOM     21  C   UNL A   1      31.665  23.138  23.229  1.00  0.00    -0.051 A 
ATOM     22  C   UNL A   1      31.424  22.931  25.598  1.00  0.00     0.273 A 
ATOM     23  C   UNL A   1      32.403  21.949  23.190  1.00  0.00    -0.058 A 
ATOM     24  H   UNL A   1      31.481  23.637  22.345  1.00  0.00     0.063 H 
ATOM     25  C   UNL A   1      32.117  21.706  25.555  1.00  0.00     0.019 A 
ATOM     26  C   UNL A   1      32.608  21.202  24.349  1.00  0.00    -0.040 A 
ATOM     27  H   UNL A   1      32.798  21.622  22.295  1.00  0.00     0.063 H 
ATOM     28  H   UNL A   1      32.264  21.174  26.426  1.00  0.00     0.070 H 
BRANCH  22  29
ATOM     29  N   UNL A   1      31.025  23.346  26.910  1.00  0.00     0.063 N 
ATOM     30  O   UNL A   1      31.770  24.018  27.592  1.00  0.00    -0.258 OA
ATOM     31  O   UNL A   1      29.752  23.102  27.363  1.00  0.00    -0.258 OA
ENDBRANCH  22  29
BRANCH  26  32
ATOM     32  C   UNL A   1      33.344  19.886  24.313  1.00  0.00    -0.018 C 
ATOM     33  H   UNL A   1      33.775  19.726  25.280  1.00  0.00     0.032 H 
ATOM     34  H   UNL A   1      34.057  19.980  23.521  1.00  0.00     0.032 H 
BRANCH  32  35
ATOM     35  C   UNL A   1      32.511  18.646  23.963  1.00  0.00     0.022 C 
ATOM     36  C   UNL A   1      32.876  17.920  22.664  1.00  0.00    -0.043 C 
ATOM     37  C   UNL A   1      32.650  17.547  24.989  1.00  0.00     0.136 C 
ATOM     38  H   UNL A   1      31.538  19.085  23.895  1.00  0.00     0.039 H 
ATOM     39  C   UNL A   1      33.768  16.751  23.064  1.00  0.00    -0.046 C 
ATOM     40  H   UNL A   1      33.403  18.580  22.006  1.00  0.00     0.027 H 
ATOM     41  H   UNL A   1      32.002  17.583  22.147  1.00  0.00     0.027 H 
ATOM     42  C   UNL A   1      33.248  16.289  24.418  1.00  0.00     0.006 C 
ATOM     43  O   UNL A   1      32.301  17.658  26.159  1.00  0.00    -0.299 OA
ATOM     44  H   UNL A   1      34.787  17.066  23.142  1.00  0.00     0.027 H 
ATOM     45  H   UNL A   1      33.741  15.964  22.340  1.00  0.00     0.027 H 
ATOM     46  H   UNL A   1      34.045  15.927  25.034  1.00  0.00     0.035 H 
ATOM     47  H   UNL A   1      32.551  15.480  24.352  1.00  0.00     0.035 H 
ENDBRANCH  32  35
ENDBRANCH  26  32
ENDBRANCH  14  20
ENDBRANCH  11  14
ENDBRANCH   7  10
ENDBRANCH   4   7
ENDBRANCH   1   4
BRANCH   1  48
ATOM     48  C   UNL A   1      35.293  23.865  23.954  1.00  0.00    -0.052 C 
ATOM     49  H   UNL A   1      35.912  24.611  23.500  1.00  0.00     0.027 H 
ATOM     50  H   UNL A   1      34.504  23.526  23.317  1.00  0.00     0.027 H 
BRANCH  48  51
ATOM     51  C   UNL A   1      36.164  22.640  24.248  1.00  0.00    -0.036 C 
ATOM     52  H   UNL A   1      37.026  22.683  23.617  1.00  0.00     0.028 H 
ATOM     53  H   UNL A   1      35.551  21.782  24.065  1.00  0.00     0.028 H 
BRANCH  51  54
ATOM     54  C   UNL A   1      36.639  22.530  25.695  1.00  0.00     0.018 C 
ATOM     55  H   UNL A   1      35.787  22.408  26.331  1.00  0.00     0.049 H 
ATOM     56  H   UNL A   1      37.175  23.424  25.937  1.00  0.00     0.049 H 
BRANCH  54  57
ATOM     57  N   UNL A   1      37.534  21.402  25.887  1.00  0.00    -0.352 N 
ATOM     58  C   UNL A   1      38.878  21.384  26.156  1.00  0.00     0.251 C 
ATOM     59  H   UNL A   1      37.111  20.515  25.811  1.00  0.00     0.163 HD
ATOM     60  O   UNL A   1      39.506  20.335  26.069  1.00  0.00    -0.269 OA
BRANCH  58  61
ATOM     61  C   UNL A   1      39.581  22.628  26.543  1.00  0.00     0.039 A 
ATOM     62  C   UNL A   1      39.312  23.796  25.823  1.00  0.00    -0.049 A 
ATOM     63  C   UNL A   1      40.531  22.640  27.568  1.00  0.00    -0.049 A 
ATOM     64  C   UNL A   1      39.964  24.982  26.160  1.00  0.00    -0.053 A 
ATOM     65  H   UNL A   1      38.634  23.779  25.046  1.00  0.00     0.063 H 
ATOM     66  C   UNL A   1      41.134  23.840  27.946  1.00  0.00    -0.053 A 
ATOM     67  H   UNL A   1      40.785  21.762  28.047  1.00  0.00     0.063 H 
ATOM     68  C   UNL A   1      40.863  25.020  27.239  1.00  0.00    -0.014 A 
ATOM     69  H   UNL A   1      39.784  25.839  25.613  1.00  0.00     0.063 H 
ATOM     70  H   UNL A   1      41.784  23.858  28.747  1.00  0.00     0.063 H 
BRANCH  68  71
ATOM     71  C   UNL A   1      41.515  26.295  27.629  1.00  0.00     0.031 A 
ATOM     72  C   UNL A   1      42.938  26.579  27.233  1.00  0.00     0.074 A 
ATOM     73  C   UNL A   1      40.828  27.191  28.363  1.00  0.00     0.049 A 
ATOM     74  N   UNL A   1      43.668  27.640  27.476  1.00  0.00    -0.248 NA
ATOM     75  C   UNL A   1      43.640  25.528  26.482  1.00  0.00    -0.034 C 
ATOM     76  C   UNL A   1      39.463  27.004  28.859  1.00  0.00    -0.036 A 
ATOM     77  N   UNL A   1      41.181  28.434  28.823  1.00  0.00    -0.354 N 
ATOM     78  C   UNL A   1      44.909  27.384  26.907  1.00  0.00     0.074 A 
ATOM     79  C   UNL A   1      44.854  26.045  26.360  1.00  0.00    -0.034 C 
ATOM     80  H   UNL A   1      43.282  24.622  26.140  1.00  0.00     0.065 H 
ATOM     81  C   UNL A   1      39.087  28.101  29.534  1.00  0.00    -0.036 A 
ATOM     82  H   UNL A   1      38.883  26.163  28.713  1.00  0.00     0.065 H 
ATOM     83  C   UNL A   1      40.189  29.058  29.540  1.00  0.00     0.049 A 
ATOM     84  H   UNL A   1      42.062  28.841  28.655  1.00  0.00     0.167 HD
ATOM     85  C   UNL A   1      45.985  28.202  26.824  1.00  0.00     0.037 A 
ATOM     86  H   UNL A   1      45.656  25.558  25.929  1.00  0.00     0.065 H 
ATOM     87  H   UNL A   1      38.167  28.246  29.978  1.00  0.00     0.065 H 
ATOM     88  C   UNL A   1      40.171  30.267  30.131  1.00  0.00     0.037 A 
ATOM     89  C   UNL A   1      46.034  29.538  27.360  1.00  0.00     0.049 A 
ATOM     90  C   UNL A   1      41.375  31.160  30.009  1.00  0.00     0.074 A 
ATOM     91  C   UNL A   1      47.068  30.455  27.301  1.00  0.00    -0.036 A 
ATOM     92  N   UNL A   1      44.999  30.146  28.054  1.00  0.00    -0.354 N 
ATOM     93  N   UNL A   1      42.520  30.930  29.414  1.00  0.00    -0.248 NA
ATOM     94  C   UNL A   1      41.278  32.488  30.630  1.00  0.00    -0.034 C 
ATOM     95  C   UNL A   1      46.671  31.608  27.988  1.00  0.00    -0.036 A 
ATOM     96  H   UNL A   1      47.976  30.314  26.832  1.00  0.00     0.065 H 
ATOM     97  C   UNL A   1      45.374  31.424  28.437  1.00  0.00     0.049 A 
ATOM     98  H   UNL A   1      44.127  29.732  28.246  1.00  0.00     0.167 HD
ATOM     99  C   UNL A   1      43.271  32.088  29.571  1.00  0.00     0.074 A 
ATOM    100  C   UNL A   1      42.441  33.029  30.294  1.00  0.00    -0.034 C 
ATOM    101  H   UNL A   1      40.507  32.896  31.183  1.00  0.00     0.065 H 
ATOM    102  H   UNL A   1      47.248  32.451  28.136  1.00  0.00     0.065 H 
ATOM    103  C   UNL A   1      44.535  32.347  29.158  1.00  0.00     0.037 A 
ATOM    104  H   UNL A   1      42.719  33.996  30.518  1.00  0.00     0.065 H 
BRANCH  85 105
ATOM    105  C   UNL A   1      47.198  27.681  26.108  1.00  0.00     0.064 A 
ATOM    106  C   UNL A   1      47.311  27.766  24.711  1.00  0.00     0.173 A 
ATOM    107  C   UNL A   1      48.276  27.139  26.821  1.00  0.00     0.173 A 
ATOM    108  F   UNL A   1      46.302  28.266  23.981  1.00  0.00    -0.203 F 
ATOM    109  C   UNL A   1      48.449  27.307  24.054  1.00  0.00     0.198 A 
ATOM    110  C   UNL A   1      49.425  26.706  26.164  1.00  0.00     0.198 A 
ATOM    111  F   UNL A   1      48.222  27.040  28.157  1.00  0.00    -0.203 F 
ATOM    112  F   UNL A   1      48.517  27.362  22.717  1.00  0.00    -0.200 F 
ATOM    113  C   UNL A   1      49.509  26.785  24.781  1.00  0.00     0.200 A 
ATOM    114  F   UNL A   1      50.453  26.213  26.868  1.00  0.00    -0.200 F 
ATOM    115  F   UNL A   1      50.609  26.353  24.149  1.00  0.00    -0.200 F 
ENDBRANCH  85 105
BRANCH  88 116
ATOM    116  C   UNL A   1      38.963  30.713  30.871  1.00  0.00     0.064 A 
ATOM    117  C   UNL A   1      38.849  30.519  32.255  1.00  0.00     0.173 A 
ATOM    118  C   UNL A   1      37.892  31.329  30.207  1.00  0.00     0.173 A 
ATOM    119  F   UNL A   1      39.839  29.918  32.930  1.00  0.00    -0.203 F 
ATOM    120  C   UNL A   1      37.700  30.903  32.942  1.00  0.00     0.198 A 
ATOM    121  C   UNL A   1      36.756  31.739  30.902  1.00  0.00     0.198 A 
ATOM    122  F   UNL A   1      37.955  31.543  28.885  1.00  0.00    -0.203 F 
ATOM    123  F   UNL A   1      37.597  30.660  34.256  1.00  0.00    -0.200 F 
ATOM    124  C   UNL A   1      36.656  31.516  32.266  1.00  0.00     0.200 A 
ATOM    125  F   UNL A   1      35.756  32.344  30.246  1.00  0.00    -0.200 F 
ATOM    126  F   UNL A   1      35.551  31.885  32.928  1.00  0.00    -0.200 F 
ENDBRANCH  88 116
BRANCH 103 127
ATOM    127  C   UNL A   1      45.086  33.708  29.466  1.00  0.00     0.064 A 
ATOM    128  C   UNL A   1      45.795  33.961  30.650  1.00  0.00     0.173 A 
ATOM    129  C   UNL A   1      44.918  34.766  28.561  1.00  0.00     0.173 A 
ATOM    130  F   UNL A   1      45.969  32.986  31.555  1.00  0.00    -0.203 F 
ATOM    131  C   UNL A   1      46.285  35.233  30.932  1.00  0.00     0.198 A 
ATOM    132  C   UNL A   1      45.435  36.030  28.832  1.00  0.00     0.198 A 
ATOM    133  F   UNL A   1      44.254  34.574  27.411  1.00  0.00    -0.203 F 
ATOM    134  F   UNL A   1      46.910  35.467  32.094  1.00  0.00    -0.200 F 
ATOM    135  C   UNL A   1      46.109  36.265  30.021  1.00  0.00     0.200 A 
ATOM    136  F   UNL A   1      45.274  37.022  27.946  1.00  0.00    -0.200 F 
ATOM    137  F   UNL A   1      46.581  37.489  30.295  1.00  0.00    -0.200 F 
ENDBRANCH 103 127
ENDBRANCH  68  71
ENDBRANCH  58  61
ENDBRANCH  54  57
ENDBRANCH  51  54
ENDBRANCH  48  51
ENDBRANCH   1  48
TORSDOF 18
ENDMDL
MODEL 10
REMARK VINA RESULT:     -11.6      1.640      4.186
REMARK SMILES C[C@@H](C(=O)NCCCCCCNC(=O)c1ccc(-c2c3nc(c(-c4c(F)c(F)c(F)c(F)c4F)c4ccc([nH]4)c(-c4c(F)c(F)c(F)c(F)c4F)c4nc(c(-c5c(F)c(F)c(F)c(F)c5F)c5ccc2[nH]5)C=C4)C=C3)cc1)c1ccc(C[C@H]2CCCC2=O)cc1[N+](=O)[O-]
REMARK SMILES IDX 8 1 7 4 6 7 5 10 3 11 4 12 2 14 1 16 78 20 79 21 90 22 80 23
REMARK SMILES IDX 89 25 81 26 91 29 92 30 93 31 82 32 83 35 84 36 87 37 85 39
REMARK SMILES IDX 86 42 88 43 9 48 10 51 11 54 12 57 13 58 14 60 15 61 16 62
REMARK SMILES IDX 77 63 17 64 76 66 18 68 19 71 20 72 70 73 21 74 75 75 69 76
REMARK SMILES IDX 71 77 22 78 74 79 68 81 67 83 23 85 55 88 35 89 54 90 36 91
REMARK SMILES IDX 39 92 53 93 72 94 37 95 38 97 52 99 73 100 40 103 24 105
REMARK SMILES IDX 25 106 33 107 26 108 27 109 31 110 34 111 28 112 29 113
REMARK SMILES IDX 32 114 30 115 56 116 57 117 65 118 58 119 59 120 63 121
REMARK SMILES IDX 66 122 60 123 61 124 64 125 62 126 41 127 42 128 50 129
REMARK SMILES IDX 43 130 44 131 48 132 51 133 45 134 46 135 49 136 47 137
REMARK H PARENT 8 2 8 3 7 5 7 6 6 8 6 9 5 13 2 15 1 17 1 18 1 19 79 24 80 27
REMARK H PARENT 89 28 82 33 82 34 83 38 84 40 84 41 85 44 85 45 86 46 86 47
REMARK H PARENT 9 49 9 50 10 52 10 53 11 55 11 56 12 59 16 65 77 67 17 69
REMARK H PARENT 76 70 75 80 69 82 71 84 74 86 68 87 36 96 39 98 72 101 37 102
REMARK H PARENT 73 104
REMARK Flexibility Score: inf
ROOT
ATOM      1  C   UNL A   1      32.808  30.190  26.113  1.00  0.00    -0.052 C 
ATOM      2  H   UNL A   1      33.480  31.008  25.953  1.00  0.00     0.027 H 
ATOM      3  H   UNL A   1      33.039  29.621  26.989  1.00  0.00     0.027 H 
ENDROOT
BRANCH   1   4
ATOM      4  C   UNL A   1      32.936  29.228  24.925  1.00  0.00    -0.036 C 
ATOM      5  H   UNL A   1      31.959  29.055  24.524  1.00  0.00     0.028 H 
ATOM      6  H   UNL A   1      33.593  29.691  24.219  1.00  0.00     0.028 H 
BRANCH   4   7
ATOM      7  C   UNL A   1      33.554  27.873  25.291  1.00  0.00     0.017 C 
ATOM      8  H   UNL A   1      33.743  27.315  24.398  1.00  0.00     0.049 H 
ATOM      9  H   UNL A   1      34.473  28.031  25.815  1.00  0.00     0.049 H 
BRANCH   7  10
ATOM     10  N   UNL A   1      32.639  27.135  26.136  1.00  0.00    -0.356 N 
ATOM     11  C   UNL A   1      31.386  26.672  25.854  1.00  0.00     0.227 C 
ATOM     12  O   UNL A   1      30.656  26.438  26.820  1.00  0.00    -0.274 OA
ATOM     13  H   UNL A   1      32.967  26.940  27.044  1.00  0.00     0.163 HD
BRANCH  11  14
ATOM     14  C   UNL A   1      30.965  26.397  24.388  1.00  0.00     0.067 C 
ATOM     15  H   UNL A   1      31.500  27.029  23.710  1.00  0.00     0.045 H 
BRANCH  14  16
ATOM     16  C   UNL A   1      29.500  26.784  24.188  1.00  0.00    -0.049 C 
ATOM     17  H   UNL A   1      29.373  27.211  23.216  1.00  0.00     0.024 H 
ATOM     18  H   UNL A   1      29.214  27.498  24.931  1.00  0.00     0.024 H 
ATOM     19  H   UNL A   1      28.886  25.912  24.278  1.00  0.00     0.024 H 
ENDBRANCH  14  16
BRANCH  14  20
ATOM     20  C   UNL A   1      31.391  24.988  23.936  1.00  0.00     0.042 A 
ATOM     21  C   UNL A   1      31.112  23.929  24.830  1.00  0.00    -0.051 A 
ATOM     22  C   UNL A   1      32.060  24.628  22.750  1.00  0.00     0.273 A 
ATOM     23  C   UNL A   1      31.444  22.599  24.546  1.00  0.00    -0.058 A 
ATOM     24  H   UNL A   1      30.645  24.144  25.724  1.00  0.00     0.063 H 
ATOM     25  C   UNL A   1      32.446  23.300  22.487  1.00  0.00     0.019 A 
ATOM     26  C   UNL A   1      32.146  22.275  23.386  1.00  0.00    -0.040 A 
ATOM     27  H   UNL A   1      31.169  21.853  25.202  1.00  0.00     0.063 H 
ATOM     28  H   UNL A   1      32.958  23.082  21.619  1.00  0.00     0.070 H 
BRANCH  22  29
ATOM     29  N   UNL A   1      32.390  25.563  21.716  1.00  0.00     0.063 N 
ATOM     30  O   UNL A   1      31.527  25.987  20.976  1.00  0.00    -0.258 OA
ATOM     31  O   UNL A   1      33.655  26.089  21.628  1.00  0.00    -0.258 OA
ENDBRANCH  22  29
BRANCH  26  32
ATOM     32  C   UNL A   1      32.570  20.856  23.098  1.00  0.00    -0.018 C 
ATOM     33  H   UNL A   1      33.494  20.894  22.561  1.00  0.00     0.032 H 
ATOM     34  H   UNL A   1      31.758  20.422  22.554  1.00  0.00     0.032 H 
BRANCH  32  35
ATOM     35  C   UNL A   1      32.776  19.944  24.314  1.00  0.00     0.022 C 
ATOM     36  C   UNL A   1      32.400  18.469  24.136  1.00  0.00    -0.043 C 
ATOM     37  C   UNL A   1      34.225  19.853  24.731  1.00  0.00     0.136 C 
ATOM     38  H   UNL A   1      32.129  20.420  25.020  1.00  0.00     0.039 H 
ATOM     39  C   UNL A   1      33.698  17.732  23.829  1.00  0.00    -0.046 C 
ATOM     40  H   UNL A   1      31.710  18.358  23.326  1.00  0.00     0.027 H 
ATOM     41  H   UNL A   1      31.929  18.078  25.014  1.00  0.00     0.027 H 
ATOM     42  C   UNL A   1      34.774  18.455  24.627  1.00  0.00     0.006 C 
ATOM     43  O   UNL A   1      34.882  20.809  25.126  1.00  0.00    -0.299 OA
ATOM     44  H   UNL A   1      33.915  17.775  22.783  1.00  0.00     0.027 H 
ATOM     45  H   UNL A   1      33.638  16.696  24.092  1.00  0.00     0.027 H 
ATOM     46  H   UNL A   1      35.710  18.446  24.108  1.00  0.00     0.035 H 
ATOM     47  H   UNL A   1      34.972  18.006  25.577  1.00  0.00     0.035 H 
ENDBRANCH  32  35
ENDBRANCH  26  32
ENDBRANCH  14  20
ENDBRANCH  11  14
ENDBRANCH   7  10
ENDBRANCH   4   7
ENDBRANCH   1   4
BRANCH   1  48
ATOM     48  C   UNL A   1      31.405  30.761  26.326  1.00  0.00    -0.052 C 
ATOM     49  H   UNL A   1      30.981  30.291  27.188  1.00  0.00     0.027 H 
ATOM     50  H   UNL A   1      30.859  30.564  25.427  1.00  0.00     0.027 H 
BRANCH  48  51
ATOM     51  C   UNL A   1      31.354  32.277  26.537  1.00  0.00    -0.036 C 
ATOM     52  H   UNL A   1      30.603  32.488  27.268  1.00  0.00     0.028 H 
ATOM     53  H   UNL A   1      31.142  32.709  25.580  1.00  0.00     0.028 H 
BRANCH  51  54
ATOM     54  C   UNL A   1      32.666  32.897  27.009  1.00  0.00     0.018 C 
ATOM     55  H   UNL A   1      33.317  33.014  26.167  1.00  0.00     0.049 H 
ATOM     56  H   UNL A   1      33.097  32.247  27.741  1.00  0.00     0.049 H 
BRANCH  54  57
ATOM     57  N   UNL A   1      32.460  34.196  27.626  1.00  0.00    -0.352 N 
ATOM     58  C   UNL A   1      33.057  34.747  28.731  1.00  0.00     0.251 C 
ATOM     59  H   UNL A   1      31.790  34.767  27.185  1.00  0.00     0.163 HD
ATOM     60  O   UNL A   1      32.596  35.768  29.230  1.00  0.00    -0.269 OA
BRANCH  58  61
ATOM     61  C   UNL A   1      34.248  34.110  29.335  1.00  0.00     0.039 A 
ATOM     62  C   UNL A   1      34.056  33.144  30.326  1.00  0.00    -0.049 A 
ATOM     63  C   UNL A   1      35.543  34.491  28.970  1.00  0.00    -0.049 A 
ATOM     64  C   UNL A   1      35.160  32.530  30.919  1.00  0.00    -0.053 A 
ATOM     65  H   UNL A   1      33.101  32.885  30.618  1.00  0.00     0.063 H 
ATOM     66  C   UNL A   1      36.644  33.833  29.516  1.00  0.00    -0.053 A 
ATOM     67  H   UNL A   1      35.684  35.259  28.295  1.00  0.00     0.063 H 
ATOM     68  C   UNL A   1      36.463  32.853  30.502  1.00  0.00    -0.014 A 
ATOM     69  H   UNL A   1      35.019  31.835  31.668  1.00  0.00     0.063 H 
ATOM     70  H   UNL A   1      37.596  34.069  29.194  1.00  0.00     0.063 H 
BRANCH  68  71
ATOM     71  C   UNL A   1      37.634  32.161  31.097  1.00  0.00     0.031 A 
ATOM     72  C   UNL A   1      38.112  32.515  32.478  1.00  0.00     0.074 A 
ATOM     73  C   UNL A   1      38.284  31.225  30.378  1.00  0.00     0.049 A 
ATOM     74  N   UNL A   1      39.110  32.013  33.162  1.00  0.00    -0.248 NA
ATOM     75  C   UNL A   1      37.387  33.588  33.176  1.00  0.00    -0.034 C 
ATOM     76  C   UNL A   1      37.952  30.837  29.006  1.00  0.00    -0.036 A 
ATOM     77  N   UNL A   1      39.357  30.433  30.698  1.00  0.00    -0.354 N 
ATOM     78  C   UNL A   1      39.129  32.703  34.367  1.00  0.00     0.074 A 
ATOM     79  C   UNL A   1      38.084  33.701  34.299  1.00  0.00    -0.034 C 
ATOM     80  H   UNL A   1      36.553  34.115  32.872  1.00  0.00     0.065 H 
ATOM     81  C   UNL A   1      38.790  29.866  28.610  1.00  0.00    -0.036 A 
ATOM     82  H   UNL A   1      37.196  31.245  28.434  1.00  0.00     0.065 H 
ATOM     83  C   UNL A   1      39.730  29.580  29.689  1.00  0.00     0.049 A 
ATOM     84  H   UNL A   1      39.815  30.472  31.569  1.00  0.00     0.167 HD
ATOM     85  C   UNL A   1      39.927  32.503  35.443  1.00  0.00     0.037 A 
ATOM     86  H   UNL A   1      37.903  34.408  35.029  1.00  0.00     0.065 H 
ATOM     87  H   UNL A   1      38.772  29.397  27.691  1.00  0.00     0.065 H 
ATOM     88  C   UNL A   1      40.719  28.667  29.642  1.00  0.00     0.037 A 
ATOM     89  C   UNL A   1      40.961  31.503  35.514  1.00  0.00     0.049 A 
ATOM     90  C   UNL A   1      41.580  28.455  30.857  1.00  0.00     0.074 A 
ATOM     91  C   UNL A   1      41.803  31.203  36.570  1.00  0.00    -0.036 A 
ATOM     92  N   UNL A   1      41.290  30.637  34.482  1.00  0.00    -0.354 N 
ATOM     93  N   UNL A   1      41.546  29.072  32.013  1.00  0.00    -0.248 NA
ATOM     94  C   UNL A   1      42.607  27.409  30.764  1.00  0.00    -0.034 C 
ATOM     95  C   UNL A   1      42.665  30.177  36.166  1.00  0.00    -0.036 A 
ATOM     96  H   UNL A   1      41.797  31.657  37.497  1.00  0.00     0.065 H 
ATOM     97  C   UNL A   1      42.330  29.809  34.874  1.00  0.00     0.049 A 
ATOM     98  H   UNL A   1      40.851  30.614  33.602  1.00  0.00     0.167 HD
ATOM     99  C   UNL A   1      42.531  28.478  32.791  1.00  0.00     0.074 A 
ATOM    100  C   UNL A   1      43.126  27.433  31.984  1.00  0.00    -0.034 C 
ATOM    101  H   UNL A   1      42.860  26.811  29.962  1.00  0.00     0.065 H 
ATOM    102  H   UNL A   1      43.422  29.765  36.735  1.00  0.00     0.065 H 
ATOM    103  C   UNL A   1      42.912  28.774  34.057  1.00  0.00     0.037 A 
ATOM    104  H   UNL A   1      43.861  26.790  32.317  1.00  0.00     0.065 H 
BRANCH  85 105
ATOM    105  C   UNL A   1      39.702  33.375  36.645  1.00  0.00     0.064 A 
ATOM    106  C   UNL A   1      40.363  34.605  36.787  1.00  0.00     0.173 A 
ATOM    107  C   UNL A   1      38.784  33.004  37.639  1.00  0.00     0.173 A 
ATOM    108  F   UNL A   1      41.258  35.000  35.870  1.00  0.00    -0.203 F 
ATOM    109  C   UNL A   1      40.129  35.421  37.890  1.00  0.00     0.198 A 
ATOM    110  C   UNL A   1      38.533  33.836  38.727  1.00  0.00     0.198 A 
ATOM    111  F   UNL A   1      38.122  31.842  37.549  1.00  0.00    -0.203 F 
ATOM    112  F   UNL A   1      40.801  36.573  38.024  1.00  0.00    -0.200 F 
ATOM    113  C   UNL A   1      39.208  35.041  38.855  1.00  0.00     0.200 A 
ATOM    114  F   UNL A   1      37.634  33.473  39.653  1.00  0.00    -0.200 F 
ATOM    115  F   UNL A   1      38.977  35.833  39.911  1.00  0.00    -0.200 F 
ENDBRANCH  85 105
BRANCH  88 116
ATOM    116  C   UNL A   1      40.930  27.866  28.409  1.00  0.00     0.064 A 
ATOM    117  C   UNL A   1      40.298  26.627  28.233  1.00  0.00     0.173 A 
ATOM    118  C   UNL A   1      41.779  28.316  27.387  1.00  0.00     0.173 A 
ATOM    119  F   UNL A   1      39.492  26.146  29.190  1.00  0.00    -0.203 F 
ATOM    120  C   UNL A   1      40.526  25.858  27.094  1.00  0.00     0.198 A 
ATOM    121  C   UNL A   1      41.983  27.560  26.235  1.00  0.00     0.198 A 
ATOM    122  F   UNL A   1      42.403  29.498  27.504  1.00  0.00    -0.203 F 
ATOM    123  F   UNL A   1      39.947  24.655  26.974  1.00  0.00    -0.200 F 
ATOM    124  C   UNL A   1      41.365  26.327  26.094  1.00  0.00     0.200 A 
ATOM    125  F   UNL A   1      42.784  28.023  25.266  1.00  0.00    -0.200 F 
ATOM    126  F   UNL A   1      41.583  25.587  24.999  1.00  0.00    -0.200 F 
ENDBRANCH  88 116
BRANCH 103 127
ATOM    127  C   UNL A   1      44.013  27.944  34.649  1.00  0.00     0.064 A 
ATOM    128  C   UNL A   1      45.357  28.333  34.553  1.00  0.00     0.173 A 
ATOM    129  C   UNL A   1      43.719  26.755  35.332  1.00  0.00     0.173 A 
ATOM    130  F   UNL A   1      45.690  29.455  33.896  1.00  0.00    -0.203 F 
ATOM    131  C   UNL A   1      46.369  27.544  35.091  1.00  0.00     0.198 A 
ATOM    132  C   UNL A   1      44.732  25.983  35.894  1.00  0.00     0.198 A 
ATOM    133  F   UNL A   1      42.448  26.342  35.457  1.00  0.00    -0.203 F 
ATOM    134  F   UNL A   1      47.651  27.906  34.939  1.00  0.00    -0.200 F 
ATOM    135  C   UNL A   1      46.056  26.372  35.764  1.00  0.00     0.200 A 
ATOM    136  F   UNL A   1      44.426  24.858  36.554  1.00  0.00    -0.200 F 
ATOM    137  F   UNL A   1      47.033  25.613  36.280  1.00  0.00    -0.200 F 
ENDBRANCH 103 127
ENDBRANCH  68  71
ENDBRANCH  58  61
ENDBRANCH  54  57
ENDBRANCH  51  54
ENDBRANCH  48  51
ENDBRANCH   1  48
TORSDOF 18
ENDMDL
