MODEL 1
REMARK VINA RESULT:     -11.6      0.000      0.000
REMARK SMILES C[C@@H](C(=O)NCCCCCCNC(=O)c1ccc(-c2c3nc(c(-c4c(F)c(F)c(F)c(F)c4F)c4ccc([nH]4)c(-c4c(F)c(F)c(F)c(F)c4F)c4nc(c(-c5c(F)c(F)c(F)c(F)c5F)c5ccc2[nH]5)C=C4)C=C3)cc1)c1ccc(C[C@H]2CCC[C@@H]2O)cc1
REMARK SMILES IDX 7 1 6 4 5 7 3 8 4 9 2 11 1 13 78 17 79 18 90 19 80 20 89 22
REMARK SMILES IDX 81 24 82 27 83 30 84 31 87 32 85 34 86 37 88 43 8 45 9 48
REMARK SMILES IDX 10 51 11 54 12 57 13 58 14 60 15 61 16 62 77 63 17 64 76 66
REMARK SMILES IDX 18 68 19 71 20 72 70 73 21 74 75 75 69 76 71 77 22 78 74 79
REMARK SMILES IDX 68 81 67 83 23 85 55 88 35 89 54 90 36 91 39 92 53 93 72 94
REMARK SMILES IDX 37 95 38 97 52 99 73 100 40 103 24 105 25 106 33 107 26 108
REMARK SMILES IDX 27 109 31 110 34 111 28 112 29 113 32 114 30 115 56 116
REMARK SMILES IDX 57 117 65 118 58 119 59 120 63 121 66 122 60 123 61 124
REMARK SMILES IDX 64 125 62 126 41 127 42 128 50 129 43 130 44 131 48 132
REMARK SMILES IDX 51 133 45 134 46 135 49 136 47 137
REMARK H PARENT 7 2 7 3 6 5 6 6 5 10 2 12 1 14 1 15 1 16 79 21 90 23 80 25
REMARK H PARENT 89 26 82 28 82 29 83 33 84 35 84 36 87 38 85 39 85 40 86 41
REMARK H PARENT 86 42 88 44 8 46 8 47 9 49 9 50 10 52 10 53 11 55 11 56 12 59
REMARK H PARENT 16 65 77 67 17 69 76 70 75 80 69 82 71 84 74 86 68 87 36 96
REMARK H PARENT 39 98 72 101 37 102 73 104
REMARK Flexibility Score: inf
ROOT
ATOM      1  C   UNL A   1      34.774  25.286  25.453  1.00  0.00    -0.036 C 
ATOM      2  H   UNL A   1      35.447  25.451  24.638  1.00  0.00     0.028 H 
ATOM      3  H   UNL A   1      35.280  25.209  26.393  1.00  0.00     0.028 H 
ENDROOT
BRANCH   1   4
ATOM      4  C   UNL A   1      34.059  23.952  25.224  1.00  0.00     0.017 C 
ATOM      5  H   UNL A   1      33.427  24.033  24.364  1.00  0.00     0.049 H 
ATOM      6  H   UNL A   1      34.790  23.186  25.070  1.00  0.00     0.049 H 
BRANCH   4   7
ATOM      7  N   UNL A   1      33.255  23.611  26.375  1.00  0.00    -0.356 N 
ATOM      8  C   UNL A   1      31.906  23.458  26.497  1.00  0.00     0.227 C 
ATOM      9  O   UNL A   1      31.483  23.320  27.645  1.00  0.00    -0.274 OA
ATOM     10  H   UNL A   1      33.763  23.467  27.206  1.00  0.00     0.163 HD
BRANCH   8  11
ATOM     11  C   UNL A   1      31.029  23.411  25.236  1.00  0.00     0.060 C 
ATOM     12  H   UNL A   1      30.084  23.087  25.620  1.00  0.00     0.045 H 
BRANCH  11  13
ATOM     13  C   UNL A   1      31.526  22.417  24.179  1.00  0.00    -0.049 C 
ATOM     14  H   UNL A   1      30.690  21.911  23.744  1.00  0.00     0.024 H 
ATOM     15  H   UNL A   1      32.176  21.703  24.640  1.00  0.00     0.024 H 
ATOM     16  H   UNL A   1      32.060  22.946  23.417  1.00  0.00     0.024 H 
ENDBRANCH  11  13
BRANCH  11  17
ATOM     17  C   UNL A   1      30.860  24.761  24.550  1.00  0.00    -0.036 A 
ATOM     18  C   UNL A   1      30.294  25.833  25.251  1.00  0.00    -0.058 A 
ATOM     19  C   UNL A   1      31.155  24.926  23.188  1.00  0.00    -0.058 A 
ATOM     20  C   UNL A   1      29.988  27.024  24.592  1.00  0.00    -0.059 A 
ATOM     21  H   UNL A   1      30.102  25.742  26.260  1.00  0.00     0.063 H 
ATOM     22  C   UNL A   1      30.851  26.116  22.532  1.00  0.00    -0.059 A 
ATOM     23  H   UNL A   1      31.603  24.157  22.667  1.00  0.00     0.063 H 
ATOM     24  C   UNL A   1      30.216  27.156  23.217  1.00  0.00    -0.048 A 
ATOM     25  H   UNL A   1      29.589  27.814  25.122  1.00  0.00     0.063 H 
ATOM     26  H   UNL A   1      31.096  26.230  21.537  1.00  0.00     0.063 H 
BRANCH  24  27
ATOM     27  C   UNL A   1      29.712  28.359  22.458  1.00  0.00    -0.023 C 
ATOM     28  H   UNL A   1      29.047  28.015  21.694  1.00  0.00     0.032 H 
ATOM     29  H   UNL A   1      30.579  28.854  22.072  1.00  0.00     0.032 H 
BRANCH  27  30
ATOM     30  C   UNL A   1      28.964  29.397  23.314  1.00  0.00    -0.011 C 
ATOM     31  C   UNL A   1      29.710  30.709  23.613  1.00  0.00    -0.048 C 
ATOM     32  C   UNL A   1      27.614  29.854  22.754  1.00  0.00     0.057 C 
ATOM     33  H   UNL A   1      28.855  28.813  24.204  1.00  0.00     0.033 H 
ATOM     34  C   UNL A   1      28.643  31.810  23.629  1.00  0.00    -0.050 C 
ATOM     35  H   UNL A   1      30.435  30.907  22.851  1.00  0.00     0.027 H 
ATOM     36  H   UNL A   1      30.234  30.659  24.544  1.00  0.00     0.027 H 
ATOM     37  C   UNL A   1      27.307  31.085  23.592  1.00  0.00    -0.027 C 
ATOM     38  H   UNL A   1      27.632  30.059  21.704  1.00  0.00     0.060 H 
ATOM     39  H   UNL A   1      28.747  32.445  22.774  1.00  0.00     0.027 H 
ATOM     40  H   UNL A   1      28.731  32.433  24.495  1.00  0.00     0.027 H 
ATOM     41  H   UNL A   1      26.554  31.689  23.128  1.00  0.00     0.029 H 
ATOM     42  H   UNL A   1      26.924  30.852  24.563  1.00  0.00     0.029 H 
BRANCH  32  43
ATOM     43  O   UNL A   1      26.631  28.850  22.908  1.00  0.00    -0.393 OA
ATOM     44  H   UNL A   1      26.683  28.480  23.803  1.00  0.00     0.210 HD
ENDBRANCH  32  43
ENDBRANCH  27  30
ENDBRANCH  24  27
ENDBRANCH  11  17
ENDBRANCH   8  11
ENDBRANCH   4   7
ENDBRANCH   1   4
BRANCH   1  45
ATOM     45  C   UNL A   1      33.829  26.491  25.552  1.00  0.00    -0.052 C 
ATOM     46  H   UNL A   1      34.131  27.083  26.391  1.00  0.00     0.027 H 
ATOM     47  H   UNL A   1      32.841  26.091  25.652  1.00  0.00     0.027 H 
BRANCH  45  48
ATOM     48  C   UNL A   1      33.805  27.394  24.315  1.00  0.00    -0.052 C 
ATOM     49  H   UNL A   1      33.157  26.948  23.589  1.00  0.00     0.027 H 
ATOM     50  H   UNL A   1      34.817  27.476  23.980  1.00  0.00     0.027 H 
BRANCH  48  51
ATOM     51  C   UNL A   1      33.316  28.818  24.581  1.00  0.00    -0.036 C 
ATOM     52  H   UNL A   1      32.379  28.950  24.084  1.00  0.00     0.028 H 
ATOM     53  H   UNL A   1      34.075  29.478  24.215  1.00  0.00     0.028 H 
BRANCH  51  54
ATOM     54  C   UNL A   1      33.127  29.142  26.055  1.00  0.00     0.018 C 
ATOM     55  H   UNL A   1      34.019  28.880  26.584  1.00  0.00     0.049 H 
ATOM     56  H   UNL A   1      32.287  28.582  26.413  1.00  0.00     0.049 H 
BRANCH  54  57
ATOM     57  N   UNL A   1      32.849  30.553  26.270  1.00  0.00    -0.352 N 
ATOM     58  C   UNL A   1      33.456  31.425  27.134  1.00  0.00     0.251 C 
ATOM     59  H   UNL A   1      32.127  30.933  25.719  1.00  0.00     0.163 HD
ATOM     60  O   UNL A   1      32.967  32.532  27.348  1.00  0.00    -0.269 OA
BRANCH  58  61
ATOM     61  C   UNL A   1      34.700  31.022  27.822  1.00  0.00     0.039 A 
ATOM     62  C   UNL A   1      35.736  31.947  27.949  1.00  0.00    -0.049 A 
ATOM     63  C   UNL A   1      34.841  29.729  28.334  1.00  0.00    -0.049 A 
ATOM     64  C   UNL A   1      36.905  31.586  28.620  1.00  0.00    -0.053 A 
ATOM     65  H   UNL A   1      35.640  32.893  27.547  1.00  0.00     0.063 H 
ATOM     66  C   UNL A   1      35.966  29.399  29.079  1.00  0.00    -0.053 A 
ATOM     67  H   UNL A   1      34.112  29.020  28.157  1.00  0.00     0.063 H 
ATOM     68  C   UNL A   1      37.021  30.315  29.208  1.00  0.00    -0.014 A 
ATOM     69  H   UNL A   1      37.687  32.255  28.686  1.00  0.00     0.063 H 
ATOM     70  H   UNL A   1      36.026  28.478  29.540  1.00  0.00     0.063 H 
BRANCH  68  71
ATOM     71  C   UNL A   1      38.257  29.907  29.919  1.00  0.00     0.031 A 
ATOM     72  C   UNL A   1      38.522  30.417  31.309  1.00  0.00     0.074 A 
ATOM     73  C   UNL A   1      39.162  29.125  29.301  1.00  0.00     0.049 A 
ATOM     74  N   UNL A   1      39.558  30.218  32.084  1.00  0.00    -0.248 NA
ATOM     75  C   UNL A   1      37.498  31.298  31.894  1.00  0.00    -0.034 C 
ATOM     76  C   UNL A   1      39.037  28.600  27.941  1.00  0.00    -0.036 A 
ATOM     77  N   UNL A   1      40.366  28.635  29.738  1.00  0.00    -0.354 N 
ATOM     78  C   UNL A   1      39.320  30.963  33.231  1.00  0.00     0.074 A 
ATOM     79  C   UNL A   1      38.074  31.669  33.026  1.00  0.00    -0.034 C 
ATOM     80  H   UNL A   1      36.573  31.558  31.520  1.00  0.00     0.065 H 
ATOM     81  C   UNL A   1      40.104  27.833  27.667  1.00  0.00    -0.036 A 
ATOM     82  H   UNL A   1      38.254  28.790  27.295  1.00  0.00     0.065 H 
ATOM     83  C   UNL A   1      41.005  27.843  28.816  1.00  0.00     0.049 A 
ATOM     84  H   UNL A   1      40.738  28.833  30.628  1.00  0.00     0.167 HD
ATOM     85  C   UNL A   1      40.059  31.033  34.364  1.00  0.00     0.037 A 
ATOM     86  H   UNL A   1      37.687  32.369  33.678  1.00  0.00     0.065 H 
ATOM     87  H   UNL A   1      40.262  27.318  26.787  1.00  0.00     0.065 H 
ATOM     88  C   UNL A   1      42.185  27.199  28.893  1.00  0.00     0.037 A 
ATOM     89  C   UNL A   1      41.284  30.306  34.571  1.00  0.00     0.049 A 
ATOM     90  C   UNL A   1      42.994  27.299  30.159  1.00  0.00     0.074 A 
ATOM     91  C   UNL A   1      42.077  30.254  35.703  1.00  0.00    -0.036 A 
ATOM     92  N   UNL A   1      41.898  29.508  33.615  1.00  0.00    -0.354 N 
ATOM     93  N   UNL A   1      42.725  27.946  31.267  1.00  0.00    -0.248 NA
ATOM     94  C   UNL A   1      44.267  26.567  30.185  1.00  0.00    -0.034 C 
ATOM     95  C   UNL A   1      43.202  29.475  35.413  1.00  0.00    -0.036 A 
ATOM     96  H   UNL A   1      41.873  30.709  36.606  1.00  0.00     0.065 H 
ATOM     97  C   UNL A   1      43.076  28.982  34.123  1.00  0.00     0.049 A 
ATOM     98  H   UNL A   1      41.548  29.340  32.710  1.00  0.00     0.167 HD
ATOM     99  C   UNL A   1      43.770  27.666  32.137  1.00  0.00     0.074 A 
ATOM    100  C   UNL A   1      44.675  26.786  31.428  1.00  0.00    -0.034 C 
ATOM    101  H   UNL A   1      44.724  26.026  29.435  1.00  0.00     0.065 H 
ATOM    102  H   UNL A   1      43.994  29.297  36.051  1.00  0.00     0.065 H 
ATOM    103  C   UNL A   1      43.960  28.095  33.409  1.00  0.00     0.037 A 
ATOM    104  H   UNL A   1      45.531  26.378  31.838  1.00  0.00     0.065 H 
BRANCH  85 105
ATOM    105  C   UNL A   1      39.565  31.938  35.459  1.00  0.00     0.064 A 
ATOM    106  C   UNL A   1      38.655  31.498  36.434  1.00  0.00     0.173 A 
ATOM    107  C   UNL A   1      40.011  33.265  35.536  1.00  0.00     0.173 A 
ATOM    108  F   UNL A   1      38.186  30.241  36.403  1.00  0.00    -0.203 F 
ATOM    109  C   UNL A   1      38.175  32.365  37.413  1.00  0.00     0.198 A 
ATOM    110  C   UNL A   1      39.560  34.119  36.539  1.00  0.00     0.198 A 
ATOM    111  F   UNL A   1      40.885  33.740  34.635  1.00  0.00    -0.203 F 
ATOM    112  F   UNL A   1      37.252  31.941  38.287  1.00  0.00    -0.200 F 
ATOM    113  C   UNL A   1      38.633  33.673  37.469  1.00  0.00     0.200 A 
ATOM    114  F   UNL A   1      40.015  35.378  36.601  1.00  0.00    -0.200 F 
ATOM    115  F   UNL A   1      38.171  34.507  38.410  1.00  0.00    -0.200 F 
ENDBRANCH  85 105
BRANCH  88 116
ATOM    116  C   UNL A   1      42.648  26.362  27.755  1.00  0.00     0.064 A 
ATOM    117  C   UNL A   1      43.552  26.871  26.812  1.00  0.00     0.173 A 
ATOM    118  C   UNL A   1      42.203  25.043  27.585  1.00  0.00     0.173 A 
ATOM    119  F   UNL A   1      43.992  28.133  26.921  1.00  0.00    -0.203 F 
ATOM    120  C   UNL A   1      43.979  26.101  25.733  1.00  0.00     0.198 A 
ATOM    121  C   UNL A   1      42.653  24.263  26.522  1.00  0.00     0.198 A 
ATOM    122  F   UNL A   1      41.343  24.506  28.463  1.00  0.00    -0.203 F 
ATOM    123  F   UNL A   1      44.808  26.629  24.823  1.00  0.00    -0.200 F 
ATOM    124  C   UNL A   1      43.535  24.795  25.592  1.00  0.00     0.200 A 
ATOM    125  F   UNL A   1      42.234  22.997  26.398  1.00  0.00    -0.200 F 
ATOM    126  F   UNL A   1      43.949  24.052  24.557  1.00  0.00    -0.200 F 
ENDBRANCH  88 116
BRANCH 103 127
ATOM    127  C   UNL A   1      45.162  27.569  34.144  1.00  0.00     0.064 A 
ATOM    128  C   UNL A   1      46.390  28.246  34.144  1.00  0.00     0.173 A 
ATOM    129  C   UNL A   1      45.067  26.382  34.888  1.00  0.00     0.173 A 
ATOM    130  F   UNL A   1      46.538  29.377  33.438  1.00  0.00    -0.203 F 
ATOM    131  C   UNL A   1      47.487  27.736  34.834  1.00  0.00     0.198 A 
ATOM    132  C   UNL A   1      46.155  25.895  35.607  1.00  0.00     0.198 A 
ATOM    133  F   UNL A   1      43.913  25.699  34.929  1.00  0.00    -0.203 F 
ATOM    134  F   UNL A   1      48.667  28.369  34.771  1.00  0.00    -0.200 F 
ATOM    135  C   UNL A   1      47.367  26.566  35.570  1.00  0.00     0.200 A 
ATOM    136  F   UNL A   1      46.031  24.775  36.332  1.00  0.00    -0.200 F 
ATOM    137  F   UNL A   1      48.423  26.083  36.239  1.00  0.00    -0.200 F 
ENDBRANCH 103 127
ENDBRANCH  68  71
ENDBRANCH  58  61
ENDBRANCH  54  57
ENDBRANCH  51  54
ENDBRANCH  48  51
ENDBRANCH  45  48
ENDBRANCH   1  45
TORSDOF 18
ENDMDL
MODEL 2
REMARK VINA RESULT:     -11.6      2.044      7.837
REMARK SMILES C[C@@H](C(=O)NCCCCCCNC(=O)c1ccc(-c2c3nc(c(-c4c(F)c(F)c(F)c(F)c4F)c4ccc([nH]4)c(-c4c(F)c(F)c(F)c(F)c4F)c4nc(c(-c5c(F)c(F)c(F)c(F)c5F)c5ccc2[nH]5)C=C4)C=C3)cc1)c1ccc(C[C@H]2CCC[C@@H]2O)cc1
REMARK SMILES IDX 7 1 6 4 5 7 3 8 4 9 2 11 1 13 78 17 79 18 90 19 80 20 89 22
REMARK SMILES IDX 81 24 82 27 83 30 84 31 87 32 85 34 86 37 88 43 8 45 9 48
REMARK SMILES IDX 10 51 11 54 12 57 13 58 14 60 15 61 16 62 77 63 17 64 76 66
REMARK SMILES IDX 18 68 19 71 20 72 70 73 21 74 75 75 69 76 71 77 22 78 74 79
REMARK SMILES IDX 68 81 67 83 23 85 55 88 35 89 54 90 36 91 39 92 53 93 72 94
REMARK SMILES IDX 37 95 38 97 52 99 73 100 40 103 24 105 25 106 33 107 26 108
REMARK SMILES IDX 27 109 31 110 34 111 28 112 29 113 32 114 30 115 56 116
REMARK SMILES IDX 57 117 65 118 58 119 59 120 63 121 66 122 60 123 61 124
REMARK SMILES IDX 64 125 62 126 41 127 42 128 50 129 43 130 44 131 48 132
REMARK SMILES IDX 51 133 45 134 46 135 49 136 47 137
REMARK H PARENT 7 2 7 3 6 5 6 6 5 10 2 12 1 14 1 15 1 16 79 21 90 23 80 25
REMARK H PARENT 89 26 82 28 82 29 83 33 84 35 84 36 87 38 85 39 85 40 86 41
REMARK H PARENT 86 42 88 44 8 46 8 47 9 49 9 50 10 52 10 53 11 55 11 56 12 59
REMARK H PARENT 16 65 77 67 17 69 76 70 75 80 69 82 71 84 74 86 68 87 36 96
REMARK H PARENT 39 98 72 101 37 102 73 104
REMARK Flexibility Score: inf
ROOT
ATOM      1  C   UNL A   1      32.206  28.480  26.706  1.00  0.00    -0.036 C 
ATOM      2  H   UNL A   1      31.882  27.867  27.521  1.00  0.00     0.028 H 
ATOM      3  H   UNL A   1      31.624  28.327  25.821  1.00  0.00     0.028 H 
ENDROOT
BRANCH   1   4
ATOM      4  C   UNL A   1      33.648  28.097  26.360  1.00  0.00     0.017 C 
ATOM      5  H   UNL A   1      34.007  28.738  25.583  1.00  0.00     0.049 H 
ATOM      6  H   UNL A   1      34.256  28.205  27.234  1.00  0.00     0.049 H 
BRANCH   4   7
ATOM      7  N   UNL A   1      33.707  26.725  25.912  1.00  0.00    -0.356 N 
ATOM      8  C   UNL A   1      33.461  26.185  24.685  1.00  0.00     0.227 C 
ATOM      9  O   UNL A   1      33.436  24.955  24.636  1.00  0.00    -0.274 OA
ATOM     10  H   UNL A   1      33.966  26.075  26.604  1.00  0.00     0.163 HD
BRANCH   8  11
ATOM     11  C   UNL A   1      33.292  27.107  23.468  1.00  0.00     0.060 C 
ATOM     12  H   UNL A   1      33.616  26.488  22.657  1.00  0.00     0.045 H 
BRANCH  11  13
ATOM     13  C   UNL A   1      34.156  28.372  23.532  1.00  0.00    -0.049 C 
ATOM     14  H   UNL A   1      35.186  28.096  23.619  1.00  0.00     0.024 H 
ATOM     15  H   UNL A   1      33.870  28.957  24.380  1.00  0.00     0.024 H 
ATOM     16  H   UNL A   1      34.015  28.945  22.639  1.00  0.00     0.024 H 
ENDBRANCH  11  13
BRANCH  11  17
ATOM     17  C   UNL A   1      31.854  27.549  23.223  1.00  0.00    -0.036 A 
ATOM     18  C   UNL A   1      31.589  28.858  22.803  1.00  0.00    -0.058 A 
ATOM     19  C   UNL A   1      30.773  26.704  23.519  1.00  0.00    -0.058 A 
ATOM     20  C   UNL A   1      30.276  29.323  22.728  1.00  0.00    -0.059 A 
ATOM     21  H   UNL A   1      32.369  29.483  22.547  1.00  0.00     0.063 H 
ATOM     22  C   UNL A   1      29.463  27.169  23.442  1.00  0.00    -0.059 A 
ATOM     23  H   UNL A   1      30.952  25.727  23.798  1.00  0.00     0.063 H 
ATOM     24  C   UNL A   1      29.206  28.499  23.097  1.00  0.00    -0.048 A 
ATOM     25  H   UNL A   1      30.092  30.283  22.398  1.00  0.00     0.063 H 
ATOM     26  H   UNL A   1      28.679  26.529  23.641  1.00  0.00     0.063 H 
BRANCH  24  27
ATOM     27  C   UNL A   1      27.805  29.047  23.207  1.00  0.00    -0.023 C 
ATOM     28  H   UNL A   1      27.501  28.977  24.231  1.00  0.00     0.032 H 
ATOM     29  H   UNL A   1      27.201  28.462  22.546  1.00  0.00     0.032 H 
BRANCH  27  30
ATOM     30  C   UNL A   1      27.646  30.512  22.759  1.00  0.00    -0.011 C 
ATOM     31  C   UNL A   1      28.193  31.587  23.713  1.00  0.00    -0.048 C 
ATOM     32  C   UNL A   1      28.282  30.853  21.408  1.00  0.00     0.057 C 
ATOM     33  H   UNL A   1      26.578  30.546  22.721  1.00  0.00     0.033 H 
ATOM     34  C   UNL A   1      28.739  32.709  22.821  1.00  0.00    -0.050 C 
ATOM     35  H   UNL A   1      28.975  31.183  24.321  1.00  0.00     0.027 H 
ATOM     36  H   UNL A   1      27.432  31.948  24.373  1.00  0.00     0.027 H 
ATOM     37  C   UNL A   1      28.275  32.373  21.413  1.00  0.00    -0.027 C 
ATOM     38  H   UNL A   1      29.261  30.442  21.278  1.00  0.00     0.060 H 
ATOM     39  H   UNL A   1      29.808  32.735  22.867  1.00  0.00     0.027 H 
ATOM     40  H   UNL A   1      28.388  33.670  23.136  1.00  0.00     0.027 H 
ATOM     41  H   UNL A   1      28.952  32.764  20.681  1.00  0.00     0.029 H 
ATOM     42  H   UNL A   1      27.322  32.794  21.169  1.00  0.00     0.029 H 
BRANCH  32  43
ATOM     43  O   UNL A   1      27.525  30.324  20.338  1.00  0.00    -0.393 OA
ATOM     44  H   UNL A   1      26.828  29.747  20.689  1.00  0.00     0.210 HD
ENDBRANCH  32  43
ENDBRANCH  27  30
ENDBRANCH  24  27
ENDBRANCH  11  17
ENDBRANCH   8  11
ENDBRANCH   4   7
ENDBRANCH   1   4
BRANCH   1  45
ATOM     45  C   UNL A   1      32.032  29.951  27.106  1.00  0.00    -0.052 C 
ATOM     46  H   UNL A   1      32.999  30.350  27.335  1.00  0.00     0.027 H 
ATOM     47  H   UNL A   1      31.364  29.960  27.942  1.00  0.00     0.027 H 
BRANCH  45  48
ATOM     48  C   UNL A   1      31.393  30.839  26.035  1.00  0.00    -0.052 C 
ATOM     49  H   UNL A   1      30.405  30.474  25.845  1.00  0.00     0.027 H 
ATOM     50  H   UNL A   1      32.030  30.788  25.178  1.00  0.00     0.027 H 
BRANCH  48  51
ATOM     51  C   UNL A   1      31.290  32.316  26.415  1.00  0.00    -0.036 C 
ATOM     52  H   UNL A   1      30.430  32.445  27.037  1.00  0.00     0.028 H 
ATOM     53  H   UNL A   1      31.223  32.867  25.500  1.00  0.00     0.028 H 
BRANCH  51  54
ATOM     54  C   UNL A   1      32.505  32.849  27.161  1.00  0.00     0.018 C 
ATOM     55  H   UNL A   1      33.360  32.777  26.522  1.00  0.00     0.049 H 
ATOM     56  H   UNL A   1      32.633  32.262  28.047  1.00  0.00     0.049 H 
BRANCH  54  57
ATOM     57  N   UNL A   1      32.331  34.236  27.561  1.00  0.00    -0.352 N 
ATOM     58  C   UNL A   1      32.947  34.920  28.576  1.00  0.00     0.251 C 
ATOM     59  H   UNL A   1      31.682  34.754  27.031  1.00  0.00     0.163 HD
ATOM     60  O   UNL A   1      32.537  36.026  28.920  1.00  0.00    -0.269 OA
BRANCH  58  61
ATOM     61  C   UNL A   1      34.102  34.312  29.267  1.00  0.00     0.039 A 
ATOM     62  C   UNL A   1      33.878  33.510  30.387  1.00  0.00    -0.049 A 
ATOM     63  C   UNL A   1      35.403  34.540  28.811  1.00  0.00    -0.049 A 
ATOM     64  C   UNL A   1      34.959  32.908  31.032  1.00  0.00    -0.053 A 
ATOM     65  H   UNL A   1      32.918  33.364  30.738  1.00  0.00     0.063 H 
ATOM     66  C   UNL A   1      36.469  33.869  29.397  1.00  0.00    -0.053 A 
ATOM     67  H   UNL A   1      35.572  35.206  28.041  1.00  0.00     0.063 H 
ATOM     68  C   UNL A   1      36.261  33.068  30.530  1.00  0.00    -0.014 A 
ATOM     69  H   UNL A   1      34.802  32.344  31.881  1.00  0.00     0.063 H 
ATOM     70  H   UNL A   1      37.417  33.960  28.999  1.00  0.00     0.063 H 
BRANCH  68  71
ATOM     71  C   UNL A   1      37.426  32.444  31.204  1.00  0.00     0.031 A 
ATOM     72  C   UNL A   1      38.184  31.342  30.517  1.00  0.00     0.074 A 
ATOM     73  C   UNL A   1      37.771  32.830  32.447  1.00  0.00     0.049 A 
ATOM     74  N   UNL A   1      39.199  30.636  30.950  1.00  0.00    -0.248 NA
ATOM     75  C   UNL A   1      37.717  30.956  29.176  1.00  0.00    -0.034 C 
ATOM     76  C   UNL A   1      37.089  33.860  33.232  1.00  0.00    -0.036 A 
ATOM     77  N   UNL A   1      38.781  32.399  33.269  1.00  0.00    -0.354 N 
ATOM     78  C   UNL A   1      39.474  29.716  29.947  1.00  0.00     0.074 A 
ATOM     79  C   UNL A   1      38.480  29.907  28.913  1.00  0.00    -0.034 C 
ATOM     80  H   UNL A   1      36.985  31.390  28.592  1.00  0.00     0.065 H 
ATOM     81  C   UNL A   1      37.722  34.007  34.406  1.00  0.00    -0.036 A 
ATOM     82  H   UNL A   1      36.255  34.388  32.931  1.00  0.00     0.065 H 
ATOM     83  C   UNL A   1      38.827  33.056  34.474  1.00  0.00     0.049 A 
ATOM     84  H   UNL A   1      39.413  31.687  33.019  1.00  0.00     0.167 HD
ATOM     85  C   UNL A   1      40.478  28.810  29.880  1.00  0.00     0.037 A 
ATOM     86  H   UNL A   1      38.380  29.305  28.081  1.00  0.00     0.065 H 
ATOM     87  H   UNL A   1      37.468  34.683  35.144  1.00  0.00     0.065 H 
ATOM     88  C   UNL A   1      39.670  32.904  35.513  1.00  0.00     0.037 A 
ATOM     89  C   UNL A   1      41.479  28.643  30.901  1.00  0.00     0.049 A 
ATOM     90  C   UNL A   1      40.773  31.885  35.421  1.00  0.00     0.074 A 
ATOM     91  C   UNL A   1      42.577  27.801  30.906  1.00  0.00    -0.036 A 
ATOM     92  N   UNL A   1      41.497  29.331  32.107  1.00  0.00    -0.354 N 
ATOM     93  N   UNL A   1      41.070  31.069  34.438  1.00  0.00    -0.248 NA
ATOM     94  C   UNL A   1      41.665  31.773  36.583  1.00  0.00    -0.034 C 
ATOM     95  C   UNL A   1      43.224  27.934  32.139  1.00  0.00    -0.036 A 
ATOM     96  H   UNL A   1      42.869  27.184  30.133  1.00  0.00     0.065 H 
ATOM     97  C   UNL A   1      42.572  28.911  32.875  1.00  0.00     0.049 A 
ATOM     98  H   UNL A   1      40.843  30.016  32.377  1.00  0.00     0.167 HD
ATOM     99  C   UNL A   1      42.206  30.381  34.842  1.00  0.00     0.074 A 
ATOM    100  C   UNL A   1      42.547  30.878  36.159  1.00  0.00    -0.034 C 
ATOM    101  H   UNL A   1      41.618  32.262  37.490  1.00  0.00     0.065 H 
ATOM    102  H   UNL A   1      44.048  27.395  32.449  1.00  0.00     0.065 H 
ATOM    103  C   UNL A   1      42.906  29.427  34.180  1.00  0.00     0.037 A 
ATOM    104  H   UNL A   1      43.372  30.575  36.699  1.00  0.00     0.065 H 
BRANCH  85 105
ATOM    105  C   UNL A   1      40.531  27.921  28.668  1.00  0.00     0.064 A 
ATOM    106  C   UNL A   1      39.866  26.685  28.623  1.00  0.00     0.173 A 
ATOM    107  C   UNL A   1      41.254  28.313  27.533  1.00  0.00     0.173 A 
ATOM    108  F   UNL A   1      39.168  26.253  29.686  1.00  0.00    -0.203 F 
ATOM    109  C   UNL A   1      39.965  25.856  27.508  1.00  0.00     0.198 A 
ATOM    110  C   UNL A   1      41.319  27.501  26.404  1.00  0.00     0.198 A 
ATOM    111  F   UNL A   1      41.905  29.487  27.515  1.00  0.00    -0.203 F 
ATOM    112  F   UNL A   1      39.382  24.649  27.519  1.00  0.00    -0.200 F 
ATOM    113  C   UNL A   1      40.685  26.267  26.397  1.00  0.00     0.200 A 
ATOM    114  F   UNL A   1      42.003  27.906  25.325  1.00  0.00    -0.200 F 
ATOM    115  F   UNL A   1      40.780  25.469  25.325  1.00  0.00    -0.200 F 
ENDBRANCH  85 105
BRANCH  88 116
ATOM    116  C   UNL A   1      39.534  33.776  36.710  1.00  0.00     0.064 A 
ATOM    117  C   UNL A   1      38.796  33.352  37.825  1.00  0.00     0.173 A 
ATOM    118  C   UNL A   1      40.134  35.042  36.769  1.00  0.00     0.173 A 
ATOM    119  F   UNL A   1      38.187  32.157  37.809  1.00  0.00    -0.203 F 
ATOM    120  C   UNL A   1      38.648  34.167  38.944  1.00  0.00     0.198 A 
ATOM    121  C   UNL A   1      40.010  35.845  37.902  1.00  0.00     0.198 A 
ATOM    122  F   UNL A   1      40.856  35.492  35.733  1.00  0.00    -0.203 F 
ATOM    123  F   UNL A   1      37.900  33.754  39.976  1.00  0.00    -0.200 F 
ATOM    124  C   UNL A   1      39.260  35.410  38.985  1.00  0.00     0.200 A 
ATOM    125  F   UNL A   1      40.617  37.038  37.943  1.00  0.00    -0.200 F 
ATOM    126  F   UNL A   1      39.122  36.192  40.064  1.00  0.00    -0.200 F 
ENDBRANCH  88 116
BRANCH 103 127
ATOM    127  C   UNL A   1      44.150  28.899  34.840  1.00  0.00     0.064 A 
ATOM    128  C   UNL A   1      44.132  27.765  35.664  1.00  0.00     0.173 A 
ATOM    129  C   UNL A   1      45.386  29.525  34.613  1.00  0.00     0.173 A 
ATOM    130  F   UNL A   1      42.976  27.137  35.925  1.00  0.00    -0.203 F 
ATOM    131  C   UNL A   1      45.299  27.297  36.263  1.00  0.00     0.198 A 
ATOM    132  C   UNL A   1      46.557  29.033  35.182  1.00  0.00     0.198 A 
ATOM    133  F   UNL A   1      45.462  30.608  33.825  1.00  0.00    -0.203 F 
ATOM    134  F   UNL A   1      45.249  26.246  37.093  1.00  0.00    -0.200 F 
ATOM    135  C   UNL A   1      46.511  27.926  36.015  1.00  0.00     0.200 A 
ATOM    136  F   UNL A   1      47.729  29.631  34.926  1.00  0.00    -0.200 F 
ATOM    137  F   UNL A   1      47.634  27.469  36.586  1.00  0.00    -0.200 F 
ENDBRANCH 103 127
ENDBRANCH  68  71
ENDBRANCH  58  61
ENDBRANCH  54  57
ENDBRANCH  51  54
ENDBRANCH  48  51
ENDBRANCH  45  48
ENDBRANCH   1  45
TORSDOF 18
ENDMDL
MODEL 3
REMARK VINA RESULT:     -11.6      1.822      3.191
REMARK SMILES C[C@@H](C(=O)NCCCCCCNC(=O)c1ccc(-c2c3nc(c(-c4c(F)c(F)c(F)c(F)c4F)c4ccc([nH]4)c(-c4c(F)c(F)c(F)c(F)c4F)c4nc(c(-c5c(F)c(F)c(F)c(F)c5F)c5ccc2[nH]5)C=C4)C=C3)cc1)c1ccc(C[C@H]2CCC[C@@H]2O)cc1
REMARK SMILES IDX 7 1 6 4 5 7 3 8 4 9 2 11 1 13 78 17 79 18 90 19 80 20 89 22
REMARK SMILES IDX 81 24 82 27 83 30 84 31 87 32 85 34 86 37 88 43 8 45 9 48
REMARK SMILES IDX 10 51 11 54 12 57 13 58 14 60 15 61 16 62 77 63 17 64 76 66
REMARK SMILES IDX 18 68 19 71 20 72 70 73 21 74 75 75 69 76 71 77 22 78 74 79
REMARK SMILES IDX 68 81 67 83 23 85 55 88 35 89 54 90 36 91 39 92 53 93 72 94
REMARK SMILES IDX 37 95 38 97 52 99 73 100 40 103 24 105 25 106 33 107 26 108
REMARK SMILES IDX 27 109 31 110 34 111 28 112 29 113 32 114 30 115 56 116
REMARK SMILES IDX 57 117 65 118 58 119 59 120 63 121 66 122 60 123 61 124
REMARK SMILES IDX 64 125 62 126 41 127 42 128 50 129 43 130 44 131 48 132
REMARK SMILES IDX 51 133 45 134 46 135 49 136 47 137
REMARK H PARENT 7 2 7 3 6 5 6 6 5 10 2 12 1 14 1 15 1 16 79 21 90 23 80 25
REMARK H PARENT 89 26 82 28 82 29 83 33 84 35 84 36 87 38 85 39 85 40 86 41
REMARK H PARENT 86 42 88 44 8 46 8 47 9 49 9 50 10 52 10 53 11 55 11 56 12 59
REMARK H PARENT 16 65 77 67 17 69 76 70 75 80 69 82 71 84 74 86 68 87 36 96
REMARK H PARENT 39 98 72 101 37 102 73 104
REMARK Flexibility Score: inf
ROOT
ATOM      1  C   UNL A   1      32.829  28.772  27.189  1.00  0.00    -0.036 C 
ATOM      2  H   UNL A   1      33.283  29.436  27.894  1.00  0.00     0.028 H 
ATOM      3  H   UNL A   1      32.651  27.798  27.597  1.00  0.00     0.028 H 
ENDROOT
BRANCH   1   4
ATOM      4  C   UNL A   1      33.790  28.590  26.012  1.00  0.00     0.017 C 
ATOM      5  H   UNL A   1      33.354  29.012  25.131  1.00  0.00     0.049 H 
ATOM      6  H   UNL A   1      34.713  29.084  26.236  1.00  0.00     0.049 H 
BRANCH   4   7
ATOM      7  N   UNL A   1      34.050  27.186  25.790  1.00  0.00    -0.356 N 
ATOM      8  C   UNL A   1      33.807  26.404  24.701  1.00  0.00     0.227 C 
ATOM      9  O   UNL A   1      33.990  25.196  24.856  1.00  0.00    -0.274 OA
ATOM     10  H   UNL A   1      34.470  26.719  26.548  1.00  0.00     0.163 HD
BRANCH   8  11
ATOM     11  C   UNL A   1      33.388  27.056  23.374  1.00  0.00     0.060 C 
ATOM     12  H   UNL A   1      33.424  26.236  22.687  1.00  0.00     0.045 H 
BRANCH  11  13
ATOM     13  C   UNL A   1      34.339  28.165  22.908  1.00  0.00    -0.049 C 
ATOM     14  H   UNL A   1      34.221  28.318  21.856  1.00  0.00     0.024 H 
ATOM     15  H   UNL A   1      35.349  27.878  23.115  1.00  0.00     0.024 H 
ATOM     16  H   UNL A   1      34.112  29.072  23.428  1.00  0.00     0.024 H 
ENDBRANCH  11  13
BRANCH  11  17
ATOM     17  C   UNL A   1      31.980  27.640  23.390  1.00  0.00    -0.036 A 
ATOM     18  C   UNL A   1      30.944  26.944  24.025  1.00  0.00    -0.058 A 
ATOM     19  C   UNL A   1      31.670  28.810  22.680  1.00  0.00    -0.058 A 
ATOM     20  C   UNL A   1      29.626  27.384  23.913  1.00  0.00    -0.059 A 
ATOM     21  H   UNL A   1      31.158  26.101  24.580  1.00  0.00     0.063 H 
ATOM     22  C   UNL A   1      30.353  29.249  22.571  1.00  0.00    -0.059 A 
ATOM     23  H   UNL A   1      32.426  29.351  22.234  1.00  0.00     0.063 H 
ATOM     24  C   UNL A   1      29.314  28.510  23.142  1.00  0.00    -0.048 A 
ATOM     25  H   UNL A   1      28.873  26.875  24.402  1.00  0.00     0.063 H 
ATOM     26  H   UNL A   1      30.145  30.124  22.065  1.00  0.00     0.063 H 
BRANCH  24  27
ATOM     27  C   UNL A   1      27.880  28.881  22.852  1.00  0.00    -0.023 C 
ATOM     28  H   UNL A   1      27.284  28.579  23.688  1.00  0.00     0.032 H 
ATOM     29  H   UNL A   1      27.618  28.379  21.944  1.00  0.00     0.032 H 
BRANCH  27  30
ATOM     30  C   UNL A   1      27.637  30.381  22.605  1.00  0.00    -0.011 C 
ATOM     31  C   UNL A   1      28.110  31.346  23.706  1.00  0.00    -0.048 C 
ATOM     32  C   UNL A   1      28.262  30.941  21.324  1.00  0.00     0.057 C 
ATOM     33  H   UNL A   1      26.569  30.357  22.556  1.00  0.00     0.033 H 
ATOM     34  C   UNL A   1      28.595  32.609  22.984  1.00  0.00    -0.050 C 
ATOM     35  H   UNL A   1      28.911  30.908  24.266  1.00  0.00     0.027 H 
ATOM     36  H   UNL A   1      27.324  31.568  24.397  1.00  0.00     0.027 H 
ATOM     37  C   UNL A   1      28.163  32.443  21.536  1.00  0.00    -0.027 C 
ATOM     38  H   UNL A   1      29.264  30.609  21.155  1.00  0.00     0.060 H 
ATOM     39  H   UNL A   1      29.659  32.691  23.050  1.00  0.00     0.027 H 
ATOM     40  H   UNL A   1      28.184  33.496  23.421  1.00  0.00     0.027 H 
ATOM     41  H   UNL A   1      28.821  32.969  20.875  1.00  0.00     0.029 H 
ATOM     42  H   UNL A   1      27.189  32.836  21.337  1.00  0.00     0.029 H 
BRANCH  32  43
ATOM     43  O   UNL A   1      27.546  30.520  20.180  1.00  0.00    -0.393 OA
ATOM     44  H   UNL A   1      27.072  31.275  19.799  1.00  0.00     0.210 HD
ENDBRANCH  32  43
ENDBRANCH  27  30
ENDBRANCH  24  27
ENDBRANCH  11  17
ENDBRANCH   8  11
ENDBRANCH   4   7
ENDBRANCH   1   4
BRANCH   1  45
ATOM     45  C   UNL A   1      31.462  29.346  26.793  1.00  0.00    -0.052 C 
ATOM     46  H   UNL A   1      30.955  29.645  27.687  1.00  0.00     0.027 H 
ATOM     47  H   UNL A   1      30.952  28.570  26.259  1.00  0.00     0.027 H 
BRANCH  45  48
ATOM     48  C   UNL A   1      31.518  30.552  25.851  1.00  0.00    -0.052 C 
ATOM     49  H   UNL A   1      30.725  30.457  25.140  1.00  0.00     0.027 H 
ATOM     50  H   UNL A   1      32.488  30.541  25.401  1.00  0.00     0.027 H 
BRANCH  48  51
ATOM     51  C   UNL A   1      31.375  31.905  26.547  1.00  0.00    -0.036 C 
ATOM     52  H   UNL A   1      30.723  31.786  27.386  1.00  0.00     0.028 H 
ATOM     53  H   UNL A   1      30.990  32.588  25.818  1.00  0.00     0.028 H 
BRANCH  51  54
ATOM     54  C   UNL A   1      32.691  32.489  27.042  1.00  0.00     0.018 C 
ATOM     55  H   UNL A   1      33.400  32.470  26.241  1.00  0.00     0.049 H 
ATOM     56  H   UNL A   1      33.026  31.896  27.868  1.00  0.00     0.049 H 
BRANCH  54  57
ATOM     57  N   UNL A   1      32.537  33.859  27.504  1.00  0.00    -0.352 N 
ATOM     58  C   UNL A   1      33.185  34.495  28.530  1.00  0.00     0.251 C 
ATOM     59  H   UNL A   1      31.879  34.402  27.014  1.00  0.00     0.163 HD
ATOM     60  O   UNL A   1      32.793  35.590  28.931  1.00  0.00    -0.269 OA
BRANCH  58  61
ATOM     61  C   UNL A   1      34.354  33.852  29.164  1.00  0.00     0.039 A 
ATOM     62  C   UNL A   1      34.147  32.819  30.079  1.00  0.00    -0.049 A 
ATOM     63  C   UNL A   1      35.650  34.275  28.858  1.00  0.00    -0.049 A 
ATOM     64  C   UNL A   1      35.244  32.185  30.663  1.00  0.00    -0.053 A 
ATOM     65  H   UNL A   1      33.188  32.526  30.322  1.00  0.00     0.063 H 
ATOM     66  C   UNL A   1      36.742  33.585  29.371  1.00  0.00    -0.053 A 
ATOM     67  H   UNL A   1      35.797  35.099  28.254  1.00  0.00     0.063 H 
ATOM     68  C   UNL A   1      36.550  32.551  30.299  1.00  0.00    -0.014 A 
ATOM     69  H   UNL A   1      35.096  31.446  31.366  1.00  0.00     0.063 H 
ATOM     70  H   UNL A   1      37.697  33.834  29.068  1.00  0.00     0.063 H 
BRANCH  68  71
ATOM     71  C   UNL A   1      37.731  31.897  30.914  1.00  0.00     0.031 A 
ATOM     72  C   UNL A   1      38.157  32.280  32.304  1.00  0.00     0.074 A 
ATOM     73  C   UNL A   1      38.448  31.002  30.209  1.00  0.00     0.049 A 
ATOM     74  N   UNL A   1      39.182  31.864  33.004  1.00  0.00    -0.248 NA
ATOM     75  C   UNL A   1      37.339  33.295  32.989  1.00  0.00    -0.034 C 
ATOM     76  C   UNL A   1      38.159  30.578  28.839  1.00  0.00    -0.036 A 
ATOM     77  N   UNL A   1      39.569  30.287  30.549  1.00  0.00    -0.354 N 
ATOM     78  C   UNL A   1      39.142  32.578  34.194  1.00  0.00     0.074 A 
ATOM     79  C   UNL A   1      38.033  33.500  34.097  1.00  0.00    -0.034 C 
ATOM     80  H   UNL A   1      36.456  33.731  32.684  1.00  0.00     0.065 H 
ATOM     81  C   UNL A   1      39.056  29.652  28.467  1.00  0.00    -0.036 A 
ATOM     82  H   UNL A   1      37.389  30.935  28.251  1.00  0.00     0.065 H 
ATOM     83  C   UNL A   1      40.006  29.445  29.557  1.00  0.00     0.049 A 
ATOM     84  H   UNL A   1      40.017  30.371  31.421  1.00  0.00     0.167 HD
ATOM     85  C   UNL A   1      39.942  32.459  35.281  1.00  0.00     0.037 A 
ATOM     86  H   UNL A   1      37.811  34.223  34.800  1.00  0.00     0.065 H 
ATOM     87  H   UNL A   1      39.073  29.163  27.558  1.00  0.00     0.065 H 
ATOM     88  C   UNL A   1      41.056  28.602  29.533  1.00  0.00     0.037 A 
ATOM     89  C   UNL A   1      41.029  31.521  35.380  1.00  0.00     0.049 A 
ATOM     90  C   UNL A   1      41.937  28.494  30.749  1.00  0.00     0.074 A 
ATOM     91  C   UNL A   1      41.860  31.272  36.457  1.00  0.00    -0.036 A 
ATOM     92  N   UNL A   1      41.439  30.678  34.355  1.00  0.00    -0.354 N 
ATOM     93  N   UNL A   1      41.848  29.120  31.898  1.00  0.00    -0.248 NA
ATOM     94  C   UNL A   1      43.060  27.551  30.666  1.00  0.00    -0.034 C 
ATOM     95  C   UNL A   1      42.812  30.324  36.065  1.00  0.00    -0.036 A 
ATOM     96  H   UNL A   1      41.790  31.708  37.390  1.00  0.00     0.065 H 
ATOM     97  C   UNL A   1      42.531  29.929  34.767  1.00  0.00     0.049 A 
ATOM     98  H   UNL A   1      41.017  30.621  33.468  1.00  0.00     0.167 HD
ATOM     99  C   UNL A   1      42.872  28.617  32.688  1.00  0.00     0.074 A 
ATOM    100  C   UNL A   1      43.567  27.630  31.888  1.00  0.00    -0.034 C 
ATOM    101  H   UNL A   1      43.372  26.977  29.866  1.00  0.00     0.065 H 
ATOM    102  H   UNL A   1      43.593  29.979  36.645  1.00  0.00     0.065 H 
ATOM    103  C   UNL A   1      43.204  28.939  33.963  1.00  0.00     0.037 A 
ATOM    104  H   UNL A   1      44.358  27.059  32.226  1.00  0.00     0.065 H 
BRANCH  85 105
ATOM    105  C   UNL A   1      39.677  33.379  36.440  1.00  0.00     0.064 A 
ATOM    106  C   UNL A   1      40.296  34.635  36.549  1.00  0.00     0.173 A 
ATOM    107  C   UNL A   1      38.788  33.001  37.457  1.00  0.00     0.173 A 
ATOM    108  F   UNL A   1      41.165  35.045  35.612  1.00  0.00    -0.203 F 
ATOM    109  C   UNL A   1      40.072  35.453  37.654  1.00  0.00     0.198 A 
ATOM    110  C   UNL A   1      38.535  33.838  38.540  1.00  0.00     0.198 A 
ATOM    111  F   UNL A   1      38.162  31.815  37.403  1.00  0.00    -0.203 F 
ATOM    112  F   UNL A   1      40.731  36.615  37.770  1.00  0.00    -0.200 F 
ATOM    113  C   UNL A   1      39.188  35.057  38.645  1.00  0.00     0.200 A 
ATOM    114  F   UNL A   1      37.668  33.460  39.490  1.00  0.00    -0.200 F 
ATOM    115  F   UNL A   1      38.972  35.844  39.708  1.00  0.00    -0.200 F 
ENDBRANCH  85 105
BRANCH  88 116
ATOM    116  C   UNL A   1      41.301  27.757  28.335  1.00  0.00     0.064 A 
ATOM    117  C   UNL A   1      40.673  26.511  28.197  1.00  0.00     0.173 A 
ATOM    118  C   UNL A   1      42.158  28.173  27.306  1.00  0.00     0.173 A 
ATOM    119  F   UNL A   1      39.859  26.062  29.163  1.00  0.00    -0.203 F 
ATOM    120  C   UNL A   1      40.908  25.704  27.086  1.00  0.00     0.198 A 
ATOM    121  C   UNL A   1      42.370  27.377  26.181  1.00  0.00     0.198 A 
ATOM    122  F   UNL A   1      42.778  29.359  27.385  1.00  0.00    -0.203 F 
ATOM    123  F   UNL A   1      40.329  24.498  27.003  1.00  0.00    -0.200 F 
ATOM    124  C   UNL A   1      41.751  26.140  26.076  1.00  0.00     0.200 A 
ATOM    125  F   UNL A   1      43.172  27.810  25.199  1.00  0.00    -0.200 F 
ATOM    126  F   UNL A   1      41.972  25.367  25.004  1.00  0.00    -0.200 F 
ENDBRANCH  88 116
BRANCH 103 127
ATOM    127  C   UNL A   1      44.331  28.175  34.599  1.00  0.00     0.064 A 
ATOM    128  C   UNL A   1      44.123  26.960  35.269  1.00  0.00     0.173 A 
ATOM    129  C   UNL A   1      45.648  28.654  34.504  1.00  0.00     0.173 A 
ATOM    130  F   UNL A   1      42.883  26.465  35.401  1.00  0.00    -0.203 F 
ATOM    131  C   UNL A   1      45.186  26.272  35.849  1.00  0.00     0.198 A 
ATOM    132  C   UNL A   1      46.712  27.945  35.052  1.00  0.00     0.198 A 
ATOM    133  F   UNL A   1      45.904  29.806  33.865  1.00  0.00    -0.203 F 
ATOM    134  F   UNL A   1      44.956  25.144  36.535  1.00  0.00    -0.200 F 
ATOM    135  C   UNL A   1      46.480  26.761  35.734  1.00  0.00     0.200 A 
ATOM    136  F   UNL A   1      47.963  28.409  34.922  1.00  0.00    -0.200 F 
ATOM    137  F   UNL A   1      47.502  26.092  36.286  1.00  0.00    -0.200 F 
ENDBRANCH 103 127
ENDBRANCH  68  71
ENDBRANCH  58  61
ENDBRANCH  54  57
ENDBRANCH  51  54
ENDBRANCH  48  51
ENDBRANCH  45  48
ENDBRANCH   1  45
TORSDOF 18
ENDMDL
MODEL 4
REMARK VINA RESULT:     -11.5      5.287     10.332
REMARK SMILES C[C@@H](C(=O)NCCCCCCNC(=O)c1ccc(-c2c3nc(c(-c4c(F)c(F)c(F)c(F)c4F)c4ccc([nH]4)c(-c4c(F)c(F)c(F)c(F)c4F)c4nc(c(-c5c(F)c(F)c(F)c(F)c5F)c5ccc2[nH]5)C=C4)C=C3)cc1)c1ccc(C[C@H]2CCC[C@@H]2O)cc1
REMARK SMILES IDX 7 1 6 4 5 7 3 8 4 9 2 11 1 13 78 17 79 18 90 19 80 20 89 22
REMARK SMILES IDX 81 24 82 27 83 30 84 31 87 32 85 34 86 37 88 43 8 45 9 48
REMARK SMILES IDX 10 51 11 54 12 57 13 58 14 60 15 61 16 62 77 63 17 64 76 66
REMARK SMILES IDX 18 68 19 71 20 72 70 73 21 74 75 75 69 76 71 77 22 78 74 79
REMARK SMILES IDX 68 81 67 83 23 85 55 88 35 89 54 90 36 91 39 92 53 93 72 94
REMARK SMILES IDX 37 95 38 97 52 99 73 100 40 103 24 105 25 106 33 107 26 108
REMARK SMILES IDX 27 109 31 110 34 111 28 112 29 113 32 114 30 115 56 116
REMARK SMILES IDX 57 117 65 118 58 119 59 120 63 121 66 122 60 123 61 124
REMARK SMILES IDX 64 125 62 126 41 127 42 128 50 129 43 130 44 131 48 132
REMARK SMILES IDX 51 133 45 134 46 135 49 136 47 137
REMARK H PARENT 7 2 7 3 6 5 6 6 5 10 2 12 1 14 1 15 1 16 79 21 90 23 80 25
REMARK H PARENT 89 26 82 28 82 29 83 33 84 35 84 36 87 38 85 39 85 40 86 41
REMARK H PARENT 86 42 88 44 8 46 8 47 9 49 9 50 10 52 10 53 11 55 11 56 12 59
REMARK H PARENT 16 65 77 67 17 69 76 70 75 80 69 82 71 84 74 86 68 87 36 96
REMARK H PARENT 39 98 72 101 37 102 73 104
REMARK Flexibility Score: inf
ROOT
ATOM      1  C   UNL A   1      39.394  23.035  26.514  1.00  0.00    -0.036 C 
ATOM      2  H   UNL A   1      39.510  23.141  27.572  1.00  0.00     0.028 H 
ATOM      3  H   UNL A   1      40.109  23.610  25.963  1.00  0.00     0.028 H 
ENDROOT
BRANCH   1   4
ATOM      4  C   UNL A   1      38.010  23.561  26.127  1.00  0.00     0.017 C 
ATOM      5  H   UNL A   1      37.263  23.043  26.692  1.00  0.00     0.049 H 
ATOM      6  H   UNL A   1      37.965  24.610  26.336  1.00  0.00     0.049 H 
BRANCH   4   7
ATOM      7  N   UNL A   1      37.771  23.351  24.718  1.00  0.00    -0.356 N 
ATOM      8  C   UNL A   1      36.629  23.010  24.056  1.00  0.00     0.227 C 
ATOM      9  O   UNL A   1      36.760  22.743  22.861  1.00  0.00    -0.274 OA
ATOM     10  H   UNL A   1      38.560  23.473  24.142  1.00  0.00     0.163 HD
BRANCH   8  11
ATOM     11  C   UNL A   1      35.284  23.033  24.799  1.00  0.00     0.060 C 
ATOM     12  H   UNL A   1      35.582  23.089  25.825  1.00  0.00     0.045 H 
BRANCH  11  13
ATOM     13  C   UNL A   1      34.437  21.775  24.573  1.00  0.00    -0.049 C 
ATOM     14  H   UNL A   1      35.029  20.906  24.773  1.00  0.00     0.024 H 
ATOM     15  H   UNL A   1      34.099  21.750  23.558  1.00  0.00     0.024 H 
ATOM     16  H   UNL A   1      33.593  21.790  25.231  1.00  0.00     0.024 H 
ENDBRANCH  11  13
BRANCH  11  17
ATOM     17  C   UNL A   1      34.412  24.236  24.460  1.00  0.00    -0.036 A 
ATOM     18  C   UNL A   1      33.983  24.438  23.142  1.00  0.00    -0.058 A 
ATOM     19  C   UNL A   1      34.121  25.218  25.421  1.00  0.00    -0.058 A 
ATOM     20  C   UNL A   1      33.321  25.613  22.788  1.00  0.00    -0.059 A 
ATOM     21  H   UNL A   1      34.157  23.712  22.430  1.00  0.00     0.063 H 
ATOM     22  C   UNL A   1      33.459  26.389  25.065  1.00  0.00    -0.059 A 
ATOM     23  H   UNL A   1      34.402  25.068  26.402  1.00  0.00     0.063 H 
ATOM     24  C   UNL A   1      33.100  26.620  23.735  1.00  0.00    -0.048 A 
ATOM     25  H   UNL A   1      32.992  25.742  21.818  1.00  0.00     0.063 H 
ATOM     26  H   UNL A   1      33.232  27.089  25.788  1.00  0.00     0.063 H 
BRANCH  24  27
ATOM     27  C   UNL A   1      32.565  27.969  23.323  1.00  0.00    -0.023 C 
ATOM     28  H   UNL A   1      33.201  28.359  22.556  1.00  0.00     0.032 H 
ATOM     29  H   UNL A   1      32.554  28.570  24.209  1.00  0.00     0.032 H 
BRANCH  27  30
ATOM     30  C   UNL A   1      31.121  27.957  22.789  1.00  0.00    -0.011 C 
ATOM     31  C   UNL A   1      30.109  27.092  23.561  1.00  0.00    -0.048 C 
ATOM     32  C   UNL A   1      30.446  29.328  22.698  1.00  0.00     0.057 C 
ATOM     33  H   UNL A   1      31.317  27.539  21.824  1.00  0.00     0.033 H 
ATOM     34  C   UNL A   1      28.772  27.841  23.495  1.00  0.00    -0.050 C 
ATOM     35  H   UNL A   1      30.418  26.975  24.579  1.00  0.00     0.027 H 
ATOM     36  H   UNL A   1      30.028  26.112  23.138  1.00  0.00     0.027 H 
ATOM     37  C   UNL A   1      28.984  28.967  22.495  1.00  0.00    -0.027 C 
ATOM     38  H   UNL A   1      30.608  29.944  23.558  1.00  0.00     0.060 H 
ATOM     39  H   UNL A   1      28.518  28.238  24.455  1.00  0.00     0.027 H 
ATOM     40  H   UNL A   1      27.971  27.195  23.200  1.00  0.00     0.027 H 
ATOM     41  H   UNL A   1      28.347  29.800  22.712  1.00  0.00     0.029 H 
ATOM     42  H   UNL A   1      28.752  28.689  21.489  1.00  0.00     0.029 H 
BRANCH  32  43
ATOM     43  O   UNL A   1      30.961  30.080  21.617  1.00  0.00    -0.393 OA
ATOM     44  H   UNL A   1      31.314  29.478  20.943  1.00  0.00     0.210 HD
ENDBRANCH  32  43
ENDBRANCH  27  30
ENDBRANCH  24  27
ENDBRANCH  11  17
ENDBRANCH   8  11
ENDBRANCH   4   7
ENDBRANCH   1   4
BRANCH   1  45
ATOM     45  C   UNL A   1      39.626  21.563  26.145  1.00  0.00    -0.052 C 
ATOM     46  H   UNL A   1      39.535  21.468  25.083  1.00  0.00     0.027 H 
ATOM     47  H   UNL A   1      38.893  20.999  26.683  1.00  0.00     0.027 H 
BRANCH  45  48
ATOM     48  C   UNL A   1      40.990  21.003  26.559  1.00  0.00    -0.052 C 
ATOM     49  H   UNL A   1      41.041  21.004  27.628  1.00  0.00     0.027 H 
ATOM     50  H   UNL A   1      41.726  21.630  26.103  1.00  0.00     0.027 H 
BRANCH  48  51
ATOM     51  C   UNL A   1      41.264  19.581  26.070  1.00  0.00    -0.036 C 
ATOM     52  H   UNL A   1      41.236  19.580  25.001  1.00  0.00     0.028 H 
ATOM     53  H   UNL A   1      40.511  18.955  26.503  1.00  0.00     0.028 H 
BRANCH  51  54
ATOM     54  C   UNL A   1      42.608  19.022  26.514  1.00  0.00     0.018 C 
ATOM     55  H   UNL A   1      42.440  18.139  27.095  1.00  0.00     0.049 H 
ATOM     56  H   UNL A   1      43.105  19.775  27.090  1.00  0.00     0.049 H 
BRANCH  54  57
ATOM     57  N   UNL A   1      43.458  18.687  25.383  1.00  0.00    -0.352 N 
ATOM     58  C   UNL A   1      44.205  19.522  24.594  1.00  0.00     0.251 C 
ATOM     59  H   UNL A   1      43.502  17.731  25.153  1.00  0.00     0.163 HD
ATOM     60  O   UNL A   1      44.703  19.110  23.548  1.00  0.00    -0.269 OA
BRANCH  58  61
ATOM     61  C   UNL A   1      44.399  20.928  25.002  1.00  0.00     0.039 A 
ATOM     62  C   UNL A   1      43.782  21.939  24.265  1.00  0.00    -0.049 A 
ATOM     63  C   UNL A   1      45.195  21.244  26.106  1.00  0.00    -0.049 A 
ATOM     64  C   UNL A   1      43.935  23.270  24.656  1.00  0.00    -0.053 A 
ATOM     65  H   UNL A   1      43.215  21.705  23.435  1.00  0.00     0.063 H 
ATOM     66  C   UNL A   1      45.274  22.559  26.548  1.00  0.00    -0.053 A 
ATOM     67  H   UNL A   1      45.725  20.503  26.591  1.00  0.00     0.063 H 
ATOM     68  C   UNL A   1      44.667  23.588  25.813  1.00  0.00    -0.014 A 
ATOM     69  H   UNL A   1      43.510  24.023  24.095  1.00  0.00     0.063 H 
ATOM     70  H   UNL A   1      45.781  22.780  27.419  1.00  0.00     0.063 H 
BRANCH  68  71
ATOM     71  C   UNL A   1      44.851  24.996  26.243  1.00  0.00     0.031 A 
ATOM     72  C   UNL A   1      46.202  25.645  26.116  1.00  0.00     0.074 A 
ATOM     73  C   UNL A   1      43.824  25.672  26.792  1.00  0.00     0.049 A 
ATOM     74  N   UNL A   1      46.584  26.845  26.474  1.00  0.00    -0.248 NA
ATOM     75  C   UNL A   1      47.278  24.822  25.541  1.00  0.00    -0.034 C 
ATOM     76  C   UNL A   1      42.478  25.138  27.003  1.00  0.00    -0.036 A 
ATOM     77  N   UNL A   1      43.753  26.955  27.272  1.00  0.00    -0.354 N 
ATOM     78  C   UNL A   1      47.941  26.910  26.188  1.00  0.00     0.074 A 
ATOM     79  C   UNL A   1      48.331  25.610  25.689  1.00  0.00    -0.034 C 
ATOM     80  H   UNL A   1      47.225  23.877  25.130  1.00  0.00     0.065 H 
ATOM     81  C   UNL A   1      41.706  26.097  27.538  1.00  0.00    -0.036 A 
ATOM     82  H   UNL A   1      42.172  24.178  26.779  1.00  0.00     0.065 H 
ATOM     83  C   UNL A   1      42.510  27.298  27.743  1.00  0.00     0.049 A 
ATOM     84  H   UNL A   1      44.521  27.571  27.279  1.00  0.00     0.167 HD
ATOM     85  C   UNL A   1      48.783  27.965  26.306  1.00  0.00     0.037 A 
ATOM     86  H   UNL A   1      49.302  25.333  25.475  1.00  0.00     0.065 H 
ATOM     87  H   UNL A   1      40.704  26.001  27.768  1.00  0.00     0.065 H 
ATOM     88  C   UNL A   1      42.072  28.454  28.278  1.00  0.00     0.037 A 
ATOM     89  C   UNL A   1      48.381  29.263  26.779  1.00  0.00     0.049 A 
ATOM     90  C   UNL A   1      43.028  29.609  28.408  1.00  0.00     0.074 A 
ATOM     91  C   UNL A   1      49.136  30.418  26.877  1.00  0.00    -0.036 A 
ATOM     92  N   UNL A   1      47.110  29.576  27.243  1.00  0.00    -0.354 N 
ATOM     93  N   UNL A   1      44.291  29.685  28.066  1.00  0.00    -0.248 NA
ATOM     94  C   UNL A   1      42.489  30.846  28.990  1.00  0.00    -0.034 C 
ATOM     95  C   UNL A   1      48.341  31.413  27.457  1.00  0.00    -0.036 A 
ATOM     96  H   UNL A   1      50.116  30.529  26.574  1.00  0.00     0.065 H 
ATOM     97  C   UNL A   1      47.068  30.899  27.654  1.00  0.00     0.049 A 
ATOM     98  H   UNL A   1      46.351  28.950  27.274  1.00  0.00     0.167 HD
ATOM     99  C   UNL A   1      44.687  30.985  28.349  1.00  0.00     0.074 A 
ATOM    100  C   UNL A   1      43.527  31.664  28.888  1.00  0.00    -0.034 C 
ATOM    101  H   UNL A   1      41.550  31.029  29.377  1.00  0.00     0.065 H 
ATOM    102  H   UNL A   1      48.649  32.368  27.698  1.00  0.00     0.065 H 
ATOM    103  C   UNL A   1      45.900  31.565  28.175  1.00  0.00     0.037 A 
ATOM    104  H   UNL A   1      43.509  32.661  29.157  1.00  0.00     0.065 H 
BRANCH  85 105
ATOM    105  C   UNL A   1      50.222  27.749  25.930  1.00  0.00     0.064 A 
ATOM    106  C   UNL A   1      50.662  27.821  24.598  1.00  0.00     0.173 A 
ATOM    107  C   UNL A   1      51.178  27.468  26.917  1.00  0.00     0.173 A 
ATOM    108  F   UNL A   1      49.789  28.075  23.610  1.00  0.00    -0.203 F 
ATOM    109  C   UNL A   1      51.991  27.572  24.265  1.00  0.00     0.198 A 
ATOM    110  C   UNL A   1      52.515  27.260  26.586  1.00  0.00     0.198 A 
ATOM    111  F   UNL A   1      50.819  27.393  28.207  1.00  0.00    -0.203 F 
ATOM    112  F   UNL A   1      52.370  27.575  22.979  1.00  0.00    -0.200 F 
ATOM    113  C   UNL A   1      52.918  27.299  25.259  1.00  0.00     0.200 A 
ATOM    114  F   UNL A   1      53.412  27.010  27.550  1.00  0.00    -0.200 F 
ATOM    115  F   UNL A   1      54.197  27.060  24.939  1.00  0.00    -0.200 F 
ENDBRANCH  85 105
BRANCH  88 116
ATOM    116  C   UNL A   1      40.648  28.590  28.683  1.00  0.00     0.064 A 
ATOM    117  C   UNL A   1      39.680  29.017  27.763  1.00  0.00     0.173 A 
ATOM    118  C   UNL A   1      40.225  28.296  29.987  1.00  0.00     0.173 A 
ATOM    119  F   UNL A   1      40.039  29.328  26.509  1.00  0.00    -0.203 F 
ATOM    120  C   UNL A   1      38.346  29.164  28.137  1.00  0.00     0.198 A 
ATOM    121  C   UNL A   1      38.885  28.415  30.352  1.00  0.00     0.198 A 
ATOM    122  F   UNL A   1      41.110  27.877  30.903  1.00  0.00    -0.203 F 
ATOM    123  F   UNL A   1      37.451  29.618  27.250  1.00  0.00    -0.200 F 
ATOM    124  C   UNL A   1      37.948  28.857  29.429  1.00  0.00     0.200 A 
ATOM    125  F   UNL A   1      38.502  28.101  31.596  1.00  0.00    -0.200 F 
ATOM    126  F   UNL A   1      36.664  28.993  29.787  1.00  0.00    -0.200 F 
ENDBRANCH  88 116
BRANCH 103 127
ATOM    127  C   UNL A   1      46.023  33.026  28.510  1.00  0.00     0.064 A 
ATOM    128  C   UNL A   1      46.418  33.468  29.781  1.00  0.00     0.173 A 
ATOM    129  C   UNL A   1      45.772  33.996  27.527  1.00  0.00     0.173 A 
ATOM    130  F   UNL A   1      46.656  32.583  30.761  1.00  0.00    -0.203 F 
ATOM    131  C   UNL A   1      46.524  34.827  30.064  1.00  0.00     0.198 A 
ATOM    132  C   UNL A   1      45.916  35.353  27.802  1.00  0.00     0.198 A 
ATOM    133  F   UNL A   1      45.401  33.628  26.291  1.00  0.00    -0.203 F 
ATOM    134  F   UNL A   1      46.845  35.228  31.302  1.00  0.00    -0.200 F 
ATOM    135  C   UNL A   1      46.280  35.768  29.074  1.00  0.00     0.200 A 
ATOM    136  F   UNL A   1      45.698  36.258  26.838  1.00  0.00    -0.200 F 
ATOM    137  F   UNL A   1      46.391  37.076  29.347  1.00  0.00    -0.200 F 
ENDBRANCH 103 127
ENDBRANCH  68  71
ENDBRANCH  58  61
ENDBRANCH  54  57
ENDBRANCH  51  54
ENDBRANCH  48  51
ENDBRANCH  45  48
ENDBRANCH   1  45
TORSDOF 18
ENDMDL
MODEL 5
REMARK VINA RESULT:     -11.5      4.074      9.112
REMARK SMILES C[C@@H](C(=O)NCCCCCCNC(=O)c1ccc(-c2c3nc(c(-c4c(F)c(F)c(F)c(F)c4F)c4ccc([nH]4)c(-c4c(F)c(F)c(F)c(F)c4F)c4nc(c(-c5c(F)c(F)c(F)c(F)c5F)c5ccc2[nH]5)C=C4)C=C3)cc1)c1ccc(C[C@H]2CCC[C@@H]2O)cc1
REMARK SMILES IDX 7 1 6 4 5 7 3 8 4 9 2 11 1 13 78 17 79 18 90 19 80 20 89 22
REMARK SMILES IDX 81 24 82 27 83 30 84 31 87 32 85 34 86 37 88 43 8 45 9 48
REMARK SMILES IDX 10 51 11 54 12 57 13 58 14 60 15 61 16 62 77 63 17 64 76 66
REMARK SMILES IDX 18 68 19 71 20 72 70 73 21 74 75 75 69 76 71 77 22 78 74 79
REMARK SMILES IDX 68 81 67 83 23 85 55 88 35 89 54 90 36 91 39 92 53 93 72 94
REMARK SMILES IDX 37 95 38 97 52 99 73 100 40 103 24 105 25 106 33 107 26 108
REMARK SMILES IDX 27 109 31 110 34 111 28 112 29 113 32 114 30 115 56 116
REMARK SMILES IDX 57 117 65 118 58 119 59 120 63 121 66 122 60 123 61 124
REMARK SMILES IDX 64 125 62 126 41 127 42 128 50 129 43 130 44 131 48 132
REMARK SMILES IDX 51 133 45 134 46 135 49 136 47 137
REMARK H PARENT 7 2 7 3 6 5 6 6 5 10 2 12 1 14 1 15 1 16 79 21 90 23 80 25
REMARK H PARENT 89 26 82 28 82 29 83 33 84 35 84 36 87 38 85 39 85 40 86 41
REMARK H PARENT 86 42 88 44 8 46 8 47 9 49 9 50 10 52 10 53 11 55 11 56 12 59
REMARK H PARENT 16 65 77 67 17 69 76 70 75 80 69 82 71 84 74 86 68 87 36 96
REMARK H PARENT 39 98 72 101 37 102 73 104
REMARK Flexibility Score: inf
ROOT
ATOM      1  C   UNL A   1      33.892  26.515  25.753  1.00  0.00    -0.036 C 
ATOM      2  H   UNL A   1      34.378  26.907  26.622  1.00  0.00     0.028 H 
ATOM      3  H   UNL A   1      34.260  26.949  24.846  1.00  0.00     0.028 H 
ENDROOT
BRANCH   1   4
ATOM      4  C   UNL A   1      32.403  26.860  25.837  1.00  0.00     0.017 C 
ATOM      5  H   UNL A   1      31.869  26.025  26.239  1.00  0.00     0.049 H 
ATOM      6  H   UNL A   1      32.279  27.713  26.471  1.00  0.00     0.049 H 
BRANCH   4   7
ATOM      7  N   UNL A   1      31.887  27.170  24.524  1.00  0.00    -0.356 N 
ATOM      8  C   UNL A   1      30.976  26.509  23.754  1.00  0.00     0.227 C 
ATOM      9  O   UNL A   1      30.846  26.924  22.602  1.00  0.00    -0.274 OA
ATOM     10  H   UNL A   1      32.251  27.990  24.119  1.00  0.00     0.163 HD
BRANCH   8  11
ATOM     11  C   UNL A   1      30.153  25.363  24.364  1.00  0.00     0.060 C 
ATOM     12  H   UNL A   1      29.272  25.359  23.757  1.00  0.00     0.045 H 
BRANCH  11  13
ATOM     13  C   UNL A   1      29.772  25.595  25.831  1.00  0.00    -0.049 C 
ATOM     14  H   UNL A   1      30.626  25.425  26.453  1.00  0.00     0.024 H 
ATOM     15  H   UNL A   1      28.990  24.919  26.107  1.00  0.00     0.024 H 
ATOM     16  H   UNL A   1      29.434  26.602  25.956  1.00  0.00     0.024 H 
ENDBRANCH  11  13
BRANCH  11  17
ATOM     17  C   UNL A   1      30.833  24.002  24.279  1.00  0.00    -0.036 A 
ATOM     18  C   UNL A   1      30.983  23.224  25.434  1.00  0.00    -0.058 A 
ATOM     19  C   UNL A   1      31.419  23.555  23.085  1.00  0.00    -0.058 A 
ATOM     20  C   UNL A   1      31.740  22.053  25.402  1.00  0.00    -0.059 A 
ATOM     21  H   UNL A   1      30.530  23.519  26.313  1.00  0.00     0.063 H 
ATOM     22  C   UNL A   1      32.172  22.385  23.055  1.00  0.00    -0.059 A 
ATOM     23  H   UNL A   1      31.289  24.100  22.219  1.00  0.00     0.063 H 
ATOM     24  C   UNL A   1      32.383  21.652  24.226  1.00  0.00    -0.048 A 
ATOM     25  H   UNL A   1      31.826  21.477  26.255  1.00  0.00     0.063 H 
ATOM     26  H   UNL A   1      32.577  22.058  22.164  1.00  0.00     0.063 H 
BRANCH  24  27
ATOM     27  C   UNL A   1      33.359  20.501  24.227  1.00  0.00    -0.023 C 
ATOM     28  H   UNL A   1      34.036  20.641  25.044  1.00  0.00     0.032 H 
ATOM     29  H   UNL A   1      33.840  20.515  23.272  1.00  0.00     0.032 H 
BRANCH  27  30
ATOM     30  C   UNL A   1      32.716  19.109  24.370  1.00  0.00    -0.011 C 
ATOM     31  C   UNL A   1      32.791  18.187  23.140  1.00  0.00    -0.048 C 
ATOM     32  C   UNL A   1      33.265  18.251  25.513  1.00  0.00     0.057 C 
ATOM     33  H   UNL A   1      31.709  19.422  24.548  1.00  0.00     0.033 H 
ATOM     34  C   UNL A   1      32.953  16.763  23.686  1.00  0.00    -0.050 C 
ATOM     35  H   UNL A   1      33.630  18.448  22.530  1.00  0.00     0.027 H 
ATOM     36  H   UNL A   1      31.915  18.275  22.532  1.00  0.00     0.027 H 
ATOM     37  C   UNL A   1      32.719  16.871  25.185  1.00  0.00    -0.027 C 
ATOM     38  H   UNL A   1      34.332  18.269  25.590  1.00  0.00     0.060 H 
ATOM     39  H   UNL A   1      33.939  16.397  23.487  1.00  0.00     0.027 H 
ATOM     40  H   UNL A   1      32.267  16.083  23.226  1.00  0.00     0.027 H 
ATOM     41  H   UNL A   1      33.254  16.109  25.714  1.00  0.00     0.029 H 
ATOM     42  H   UNL A   1      31.695  16.742  25.463  1.00  0.00     0.029 H 
BRANCH  32  43
ATOM     43  O   UNL A   1      32.807  18.716  26.767  1.00  0.00    -0.393 OA
ATOM     44  H   UNL A   1      32.065  18.167  27.065  1.00  0.00     0.210 HD
ENDBRANCH  32  43
ENDBRANCH  27  30
ENDBRANCH  24  27
ENDBRANCH  11  17
ENDBRANCH   8  11
ENDBRANCH   4   7
ENDBRANCH   1   4
BRANCH   1  45
ATOM     45  C   UNL A   1      34.179  25.009  25.675  1.00  0.00    -0.052 C 
ATOM     46  H   UNL A   1      33.261  24.487  25.850  1.00  0.00     0.027 H 
ATOM     47  H   UNL A   1      34.927  24.806  26.413  1.00  0.00     0.027 H 
BRANCH  45  48
ATOM     48  C   UNL A   1      34.752  24.531  24.338  1.00  0.00    -0.052 C 
ATOM     49  H   UNL A   1      35.013  25.393  23.759  1.00  0.00     0.027 H 
ATOM     50  H   UNL A   1      33.994  23.932  23.879  1.00  0.00     0.027 H 
BRANCH  48  51
ATOM     51  C   UNL A   1      35.993  23.646  24.461  1.00  0.00    -0.036 C 
ATOM     52  H   UNL A   1      36.704  23.959  23.727  1.00  0.00     0.028 H 
ATOM     53  H   UNL A   1      35.667  22.637  24.318  1.00  0.00     0.028 H 
BRANCH  51  54
ATOM     54  C   UNL A   1      36.659  23.702  25.828  1.00  0.00     0.018 C 
ATOM     55  H   UNL A   1      35.915  23.549  26.582  1.00  0.00     0.049 H 
ATOM     56  H   UNL A   1      37.122  24.662  25.932  1.00  0.00     0.049 H 
BRANCH  54  57
ATOM     57  N   UNL A   1      37.690  22.687  25.972  1.00  0.00    -0.352 N 
ATOM     58  C   UNL A   1      38.996  22.840  26.355  1.00  0.00     0.251 C 
ATOM     59  H   UNL A   1      37.412  21.766  25.765  1.00  0.00     0.163 HD
ATOM     60  O   UNL A   1      39.796  21.916  26.224  1.00  0.00    -0.269 OA
BRANCH  58  61
ATOM     61  C   UNL A   1      39.445  24.130  26.916  1.00  0.00     0.039 A 
ATOM     62  C   UNL A   1      40.068  25.055  26.077  1.00  0.00    -0.049 A 
ATOM     63  C   UNL A   1      39.255  24.421  28.269  1.00  0.00    -0.049 A 
ATOM     64  C   UNL A   1      40.471  26.289  26.589  1.00  0.00    -0.053 A 
ATOM     65  H   UNL A   1      40.230  24.828  25.083  1.00  0.00     0.063 H 
ATOM     66  C   UNL A   1      39.574  25.682  28.758  1.00  0.00    -0.053 A 
ATOM     67  H   UNL A   1      38.879  23.700  28.906  1.00  0.00     0.063 H 
ATOM     68  C   UNL A   1      40.209  26.620  27.929  1.00  0.00    -0.014 A 
ATOM     69  H   UNL A   1      40.963  26.962  25.982  1.00  0.00     0.063 H 
ATOM     70  H   UNL A   1      39.343  25.931  29.732  1.00  0.00     0.063 H 
BRANCH  68  71
ATOM     71  C   UNL A   1      40.637  27.921  28.497  1.00  0.00     0.031 A 
ATOM     72  C   UNL A   1      42.087  28.156  28.820  1.00  0.00     0.074 A 
ATOM     73  C   UNL A   1      39.721  28.869  28.771  1.00  0.00     0.049 A 
ATOM     74  N   UNL A   1      42.660  29.201  29.362  1.00  0.00    -0.248 NA
ATOM     75  C   UNL A   1      43.015  27.052  28.525  1.00  0.00    -0.034 C 
ATOM     76  C   UNL A   1      38.282  28.746  28.540  1.00  0.00    -0.036 A 
ATOM     77  N   UNL A   1      39.866  30.126  29.303  1.00  0.00    -0.354 N 
ATOM     78  C   UNL A   1      44.002  28.871  29.490  1.00  0.00     0.074 A 
ATOM     79  C   UNL A   1      44.149  27.507  29.031  1.00  0.00    -0.034 C 
ATOM     80  H   UNL A   1      42.829  26.156  28.047  1.00  0.00     0.065 H 
ATOM     81  C   UNL A   1      37.680  29.892  28.895  1.00  0.00    -0.036 A 
ATOM     82  H   UNL A   1      37.805  27.911  28.165  1.00  0.00     0.065 H 
ATOM     83  C   UNL A   1      38.685  30.816  29.414  1.00  0.00     0.049 A 
ATOM     84  H   UNL A   1      40.735  30.496  29.580  1.00  0.00     0.167 HD
ATOM     85  C   UNL A   1      45.026  29.643  29.927  1.00  0.00     0.037 A 
ATOM     86  H   UNL A   1      45.024  26.962  29.091  1.00  0.00     0.065 H 
ATOM     87  H   UNL A   1      36.670  30.090  28.814  1.00  0.00     0.065 H 
ATOM     88  C   UNL A   1      38.444  32.055  29.882  1.00  0.00     0.037 A 
ATOM     89  C   UNL A   1      44.876  31.008  30.357  1.00  0.00     0.049 A 
ATOM     90  C   UNL A   1      39.596  32.891  30.371  1.00  0.00     0.074 A 
ATOM     91  C   UNL A   1      45.855  31.901  30.756  1.00  0.00    -0.036 A 
ATOM     92  N   UNL A   1      43.663  31.677  30.450  1.00  0.00    -0.354 N 
ATOM     93  N   UNL A   1      40.873  32.598  30.420  1.00  0.00    -0.248 NA
ATOM     94  C   UNL A   1      39.270  34.238  30.861  1.00  0.00    -0.034 C 
ATOM     95  C   UNL A   1      45.229  33.088  31.150  1.00  0.00    -0.036 A 
ATOM     96  H   UNL A   1      46.871  31.722  30.761  1.00  0.00     0.065 H 
ATOM     97  C   UNL A   1      43.867  32.962  30.929  1.00  0.00     0.049 A 
ATOM     98  H   UNL A   1      42.788  31.295  30.212  1.00  0.00     0.167 HD
ATOM     99  C   UNL A   1      41.508  33.735  30.902  1.00  0.00     0.074 A 
ATOM    100  C   UNL A   1      40.475  34.724  31.127  1.00  0.00    -0.034 C 
ATOM    101  H   UNL A   1      38.347  34.687  30.969  1.00  0.00     0.065 H 
ATOM    102  H   UNL A   1      45.702  33.918  31.541  1.00  0.00     0.065 H 
ATOM    103  C   UNL A   1      42.828  33.941  31.133  1.00  0.00     0.037 A 
ATOM    104  H   UNL A   1      40.653  35.687  31.452  1.00  0.00     0.065 H 
BRANCH  85 105
ATOM    105  C   UNL A   1      46.394  29.020  29.973  1.00  0.00     0.064 A 
ATOM    106  C   UNL A   1      46.879  28.377  31.124  1.00  0.00     0.173 A 
ATOM    107  C   UNL A   1      47.230  29.061  28.848  1.00  0.00     0.173 A 
ATOM    108  F   UNL A   1      46.126  28.317  32.234  1.00  0.00    -0.203 F 
ATOM    109  C   UNL A   1      48.166  27.846  31.161  1.00  0.00     0.198 A 
ATOM    110  C   UNL A   1      48.502  28.493  28.875  1.00  0.00     0.198 A 
ATOM    111  F   UNL A   1      46.818  29.655  27.718  1.00  0.00    -0.203 F 
ATOM    112  F   UNL A   1      48.632  27.303  32.295  1.00  0.00    -0.200 F 
ATOM    113  C   UNL A   1      48.974  27.898  30.036  1.00  0.00     0.200 A 
ATOM    114  F   UNL A   1      49.275  28.532  27.782  1.00  0.00    -0.200 F 
ATOM    115  F   UNL A   1      50.212  27.387  30.072  1.00  0.00    -0.200 F 
ENDBRANCH  85 105
BRANCH  88 116
ATOM    116  C   UNL A   1      37.060  32.598  29.862  1.00  0.00     0.064 A 
ATOM    117  C   UNL A   1      36.578  33.291  28.742  1.00  0.00     0.173 A 
ATOM    118  C   UNL A   1      36.192  32.437  30.953  1.00  0.00     0.173 A 
ATOM    119  F   UNL A   1      37.376  33.487  27.683  1.00  0.00    -0.203 F 
ATOM    120  C   UNL A   1      35.289  33.817  28.720  1.00  0.00     0.198 A 
ATOM    121  C   UNL A   1      34.892  32.939  30.917  1.00  0.00     0.198 A 
ATOM    122  F   UNL A   1      36.601  31.777  32.045  1.00  0.00    -0.203 F 
ATOM    123  F   UNL A   1      34.871  34.514  27.654  1.00  0.00    -0.200 F 
ATOM    124  C   UNL A   1      34.445  33.636  29.805  1.00  0.00     0.200 A 
ATOM    125  F   UNL A   1      34.075  32.747  31.961  1.00  0.00    -0.200 F 
ATOM    126  F   UNL A   1      33.202  34.138  29.781  1.00  0.00    -0.200 F 
ENDBRANCH  88 116
BRANCH 103 127
ATOM    127  C   UNL A   1      43.243  35.310  31.597  1.00  0.00     0.064 A 
ATOM    128  C   UNL A   1      43.254  35.666  32.954  1.00  0.00     0.173 A 
ATOM    129  C   UNL A   1      43.668  36.270  30.664  1.00  0.00     0.173 A 
ATOM    130  F   UNL A   1      42.845  34.791  33.885  1.00  0.00    -0.203 F 
ATOM    131  C   UNL A   1      43.644  36.941  33.356  1.00  0.00     0.198 A 
ATOM    132  C   UNL A   1      44.092  37.531  31.072  1.00  0.00     0.198 A 
ATOM    133  F   UNL A   1      43.685  35.979  29.355  1.00  0.00    -0.203 F 
ATOM    134  F   UNL A   1      43.591  37.277  34.652  1.00  0.00    -0.200 F 
ATOM    135  C   UNL A   1      44.069  37.869  32.416  1.00  0.00     0.200 A 
ATOM    136  F   UNL A   1      44.520  38.419  30.165  1.00  0.00    -0.200 F 
ATOM    137  F   UNL A   1      44.451  39.093  32.807  1.00  0.00    -0.200 F 
ENDBRANCH 103 127
ENDBRANCH  68  71
ENDBRANCH  58  61
ENDBRANCH  54  57
ENDBRANCH  51  54
ENDBRANCH  48  51
ENDBRANCH  45  48
ENDBRANCH   1  45
TORSDOF 18
ENDMDL
MODEL 6
REMARK VINA RESULT:     -11.4      4.378      9.753
REMARK SMILES C[C@@H](C(=O)NCCCCCCNC(=O)c1ccc(-c2c3nc(c(-c4c(F)c(F)c(F)c(F)c4F)c4ccc([nH]4)c(-c4c(F)c(F)c(F)c(F)c4F)c4nc(c(-c5c(F)c(F)c(F)c(F)c5F)c5ccc2[nH]5)C=C4)C=C3)cc1)c1ccc(C[C@H]2CCC[C@@H]2O)cc1
REMARK SMILES IDX 7 1 6 4 5 7 3 8 4 9 2 11 1 13 78 17 79 18 90 19 80 20 89 22
REMARK SMILES IDX 81 24 82 27 83 30 84 31 87 32 85 34 86 37 88 43 8 45 9 48
REMARK SMILES IDX 10 51 11 54 12 57 13 58 14 60 15 61 16 62 77 63 17 64 76 66
REMARK SMILES IDX 18 68 19 71 20 72 70 73 21 74 75 75 69 76 71 77 22 78 74 79
REMARK SMILES IDX 68 81 67 83 23 85 55 88 35 89 54 90 36 91 39 92 53 93 72 94
REMARK SMILES IDX 37 95 38 97 52 99 73 100 40 103 24 105 25 106 33 107 26 108
REMARK SMILES IDX 27 109 31 110 34 111 28 112 29 113 32 114 30 115 56 116
REMARK SMILES IDX 57 117 65 118 58 119 59 120 63 121 66 122 60 123 61 124
REMARK SMILES IDX 64 125 62 126 41 127 42 128 50 129 43 130 44 131 48 132
REMARK SMILES IDX 51 133 45 134 46 135 49 136 47 137
REMARK H PARENT 7 2 7 3 6 5 6 6 5 10 2 12 1 14 1 15 1 16 79 21 90 23 80 25
REMARK H PARENT 89 26 82 28 82 29 83 33 84 35 84 36 87 38 85 39 85 40 86 41
REMARK H PARENT 86 42 88 44 8 46 8 47 9 49 9 50 10 52 10 53 11 55 11 56 12 59
REMARK H PARENT 16 65 77 67 17 69 76 70 75 80 69 82 71 84 74 86 68 87 36 96
REMARK H PARENT 39 98 72 101 37 102 73 104
REMARK Flexibility Score: inf
ROOT
ATOM      1  C   UNL A   1      34.042  26.539  25.661  1.00  0.00    -0.036 C 
ATOM      2  H   UNL A   1      33.838  26.888  26.652  1.00  0.00     0.028 H 
ATOM      3  H   UNL A   1      34.945  26.948  25.259  1.00  0.00     0.028 H 
ENDROOT
BRANCH   1   4
ATOM      4  C   UNL A   1      32.903  26.998  24.747  1.00  0.00     0.017 C 
ATOM      5  H   UNL A   1      32.082  26.317  24.836  1.00  0.00     0.049 H 
ATOM      6  H   UNL A   1      32.596  27.981  25.038  1.00  0.00     0.049 H 
BRANCH   4   7
ATOM      7  N   UNL A   1      33.347  27.030  23.372  1.00  0.00    -0.356 N 
ATOM      8  C   UNL A   1      32.961  26.281  22.301  1.00  0.00     0.227 C 
ATOM      9  O   UNL A   1      33.632  26.423  21.277  1.00  0.00    -0.274 OA
ATOM     10  H   UNL A   1      34.041  27.701  23.177  1.00  0.00     0.163 HD
BRANCH   8  11
ATOM     11  C   UNL A   1      31.723  25.378  22.410  1.00  0.00     0.060 C 
ATOM     12  H   UNL A   1      31.454  25.223  21.386  1.00  0.00     0.045 H 
BRANCH  11  13
ATOM     13  C   UNL A   1      30.554  26.027  23.161  1.00  0.00    -0.049 C 
ATOM     14  H   UNL A   1      29.736  25.339  23.210  1.00  0.00     0.024 H 
ATOM     15  H   UNL A   1      30.247  26.912  22.645  1.00  0.00     0.024 H 
ATOM     16  H   UNL A   1      30.866  26.282  24.153  1.00  0.00     0.024 H 
ENDBRANCH  11  13
BRANCH  11  17
ATOM     17  C   UNL A   1      31.997  24.031  23.069  1.00  0.00    -0.036 A 
ATOM     18  C   UNL A   1      32.806  23.089  22.420  1.00  0.00    -0.058 A 
ATOM     19  C   UNL A   1      31.363  23.664  24.266  1.00  0.00    -0.058 A 
ATOM     20  C   UNL A   1      32.936  21.799  22.934  1.00  0.00    -0.059 A 
ATOM     21  H   UNL A   1      33.308  23.351  21.558  1.00  0.00     0.063 H 
ATOM     22  C   UNL A   1      31.496  22.377  24.778  1.00  0.00    -0.059 A 
ATOM     23  H   UNL A   1      30.791  24.357  24.772  1.00  0.00     0.063 H 
ATOM     24  C   UNL A   1      32.241  21.417  24.087  1.00  0.00    -0.048 A 
ATOM     25  H   UNL A   1      33.551  21.120  22.458  1.00  0.00     0.063 H 
ATOM     26  H   UNL A   1      31.042  22.130  25.671  1.00  0.00     0.063 H 
BRANCH  24  27
ATOM     27  C   UNL A   1      32.219  19.978  24.540  1.00  0.00    -0.023 C 
ATOM     28  H   UNL A   1      31.246  19.582  24.339  1.00  0.00     0.032 H 
ATOM     29  H   UNL A   1      32.463  19.988  25.582  1.00  0.00     0.032 H 
BRANCH  27  30
ATOM     30  C   UNL A   1      33.258  19.069  23.858  1.00  0.00    -0.011 C 
ATOM     31  C   UNL A   1      34.534  18.759  24.660  1.00  0.00    -0.048 C 
ATOM     32  C   UNL A   1      32.741  17.692  23.433  1.00  0.00     0.057 C 
ATOM     33  H   UNL A   1      33.481  19.693  23.018  1.00  0.00     0.033 H 
ATOM     34  C   UNL A   1      34.920  17.319  24.303  1.00  0.00    -0.050 C 
ATOM     35  H   UNL A   1      34.342  18.842  25.710  1.00  0.00     0.027 H 
ATOM     36  H   UNL A   1      35.320  19.445  24.426  1.00  0.00     0.027 H 
ATOM     37  C   UNL A   1      34.024  16.932  23.138  1.00  0.00    -0.027 C 
ATOM     38  H   UNL A   1      32.134  17.214  24.172  1.00  0.00     0.060 H 
ATOM     39  H   UNL A   1      34.753  16.669  25.136  1.00  0.00     0.027 H 
ATOM     40  H   UNL A   1      35.957  17.240  24.047  1.00  0.00     0.027 H 
ATOM     41  H   UNL A   1      33.850  15.875  23.119  1.00  0.00     0.029 H 
ATOM     42  H   UNL A   1      34.445  17.166  22.183  1.00  0.00     0.029 H 
BRANCH  32  43
ATOM     43  O   UNL A   1      31.909  17.788  22.294  1.00  0.00    -0.393 OA
ATOM     44  H   UNL A   1      32.357  18.308  21.608  1.00  0.00     0.210 HD
ENDBRANCH  32  43
ENDBRANCH  27  30
ENDBRANCH  24  27
ENDBRANCH  11  17
ENDBRANCH   8  11
ENDBRANCH   4   7
ENDBRANCH   1   4
BRANCH   1  45
ATOM     45  C   UNL A   1      34.224  25.016  25.711  1.00  0.00    -0.052 C 
ATOM     46  H   UNL A   1      33.290  24.561  25.456  1.00  0.00     0.027 H 
ATOM     47  H   UNL A   1      34.549  24.784  26.704  1.00  0.00     0.027 H 
BRANCH  45  48
ATOM     48  C   UNL A   1      35.297  24.465  24.768  1.00  0.00    -0.052 C 
ATOM     49  H   UNL A   1      36.192  25.035  24.910  1.00  0.00     0.027 H 
ATOM     50  H   UNL A   1      34.901  24.545  23.778  1.00  0.00     0.027 H 
BRANCH  48  51
ATOM     51  C   UNL A   1      35.633  22.989  24.985  1.00  0.00    -0.036 C 
ATOM     52  H   UNL A   1      36.249  22.661  24.175  1.00  0.00     0.028 H 
ATOM     53  H   UNL A   1      34.701  22.464  25.034  1.00  0.00     0.028 H 
BRANCH  51  54
ATOM     54  C   UNL A   1      36.365  22.706  26.288  1.00  0.00     0.018 C 
ATOM     55  H   UNL A   1      35.648  22.436  27.035  1.00  0.00     0.049 H 
ATOM     56  H   UNL A   1      36.899  23.591  26.567  1.00  0.00     0.049 H 
BRANCH  54  57
ATOM     57  N   UNL A   1      37.328  21.626  26.147  1.00  0.00    -0.352 N 
ATOM     58  C   UNL A   1      38.696  21.692  26.134  1.00  0.00     0.251 C 
ATOM     59  H   UNL A   1      36.944  20.725  26.047  1.00  0.00     0.163 HD
ATOM     60  O   UNL A   1      39.364  20.718  25.796  1.00  0.00    -0.269 OA
BRANCH  58  61
ATOM     61  C   UNL A   1      39.367  22.950  26.518  1.00  0.00     0.039 A 
ATOM     62  C   UNL A   1      39.092  24.114  25.799  1.00  0.00    -0.049 A 
ATOM     63  C   UNL A   1      40.272  22.976  27.583  1.00  0.00    -0.049 A 
ATOM     64  C   UNL A   1      39.699  25.314  26.169  1.00  0.00    -0.053 A 
ATOM     65  H   UNL A   1      38.443  24.087  24.997  1.00  0.00     0.063 H 
ATOM     66  C   UNL A   1      40.806  24.187  28.008  1.00  0.00    -0.053 A 
ATOM     67  H   UNL A   1      40.544  22.098  28.052  1.00  0.00     0.063 H 
ATOM     68  C   UNL A   1      40.546  25.364  27.289  1.00  0.00    -0.014 A 
ATOM     69  H   UNL A   1      39.526  26.169  25.620  1.00  0.00     0.063 H 
ATOM     70  H   UNL A   1      41.396  24.221  28.854  1.00  0.00     0.063 H 
BRANCH  68  71
ATOM     71  C   UNL A   1      41.209  26.626  27.696  1.00  0.00     0.031 A 
ATOM     72  C   UNL A   1      42.656  26.855  27.353  1.00  0.00     0.074 A 
ATOM     73  C   UNL A   1      40.532  27.541  28.415  1.00  0.00     0.049 A 
ATOM     74  N   UNL A   1      43.432  27.865  27.653  1.00  0.00    -0.248 NA
ATOM     75  C   UNL A   1      43.331  25.787  26.598  1.00  0.00    -0.034 C 
ATOM     76  C   UNL A   1      39.139  27.416  28.844  1.00  0.00    -0.036 A 
ATOM     77  N   UNL A   1      40.926  28.757  28.913  1.00  0.00    -0.354 N 
ATOM     78  C   UNL A   1      44.683  27.544  27.145  1.00  0.00     0.074 A 
ATOM     79  C   UNL A   1      44.581  26.219  26.575  1.00  0.00    -0.034 C 
ATOM     80  H   UNL A   1      42.933  24.926  26.192  1.00  0.00     0.065 H 
ATOM     81  C   UNL A   1      38.783  28.526  29.509  1.00  0.00    -0.036 A 
ATOM     82  H   UNL A   1      38.527  26.604  28.664  1.00  0.00     0.065 H 
ATOM     83  C   UNL A   1      39.933  29.423  29.588  1.00  0.00     0.049 A 
ATOM     84  H   UNL A   1      41.835  29.118  28.798  1.00  0.00     0.167 HD
ATOM     85  C   UNL A   1      45.811  28.295  27.131  1.00  0.00     0.037 A 
ATOM     86  H   UNL A   1      45.379  25.682  26.199  1.00  0.00     0.065 H 
ATOM     87  H   UNL A   1      37.848  28.717  29.902  1.00  0.00     0.065 H 
ATOM     88  C   UNL A   1      39.952  30.622  30.200  1.00  0.00     0.037 A 
ATOM     89  C   UNL A   1      45.897  29.624  27.678  1.00  0.00     0.049 A 
ATOM     90  C   UNL A   1      41.219  31.435  30.180  1.00  0.00     0.074 A 
ATOM     91  C   UNL A   1      46.970  30.497  27.659  1.00  0.00    -0.036 A 
ATOM     92  N   UNL A   1      44.868  30.269  28.350  1.00  0.00    -0.354 N 
ATOM     93  N   UNL A   1      42.377  31.155  29.633  1.00  0.00    -0.248 NA
ATOM     94  C   UNL A   1      41.175  32.739  30.857  1.00  0.00    -0.034 C 
ATOM     95  C   UNL A   1      46.611  31.646  28.373  1.00  0.00    -0.036 A 
ATOM     96  H   UNL A   1      47.878  30.332  27.197  1.00  0.00     0.065 H 
ATOM     97  C   UNL A   1      45.290  31.519  28.775  1.00  0.00     0.049 A 
ATOM     98  H   UNL A   1      43.970  29.894  28.501  1.00  0.00     0.167 HD
ATOM     99  C   UNL A   1      43.185  32.262  29.859  1.00  0.00     0.074 A 
ATOM    100  C   UNL A   1      42.381  33.220  30.590  1.00  0.00    -0.034 C 
ATOM    101  H   UNL A   1      40.407  33.167  31.397  1.00  0.00     0.065 H 
ATOM    102  H   UNL A   1      47.225  32.451  28.569  1.00  0.00     0.065 H 
ATOM    103  C   UNL A   1      44.473  32.468  29.490  1.00  0.00     0.037 A 
ATOM    104  H   UNL A   1      42.706  34.159  30.868  1.00  0.00     0.065 H 
BRANCH  85 105
ATOM    105  C   UNL A   1      47.041  27.687  26.518  1.00  0.00     0.064 A 
ATOM    106  C   UNL A   1      47.323  27.801  25.147  1.00  0.00     0.173 A 
ATOM    107  C   UNL A   1      47.956  26.982  27.314  1.00  0.00     0.173 A 
ATOM    108  F   UNL A   1      46.477  28.455  24.334  1.00  0.00    -0.203 F 
ATOM    109  C   UNL A   1      48.445  27.192  24.590  1.00  0.00     0.198 A 
ATOM    110  C   UNL A   1      49.098  26.408  26.762  1.00  0.00     0.198 A 
ATOM    111  F   UNL A   1      47.743  26.846  28.632  1.00  0.00    -0.203 F 
ATOM    112  F   UNL A   1      48.652  27.253  23.267  1.00  0.00    -0.200 F 
ATOM    113  C   UNL A   1      49.335  26.501  25.398  1.00  0.00     0.200 A 
ATOM    114  F   UNL A   1      49.965  25.754  27.547  1.00  0.00    -0.200 F 
ATOM    115  F   UNL A   1      50.414  25.916  24.863  1.00  0.00    -0.200 F 
ENDBRANCH  85 105
BRANCH  88 116
ATOM    116  C   UNL A   1      38.717  31.148  30.839  1.00  0.00     0.064 A 
ATOM    117  C   UNL A   1      38.504  31.000  32.217  1.00  0.00     0.173 A 
ATOM    118  C   UNL A   1      37.729  31.807  30.094  1.00  0.00     0.173 A 
ATOM    119  F   UNL A   1      39.412  30.359  32.969  1.00  0.00    -0.203 F 
ATOM    120  C   UNL A   1      37.343  31.474  32.822  1.00  0.00     0.198 A 
ATOM    121  C   UNL A   1      36.580  32.307  30.706  1.00  0.00     0.198 A 
ATOM    122  F   UNL A   1      37.886  31.981  28.774  1.00  0.00    -0.203 F 
ATOM    123  F   UNL A   1      37.146  31.278  34.133  1.00  0.00    -0.200 F 
ATOM    124  C   UNL A   1      36.385  32.133  32.068  1.00  0.00     0.200 A 
ATOM    125  F   UNL A   1      35.665  32.958  29.975  1.00  0.00    -0.200 F 
ATOM    126  F   UNL A   1      35.270  32.593  32.651  1.00  0.00    -0.200 F 
ENDBRANCH  88 116
BRANCH 103 127
ATOM    127  C   UNL A   1      45.080  33.805  29.814  1.00  0.00     0.064 A 
ATOM    128  C   UNL A   1      45.783  34.035  31.006  1.00  0.00     0.173 A 
ATOM    129  C   UNL A   1      44.981  34.863  28.896  1.00  0.00     0.173 A 
ATOM    130  F   UNL A   1      45.895  33.062  31.923  1.00  0.00    -0.203 F 
ATOM    131  C   UNL A   1      46.335  35.283  31.281  1.00  0.00     0.198 A 
ATOM    132  C   UNL A   1      45.567  36.098  29.158  1.00  0.00     0.198 A 
ATOM    133  F   UNL A   1      44.327  34.694  27.737  1.00  0.00    -0.203 F 
ATOM    134  F   UNL A   1      46.952  35.497  32.451  1.00  0.00    -0.200 F 
ATOM    135  C   UNL A   1      46.233  36.311  30.354  1.00  0.00     0.200 A 
ATOM    136  F   UNL A   1      45.483  37.083  28.252  1.00  0.00    -0.200 F 
ATOM    137  F   UNL A   1      46.773  37.509  30.618  1.00  0.00    -0.200 F 
ENDBRANCH 103 127
ENDBRANCH  68  71
ENDBRANCH  58  61
ENDBRANCH  54  57
ENDBRANCH  51  54
ENDBRANCH  48  51
ENDBRANCH  45  48
ENDBRANCH   1  45
TORSDOF 18
ENDMDL
MODEL 7
REMARK VINA RESULT:     -11.4      2.691      5.325
REMARK SMILES C[C@@H](C(=O)NCCCCCCNC(=O)c1ccc(-c2c3nc(c(-c4c(F)c(F)c(F)c(F)c4F)c4ccc([nH]4)c(-c4c(F)c(F)c(F)c(F)c4F)c4nc(c(-c5c(F)c(F)c(F)c(F)c5F)c5ccc2[nH]5)C=C4)C=C3)cc1)c1ccc(C[C@H]2CCC[C@@H]2O)cc1
REMARK SMILES IDX 7 1 6 4 5 7 3 8 4 9 2 11 1 13 78 17 79 18 90 19 80 20 89 22
REMARK SMILES IDX 81 24 82 27 83 30 84 31 87 32 85 34 86 37 88 43 8 45 9 48
REMARK SMILES IDX 10 51 11 54 12 57 13 58 14 60 15 61 16 62 77 63 17 64 76 66
REMARK SMILES IDX 18 68 19 71 20 72 70 73 21 74 75 75 69 76 71 77 22 78 74 79
REMARK SMILES IDX 68 81 67 83 23 85 55 88 35 89 54 90 36 91 39 92 53 93 72 94
REMARK SMILES IDX 37 95 38 97 52 99 73 100 40 103 24 105 25 106 33 107 26 108
REMARK SMILES IDX 27 109 31 110 34 111 28 112 29 113 32 114 30 115 56 116
REMARK SMILES IDX 57 117 65 118 58 119 59 120 63 121 66 122 60 123 61 124
REMARK SMILES IDX 64 125 62 126 41 127 42 128 50 129 43 130 44 131 48 132
REMARK SMILES IDX 51 133 45 134 46 135 49 136 47 137
REMARK H PARENT 7 2 7 3 6 5 6 6 5 10 2 12 1 14 1 15 1 16 79 21 90 23 80 25
REMARK H PARENT 89 26 82 28 82 29 83 33 84 35 84 36 87 38 85 39 85 40 86 41
REMARK H PARENT 86 42 88 44 8 46 8 47 9 49 9 50 10 52 10 53 11 55 11 56 12 59
REMARK H PARENT 16 65 77 67 17 69 76 70 75 80 69 82 71 84 74 86 68 87 36 96
REMARK H PARENT 39 98 72 101 37 102 73 104
REMARK Flexibility Score: inf
ROOT
ATOM      1  C   UNL A   1      35.067  31.667  27.839  1.00  0.00    -0.036 C 
ATOM      2  H   UNL A   1      34.944  32.226  26.934  1.00  0.00     0.028 H 
ATOM      3  H   UNL A   1      36.095  31.536  28.104  1.00  0.00     0.028 H 
ENDROOT
BRANCH   1   4
ATOM      4  C   UNL A   1      34.482  30.269  27.622  1.00  0.00     0.017 C 
ATOM      5  H   UNL A   1      35.183  29.673  27.076  1.00  0.00     0.049 H 
ATOM      6  H   UNL A   1      34.286  29.822  28.575  1.00  0.00     0.049 H 
BRANCH   4   7
ATOM      7  N   UNL A   1      33.246  30.353  26.878  1.00  0.00    -0.356 N 
ATOM      8  C   UNL A   1      32.839  29.684  25.763  1.00  0.00     0.227 C 
ATOM      9  O   UNL A   1      31.790  30.079  25.253  1.00  0.00    -0.274 OA
ATOM     10  H   UNL A   1      32.593  30.998  27.234  1.00  0.00     0.163 HD
BRANCH   8  11
ATOM     11  C   UNL A   1      33.653  28.483  25.256  1.00  0.00     0.060 C 
ATOM     12  H   UNL A   1      34.619  28.657  25.683  1.00  0.00     0.045 H 
BRANCH  11  13
ATOM     13  C   UNL A   1      33.765  28.419  23.729  1.00  0.00    -0.049 C 
ATOM     14  H   UNL A   1      33.714  27.399  23.410  1.00  0.00     0.024 H 
ATOM     15  H   UNL A   1      34.699  28.842  23.422  1.00  0.00     0.024 H 
ATOM     16  H   UNL A   1      32.961  28.971  23.289  1.00  0.00     0.024 H 
ENDBRANCH  11  13
BRANCH  11  17
ATOM     17  C   UNL A   1      33.125  27.135  25.732  1.00  0.00    -0.036 A 
ATOM     18  C   UNL A   1      33.975  26.021  25.751  1.00  0.00    -0.058 A 
ATOM     19  C   UNL A   1      31.769  26.954  26.045  1.00  0.00    -0.058 A 
ATOM     20  C   UNL A   1      33.468  24.752  26.031  1.00  0.00    -0.059 A 
ATOM     21  H   UNL A   1      34.981  26.140  25.557  1.00  0.00     0.063 H 
ATOM     22  C   UNL A   1      31.266  25.687  26.327  1.00  0.00    -0.059 A 
ATOM     23  H   UNL A   1      31.139  27.770  26.068  1.00  0.00     0.063 H 
ATOM     24  C   UNL A   1      32.101  24.568  26.269  1.00  0.00    -0.048 A 
ATOM     25  H   UNL A   1      34.106  23.942  26.062  1.00  0.00     0.063 H 
ATOM     26  H   UNL A   1      30.272  25.574  26.578  1.00  0.00     0.063 H 
BRANCH  24  27
ATOM     27  C   UNL A   1      31.511  23.183  26.379  1.00  0.00    -0.023 C 
ATOM     28  H   UNL A   1      30.509  23.277  26.741  1.00  0.00     0.032 H 
ATOM     29  H   UNL A   1      32.150  22.637  27.041  1.00  0.00     0.032 H 
BRANCH  27  30
ATOM     30  C   UNL A   1      31.473  22.390  25.060  1.00  0.00    -0.011 C 
ATOM     31  C   UNL A   1      31.653  23.200  23.764  1.00  0.00    -0.048 C 
ATOM     32  C   UNL A   1      32.507  21.266  24.944  1.00  0.00     0.057 C 
ATOM     33  H   UNL A   1      30.475  22.013  25.136  1.00  0.00     0.033 H 
ATOM     34  C   UNL A   1      32.434  22.295  22.803  1.00  0.00    -0.050 C 
ATOM     35  H   UNL A   1      32.203  24.097  23.959  1.00  0.00     0.027 H 
ATOM     36  H   UNL A   1      30.710  23.489  23.349  1.00  0.00     0.027 H 
ATOM     37  C   UNL A   1      32.463  20.926  23.463  1.00  0.00    -0.027 C 
ATOM     38  H   UNL A   1      33.484  21.545  25.278  1.00  0.00     0.060 H 
ATOM     39  H   UNL A   1      33.428  22.666  22.666  1.00  0.00     0.027 H 
ATOM     40  H   UNL A   1      31.977  22.259  21.835  1.00  0.00     0.027 H 
ATOM     41  H   UNL A   1      33.332  20.375  23.168  1.00  0.00     0.029 H 
ATOM     42  H   UNL A   1      31.632  20.309  23.194  1.00  0.00     0.029 H 
BRANCH  32  43
ATOM     43  O   UNL A   1      32.152  20.161  25.751  1.00  0.00    -0.393 OA
ATOM     44  H   UNL A   1      31.470  19.637  25.302  1.00  0.00     0.210 HD
ENDBRANCH  32  43
ENDBRANCH  27  30
ENDBRANCH  24  27
ENDBRANCH  11  17
ENDBRANCH   8  11
ENDBRANCH   4   7
ENDBRANCH   1   4
BRANCH   1  45
ATOM     45  C   UNL A   1      34.406  32.447  28.984  1.00  0.00    -0.052 C 
ATOM     46  H   UNL A   1      34.846  32.122  29.904  1.00  0.00     0.027 H 
ATOM     47  H   UNL A   1      33.357  32.243  28.922  1.00  0.00     0.027 H 
BRANCH  45  48
ATOM     48  C   UNL A   1      34.555  33.969  28.896  1.00  0.00    -0.052 C 
ATOM     49  H   UNL A   1      35.068  34.202  27.986  1.00  0.00     0.027 H 
ATOM     50  H   UNL A   1      35.092  34.272  29.769  1.00  0.00     0.027 H 
BRANCH  48  51
ATOM     51  C   UNL A   1      33.233  34.735  28.908  1.00  0.00    -0.036 C 
ATOM     52  H   UNL A   1      32.533  34.192  29.507  1.00  0.00     0.028 H 
ATOM     53  H   UNL A   1      32.920  34.827  27.888  1.00  0.00     0.028 H 
BRANCH  51  54
ATOM     54  C   UNL A   1      33.341  36.148  29.462  1.00  0.00     0.018 C 
ATOM     55  H   UNL A   1      33.075  36.843  28.692  1.00  0.00     0.049 H 
ATOM     56  H   UNL A   1      34.350  36.300  29.787  1.00  0.00     0.049 H 
BRANCH  54  57
ATOM     57  N   UNL A   1      32.466  36.353  30.604  1.00  0.00    -0.352 N 
ATOM     58  C   UNL A   1      32.546  35.802  31.856  1.00  0.00     0.251 C 
ATOM     59  H   UNL A   1      31.713  36.970  30.458  1.00  0.00     0.163 HD
ATOM     60  O   UNL A   1      31.610  35.911  32.646  1.00  0.00    -0.269 OA
BRANCH  58  61
ATOM     61  C   UNL A   1      33.762  35.062  32.249  1.00  0.00     0.039 A 
ATOM     62  C   UNL A   1      33.648  33.725  32.633  1.00  0.00    -0.049 A 
ATOM     63  C   UNL A   1      35.010  35.692  32.243  1.00  0.00    -0.049 A 
ATOM     64  C   UNL A   1      34.794  33.008  32.981  1.00  0.00    -0.053 A 
ATOM     65  H   UNL A   1      32.723  33.270  32.662  1.00  0.00     0.063 H 
ATOM     66  C   UNL A   1      36.158  34.953  32.501  1.00  0.00    -0.053 A 
ATOM     67  H   UNL A   1      35.078  36.703  32.049  1.00  0.00     0.063 H 
ATOM     68  C   UNL A   1      36.060  33.611  32.899  1.00  0.00    -0.014 A 
ATOM     69  H   UNL A   1      34.711  32.031  33.299  1.00  0.00     0.063 H 
ATOM     70  H   UNL A   1      37.086  35.393  32.401  1.00  0.00     0.063 H 
BRANCH  68  71
ATOM     71  C   UNL A   1      37.290  32.870  33.271  1.00  0.00     0.031 A 
ATOM     72  C   UNL A   1      37.977  33.171  34.575  1.00  0.00     0.074 A 
ATOM     73  C   UNL A   1      37.816  31.970  32.420  1.00  0.00     0.049 A 
ATOM     74  N   UNL A   1      39.082  32.671  35.066  1.00  0.00    -0.248 NA
ATOM     75  C   UNL A   1      37.354  34.197  35.427  1.00  0.00    -0.034 C 
ATOM     76  C   UNL A   1      37.265  31.620  31.111  1.00  0.00    -0.036 A 
ATOM     77  N   UNL A   1      38.935  31.183  32.531  1.00  0.00    -0.354 N 
ATOM     78  C   UNL A   1      39.296  33.335  36.267  1.00  0.00     0.074 A 
ATOM     79  C   UNL A   1      38.243  34.318  36.400  1.00  0.00    -0.034 C 
ATOM     80  H   UNL A   1      36.458  34.692  35.300  1.00  0.00     0.065 H 
ATOM     81  C   UNL A   1      38.026  30.665  30.555  1.00  0.00    -0.036 A 
ATOM     82  H   UNL A   1      36.426  32.042  30.683  1.00  0.00     0.065 H 
ATOM     83  C   UNL A   1      39.140  30.362  31.450  1.00  0.00     0.049 A 
ATOM     84  H   UNL A   1      39.535  31.206  33.312  1.00  0.00     0.167 HD
ATOM     85  C   UNL A   1      40.267  33.129  37.189  1.00  0.00     0.037 A 
ATOM     86  H   UNL A   1      38.193  35.021  37.154  1.00  0.00     0.065 H 
ATOM     87  H   UNL A   1      37.853  30.215  29.642  1.00  0.00     0.065 H 
ATOM     88  C   UNL A   1      40.117  29.467  31.212  1.00  0.00     0.037 A 
ATOM     89  C   UNL A   1      41.296  32.131  37.061  1.00  0.00     0.049 A 
ATOM     90  C   UNL A   1      41.190  29.260  32.246  1.00  0.00     0.074 A 
ATOM     91  C   UNL A   1      42.288  31.793  37.964  1.00  0.00    -0.036 A 
ATOM     92  N   UNL A   1      41.468  31.312  35.953  1.00  0.00    -0.354 N 
ATOM     93  N   UNL A   1      41.343  29.841  33.412  1.00  0.00    -0.248 NA
ATOM     94  C   UNL A   1      42.223  28.264  31.933  1.00  0.00    -0.034 C 
ATOM     95  C   UNL A   1      43.098  30.814  37.378  1.00  0.00    -0.036 A 
ATOM     96  H   UNL A   1      42.409  32.192  38.908  1.00  0.00     0.065 H 
ATOM     97  C   UNL A   1      42.569  30.490  36.138  1.00  0.00     0.049 A 
ATOM     98  H   UNL A   1      40.893  31.315  35.154  1.00  0.00     0.167 HD
ATOM     99  C   UNL A   1      42.459  29.251  33.990  1.00  0.00     0.074 A 
ATOM    100  C   UNL A   1      42.942  28.264  33.047  1.00  0.00    -0.034 C 
ATOM    101  H   UNL A   1      42.355  27.710  31.072  1.00  0.00     0.065 H 
ATOM    102  H   UNL A   1      43.947  30.403  37.796  1.00  0.00     0.065 H 
ATOM    103  C   UNL A   1      43.029  29.501  35.195  1.00  0.00     0.037 A 
ATOM    104  H   UNL A   1      43.745  27.638  33.220  1.00  0.00     0.065 H 
BRANCH  85 105
ATOM    105  C   UNL A   1      40.265  34.011  38.406  1.00  0.00     0.064 A 
ATOM    106  C   UNL A   1      41.010  35.201  38.463  1.00  0.00     0.173 A 
ATOM    107  C   UNL A   1      39.506  33.664  39.532  1.00  0.00     0.173 A 
ATOM    108  F   UNL A   1      41.765  35.577  37.418  1.00  0.00    -0.203 F 
ATOM    109  C   UNL A   1      41.032  35.980  39.617  1.00  0.00     0.198 A 
ATOM    110  C   UNL A   1      39.497  34.466  40.671  1.00  0.00     0.198 A 
ATOM    111  F   UNL A   1      38.769  32.542  39.534  1.00  0.00    -0.203 F 
ATOM    112  F   UNL A   1      41.808  37.072  39.671  1.00  0.00    -0.200 F 
ATOM    113  C   UNL A   1      40.271  35.617  40.717  1.00  0.00     0.200 A 
ATOM    114  F   UNL A   1      38.750  34.121  41.728  1.00  0.00    -0.200 F 
ATOM    115  F   UNL A   1      40.292  36.367  41.827  1.00  0.00    -0.200 F 
ENDBRANCH  85 105
BRANCH  88 116
ATOM    116  C   UNL A   1      40.095  28.662  29.962  1.00  0.00     0.064 A 
ATOM    117  C   UNL A   1      39.471  27.407  29.929  1.00  0.00     0.173 A 
ATOM    118  C   UNL A   1      40.691  29.125  28.780  1.00  0.00     0.173 A 
ATOM    119  F   UNL A   1      38.903  26.913  31.039  1.00  0.00    -0.203 F 
ATOM    120  C   UNL A   1      39.459  26.638  28.768  1.00  0.00     0.198 A 
ATOM    121  C   UNL A   1      40.653  28.367  27.611  1.00  0.00     0.198 A 
ATOM    122  F   UNL A   1      41.295  30.321  28.756  1.00  0.00    -0.203 F 
ATOM    123  F   UNL A   1      38.894  25.422  28.778  1.00  0.00    -0.200 F 
ATOM    124  C   UNL A   1      40.044  27.121  27.608  1.00  0.00     0.200 A 
ATOM    125  F   UNL A   1      41.206  28.845  26.488  1.00  0.00    -0.200 F 
ATOM    126  F   UNL A   1      40.028  26.383  26.490  1.00  0.00    -0.200 F 
ENDBRANCH  88 116
BRANCH 103 127
ATOM    127  C   UNL A   1      44.204  28.652  35.594  1.00  0.00     0.064 A 
ATOM    128  C   UNL A   1      45.522  29.004  35.269  1.00  0.00     0.173 A 
ATOM    129  C   UNL A   1      44.003  27.481  36.344  1.00  0.00     0.173 A 
ATOM    130  F   UNL A   1      45.768  30.104  34.542  1.00  0.00    -0.203 F 
ATOM    131  C   UNL A   1      46.592  28.198  35.652  1.00  0.00     0.198 A 
ATOM    132  C   UNL A   1      45.077  26.699  36.756  1.00  0.00     0.198 A 
ATOM    133  F   UNL A   1      42.763  27.103  36.689  1.00  0.00    -0.203 F 
ATOM    134  F   UNL A   1      47.838  28.523  35.280  1.00  0.00    -0.200 F 
ATOM    135  C   UNL A   1      46.370  27.052  36.401  1.00  0.00     0.200 A 
ATOM    136  F   UNL A   1      44.861  25.602  37.496  1.00  0.00    -0.200 F 
ATOM    137  F   UNL A   1      47.402  26.283  36.774  1.00  0.00    -0.200 F 
ENDBRANCH 103 127
ENDBRANCH  68  71
ENDBRANCH  58  61
ENDBRANCH  54  57
ENDBRANCH  51  54
ENDBRANCH  48  51
ENDBRANCH  45  48
ENDBRANCH   1  45
TORSDOF 18
ENDMDL
MODEL 8
REMARK VINA RESULT:     -11.4      1.845      3.071
REMARK SMILES C[C@@H](C(=O)NCCCCCCNC(=O)c1ccc(-c2c3nc(c(-c4c(F)c(F)c(F)c(F)c4F)c4ccc([nH]4)c(-c4c(F)c(F)c(F)c(F)c4F)c4nc(c(-c5c(F)c(F)c(F)c(F)c5F)c5ccc2[nH]5)C=C4)C=C3)cc1)c1ccc(C[C@H]2CCC[C@@H]2O)cc1
REMARK SMILES IDX 7 1 6 4 5 7 3 8 4 9 2 11 1 13 78 17 79 18 90 19 80 20 89 22
REMARK SMILES IDX 81 24 82 27 83 30 84 31 87 32 85 34 86 37 88 43 8 45 9 48
REMARK SMILES IDX 10 51 11 54 12 57 13 58 14 60 15 61 16 62 77 63 17 64 76 66
REMARK SMILES IDX 18 68 19 71 20 72 70 73 21 74 75 75 69 76 71 77 22 78 74 79
REMARK SMILES IDX 68 81 67 83 23 85 55 88 35 89 54 90 36 91 39 92 53 93 72 94
REMARK SMILES IDX 37 95 38 97 52 99 73 100 40 103 24 105 25 106 33 107 26 108
REMARK SMILES IDX 27 109 31 110 34 111 28 112 29 113 32 114 30 115 56 116
REMARK SMILES IDX 57 117 65 118 58 119 59 120 63 121 66 122 60 123 61 124
REMARK SMILES IDX 64 125 62 126 41 127 42 128 50 129 43 130 44 131 48 132
REMARK SMILES IDX 51 133 45 134 46 135 49 136 47 137
REMARK H PARENT 7 2 7 3 6 5 6 6 5 10 2 12 1 14 1 15 1 16 79 21 90 23 80 25
REMARK H PARENT 89 26 82 28 82 29 83 33 84 35 84 36 87 38 85 39 85 40 86 41
REMARK H PARENT 86 42 88 44 8 46 8 47 9 49 9 50 10 52 10 53 11 55 11 56 12 59
REMARK H PARENT 16 65 77 67 17 69 76 70 75 80 69 82 71 84 74 86 68 87 36 96
REMARK H PARENT 39 98 72 101 37 102 73 104
REMARK Flexibility Score: inf
ROOT
ATOM      1  C   UNL A   1      35.072  24.592  25.378  1.00  0.00    -0.036 C 
ATOM      2  H   UNL A   1      35.656  24.753  24.496  1.00  0.00     0.028 H 
ATOM      3  H   UNL A   1      35.671  24.527  26.262  1.00  0.00     0.028 H 
ENDROOT
BRANCH   1   4
ATOM      4  C   UNL A   1      34.344  23.253  25.236  1.00  0.00     0.017 C 
ATOM      5  H   UNL A   1      33.594  23.337  24.477  1.00  0.00     0.049 H 
ATOM      6  H   UNL A   1      35.053  22.498  24.968  1.00  0.00     0.049 H 
BRANCH   4   7
ATOM      7  N   UNL A   1      33.718  22.889  26.486  1.00  0.00    -0.356 N 
ATOM      8  C   UNL A   1      32.401  22.742  26.805  1.00  0.00     0.227 C 
ATOM      9  O   UNL A   1      32.153  22.578  28.000  1.00  0.00    -0.274 OA
ATOM     10  H   UNL A   1      34.343  22.721  27.228  1.00  0.00     0.163 HD
BRANCH   8  11
ATOM     11  C   UNL A   1      31.344  22.732  25.689  1.00  0.00     0.060 C 
ATOM     12  H   UNL A   1      30.496  22.294  26.173  1.00  0.00     0.045 H 
BRANCH  11  13
ATOM     13  C   UNL A   1      31.743  21.886  24.475  1.00  0.00    -0.049 C 
ATOM     14  H   UNL A   1      31.453  22.391  23.577  1.00  0.00     0.024 H 
ATOM     15  H   UNL A   1      31.251  20.937  24.525  1.00  0.00     0.024 H 
ATOM     16  H   UNL A   1      32.803  21.739  24.475  1.00  0.00     0.024 H 
ENDBRANCH  11  13
BRANCH  11  17
ATOM     17  C   UNL A   1      30.974  24.119  25.177  1.00  0.00    -0.036 A 
ATOM     18  C   UNL A   1      31.056  24.401  23.808  1.00  0.00    -0.058 A 
ATOM     19  C   UNL A   1      30.661  25.162  26.063  1.00  0.00    -0.058 A 
ATOM     20  C   UNL A   1      30.875  25.704  23.344  1.00  0.00    -0.059 A 
ATOM     21  H   UNL A   1      31.252  23.641  23.138  1.00  0.00     0.063 H 
ATOM     22  C   UNL A   1      30.478  26.461  25.598  1.00  0.00    -0.059 A 
ATOM     23  H   UNL A   1      30.564  24.962  27.070  1.00  0.00     0.063 H 
ATOM     24  C   UNL A   1      30.636  26.753  24.241  1.00  0.00    -0.048 A 
ATOM     25  H   UNL A   1      30.918  25.897  22.331  1.00  0.00     0.063 H 
ATOM     26  H   UNL A   1      30.225  27.211  26.259  1.00  0.00     0.063 H 
BRANCH  24  27
ATOM     27  C   UNL A   1      30.634  28.188  23.774  1.00  0.00    -0.023 C 
ATOM     28  H   UNL A   1      31.574  28.386  23.305  1.00  0.00     0.032 H 
ATOM     29  H   UNL A   1      30.462  28.785  24.645  1.00  0.00     0.032 H 
BRANCH  27  30
ATOM     30  C   UNL A   1      29.515  28.542  22.778  1.00  0.00    -0.011 C 
ATOM     31  C   UNL A   1      28.070  28.410  23.289  1.00  0.00    -0.048 C 
ATOM     32  C   UNL A   1      29.579  29.959  22.201  1.00  0.00     0.057 C 
ATOM     33  H   UNL A   1      29.725  27.797  22.039  1.00  0.00     0.033 H 
ATOM     34  C   UNL A   1      27.277  29.538  22.617  1.00  0.00    -0.050 C 
ATOM     35  H   UNL A   1      28.040  28.519  24.353  1.00  0.00     0.027 H 
ATOM     36  H   UNL A   1      27.658  27.451  23.055  1.00  0.00     0.027 H 
ATOM     37  C   UNL A   1      28.207  30.122  21.566  1.00  0.00    -0.027 C 
ATOM     38  H   UNL A   1      29.791  30.711  22.932  1.00  0.00     0.060 H 
ATOM     39  H   UNL A   1      27.009  30.285  23.335  1.00  0.00     0.027 H 
ATOM     40  H   UNL A   1      26.367  29.179  22.185  1.00  0.00     0.027 H 
ATOM     41  H   UNL A   1      27.986  31.154  21.386  1.00  0.00     0.029 H 
ATOM     42  H   UNL A   1      28.122  29.644  20.613  1.00  0.00     0.029 H 
BRANCH  32  43
ATOM     43  O   UNL A   1      30.619  30.078  21.251  1.00  0.00    -0.393 OA
ATOM     44  H   UNL A   1      30.321  29.726  20.398  1.00  0.00     0.210 HD
ENDBRANCH  32  43
ENDBRANCH  27  30
ENDBRANCH  24  27
ENDBRANCH  11  17
ENDBRANCH   8  11
ENDBRANCH   4   7
ENDBRANCH   1   4
BRANCH   1  45
ATOM     45  C   UNL A   1      34.134  25.794  25.563  1.00  0.00    -0.052 C 
ATOM     46  H   UNL A   1      34.444  26.326  26.438  1.00  0.00     0.027 H 
ATOM     47  H   UNL A   1      33.144  25.394  25.642  1.00  0.00     0.027 H 
BRANCH  45  48
ATOM     48  C   UNL A   1      34.110  26.778  24.390  1.00  0.00    -0.052 C 
ATOM     49  H   UNL A   1      33.282  26.526  23.760  1.00  0.00     0.027 H 
ATOM     50  H   UNL A   1      35.054  26.687  23.898  1.00  0.00     0.027 H 
BRANCH  48  51
ATOM     51  C   UNL A   1      33.970  28.244  24.798  1.00  0.00    -0.036 C 
ATOM     52  H   UNL A   1      33.031  28.607  24.435  1.00  0.00     0.028 H 
ATOM     53  H   UNL A   1      34.805  28.764  24.375  1.00  0.00     0.028 H 
BRANCH  51  54
ATOM     54  C   UNL A   1      34.024  28.477  26.301  1.00  0.00     0.018 C 
ATOM     55  H   UNL A   1      34.978  28.158  26.665  1.00  0.00     0.049 H 
ATOM     56  H   UNL A   1      33.231  27.917  26.752  1.00  0.00     0.049 H 
BRANCH  54  57
ATOM     57  N   UNL A   1      33.835  29.878  26.640  1.00  0.00    -0.352 N 
ATOM     58  C   UNL A   1      34.554  30.654  27.512  1.00  0.00     0.251 C 
ATOM     59  H   UNL A   1      33.090  30.330  26.183  1.00  0.00     0.163 HD
ATOM     60  O   UNL A   1      34.139  31.762  27.847  1.00  0.00    -0.269 OA
BRANCH  58  61
ATOM     61  C   UNL A   1      35.827  30.146  28.059  1.00  0.00     0.039 A 
ATOM     62  C   UNL A   1      36.966  30.157  27.252  1.00  0.00    -0.049 A 
ATOM     63  C   UNL A   1      35.893  29.653  29.365  1.00  0.00    -0.049 A 
ATOM     64  C   UNL A   1      38.181  29.705  27.767  1.00  0.00    -0.053 A 
ATOM     65  H   UNL A   1      36.910  30.498  26.279  1.00  0.00     0.063 H 
ATOM     66  C   UNL A   1      37.120  29.288  29.906  1.00  0.00    -0.053 A 
ATOM     67  H   UNL A   1      35.032  29.559  29.927  1.00  0.00     0.063 H 
ATOM     68  C   UNL A   1      38.272  29.285  29.105  1.00  0.00    -0.014 A 
ATOM     69  H   UNL A   1      39.017  29.679  27.164  1.00  0.00     0.063 H 
ATOM     70  H   UNL A   1      37.185  29.018  30.900  1.00  0.00     0.063 H 
BRANCH  68  71
ATOM     71  C   UNL A   1      39.551  28.792  29.671  1.00  0.00     0.031 A 
ATOM     72  C   UNL A   1      40.180  29.512  30.832  1.00  0.00     0.074 A 
ATOM     73  C   UNL A   1      40.171  27.736  29.114  1.00  0.00     0.049 A 
ATOM     74  N   UNL A   1      41.313  29.273  31.443  1.00  0.00    -0.248 NA
ATOM     75  C   UNL A   1      39.454  30.681  31.355  1.00  0.00    -0.034 C 
ATOM     76  C   UNL A   1      39.681  26.979  27.961  1.00  0.00    -0.036 A 
ATOM     77  N   UNL A   1      41.350  27.115  29.443  1.00  0.00    -0.354 N 
ATOM     78  C   UNL A   1      41.442  30.269  32.402  1.00  0.00     0.074 A 
ATOM     79  C   UNL A   1      40.307  31.153  32.250  1.00  0.00    -0.034 C 
ATOM     80  H   UNL A   1      38.522  31.039  31.093  1.00  0.00     0.065 H 
ATOM     81  C   UNL A   1      40.533  25.975  27.701  1.00  0.00    -0.036 A 
ATOM     82  H   UNL A   1      38.819  27.186  27.432  1.00  0.00     0.065 H 
ATOM     83  C   UNL A   1      41.647  26.040  28.642  1.00  0.00     0.049 A 
ATOM     84  H   UNL A   1      41.927  27.412  30.183  1.00  0.00     0.167 HD
ATOM     85  C   UNL A   1      42.405  30.421  33.342  1.00  0.00     0.037 A 
ATOM     86  H   UNL A   1      40.180  32.035  32.771  1.00  0.00     0.065 H 
ATOM     87  H   UNL A   1      40.419  25.270  26.956  1.00  0.00     0.065 H 
ATOM     88  C   UNL A   1      42.702  25.203  28.669  1.00  0.00     0.037 A 
ATOM     89  C   UNL A   1      43.518  29.522  33.504  1.00  0.00     0.049 A 
ATOM     90  C   UNL A   1      43.765  25.396  29.716  1.00  0.00     0.074 A 
ATOM     91  C   UNL A   1      44.514  29.545  34.464  1.00  0.00    -0.036 A 
ATOM     92  N   UNL A   1      43.784  28.439  32.677  1.00  0.00    -0.354 N 
ATOM     93  N   UNL A   1      43.841  26.297  30.666  1.00  0.00    -0.248 NA
ATOM     94  C   UNL A   1      44.885  24.446  29.700  1.00  0.00    -0.034 C 
ATOM     95  C   UNL A   1      45.417  28.514  34.181  1.00  0.00    -0.036 A 
ATOM     96  H   UNL A   1      44.580  30.207  35.253  1.00  0.00     0.065 H 
ATOM     97  C   UNL A   1      44.946  27.804  33.088  1.00  0.00     0.049 A 
ATOM     98  H   UNL A   1      43.229  28.163  31.912  1.00  0.00     0.167 HD
ATOM     99  C   UNL A   1      44.990  25.997  31.386  1.00  0.00     0.074 A 
ATOM    100  C   UNL A   1      45.576  24.828  30.765  1.00  0.00    -0.034 C 
ATOM    101  H   UNL A   1      45.083  23.682  29.034  1.00  0.00     0.065 H 
ATOM    102  H   UNL A   1      46.288  28.316  34.698  1.00  0.00     0.065 H 
ATOM    103  C   UNL A   1      45.509  26.631  32.467  1.00  0.00     0.037 A 
ATOM    104  H   UNL A   1      46.424  24.351  31.108  1.00  0.00     0.065 H 
BRANCH  85 105
ATOM    105  C   UNL A   1      42.302  31.611  34.255  1.00  0.00     0.064 A 
ATOM    106  C   UNL A   1      42.917  32.837  33.951  1.00  0.00     0.173 A 
ATOM    107  C   UNL A   1      41.574  31.526  35.451  1.00  0.00     0.173 A 
ATOM    108  F   UNL A   1      43.636  32.972  32.826  1.00  0.00    -0.203 F 
ATOM    109  C   UNL A   1      42.848  33.913  34.832  1.00  0.00     0.198 A 
ATOM    110  C   UNL A   1      41.473  32.617  36.311  1.00  0.00     0.198 A 
ATOM    111  F   UNL A   1      40.960  30.383  35.791  1.00  0.00    -0.203 F 
ATOM    112  F   UNL A   1      43.504  35.048  34.553  1.00  0.00    -0.200 F 
ATOM    113  C   UNL A   1      42.121  33.805  36.007  1.00  0.00     0.200 A 
ATOM    114  F   UNL A   1      40.757  32.515  37.439  1.00  0.00    -0.200 F 
ATOM    115  F   UNL A   1      42.054  34.841  36.854  1.00  0.00    -0.200 F 
ENDBRANCH  85 105
BRANCH  88 116
ATOM    116  C   UNL A   1      42.777  24.075  27.703  1.00  0.00     0.064 A 
ATOM    117  C   UNL A   1      42.358  22.788  28.070  1.00  0.00     0.173 A 
ATOM    118  C   UNL A   1      43.262  24.256  26.400  1.00  0.00     0.173 A 
ATOM    119  F   UNL A   1      41.904  22.562  29.312  1.00  0.00    -0.203 F 
ATOM    120  C   UNL A   1      42.439  21.722  27.178  1.00  0.00     0.198 A 
ATOM    121  C   UNL A   1      43.315  23.194  25.498  1.00  0.00     0.198 A 
ATOM    122  F   UNL A   1      43.669  25.468  25.996  1.00  0.00    -0.203 F 
ATOM    123  F   UNL A   1      42.074  20.494  27.572  1.00  0.00    -0.200 F 
ATOM    124  C   UNL A   1      42.912  21.926  25.891  1.00  0.00     0.200 A 
ATOM    125  F   UNL A   1      43.757  23.399  24.251  1.00  0.00    -0.200 F 
ATOM    126  F   UNL A   1      42.985  20.901  25.032  1.00  0.00    -0.200 F 
ENDBRANCH  88 116
BRANCH 103 127
ATOM    127  C   UNL A   1      46.742  26.037  33.090  1.00  0.00     0.064 A 
ATOM    128  C   UNL A   1      46.674  25.027  34.061  1.00  0.00     0.173 A 
ATOM    129  C   UNL A   1      48.014  26.468  32.680  1.00  0.00     0.173 A 
ATOM    130  F   UNL A   1      45.483  24.590  34.499  1.00  0.00    -0.203 F 
ATOM    131  C   UNL A   1      47.832  24.495  34.622  1.00  0.00     0.198 A 
ATOM    132  C   UNL A   1      49.170  25.906  33.215  1.00  0.00     0.198 A 
ATOM    133  F   UNL A   1      48.137  27.424  31.748  1.00  0.00    -0.203 F 
ATOM    134  F   UNL A   1      47.742  23.572  35.590  1.00  0.00    -0.200 F 
ATOM    135  C   UNL A   1      49.078  24.929  34.193  1.00  0.00     0.200 A 
ATOM    136  F   UNL A   1      50.372  26.314  32.786  1.00  0.00    -0.200 F 
ATOM    137  F   UNL A   1      50.191  24.409  34.729  1.00  0.00    -0.200 F 
ENDBRANCH 103 127
ENDBRANCH  68  71
ENDBRANCH  58  61
ENDBRANCH  54  57
ENDBRANCH  51  54
ENDBRANCH  48  51
ENDBRANCH  45  48
ENDBRANCH   1  45
TORSDOF 18
ENDMDL
MODEL 9
REMARK VINA RESULT:     -11.3      2.445      4.762
REMARK SMILES C[C@@H](C(=O)NCCCCCCNC(=O)c1ccc(-c2c3nc(c(-c4c(F)c(F)c(F)c(F)c4F)c4ccc([nH]4)c(-c4c(F)c(F)c(F)c(F)c4F)c4nc(c(-c5c(F)c(F)c(F)c(F)c5F)c5ccc2[nH]5)C=C4)C=C3)cc1)c1ccc(C[C@H]2CCC[C@@H]2O)cc1
REMARK SMILES IDX 7 1 6 4 5 7 3 8 4 9 2 11 1 13 78 17 79 18 90 19 80 20 89 22
REMARK SMILES IDX 81 24 82 27 83 30 84 31 87 32 85 34 86 37 88 43 8 45 9 48
REMARK SMILES IDX 10 51 11 54 12 57 13 58 14 60 15 61 16 62 77 63 17 64 76 66
REMARK SMILES IDX 18 68 19 71 20 72 70 73 21 74 75 75 69 76 71 77 22 78 74 79
REMARK SMILES IDX 68 81 67 83 23 85 55 88 35 89 54 90 36 91 39 92 53 93 72 94
REMARK SMILES IDX 37 95 38 97 52 99 73 100 40 103 24 105 25 106 33 107 26 108
REMARK SMILES IDX 27 109 31 110 34 111 28 112 29 113 32 114 30 115 56 116
REMARK SMILES IDX 57 117 65 118 58 119 59 120 63 121 66 122 60 123 61 124
REMARK SMILES IDX 64 125 62 126 41 127 42 128 50 129 43 130 44 131 48 132
REMARK SMILES IDX 51 133 45 134 46 135 49 136 47 137
REMARK H PARENT 7 2 7 3 6 5 6 6 5 10 2 12 1 14 1 15 1 16 79 21 90 23 80 25
REMARK H PARENT 89 26 82 28 82 29 83 33 84 35 84 36 87 38 85 39 85 40 86 41
REMARK H PARENT 86 42 88 44 8 46 8 47 9 49 9 50 10 52 10 53 11 55 11 56 12 59
REMARK H PARENT 16 65 77 67 17 69 76 70 75 80 69 82 71 84 74 86 68 87 36 96
REMARK H PARENT 39 98 72 101 37 102 73 104
REMARK Flexibility Score: inf
ROOT
ATOM      1  C   UNL A   1      34.027  27.736  23.118  1.00  0.00    -0.036 C 
ATOM      2  H   UNL A   1      34.382  28.490  23.789  1.00  0.00     0.028 H 
ATOM      3  H   UNL A   1      34.745  27.485  22.366  1.00  0.00     0.028 H 
ENDROOT
BRANCH   1   4
ATOM      4  C   UNL A   1      32.796  28.283  22.390  1.00  0.00     0.017 C 
ATOM      5  H   UNL A   1      33.112  28.872  21.554  1.00  0.00     0.049 H 
ATOM      6  H   UNL A   1      32.197  27.463  22.054  1.00  0.00     0.049 H 
BRANCH   4   7
ATOM      7  N   UNL A   1      32.011  29.105  23.283  1.00  0.00    -0.356 N 
ATOM      8  C   UNL A   1      30.678  29.080  23.563  1.00  0.00     0.227 C 
ATOM      9  O   UNL A   1      30.257  30.012  24.251  1.00  0.00    -0.274 OA
ATOM     10  H   UNL A   1      32.522  29.795  23.766  1.00  0.00     0.163 HD
BRANCH   8  11
ATOM     11  C   UNL A   1      29.818  27.905  23.072  1.00  0.00     0.060 C 
ATOM     12  H   UNL A   1      30.123  27.802  22.051  1.00  0.00     0.045 H 
BRANCH  11  13
ATOM     13  C   UNL A   1      28.311  28.178  23.139  1.00  0.00    -0.049 C 
ATOM     14  H   UNL A   1      28.078  28.671  24.060  1.00  0.00     0.024 H 
ATOM     15  H   UNL A   1      27.779  27.252  23.085  1.00  0.00     0.024 H 
ATOM     16  H   UNL A   1      28.026  28.803  22.318  1.00  0.00     0.024 H 
ENDBRANCH  11  13
BRANCH  11  17
ATOM     17  C   UNL A   1      30.079  26.598  23.812  1.00  0.00    -0.036 A 
ATOM     18  C   UNL A   1      30.211  26.601  25.206  1.00  0.00    -0.058 A 
ATOM     19  C   UNL A   1      30.305  25.401  23.116  1.00  0.00    -0.058 A 
ATOM     20  C   UNL A   1      30.605  25.445  25.879  1.00  0.00    -0.059 A 
ATOM     21  H   UNL A   1      30.015  27.463  25.738  1.00  0.00     0.063 H 
ATOM     22  C   UNL A   1      30.696  24.248  23.789  1.00  0.00    -0.059 A 
ATOM     23  H   UNL A   1      30.179  25.376  22.092  1.00  0.00     0.063 H 
ATOM     24  C   UNL A   1      30.901  24.274  25.172  1.00  0.00    -0.048 A 
ATOM     25  H   UNL A   1      30.679  25.453  26.909  1.00  0.00     0.063 H 
ATOM     26  H   UNL A   1      30.836  23.370  23.266  1.00  0.00     0.063 H 
BRANCH  24  27
ATOM     27  C   UNL A   1      31.513  23.082  25.864  1.00  0.00    -0.023 C 
ATOM     28  H   UNL A   1      30.721  22.431  26.167  1.00  0.00     0.032 H 
ATOM     29  H   UNL A   1      32.079  23.470  26.686  1.00  0.00     0.032 H 
BRANCH  27  30
ATOM     30  C   UNL A   1      32.499  22.270  25.004  1.00  0.00    -0.011 C 
ATOM     31  C   UNL A   1      33.865  22.920  24.722  1.00  0.00    -0.048 C 
ATOM     32  C   UNL A   1      32.851  20.882  25.548  1.00  0.00     0.057 C 
ATOM     33  H   UNL A   1      31.914  22.215  24.110  1.00  0.00     0.033 H 
ATOM     34  C   UNL A   1      34.883  21.774  24.698  1.00  0.00    -0.050 C 
ATOM     35  H   UNL A   1      34.111  23.618  25.495  1.00  0.00     0.027 H 
ATOM     36  H   UNL A   1      33.859  23.457  23.798  1.00  0.00     0.027 H 
ATOM     37  C   UNL A   1      34.061  20.495  24.713  1.00  0.00    -0.027 C 
ATOM     38  H   UNL A   1      33.049  20.871  26.599  1.00  0.00     0.060 H 
ATOM     39  H   UNL A   1      35.519  21.820  25.558  1.00  0.00     0.027 H 
ATOM     40  H   UNL A   1      35.517  21.826  23.837  1.00  0.00     0.027 H 
ATOM     41  H   UNL A   1      34.604  19.693  25.171  1.00  0.00     0.029 H 
ATOM     42  H   UNL A   1      33.807  20.143  23.736  1.00  0.00     0.029 H 
BRANCH  32  43
ATOM     43  O   UNL A   1      31.778  19.978  25.376  1.00  0.00    -0.393 OA
ATOM     44  H   UNL A   1      30.987  20.464  25.095  1.00  0.00     0.210 HD
ENDBRANCH  32  43
ENDBRANCH  27  30
ENDBRANCH  24  27
ENDBRANCH  11  17
ENDBRANCH   8  11
ENDBRANCH   4   7
ENDBRANCH   1   4
BRANCH   1  45
ATOM     45  C   UNL A   1      33.757  26.458  23.923  1.00  0.00    -0.052 C 
ATOM     46  H   UNL A   1      34.458  25.713  23.608  1.00  0.00     0.027 H 
ATOM     47  H   UNL A   1      32.739  26.188  23.728  1.00  0.00     0.027 H 
BRANCH  45  48
ATOM     48  C   UNL A   1      33.878  26.615  25.441  1.00  0.00    -0.052 C 
ATOM     49  H   UNL A   1      34.622  25.930  25.790  1.00  0.00     0.027 H 
ATOM     50  H   UNL A   1      32.907  26.421  25.845  1.00  0.00     0.027 H 
BRANCH  48  51
ATOM     51  C   UNL A   1      34.270  28.019  25.902  1.00  0.00    -0.036 C 
ATOM     52  H   UNL A   1      33.931  28.721  25.170  1.00  0.00     0.028 H 
ATOM     53  H   UNL A   1      35.334  28.021  26.016  1.00  0.00     0.028 H 
BRANCH  51  54
ATOM     54  C   UNL A   1      33.684  28.413  27.251  1.00  0.00     0.018 C 
ATOM     55  H   UNL A   1      34.325  28.047  28.026  1.00  0.00     0.049 H 
ATOM     56  H   UNL A   1      32.705  27.986  27.324  1.00  0.00     0.049 H 
BRANCH  54  57
ATOM     57  N   UNL A   1      33.557  29.855  27.387  1.00  0.00    -0.352 N 
ATOM     58  C   UNL A   1      34.406  30.737  28.003  1.00  0.00     0.251 C 
ATOM     59  H   UNL A   1      32.752  30.251  26.982  1.00  0.00     0.163 HD
ATOM     60  O   UNL A   1      34.054  31.895  28.216  1.00  0.00    -0.269 OA
BRANCH  58  61
ATOM     61  C   UNL A   1      35.746  30.283  28.424  1.00  0.00     0.039 A 
ATOM     62  C   UNL A   1      35.903  29.709  29.686  1.00  0.00    -0.049 A 
ATOM     63  C   UNL A   1      36.846  30.431  27.574  1.00  0.00    -0.049 A 
ATOM     64  C   UNL A   1      37.160  29.252  30.085  1.00  0.00    -0.053 A 
ATOM     65  H   UNL A   1      35.095  29.624  30.322  1.00  0.00     0.063 H 
ATOM     66  C   UNL A   1      38.076  29.895  27.934  1.00  0.00    -0.053 A 
ATOM     67  H   UNL A   1      36.745  30.939  26.682  1.00  0.00     0.063 H 
ATOM     68  C   UNL A   1      38.252  29.323  29.204  1.00  0.00    -0.014 A 
ATOM     69  H   UNL A   1      37.289  28.859  31.029  1.00  0.00     0.063 H 
ATOM     70  H   UNL A   1      38.863  29.916  27.267  1.00  0.00     0.063 H 
BRANCH  68  71
ATOM     71  C   UNL A   1      39.599  28.851  29.609  1.00  0.00     0.031 A 
ATOM     72  C   UNL A   1      40.419  29.669  30.568  1.00  0.00     0.074 A 
ATOM     73  C   UNL A   1      40.104  27.722  29.079  1.00  0.00     0.049 A 
ATOM     74  N   UNL A   1      41.632  29.459  31.013  1.00  0.00    -0.248 NA
ATOM     75  C   UNL A   1      39.806  30.909  31.070  1.00  0.00    -0.034 C 
ATOM     76  C   UNL A   1      39.422  26.864  28.109  1.00  0.00    -0.036 A 
ATOM     77  N   UNL A   1      41.310  27.101  29.282  1.00  0.00    -0.354 N 
ATOM     78  C   UNL A   1      41.931  30.545  31.824  1.00  0.00     0.074 A 
ATOM     79  C   UNL A   1      40.801  31.445  31.759  1.00  0.00    -0.034 C 
ATOM     80  H   UNL A   1      38.850  31.268  30.922  1.00  0.00     0.065 H 
ATOM     81  C   UNL A   1      40.204  25.811  27.828  1.00  0.00    -0.036 A 
ATOM     82  H   UNL A   1      38.488  27.042  27.705  1.00  0.00     0.065 H 
ATOM     83  C   UNL A   1      41.457  25.938  28.566  1.00  0.00     0.049 A 
ATOM     84  H   UNL A   1      42.005  27.456  29.882  1.00  0.00     0.167 HD
ATOM     85  C   UNL A   1      43.037  30.763  32.576  1.00  0.00     0.037 A 
ATOM     86  H   UNL A   1      40.774  32.381  32.194  1.00  0.00     0.065 H 
ATOM     87  H   UNL A   1      39.960  25.035  27.193  1.00  0.00     0.065 H 
ATOM     88  C   UNL A   1      42.489  25.074  28.516  1.00  0.00     0.037 A 
ATOM     89  C   UNL A   1      44.147  29.851  32.655  1.00  0.00     0.049 A 
ATOM     90  C   UNL A   1      43.711  25.342  29.352  1.00  0.00     0.074 A 
ATOM     91  C   UNL A   1      45.286  29.942  33.435  1.00  0.00    -0.036 A 
ATOM     92  N   UNL A   1      44.258  28.678  31.920  1.00  0.00    -0.354 N 
ATOM     93  N   UNL A   1      43.955  26.335  30.173  1.00  0.00    -0.248 NA
ATOM     94  C   UNL A   1      44.799  24.359  29.261  1.00  0.00    -0.034 C 
ATOM     95  C   UNL A   1      46.115  28.858  33.126  1.00  0.00    -0.036 A 
ATOM     96  H   UNL A   1      45.489  30.681  34.126  1.00  0.00     0.065 H 
ATOM     97  C   UNL A   1      45.461  28.052  32.207  1.00  0.00     0.049 A 
ATOM     98  H   UNL A   1      43.582  28.341  31.288  1.00  0.00     0.167 HD
ATOM     99  C   UNL A   1      45.200  26.075  30.729  1.00  0.00     0.074 A 
ATOM    100  C   UNL A   1      45.660  24.828  30.154  1.00  0.00    -0.034 C 
ATOM    101  H   UNL A   1      44.874  23.523  28.660  1.00  0.00     0.065 H 
ATOM    102  H   UNL A   1      47.055  28.687  33.516  1.00  0.00     0.065 H 
ATOM    103  C   UNL A   1      45.898  26.802  31.637  1.00  0.00     0.037 A 
ATOM    104  H   UNL A   1      46.545  24.362  30.407  1.00  0.00     0.065 H 
BRANCH  85 105
ATOM    105  C   UNL A   1      43.102  32.046  33.357  1.00  0.00     0.064 A 
ATOM    106  C   UNL A   1      43.686  33.210  32.830  1.00  0.00     0.173 A 
ATOM    107  C   UNL A   1      42.568  32.115  34.652  1.00  0.00     0.173 A 
ATOM    108  F   UNL A   1      44.223  33.199  31.599  1.00  0.00    -0.203 F 
ATOM    109  C   UNL A   1      43.777  34.375  33.587  1.00  0.00     0.198 A 
ATOM    110  C   UNL A   1      42.625  33.293  35.393  1.00  0.00     0.198 A 
ATOM    111  F   UNL A   1      41.992  31.037  35.206  1.00  0.00    -0.203 F 
ATOM    112  F   UNL A   1      44.404  35.449  33.088  1.00  0.00    -0.200 F 
ATOM    113  C   UNL A   1      43.241  34.418  34.865  1.00  0.00     0.200 A 
ATOM    114  F   UNL A   1      42.093  33.337  36.622  1.00  0.00    -0.200 F 
ATOM    115  F   UNL A   1      43.328  35.540  35.593  1.00  0.00    -0.200 F 
ENDBRANCH  85 105
BRANCH  88 116
ATOM    116  C   UNL A   1      42.389  23.849  27.679  1.00  0.00     0.064 A 
ATOM    117  C   UNL A   1      41.890  22.654  28.217  1.00  0.00     0.173 A 
ATOM    118  C   UNL A   1      42.782  23.844  26.333  1.00  0.00     0.173 A 
ATOM    119  F   UNL A   1      41.519  22.603  29.505  1.00  0.00    -0.203 F 
ATOM    120  C   UNL A   1      41.807  21.496  27.448  1.00  0.00     0.198 A 
ATOM    121  C   UNL A   1      42.671  22.693  25.556  1.00  0.00     0.198 A 
ATOM    122  F   UNL A   1      43.259  24.963  25.769  1.00  0.00    -0.203 F 
ATOM    123  F   UNL A   1      41.370  20.357  28.001  1.00  0.00    -0.200 F 
ATOM    124  C   UNL A   1      42.192  21.518  26.116  1.00  0.00     0.200 A 
ATOM    125  F   UNL A   1      43.028  22.722  24.265  1.00  0.00    -0.200 F 
ATOM    126  F   UNL A   1      42.107  20.405  25.374  1.00  0.00    -0.200 F 
ENDBRANCH  88 116
BRANCH 103 127
ATOM    127  C   UNL A   1      47.206  26.237  32.116  1.00  0.00     0.064 A 
ATOM    128  C   UNL A   1      47.287  25.381  33.224  1.00  0.00     0.173 A 
ATOM    129  C   UNL A   1      48.395  26.535  31.429  1.00  0.00     0.173 A 
ATOM    130  F   UNL A   1      46.184  25.075  33.923  1.00  0.00    -0.203 F 
ATOM    131  C   UNL A   1      48.512  24.872  33.646  1.00  0.00     0.198 A 
ATOM    132  C   UNL A   1      49.612  25.994  31.832  1.00  0.00     0.198 A 
ATOM    133  F   UNL A   1      48.373  27.341  30.358  1.00  0.00    -0.203 F 
ATOM    134  F   UNL A   1      48.574  24.103  34.743  1.00  0.00    -0.200 F 
ATOM    135  C   UNL A   1      49.672  25.172  32.946  1.00  0.00     0.200 A 
ATOM    136  F   UNL A   1      50.728  26.271  31.142  1.00  0.00    -0.200 F 
ATOM    137  F   UNL A   1      50.849  24.674  33.350  1.00  0.00    -0.200 F 
ENDBRANCH 103 127
ENDBRANCH  68  71
ENDBRANCH  58  61
ENDBRANCH  54  57
ENDBRANCH  51  54
ENDBRANCH  48  51
ENDBRANCH  45  48
ENDBRANCH   1  45
TORSDOF 18
ENDMDL
MODEL 10
REMARK VINA RESULT:     -11.3      4.047      9.135
REMARK SMILES C[C@@H](C(=O)NCCCCCCNC(=O)c1ccc(-c2c3nc(c(-c4c(F)c(F)c(F)c(F)c4F)c4ccc([nH]4)c(-c4c(F)c(F)c(F)c(F)c4F)c4nc(c(-c5c(F)c(F)c(F)c(F)c5F)c5ccc2[nH]5)C=C4)C=C3)cc1)c1ccc(C[C@H]2CCC[C@@H]2O)cc1
REMARK SMILES IDX 7 1 6 4 5 7 3 8 4 9 2 11 1 13 78 17 79 18 90 19 80 20 89 22
REMARK SMILES IDX 81 24 82 27 83 30 84 31 87 32 85 34 86 37 88 43 8 45 9 48
REMARK SMILES IDX 10 51 11 54 12 57 13 58 14 60 15 61 16 62 77 63 17 64 76 66
REMARK SMILES IDX 18 68 19 71 20 72 70 73 21 74 75 75 69 76 71 77 22 78 74 79
REMARK SMILES IDX 68 81 67 83 23 85 55 88 35 89 54 90 36 91 39 92 53 93 72 94
REMARK SMILES IDX 37 95 38 97 52 99 73 100 40 103 24 105 25 106 33 107 26 108
REMARK SMILES IDX 27 109 31 110 34 111 28 112 29 113 32 114 30 115 56 116
REMARK SMILES IDX 57 117 65 118 58 119 59 120 63 121 66 122 60 123 61 124
REMARK SMILES IDX 64 125 62 126 41 127 42 128 50 129 43 130 44 131 48 132
REMARK SMILES IDX 51 133 45 134 46 135 49 136 47 137
REMARK H PARENT 7 2 7 3 6 5 6 6 5 10 2 12 1 14 1 15 1 16 79 21 90 23 80 25
REMARK H PARENT 89 26 82 28 82 29 83 33 84 35 84 36 87 38 85 39 85 40 86 41
REMARK H PARENT 86 42 88 44 8 46 8 47 9 49 9 50 10 52 10 53 11 55 11 56 12 59
REMARK H PARENT 16 65 77 67 17 69 76 70 75 80 69 82 71 84 74 86 68 87 36 96
REMARK H PARENT 39 98 72 101 37 102 73 104
REMARK Flexibility Score: inf
ROOT
ATOM      1  C   UNL A   1      33.869  26.857  25.458  1.00  0.00    -0.036 C 
ATOM      2  H   UNL A   1      34.249  27.470  26.249  1.00  0.00     0.028 H 
ATOM      3  H   UNL A   1      34.248  27.143  24.499  1.00  0.00     0.028 H 
ENDROOT
BRANCH   1   4
ATOM      4  C   UNL A   1      32.349  27.029  25.405  1.00  0.00     0.017 C 
ATOM      5  H   UNL A   1      31.879  26.127  25.735  1.00  0.00     0.049 H 
ATOM      6  H   UNL A   1      32.068  27.842  26.042  1.00  0.00     0.049 H 
BRANCH   4   7
ATOM      7  N   UNL A   1      31.925  27.320  24.055  1.00  0.00    -0.356 N 
ATOM      8  C   UNL A   1      31.027  26.682  23.254  1.00  0.00     0.227 C 
ATOM      9  O   UNL A   1      30.985  27.064  22.083  1.00  0.00    -0.274 OA
ATOM     10  H   UNL A   1      32.356  28.106  23.646  1.00  0.00     0.163 HD
BRANCH   8  11
ATOM     11  C   UNL A   1      30.110  25.602  23.849  1.00  0.00     0.060 C 
ATOM     12  H   UNL A   1      29.326  25.533  23.123  1.00  0.00     0.045 H 
BRANCH  11  13
ATOM     13  C   UNL A   1      29.522  25.979  25.213  1.00  0.00    -0.049 C 
ATOM     14  H   UNL A   1      28.627  25.418  25.384  1.00  0.00     0.024 H 
ATOM     15  H   UNL A   1      29.296  27.025  25.227  1.00  0.00     0.024 H 
ATOM     16  H   UNL A   1      30.233  25.757  25.981  1.00  0.00     0.024 H 
ENDBRANCH  11  13
BRANCH  11  17
ATOM     17  C   UNL A   1      30.778  24.240  24.000  1.00  0.00    -0.036 A 
ATOM     18  C   UNL A   1      30.840  23.631  25.260  1.00  0.00    -0.058 A 
ATOM     19  C   UNL A   1      31.439  23.630  22.923  1.00  0.00    -0.058 A 
ATOM     20  C   UNL A   1      31.584  22.466  25.444  1.00  0.00    -0.059 A 
ATOM     21  H   UNL A   1      30.333  24.046  26.057  1.00  0.00     0.063 H 
ATOM     22  C   UNL A   1      32.179  22.466  23.108  1.00  0.00    -0.059 A 
ATOM     23  H   UNL A   1      31.375  24.049  21.983  1.00  0.00     0.063 H 
ATOM     24  C   UNL A   1      32.302  21.903  24.382  1.00  0.00    -0.048 A 
ATOM     25  H   UNL A   1      31.606  22.015  26.372  1.00  0.00     0.063 H 
ATOM     26  H   UNL A   1      32.639  22.017  22.302  1.00  0.00     0.063 H 
BRANCH  24  27
ATOM     27  C   UNL A   1      33.262  20.762  24.611  1.00  0.00    -0.023 C 
ATOM     28  H   UNL A   1      33.650  20.849  25.604  1.00  0.00     0.032 H 
ATOM     29  H   UNL A   1      34.013  20.846  23.854  1.00  0.00     0.032 H 
BRANCH  27  30
ATOM     30  C   UNL A   1      32.647  19.359  24.457  1.00  0.00    -0.011 C 
ATOM     31  C   UNL A   1      32.709  18.729  23.055  1.00  0.00    -0.048 C 
ATOM     32  C   UNL A   1      33.236  18.284  25.375  1.00  0.00     0.057 C 
ATOM     33  H   UNL A   1      31.638  19.603  24.718  1.00  0.00     0.033 H 
ATOM     34  C   UNL A   1      32.908  17.224  23.274  1.00  0.00    -0.050 C 
ATOM     35  H   UNL A   1      33.530  19.135  22.501  1.00  0.00     0.027 H 
ATOM     36  H   UNL A   1      31.819  18.928  22.496  1.00  0.00     0.027 H 
ATOM     37  C   UNL A   1      32.706  16.997  24.763  1.00  0.00    -0.027 C 
ATOM     38  H   UNL A   1      34.303  18.308  25.435  1.00  0.00     0.060 H 
ATOM     39  H   UNL A   1      33.895  16.932  22.981  1.00  0.00     0.027 H 
ATOM     40  H   UNL A   1      32.224  16.646  22.688  1.00  0.00     0.027 H 
ATOM     41  H   UNL A   1      33.266  16.150  25.103  1.00  0.00     0.029 H 
ATOM     42  H   UNL A   1      31.691  16.789  25.026  1.00  0.00     0.029 H 
BRANCH  32  43
ATOM     43  O   UNL A   1      32.798  18.455  26.709  1.00  0.00    -0.393 OA
ATOM     44  H   UNL A   1      33.392  19.067  27.169  1.00  0.00     0.210 HD
ENDBRANCH  32  43
ENDBRANCH  27  30
ENDBRANCH  24  27
ENDBRANCH  11  17
ENDBRANCH   8  11
ENDBRANCH   4   7
ENDBRANCH   1   4
BRANCH   1  45
ATOM     45  C   UNL A   1      34.324  25.412  25.703  1.00  0.00    -0.052 C 
ATOM     46  H   UNL A   1      33.528  24.892  26.195  1.00  0.00     0.027 H 
ATOM     47  H   UNL A   1      35.216  25.472  26.292  1.00  0.00     0.027 H 
BRANCH  45  48
ATOM     48  C   UNL A   1      34.693  24.630  24.439  1.00  0.00    -0.052 C 
ATOM     49  H   UNL A   1      34.773  25.324  23.629  1.00  0.00     0.027 H 
ATOM     50  H   UNL A   1      33.922  23.903  24.295  1.00  0.00     0.027 H 
BRANCH  48  51
ATOM     51  C   UNL A   1      36.008  23.856  24.536  1.00  0.00    -0.036 C 
ATOM     52  H   UNL A   1      36.768  24.420  24.038  1.00  0.00     0.028 H 
ATOM     53  H   UNL A   1      35.839  22.901  24.083  1.00  0.00     0.028 H 
BRANCH  51  54
ATOM     54  C   UNL A   1      36.467  23.590  25.962  1.00  0.00     0.018 C 
ATOM     55  H   UNL A   1      35.641  23.206  26.525  1.00  0.00     0.049 H 
ATOM     56  H   UNL A   1      36.819  24.513  26.374  1.00  0.00     0.049 H 
BRANCH  54  57
ATOM     57  N   UNL A   1      37.557  22.630  26.012  1.00  0.00    -0.352 N 
ATOM     58  C   UNL A   1      38.878  22.846  26.307  1.00  0.00     0.251 C 
ATOM     59  H   UNL A   1      37.314  21.699  25.806  1.00  0.00     0.163 HD
ATOM     60  O   UNL A   1      39.714  21.969  26.101  1.00  0.00    -0.269 OA
BRANCH  58  61
ATOM     61  C   UNL A   1      39.296  24.149  26.863  1.00  0.00     0.039 A 
ATOM     62  C   UNL A   1      39.008  24.441  28.197  1.00  0.00    -0.049 A 
ATOM     63  C   UNL A   1      39.965  25.081  26.064  1.00  0.00    -0.049 A 
ATOM     64  C   UNL A   1      39.422  25.658  28.741  1.00  0.00    -0.053 A 
ATOM     65  H   UNL A   1      38.491  23.763  28.778  1.00  0.00     0.063 H 
ATOM     66  C   UNL A   1      40.456  26.251  26.630  1.00  0.00    -0.053 A 
ATOM     67  H   UNL A   1      40.093  24.900  25.056  1.00  0.00     0.063 H 
ATOM     68  C   UNL A   1      40.166  26.564  27.967  1.00  0.00    -0.014 A 
ATOM     69  H   UNL A   1      39.182  25.894  29.716  1.00  0.00     0.063 H 
ATOM     70  H   UNL A   1      41.034  26.892  26.065  1.00  0.00     0.063 H 
BRANCH  68  71
ATOM     71  C   UNL A   1      40.610  27.866  28.521  1.00  0.00     0.031 A 
ATOM     72  C   UNL A   1      42.064  28.088  28.835  1.00  0.00     0.074 A 
ATOM     73  C   UNL A   1      39.705  28.826  28.791  1.00  0.00     0.049 A 
ATOM     74  N   UNL A   1      42.650  29.132  29.365  1.00  0.00    -0.248 NA
ATOM     75  C   UNL A   1      42.979  26.972  28.546  1.00  0.00    -0.034 C 
ATOM     76  C   UNL A   1      38.263  28.716  28.567  1.00  0.00    -0.036 A 
ATOM     77  N   UNL A   1      39.866  30.085  29.311  1.00  0.00    -0.354 N 
ATOM     78  C   UNL A   1      43.990  28.789  29.490  1.00  0.00     0.074 A 
ATOM     79  C   UNL A   1      44.120  27.420  29.043  1.00  0.00    -0.034 C 
ATOM     80  H   UNL A   1      42.782  26.074  28.077  1.00  0.00     0.065 H 
ATOM     81  C   UNL A   1      37.676  29.871  28.915  1.00  0.00    -0.036 A 
ATOM     82  H   UNL A   1      37.776  27.882  28.202  1.00  0.00     0.065 H 
ATOM     83  C   UNL A   1      38.692  30.788  29.422  1.00  0.00     0.049 A 
ATOM     84  H   UNL A   1      40.740  30.449  29.581  1.00  0.00     0.167 HD
ATOM     85  C   UNL A   1      45.024  29.554  29.916  1.00  0.00     0.037 A 
ATOM     86  H   UNL A   1      44.989  26.867  29.104  1.00  0.00     0.065 H 
ATOM     87  H   UNL A   1      36.668  30.078  28.837  1.00  0.00     0.065 H 
ATOM     88  C   UNL A   1      38.466  32.035  29.880  1.00  0.00     0.037 A 
ATOM     89  C   UNL A   1      44.890  30.925  30.335  1.00  0.00     0.049 A 
ATOM     90  C   UNL A   1      39.629  32.863  30.356  1.00  0.00     0.074 A 
ATOM     91  C   UNL A   1      45.880  31.810  30.722  1.00  0.00    -0.036 A 
ATOM     92  N   UNL A   1      43.684  31.607  30.428  1.00  0.00    -0.354 N 
ATOM     93  N   UNL A   1      40.903  32.557  30.402  1.00  0.00    -0.248 NA
ATOM     94  C   UNL A   1      39.320  34.216  30.836  1.00  0.00    -0.034 C 
ATOM     95  C   UNL A   1      45.268  33.008  31.109  1.00  0.00    -0.036 A 
ATOM     96  H   UNL A   1      46.894  31.621  30.724  1.00  0.00     0.065 H 
ATOM     97  C   UNL A   1      43.903  32.894  30.894  1.00  0.00     0.049 A 
ATOM     98  H   UNL A   1      42.803  31.232  30.197  1.00  0.00     0.167 HD
ATOM     99  C   UNL A   1      41.552  33.691  30.872  1.00  0.00     0.074 A 
ATOM    100  C   UNL A   1      40.530  34.693  31.092  1.00  0.00    -0.034 C 
ATOM    101  H   UNL A   1      38.402  34.676  30.944  1.00  0.00     0.065 H 
ATOM    102  H   UNL A   1      45.751  33.836  31.490  1.00  0.00     0.065 H 
ATOM    103  C   UNL A   1      42.876  33.885  31.095  1.00  0.00     0.037 A 
ATOM    104  H   UNL A   1      40.720  35.657  31.408  1.00  0.00     0.065 H 
BRANCH  85 105
ATOM    105  C   UNL A   1      46.384  28.917  29.961  1.00  0.00     0.064 A 
ATOM    106  C   UNL A   1      47.252  28.936  28.856  1.00  0.00     0.173 A 
ATOM    107  C   UNL A   1      46.831  28.281  31.128  1.00  0.00     0.173 A 
ATOM    108  F   UNL A   1      46.872  29.520  27.708  1.00  0.00    -0.203 F 
ATOM    109  C   UNL A   1      48.490  28.300  28.903  1.00  0.00     0.198 A 
ATOM    110  C   UNL A   1      48.087  27.681  31.186  1.00  0.00     0.198 A 
ATOM    111  F   UNL A   1      46.049  28.237  32.218  1.00  0.00    -0.203 F 
ATOM    112  F   UNL A   1      49.267  28.269  27.812  1.00  0.00    -0.200 F 
ATOM    113  C   UNL A   1      48.909  27.679  30.070  1.00  0.00     0.200 A 
ATOM    114  F   UNL A   1      48.496  27.094  32.319  1.00  0.00    -0.200 F 
ATOM    115  F   UNL A   1      50.101  27.068  30.115  1.00  0.00    -0.200 F 
ENDBRANCH  85 105
BRANCH  88 116
ATOM    116  C   UNL A   1      37.088  32.591  29.862  1.00  0.00     0.064 A 
ATOM    117  C   UNL A   1      36.233  32.425  30.961  1.00  0.00     0.173 A 
ATOM    118  C   UNL A   1      36.597  33.300  28.756  1.00  0.00     0.173 A 
ATOM    119  F   UNL A   1      36.651  31.738  32.035  1.00  0.00    -0.203 F 
ATOM    120  C   UNL A   1      34.935  32.928  30.948  1.00  0.00     0.198 A 
ATOM    121  C   UNL A   1      35.307  33.829  28.756  1.00  0.00     0.198 A 
ATOM    122  F   UNL A   1      37.375  33.494  27.682  1.00  0.00    -0.203 F 
ATOM    123  F   UNL A   1      34.125  32.714  31.994  1.00  0.00    -0.200 F 
ATOM    124  C   UNL A   1      34.475  33.635  29.848  1.00  0.00     0.200 A 
ATOM    125  F   UNL A   1      34.872  34.526  27.698  1.00  0.00    -0.200 F 
ATOM    126  F   UNL A   1      33.227  34.124  29.838  1.00  0.00    -0.200 F 
ENDBRANCH  88 116
BRANCH 103 127
ATOM    127  C   UNL A   1      43.307  35.254  31.545  1.00  0.00     0.064 A 
ATOM    128  C   UNL A   1      43.707  36.245  30.637  1.00  0.00     0.173 A 
ATOM    129  C   UNL A   1      43.285  35.585  32.909  1.00  0.00     0.173 A 
ATOM    130  F   UNL A   1      43.760  35.976  29.323  1.00  0.00    -0.203 F 
ATOM    131  C   UNL A   1      44.102  37.504  31.081  1.00  0.00     0.198 A 
ATOM    132  C   UNL A   1      43.643  36.857  33.346  1.00  0.00     0.198 A 
ATOM    133  F   UNL A   1      42.901  34.678  33.820  1.00  0.00    -0.203 F 
ATOM    134  F   UNL A   1      44.537  38.417  30.200  1.00  0.00    -0.200 F 
ATOM    135  C   UNL A   1      44.063  37.812  32.433  1.00  0.00     0.200 A 
ATOM    136  F   UNL A   1      43.586  37.157  34.651  1.00  0.00    -0.200 F 
ATOM    137  F   UNL A   1      44.435  39.028  32.857  1.00  0.00    -0.200 F 
ENDBRANCH 103 127
ENDBRANCH  68  71
ENDBRANCH  58  61
ENDBRANCH  54  57
ENDBRANCH  51  54
ENDBRANCH  48  51
ENDBRANCH  45  48
ENDBRANCH   1  45
TORSDOF 18
ENDMDL
