MODEL 1
REMARK VINA RESULT:     -11.8      0.000      0.000
REMARK SMILES CS(=O)(=O)c1ccc(-c2cc(Cl)cnc2-c2ccc(C(=O)NCCCCCCNC(=O)c3ccc(-c4c5nc(c(-c6c(F)c(F)c(F)c(F)c6F)c6ccc([nH]6)c(-c6c(F)c(F)c(F)c(F)c6F)c6nc(c(-c7c(F)c(F)c(F)c(F)c7F)c7ccc4[nH]7)C=C6)C=C5)cc3)nc2)cc1
REMARK SMILES IDX 24 1 23 4 22 7 20 8 21 9 19 11 16 12 17 13 96 14 18 15 95 17
REMARK SMILES IDX 15 20 9 21 10 22 11 23 14 25 12 26 13 27 8 29 5 30 6 31
REMARK SMILES IDX 98 32 7 33 97 35 2 39 3 40 4 41 1 42 25 46 26 49 27 52 28 55
REMARK SMILES IDX 29 58 30 59 31 61 32 62 33 63 94 64 34 65 93 67 35 69 36 72
REMARK SMILES IDX 37 73 87 74 38 75 92 76 86 77 88 78 39 79 91 80 85 82 84 84
REMARK SMILES IDX 40 86 72 89 52 90 71 91 53 92 56 93 70 94 89 95 54 96 55 98
REMARK SMILES IDX 69 100 90 101 57 104 41 106 42 107 50 108 43 109 44 110
REMARK SMILES IDX 48 111 51 112 45 113 46 114 49 115 47 116 73 117 74 118
REMARK SMILES IDX 82 119 75 120 76 121 80 122 83 123 77 124 78 125 81 126
REMARK SMILES IDX 79 127 58 128 59 129 67 130 60 131 61 132 65 133 68 134
REMARK SMILES IDX 62 135 63 136 66 137 64 138
REMARK H PARENT 24 2 24 3 23 5 23 6 22 10 17 16 96 18 18 19 10 24 13 28 6 34
REMARK H PARENT 98 36 7 37 97 38 1 43 1 44 1 45 25 47 25 48 26 50 26 51 27 53
REMARK H PARENT 27 54 28 56 28 57 29 60 33 66 94 68 34 70 93 71 92 81 86 83
REMARK H PARENT 88 85 91 87 85 88 53 97 56 99 89 102 54 103 90 105
REMARK Flexibility Score: inf
ROOT
ATOM      1  C   UNL A   1      40.285  25.103  27.440  1.00  0.00    -0.036 C 
ATOM      2  H   UNL A   1      41.064  24.503  27.862  1.00  0.00     0.028 H 
ATOM      3  H   UNL A   1      40.155  26.028  27.961  1.00  0.00     0.028 H 
ENDROOT
BRANCH   1   4
ATOM      4  C   UNL A   1      38.966  24.334  27.556  1.00  0.00     0.018 C 
ATOM      5  H   UNL A   1      38.788  24.093  28.583  1.00  0.00     0.049 H 
ATOM      6  H   UNL A   1      38.173  24.947  27.180  1.00  0.00     0.049 H 
BRANCH   4   7
ATOM      7  N   UNL A   1      39.026  23.112  26.780  1.00  0.00    -0.351 N 
ATOM      8  C   UNL A   1      38.158  22.531  25.882  1.00  0.00     0.269 C 
ATOM      9  O   UNL A   1      38.524  21.469  25.376  1.00  0.00    -0.268 OA
ATOM     10  H   UNL A   1      39.850  22.594  26.925  1.00  0.00     0.163 HD
BRANCH   8  11
ATOM     11  C   UNL A   1      36.849  23.148  25.474  1.00  0.00     0.128 A 
ATOM     12  C   UNL A   1      34.326  24.156  24.921  1.00  0.00     0.019 A 
ATOM     13  C   UNL A   1      35.254  23.984  23.890  1.00  0.00    -0.049 A 
ATOM     14  C   UNL A   1      34.764  23.870  26.207  1.00  0.00     0.037 A 
ATOM     15  C   UNL A   1      36.536  23.508  24.170  1.00  0.00    -0.030 A 
ATOM     16  H   UNL A   1      34.991  24.210  22.917  1.00  0.00     0.063 H 
ATOM     17  N   UNL A   1      35.978  23.347  26.501  1.00  0.00    -0.250 NA
ATOM     18  H   UNL A   1      34.123  24.070  26.991  1.00  0.00     0.085 H 
ATOM     19  H   UNL A   1      37.241  23.425  23.420  1.00  0.00     0.065 H 
BRANCH  12  20
ATOM     20  C   UNL A   1      32.952  24.585  24.657  1.00  0.00     0.080 A 
ATOM     21  C   UNL A   1      31.932  23.687  24.277  1.00  0.00     0.010 A 
ATOM     22  C   UNL A   1      30.673  24.238  23.982  1.00  0.00    -0.032 A 
ATOM     23  C   UNL A   1      30.469  25.610  24.080  1.00  0.00     0.060 A 
ATOM     24  H   UNL A   1      29.898  23.622  23.693  1.00  0.00     0.065 H 
ATOM     25  N   UNL A   1      32.759  25.926  24.773  1.00  0.00    -0.254 NA
ATOM     26  Cl  UNL A   1      28.942  26.294  23.706  1.00  0.00    -0.083 Cl
ATOM     27  C   UNL A   1      31.526  26.406  24.482  1.00  0.00     0.046 A 
ATOM     28  H   UNL A   1      31.368  27.422  24.564  1.00  0.00     0.086 H 
BRANCH  21  29
ATOM     29  C   UNL A   1      32.136  22.231  24.180  1.00  0.00    -0.016 A 
ATOM     30  C   UNL A   1      32.528  19.454  23.987  1.00  0.00     0.067 A 
ATOM     31  C   UNL A   1      32.500  20.062  25.243  1.00  0.00    -0.043 A 
ATOM     32  C   UNL A   1      32.349  20.211  22.829  1.00  0.00    -0.043 A 
ATOM     33  C   UNL A   1      32.305  21.443  25.333  1.00  0.00    -0.053 A 
ATOM     34  H   UNL A   1      32.621  19.496  26.098  1.00  0.00     0.064 H 
ATOM     35  C   UNL A   1      32.153  21.592  22.928  1.00  0.00    -0.053 A 
ATOM     36  H   UNL A   1      32.363  19.755  21.903  1.00  0.00     0.064 H 
ATOM     37  H   UNL A   1      32.285  21.893  26.262  1.00  0.00     0.063 H 
ATOM     38  H   UNL A   1      32.018  22.150  22.071  1.00  0.00     0.063 H 
BRANCH  30  39
ATOM     39  S   UNL A   1      32.756  17.696  23.864  1.00  0.00     0.175 S 
ATOM     40  O   UNL A   1      32.561  17.328  22.476  1.00  0.00    -0.224 OA
ATOM     41  O   UNL A   1      31.958  17.098  24.920  1.00  0.00    -0.224 OA
BRANCH  39  42
ATOM     42  C   UNL A   1      34.468  17.431  24.239  1.00  0.00     0.043 C 
ATOM     43  H   UNL A   1      34.917  18.357  24.528  1.00  0.00     0.040 H 
ATOM     44  H   UNL A   1      34.967  17.047  23.374  1.00  0.00     0.040 H 
ATOM     45  H   UNL A   1      34.552  16.727  25.041  1.00  0.00     0.040 H 
ENDBRANCH  39  42
ENDBRANCH  30  39
ENDBRANCH  21  29
ENDBRANCH  12  20
ENDBRANCH   8  11
ENDBRANCH   4   7
ENDBRANCH   1   4
BRANCH   1  46
ATOM     46  C   UNL A   1      40.671  25.451  25.995  1.00  0.00    -0.052 C 
ATOM     47  H   UNL A   1      39.989  26.195  25.640  1.00  0.00     0.027 H 
ATOM     48  H   UNL A   1      40.626  24.534  25.446  1.00  0.00     0.027 H 
BRANCH  46  49
ATOM     49  C   UNL A   1      42.096  25.988  25.812  1.00  0.00    -0.052 C 
ATOM     50  H   UNL A   1      42.527  26.123  26.783  1.00  0.00     0.027 H 
ATOM     51  H   UNL A   1      42.001  26.898  25.257  1.00  0.00     0.027 H 
BRANCH  49  52
ATOM     52  C   UNL A   1      43.034  25.091  25.001  1.00  0.00    -0.036 C 
ATOM     53  H   UNL A   1      44.027  25.480  25.087  1.00  0.00     0.028 H 
ATOM     54  H   UNL A   1      42.666  25.098  23.995  1.00  0.00     0.028 H 
BRANCH  52  55
ATOM     55  C   UNL A   1      43.056  23.630  25.441  1.00  0.00     0.018 C 
ATOM     56  H   UNL A   1      42.717  23.020  24.630  1.00  0.00     0.049 H 
ATOM     57  H   UNL A   1      42.416  23.530  26.293  1.00  0.00     0.049 H 
BRANCH  55  58
ATOM     58  N   UNL A   1      44.389  23.198  25.828  1.00  0.00    -0.352 N 
ATOM     59  C   UNL A   1      45.204  23.674  26.823  1.00  0.00     0.251 C 
ATOM     60  H   UNL A   1      44.762  22.456  25.298  1.00  0.00     0.163 HD
ATOM     61  O   UNL A   1      46.380  23.328  26.876  1.00  0.00    -0.269 OA
BRANCH  59  62
ATOM     62  C   UNL A   1      44.672  24.617  27.831  1.00  0.00     0.039 A 
ATOM     63  C   UNL A   1      45.120  25.941  27.819  1.00  0.00    -0.049 A 
ATOM     64  C   UNL A   1      43.765  24.191  28.806  1.00  0.00    -0.049 A 
ATOM     65  C   UNL A   1      44.624  26.850  28.756  1.00  0.00    -0.053 A 
ATOM     66  H   UNL A   1      45.815  26.246  27.120  1.00  0.00     0.063 H 
ATOM     67  C   UNL A   1      43.227  25.111  29.701  1.00  0.00    -0.053 A 
ATOM     68  H   UNL A   1      43.496  23.196  28.862  1.00  0.00     0.063 H 
ATOM     69  C   UNL A   1      43.657  26.447  29.691  1.00  0.00    -0.014 A 
ATOM     70  H   UNL A   1      44.970  27.822  28.762  1.00  0.00     0.063 H 
ATOM     71  H   UNL A   1      42.507  24.808  30.377  1.00  0.00     0.063 H 
BRANCH  69  72
ATOM     72  C   UNL A   1      43.097  27.404  30.675  1.00  0.00     0.031 A 
ATOM     73  C   UNL A   1      43.737  27.557  32.026  1.00  0.00     0.074 A 
ATOM     74  C   UNL A   1      41.978  28.090  30.376  1.00  0.00     0.049 A 
ATOM     75  N   UNL A   1      43.358  28.284  33.047  1.00  0.00    -0.248 NA
ATOM     76  C   UNL A   1      44.953  26.766  32.273  1.00  0.00    -0.034 C 
ATOM     77  C   UNL A   1      41.239  27.995  29.116  1.00  0.00    -0.036 A 
ATOM     78  N   UNL A   1      41.257  28.995  31.116  1.00  0.00    -0.354 N 
ATOM     79  C   UNL A   1      44.274  28.024  34.058  1.00  0.00     0.074 A 
ATOM     80  C   UNL A   1      45.201  27.040  33.546  1.00  0.00    -0.034 C 
ATOM     81  H   UNL A   1      45.475  26.156  31.624  1.00  0.00     0.065 H 
ATOM     82  C   UNL A   1      40.182  28.821  29.163  1.00  0.00    -0.036 A 
ATOM     83  H   UNL A   1      41.492  27.390  28.319  1.00  0.00     0.065 H 
ATOM     84  C   UNL A   1      40.150  29.480  30.466  1.00  0.00     0.049 A 
ATOM     85  H   UNL A   1      41.511  29.270  32.026  1.00  0.00     0.167 HD
ATOM     86  C   UNL A   1      44.346  28.575  35.293  1.00  0.00     0.037 A 
ATOM     87  H   UNL A   1      45.957  26.606  34.098  1.00  0.00     0.065 H 
ATOM     88  H   UNL A   1      39.501  28.967  28.401  1.00  0.00     0.065 H 
ATOM     89  C   UNL A   1      39.213  30.355  30.877  1.00  0.00     0.037 A 
ATOM     90  C   UNL A   1      43.442  29.580  35.786  1.00  0.00     0.049 A 
ATOM     91  C   UNL A   1      39.325  30.961  32.249  1.00  0.00     0.074 A 
ATOM     92  C   UNL A   1      43.469  30.244  37.001  1.00  0.00    -0.036 A 
ATOM     93  N   UNL A   1      42.348  30.068  35.088  1.00  0.00    -0.354 N 
ATOM     94  N   UNL A   1      40.230  30.753  33.173  1.00  0.00    -0.248 NA
ATOM     95  C   UNL A   1      38.287  31.930  32.630  1.00  0.00    -0.034 C 
ATOM     96  C   UNL A   1      42.370  31.109  37.050  1.00  0.00    -0.036 A 
ATOM     97  H   UNL A   1      44.176  30.123  37.741  1.00  0.00     0.065 H 
ATOM     98  C   UNL A   1      41.682  31.013  35.851  1.00  0.00     0.049 A 
ATOM     99  H   UNL A   1      42.083  29.784  34.183  1.00  0.00     0.167 HD
ATOM    100  C   UNL A   1      39.888  31.581  34.234  1.00  0.00     0.074 A 
ATOM    101  C   UNL A   1      38.700  32.305  33.833  1.00  0.00    -0.034 C 
ATOM    102  H   UNL A   1      37.457  32.237  32.101  1.00  0.00     0.065 H 
ATOM    103  H   UNL A   1      42.113  31.715  37.845  1.00  0.00     0.065 H 
ATOM    104  C   UNL A   1      40.505  31.730  35.431  1.00  0.00     0.037 A 
ATOM    105  H   UNL A   1      38.232  33.021  34.411  1.00  0.00     0.065 H 
BRANCH  86 106
ATOM    106  C   UNL A   1      45.447  28.104  36.197  1.00  0.00     0.064 A 
ATOM    107  C   UNL A   1      45.270  27.017  37.066  1.00  0.00     0.173 A 
ATOM    108  C   UNL A   1      46.705  28.726  36.172  1.00  0.00     0.173 A 
ATOM    109  F   UNL A   1      44.083  26.397  37.137  1.00  0.00    -0.203 F 
ATOM    110  C   UNL A   1      46.302  26.587  37.896  1.00  0.00     0.198 A 
ATOM    111  C   UNL A   1      47.743  28.276  36.984  1.00  0.00     0.198 A 
ATOM    112  F   UNL A   1      46.929  29.767  35.356  1.00  0.00    -0.203 F 
ATOM    113  F   UNL A   1      46.094  25.577  38.753  1.00  0.00    -0.200 F 
ATOM    114  C   UNL A   1      47.538  27.213  37.850  1.00  0.00     0.200 A 
ATOM    115  F   UNL A   1      48.942  28.874  36.930  1.00  0.00    -0.200 F 
ATOM    116  F   UNL A   1      48.533  26.795  38.647  1.00  0.00    -0.200 F 
ENDBRANCH  86 106
BRANCH  89 117
ATOM    117  C   UNL A   1      38.104  30.734  29.964  1.00  0.00     0.064 A 
ATOM    118  C   UNL A   1      38.072  32.000  29.364  1.00  0.00     0.173 A 
ATOM    119  C   UNL A   1      37.061  29.844  29.672  1.00  0.00     0.173 A 
ATOM    120  F   UNL A   1      39.037  32.892  29.631  1.00  0.00    -0.203 F 
ATOM    121  C   UNL A   1      37.028  32.368  28.518  1.00  0.00     0.198 A 
ATOM    122  C   UNL A   1      36.031  30.205  28.807  1.00  0.00     0.198 A 
ATOM    123  F   UNL A   1      37.051  28.619  30.218  1.00  0.00    -0.203 F 
ATOM    124  F   UNL A   1      36.999  33.598  27.989  1.00  0.00    -0.200 F 
ATOM    125  C   UNL A   1      36.011  31.468  28.236  1.00  0.00     0.200 A 
ATOM    126  F   UNL A   1      35.056  29.328  28.527  1.00  0.00    -0.200 F 
ATOM    127  F   UNL A   1      35.009  31.822  27.419  1.00  0.00    -0.200 F 
ENDBRANCH  89 117
BRANCH 104 128
ATOM    128  C   UNL A   1      39.925  32.733  36.382  1.00  0.00     0.064 A 
ATOM    129  C   UNL A   1      38.835  32.419  37.205  1.00  0.00     0.173 A 
ATOM    130  C   UNL A   1      40.494  34.011  36.499  1.00  0.00     0.173 A 
ATOM    131  F   UNL A   1      38.248  31.217  37.119  1.00  0.00    -0.203 F 
ATOM    132  C   UNL A   1      38.320  33.357  38.098  1.00  0.00     0.198 A 
ATOM    133  C   UNL A   1      39.994  34.936  37.410  1.00  0.00     0.198 A 
ATOM    134  F   UNL A   1      41.542  34.357  35.737  1.00  0.00    -0.203 F 
ATOM    135  F   UNL A   1      37.252  33.050  38.846  1.00  0.00    -0.200 F 
ATOM    136  C   UNL A   1      38.904  34.611  38.204  1.00  0.00     0.200 A 
ATOM    137  F   UNL A   1      40.566  36.143  37.520  1.00  0.00    -0.200 F 
ATOM    138  F   UNL A   1      38.411  35.509  39.068  1.00  0.00    -0.200 F 
ENDBRANCH 104 128
ENDBRANCH  69  72
ENDBRANCH  59  62
ENDBRANCH  55  58
ENDBRANCH  52  55
ENDBRANCH  49  52
ENDBRANCH  46  49
ENDBRANCH   1  46
TORSDOF 17
ENDMDL
MODEL 2
REMARK VINA RESULT:     -11.8      3.600      8.495
REMARK SMILES CS(=O)(=O)c1ccc(-c2cc(Cl)cnc2-c2ccc(C(=O)NCCCCCCNC(=O)c3ccc(-c4c5nc(c(-c6c(F)c(F)c(F)c(F)c6F)c6ccc([nH]6)c(-c6c(F)c(F)c(F)c(F)c6F)c6nc(c(-c7c(F)c(F)c(F)c(F)c7F)c7ccc4[nH]7)C=C6)C=C5)cc3)nc2)cc1
REMARK SMILES IDX 24 1 23 4 22 7 20 8 21 9 19 11 16 12 17 13 96 14 18 15 95 17
REMARK SMILES IDX 15 20 9 21 10 22 11 23 14 25 12 26 13 27 8 29 5 30 6 31
REMARK SMILES IDX 98 32 7 33 97 35 2 39 3 40 4 41 1 42 25 46 26 49 27 52 28 55
REMARK SMILES IDX 29 58 30 59 31 61 32 62 33 63 94 64 34 65 93 67 35 69 36 72
REMARK SMILES IDX 37 73 87 74 38 75 92 76 86 77 88 78 39 79 91 80 85 82 84 84
REMARK SMILES IDX 40 86 72 89 52 90 71 91 53 92 56 93 70 94 89 95 54 96 55 98
REMARK SMILES IDX 69 100 90 101 57 104 41 106 42 107 50 108 43 109 44 110
REMARK SMILES IDX 48 111 51 112 45 113 46 114 49 115 47 116 73 117 74 118
REMARK SMILES IDX 82 119 75 120 76 121 80 122 83 123 77 124 78 125 81 126
REMARK SMILES IDX 79 127 58 128 59 129 67 130 60 131 61 132 65 133 68 134
REMARK SMILES IDX 62 135 63 136 66 137 64 138
REMARK H PARENT 24 2 24 3 23 5 23 6 22 10 17 16 96 18 18 19 10 24 13 28 6 34
REMARK H PARENT 98 36 7 37 97 38 1 43 1 44 1 45 25 47 25 48 26 50 26 51 27 53
REMARK H PARENT 27 54 28 56 28 57 29 60 33 66 94 68 34 70 93 71 92 81 86 83
REMARK H PARENT 88 85 91 87 85 88 53 97 56 99 89 102 54 103 90 105
REMARK Flexibility Score: inf
ROOT
ATOM      1  C   UNL A   1      36.324  33.250  28.608  1.00  0.00    -0.036 C 
ATOM      2  H   UNL A   1      36.962  33.906  28.054  1.00  0.00     0.028 H 
ATOM      3  H   UNL A   1      36.862  32.670  29.328  1.00  0.00     0.028 H 
ENDROOT
BRANCH   1   4
ATOM      4  C   UNL A   1      35.679  32.264  27.631  1.00  0.00     0.018 C 
ATOM      5  H   UNL A   1      34.614  32.319  27.726  1.00  0.00     0.049 H 
ATOM      6  H   UNL A   1      35.972  32.521  26.634  1.00  0.00     0.049 H 
BRANCH   4   7
ATOM      7  N   UNL A   1      36.116  30.913  27.916  1.00  0.00    -0.351 N 
ATOM      8  C   UNL A   1      35.564  29.677  27.660  1.00  0.00     0.269 C 
ATOM      9  O   UNL A   1      36.214  28.699  28.033  1.00  0.00    -0.268 OA
ATOM     10  H   UNL A   1      36.978  30.869  28.388  1.00  0.00     0.163 HD
BRANCH   8  11
ATOM     11  C   UNL A   1      34.267  29.484  26.923  1.00  0.00     0.128 A 
ATOM     12  C   UNL A   1      31.984  29.259  25.366  1.00  0.00     0.019 A 
ATOM     13  C   UNL A   1      31.882  29.294  26.760  1.00  0.00    -0.049 A 
ATOM     14  C   UNL A   1      33.267  29.267  24.836  1.00  0.00     0.037 A 
ATOM     15  C   UNL A   1      33.032  29.374  27.548  1.00  0.00    -0.030 A 
ATOM     16  H   UNL A   1      30.953  29.260  27.209  1.00  0.00     0.063 H 
ATOM     17  N   UNL A   1      34.396  29.408  25.571  1.00  0.00    -0.250 NA
ATOM     18  H   UNL A   1      33.368  29.157  23.814  1.00  0.00     0.085 H 
ATOM     19  H   UNL A   1      32.965  29.352  28.578  1.00  0.00     0.065 H 
BRANCH  12  20
ATOM     20  C   UNL A   1      30.800  29.246  24.507  1.00  0.00     0.080 A 
ATOM     21  C   UNL A   1      30.268  28.059  23.960  1.00  0.00     0.010 A 
ATOM     22  C   UNL A   1      29.171  28.191  23.091  1.00  0.00    -0.032 A 
ATOM     23  C   UNL A   1      28.648  29.448  22.811  1.00  0.00     0.060 A 
ATOM     24  H   UNL A   1      28.753  27.352  22.660  1.00  0.00     0.065 H 
ATOM     25  N   UNL A   1      30.285  30.478  24.254  1.00  0.00    -0.254 NA
ATOM     26  Cl  UNL A   1      27.320  29.622  21.739  1.00  0.00    -0.083 Cl
ATOM     27  C   UNL A   1      29.225  30.551  23.413  1.00  0.00     0.046 A 
ATOM     28  H   UNL A   1      28.827  31.481  23.212  1.00  0.00     0.086 H 
BRANCH  21  29
ATOM     29  C   UNL A   1      30.809  26.721  24.258  1.00  0.00    -0.016 A 
ATOM     30  C   UNL A   1      31.849  24.172  24.824  1.00  0.00     0.067 A 
ATOM     31  C   UNL A   1      30.826  24.692  25.618  1.00  0.00    -0.043 A 
ATOM     32  C   UNL A   1      32.349  24.900  23.745  1.00  0.00    -0.043 A 
ATOM     33  C   UNL A   1      30.313  25.961  25.332  1.00  0.00    -0.053 A 
ATOM     34  H   UNL A   1      30.452  24.144  26.409  1.00  0.00     0.064 H 
ATOM     35  C   UNL A   1      31.829  26.167  23.465  1.00  0.00    -0.053 A 
ATOM     36  H   UNL A   1      33.100  24.506  23.155  1.00  0.00     0.064 H 
ATOM     37  H   UNL A   1      29.558  26.346  25.920  1.00  0.00     0.063 H 
ATOM     38  H   UNL A   1      32.198  26.703  22.664  1.00  0.00     0.063 H 
BRANCH  30  39
ATOM     39  S   UNL A   1      32.494  22.551  25.169  1.00  0.00     0.175 S 
ATOM     40  O   UNL A   1      31.420  21.771  25.751  1.00  0.00    -0.224 OA
ATOM     41  O   UNL A   1      33.750  22.743  25.871  1.00  0.00    -0.224 OA
BRANCH  39  42
ATOM     42  C   UNL A   1      32.843  21.852  23.578  1.00  0.00     0.043 C 
ATOM     43  H   UNL A   1      33.812  22.170  23.253  1.00  0.00     0.040 H 
ATOM     44  H   UNL A   1      32.106  22.178  22.875  1.00  0.00     0.040 H 
ATOM     45  H   UNL A   1      32.823  20.784  23.646  1.00  0.00     0.040 H 
ENDBRANCH  39  42
ENDBRANCH  30  39
ENDBRANCH  21  29
ENDBRANCH  12  20
ENDBRANCH   8  11
ENDBRANCH   4   7
ENDBRANCH   1   4
BRANCH   1  46
ATOM     46  C   UNL A   1      35.309  34.102  29.384  1.00  0.00    -0.052 C 
ATOM     47  H   UNL A   1      35.486  35.130  29.144  1.00  0.00     0.027 H 
ATOM     48  H   UNL A   1      35.459  33.875  30.419  1.00  0.00     0.027 H 
BRANCH  46  49
ATOM     49  C   UNL A   1      33.836  33.792  29.088  1.00  0.00    -0.052 C 
ATOM     50  H   UNL A   1      33.443  33.233  29.912  1.00  0.00     0.027 H 
ATOM     51  H   UNL A   1      33.828  33.254  28.163  1.00  0.00     0.027 H 
BRANCH  49  52
ATOM     52  C   UNL A   1      32.941  35.016  28.876  1.00  0.00    -0.036 C 
ATOM     53  H   UNL A   1      31.936  34.739  29.115  1.00  0.00     0.028 H 
ATOM     54  H   UNL A   1      33.064  35.309  27.853  1.00  0.00     0.028 H 
BRANCH  52  55
ATOM     55  C   UNL A   1      33.313  36.231  29.721  1.00  0.00     0.018 C 
ATOM     56  H   UNL A   1      33.246  37.108  29.112  1.00  0.00     0.049 H 
ATOM     57  H   UNL A   1      34.310  36.089  30.085  1.00  0.00     0.049 H 
BRANCH  55  58
ATOM     58  N   UNL A   1      32.434  36.386  30.867  1.00  0.00    -0.352 N 
ATOM     59  C   UNL A   1      32.515  35.813  32.111  1.00  0.00     0.251 C 
ATOM     60  H   UNL A   1      31.668  36.990  30.732  1.00  0.00     0.163 HD
ATOM     61  O   UNL A   1      31.572  35.897  32.892  1.00  0.00    -0.269 OA
BRANCH  59  62
ATOM     62  C   UNL A   1      33.736  35.081  32.513  1.00  0.00     0.039 A 
ATOM     63  C   UNL A   1      33.625  33.737  32.880  1.00  0.00    -0.049 A 
ATOM     64  C   UNL A   1      34.976  35.725  32.566  1.00  0.00    -0.049 A 
ATOM     65  C   UNL A   1      34.767  33.024  33.254  1.00  0.00    -0.053 A 
ATOM     66  H   UNL A   1      32.704  33.272  32.874  1.00  0.00     0.063 H 
ATOM     67  C   UNL A   1      36.121  34.999  32.881  1.00  0.00    -0.053 A 
ATOM     68  H   UNL A   1      35.042  36.736  32.370  1.00  0.00     0.063 H 
ATOM     69  C   UNL A   1      36.027  33.644  33.237  1.00  0.00    -0.014 A 
ATOM     70  H   UNL A   1      34.684  32.038  33.546  1.00  0.00     0.063 H 
ATOM     71  H   UNL A   1      37.044  35.460  32.853  1.00  0.00     0.063 H 
BRANCH  69  72
ATOM     72  C   UNL A   1      37.254  32.897  33.603  1.00  0.00     0.031 A 
ATOM     73  C   UNL A   1      37.960  33.195  34.896  1.00  0.00     0.074 A 
ATOM     74  C   UNL A   1      37.767  31.994  32.746  1.00  0.00     0.049 A 
ATOM     75  N   UNL A   1      39.081  32.704  35.362  1.00  0.00    -0.248 NA
ATOM     76  C   UNL A   1      37.336  34.199  35.772  1.00  0.00    -0.034 C 
ATOM     77  C   UNL A   1      37.198  31.650  31.442  1.00  0.00    -0.036 A 
ATOM     78  N   UNL A   1      38.890  31.210  32.837  1.00  0.00    -0.354 N 
ATOM     79  C   UNL A   1      39.304  33.351  36.570  1.00  0.00     0.074 A 
ATOM     80  C   UNL A   1      38.228  34.301  36.746  1.00  0.00    -0.034 C 
ATOM     81  H   UNL A   1      36.438  34.695  35.657  1.00  0.00     0.065 H 
ATOM     82  C   UNL A   1      37.964  30.712  30.863  1.00  0.00    -0.036 A 
ATOM     83  H   UNL A   1      36.345  32.062  31.034  1.00  0.00     0.065 H 
ATOM     84  C   UNL A   1      39.093  30.411  31.739  1.00  0.00     0.049 A 
ATOM     85  H   UNL A   1      39.491  31.219  33.615  1.00  0.00     0.167 HD
ATOM     86  C   UNL A   1      40.304  33.152  37.462  1.00  0.00     0.037 A 
ATOM     87  H   UNL A   1      38.164  34.972  37.527  1.00  0.00     0.065 H 
ATOM     88  H   UNL A   1      37.785  30.273  29.946  1.00  0.00     0.065 H 
ATOM     89  C   UNL A   1      40.082  29.538  31.470  1.00  0.00     0.037 A 
ATOM     90  C   UNL A   1      41.354  32.181  37.299  1.00  0.00     0.049 A 
ATOM     91  C   UNL A   1      41.174  29.328  32.483  1.00  0.00     0.074 A 
ATOM     92  C   UNL A   1      42.378  31.862  38.175  1.00  0.00    -0.036 A 
ATOM     93  N   UNL A   1      41.511  31.369  36.186  1.00  0.00    -0.354 N 
ATOM     94  N   UNL A   1      41.340  29.901  33.649  1.00  0.00    -0.248 NA
ATOM     95  C   UNL A   1      42.209  28.342  32.144  1.00  0.00    -0.034 C 
ATOM     96  C   UNL A   1      43.175  30.881  37.574  1.00  0.00    -0.036 A 
ATOM     97  H   UNL A   1      42.528  32.275  39.107  1.00  0.00     0.065 H 
ATOM     98  C   UNL A   1      42.625  30.560  36.344  1.00  0.00     0.049 A 
ATOM     99  H   UNL A   1      40.919  31.368  35.400  1.00  0.00     0.167 HD
ATOM    100  C   UNL A   1      42.482  29.330  34.194  1.00  0.00     0.074 A 
ATOM    101  C   UNL A   1      42.960  28.355  33.237  1.00  0.00    -0.034 C 
ATOM    102  H   UNL A   1      42.323  27.786  31.282  1.00  0.00     0.065 H 
ATOM    103  H   UNL A   1      44.030  30.467  37.979  1.00  0.00     0.065 H 
ATOM    104  C   UNL A   1      43.080  29.589  35.383  1.00  0.00     0.037 A 
ATOM    105  H   UNL A   1      43.781  27.747  33.385  1.00  0.00     0.065 H 
BRANCH  86 106
ATOM    106  C   UNL A   1      40.307  34.001  38.699  1.00  0.00     0.064 A 
ATOM    107  C   UNL A   1      39.630  33.605  39.863  1.00  0.00     0.173 A 
ATOM    108  C   UNL A   1      41.019  35.209  38.733  1.00  0.00     0.173 A 
ATOM    109  F   UNL A   1      38.924  32.465  39.878  1.00  0.00    -0.203 F 
ATOM    110  C   UNL A   1      39.644  34.401  41.006  1.00  0.00     0.198 A 
ATOM    111  C   UNL A   1      41.054  35.989  39.886  1.00  0.00     0.198 A 
ATOM    112  F   UNL A   1      41.687  35.632  37.648  1.00  0.00    -0.203 F 
ATOM    113  F   UNL A   1      38.951  34.025  42.090  1.00  0.00    -0.200 F 
ATOM    114  C   UNL A   1      40.361  35.588  41.018  1.00  0.00     0.200 A 
ATOM    115  F   UNL A   1      41.756  37.131  39.901  1.00  0.00    -0.200 F 
ATOM    116  F   UNL A   1      40.377  36.351  42.121  1.00  0.00    -0.200 F 
ENDBRANCH  86 106
BRANCH  89 117
ATOM    117  C   UNL A   1      40.066  28.773  30.197  1.00  0.00     0.064 A 
ATOM    118  C   UNL A   1      40.660  29.295  29.040  1.00  0.00     0.173 A 
ATOM    119  C   UNL A   1      39.464  27.510  30.110  1.00  0.00     0.173 A 
ATOM    120  F   UNL A   1      41.230  30.509  29.070  1.00  0.00    -0.203 F 
ATOM    121  C   UNL A   1      40.637  28.590  27.838  1.00  0.00     0.198 A 
ATOM    122  C   UNL A   1      39.463  26.796  28.915  1.00  0.00     0.198 A 
ATOM    123  F   UNL A   1      38.887  26.965  31.192  1.00  0.00    -0.203 F 
ATOM    124  F   UNL A   1      41.177  29.130  26.737  1.00  0.00    -0.200 F 
ATOM    125  C   UNL A   1      40.043  27.339  27.779  1.00  0.00     0.200 A 
ATOM    126  F   UNL A   1      38.898  25.581  28.863  1.00  0.00    -0.200 F 
ATOM    127  F   UNL A   1      40.025  26.660  26.623  1.00  0.00    -0.200 F 
ENDBRANCH  89 117
BRANCH 104 128
ATOM    128  C   UNL A   1      44.298  28.786  35.728  1.00  0.00     0.064 A 
ATOM    129  C   UNL A   1      44.203  27.570  36.420  1.00  0.00     0.173 A 
ATOM    130  C   UNL A   1      45.571  29.219  35.326  1.00  0.00     0.173 A 
ATOM    131  F   UNL A   1      43.011  27.122  36.838  1.00  0.00    -0.203 F 
ATOM    132  C   UNL A   1      45.343  26.826  36.715  1.00  0.00     0.198 A 
ATOM    133  C   UNL A   1      46.704  28.460  35.600  1.00  0.00     0.198 A 
ATOM    134  F   UNL A   1      45.712  30.373  34.656  1.00  0.00    -0.203 F 
ATOM    135  F   UNL A   1      45.234  25.687  37.413  1.00  0.00    -0.200 F 
ATOM    136  C   UNL A   1      46.591  27.267  36.300  1.00  0.00     0.200 A 
ATOM    137  F   UNL A   1      47.907  28.882  35.188  1.00  0.00    -0.200 F 
ATOM    138  F   UNL A   1      47.685  26.547  36.579  1.00  0.00    -0.200 F 
ENDBRANCH 104 128
ENDBRANCH  69  72
ENDBRANCH  59  62
ENDBRANCH  55  58
ENDBRANCH  52  55
ENDBRANCH  49  52
ENDBRANCH  46  49
ENDBRANCH   1  46
TORSDOF 17
ENDMDL
MODEL 3
REMARK VINA RESULT:     -11.6      5.011      8.284
REMARK SMILES CS(=O)(=O)c1ccc(-c2cc(Cl)cnc2-c2ccc(C(=O)NCCCCCCNC(=O)c3ccc(-c4c5nc(c(-c6c(F)c(F)c(F)c(F)c6F)c6ccc([nH]6)c(-c6c(F)c(F)c(F)c(F)c6F)c6nc(c(-c7c(F)c(F)c(F)c(F)c7F)c7ccc4[nH]7)C=C6)C=C5)cc3)nc2)cc1
REMARK SMILES IDX 24 1 23 4 22 7 20 8 21 9 19 11 16 12 17 13 96 14 18 15 95 17
REMARK SMILES IDX 15 20 9 21 10 22 11 23 14 25 12 26 13 27 8 29 5 30 6 31
REMARK SMILES IDX 98 32 7 33 97 35 2 39 3 40 4 41 1 42 25 46 26 49 27 52 28 55
REMARK SMILES IDX 29 58 30 59 31 61 32 62 33 63 94 64 34 65 93 67 35 69 36 72
REMARK SMILES IDX 37 73 87 74 38 75 92 76 86 77 88 78 39 79 91 80 85 82 84 84
REMARK SMILES IDX 40 86 72 89 52 90 71 91 53 92 56 93 70 94 89 95 54 96 55 98
REMARK SMILES IDX 69 100 90 101 57 104 41 106 42 107 50 108 43 109 44 110
REMARK SMILES IDX 48 111 51 112 45 113 46 114 49 115 47 116 73 117 74 118
REMARK SMILES IDX 82 119 75 120 76 121 80 122 83 123 77 124 78 125 81 126
REMARK SMILES IDX 79 127 58 128 59 129 67 130 60 131 61 132 65 133 68 134
REMARK SMILES IDX 62 135 63 136 66 137 64 138
REMARK H PARENT 24 2 24 3 23 5 23 6 22 10 17 16 96 18 18 19 10 24 13 28 6 34
REMARK H PARENT 98 36 7 37 97 38 1 43 1 44 1 45 25 47 25 48 26 50 26 51 27 53
REMARK H PARENT 27 54 28 56 28 57 29 60 33 66 94 68 34 70 93 71 92 81 86 83
REMARK H PARENT 88 85 91 87 85 88 53 97 56 99 89 102 54 103 90 105
REMARK Flexibility Score: inf
ROOT
ATOM      1  C   UNL A   1      33.245  20.535  24.334  1.00  0.00    -0.036 C 
ATOM      2  H   UNL A   1      33.033  20.373  23.298  1.00  0.00     0.028 H 
ATOM      3  H   UNL A   1      33.468  19.626  24.851  1.00  0.00     0.028 H 
ENDROOT
BRANCH   1   4
ATOM      4  C   UNL A   1      32.001  21.134  24.994  1.00  0.00     0.018 C 
ATOM      5  H   UNL A   1      31.650  21.956  24.406  1.00  0.00     0.049 H 
ATOM      6  H   UNL A   1      31.244  20.379  25.058  1.00  0.00     0.049 H 
BRANCH   4   7
ATOM      7  N   UNL A   1      32.314  21.600  26.329  1.00  0.00    -0.351 N 
ATOM      8  C   UNL A   1      32.314  22.850  26.907  1.00  0.00     0.269 C 
ATOM      9  O   UNL A   1      32.627  22.903  28.098  1.00  0.00    -0.268 OA
ATOM     10  H   UNL A   1      32.580  20.881  26.946  1.00  0.00     0.163 HD
BRANCH   8  11
ATOM     11  C   UNL A   1      31.913  24.103  26.177  1.00  0.00     0.128 A 
ATOM     12  C   UNL A   1      30.932  26.371  24.921  1.00  0.00     0.019 A 
ATOM     13  C   UNL A   1      32.014  25.677  24.371  1.00  0.00    -0.049 A 
ATOM     14  C   UNL A   1      30.449  25.908  26.138  1.00  0.00     0.037 A 
ATOM     15  C   UNL A   1      32.531  24.554  25.018  1.00  0.00    -0.030 A 
ATOM     16  H   UNL A   1      32.432  25.996  23.482  1.00  0.00     0.063 H 
ATOM     17  N   UNL A   1      30.888  24.786  26.755  1.00  0.00    -0.250 NA
ATOM     18  H   UNL A   1      29.708  26.455  26.602  1.00  0.00     0.085 H 
ATOM     19  H   UNL A   1      33.359  24.066  24.642  1.00  0.00     0.065 H 
BRANCH  12  20
ATOM     20  C   UNL A   1      30.319  27.510  24.237  1.00  0.00     0.080 A 
ATOM     21  C   UNL A   1      30.767  28.837  24.413  1.00  0.00     0.010 A 
ATOM     22  C   UNL A   1      30.045  29.848  23.755  1.00  0.00    -0.032 A 
ATOM     23  C   UNL A   1      28.949  29.523  22.963  1.00  0.00     0.060 A 
ATOM     24  H   UNL A   1      30.330  30.833  23.860  1.00  0.00     0.065 H 
ATOM     25  N   UNL A   1      29.260  27.180  23.451  1.00  0.00    -0.254 NA
ATOM     26  Cl  UNL A   1      28.051  30.750  22.170  1.00  0.00    -0.083 Cl
ATOM     27  C   UNL A   1      28.601  28.190  22.836  1.00  0.00     0.046 A 
ATOM     28  H   UNL A   1      27.794  27.953  22.239  1.00  0.00     0.086 H 
BRANCH  21  29
ATOM     29  C   UNL A   1      31.932  29.190  25.242  1.00  0.00    -0.016 A 
ATOM     30  C   UNL A   1      34.152  29.864  26.830  1.00  0.00     0.067 A 
ATOM     31  C   UNL A   1      34.327  29.052  25.709  1.00  0.00    -0.043 A 
ATOM     32  C   UNL A   1      32.888  30.355  27.160  1.00  0.00    -0.043 A 
ATOM     33  C   UNL A   1      33.219  28.719  24.923  1.00  0.00    -0.053 A 
ATOM     34  H   UNL A   1      35.266  28.701  25.462  1.00  0.00     0.064 H 
ATOM     35  C   UNL A   1      31.787  30.019  26.367  1.00  0.00    -0.053 A 
ATOM     36  H   UNL A   1      32.766  30.963  27.987  1.00  0.00     0.064 H 
ATOM     37  H   UNL A   1      33.348  28.118  24.095  1.00  0.00     0.063 H 
ATOM     38  H   UNL A   1      30.853  30.385  26.612  1.00  0.00     0.063 H 
BRANCH  30  39
ATOM     39  S   UNL A   1      35.557  30.308  27.824  1.00  0.00     0.175 S 
ATOM     40  O   UNL A   1      36.746  30.029  27.044  1.00  0.00    -0.224 OA
ATOM     41  O   UNL A   1      35.354  29.703  29.127  1.00  0.00    -0.224 OA
BRANCH  39  42
ATOM     42  C   UNL A   1      35.451  32.069  28.002  1.00  0.00     0.043 C 
ATOM     43  H   UNL A   1      36.293  32.527  27.526  1.00  0.00     0.040 H 
ATOM     44  H   UNL A   1      35.447  32.323  29.041  1.00  0.00     0.040 H 
ATOM     45  H   UNL A   1      34.549  32.419  27.545  1.00  0.00     0.040 H 
ENDBRANCH  39  42
ENDBRANCH  30  39
ENDBRANCH  21  29
ENDBRANCH  12  20
ENDBRANCH   8  11
ENDBRANCH   4   7
ENDBRANCH   1   4
BRANCH   1  46
ATOM     46  C   UNL A   1      34.489  21.429  24.439  1.00  0.00    -0.052 C 
ATOM     47  H   UNL A   1      34.250  22.257  25.073  1.00  0.00     0.027 H 
ATOM     48  H   UNL A   1      34.735  21.716  23.438  1.00  0.00     0.027 H 
BRANCH  46  49
ATOM     49  C   UNL A   1      35.739  20.743  25.005  1.00  0.00    -0.052 C 
ATOM     50  H   UNL A   1      36.269  20.294  24.190  1.00  0.00     0.027 H 
ATOM     51  H   UNL A   1      35.387  20.036  25.728  1.00  0.00     0.027 H 
BRANCH  49  52
ATOM     52  C   UNL A   1      36.710  21.664  25.749  1.00  0.00    -0.036 C 
ATOM     53  H   UNL A   1      36.663  21.425  26.791  1.00  0.00     0.028 H 
ATOM     54  H   UNL A   1      36.402  22.666  25.533  1.00  0.00     0.028 H 
BRANCH  52  55
ATOM     55  C   UNL A   1      38.164  21.552  25.300  1.00  0.00     0.018 C 
ATOM     56  H   UNL A   1      38.619  22.518  25.360  1.00  0.00     0.049 H 
ATOM     57  H   UNL A   1      38.173  21.182  24.295  1.00  0.00     0.049 H 
BRANCH  55  58
ATOM     58  N   UNL A   1      38.919  20.625  26.126  1.00  0.00    -0.352 N 
ATOM     59  C   UNL A   1      40.055  20.842  26.863  1.00  0.00     0.251 C 
ATOM     60  H   UNL A   1      38.563  19.707  26.163  1.00  0.00     0.163 HD
ATOM     61  O   UNL A   1      40.673  19.894  27.338  1.00  0.00    -0.269 OA
BRANCH  59  62
ATOM     62  C   UNL A   1      40.548  22.220  27.080  1.00  0.00     0.039 A 
ATOM     63  C   UNL A   1      41.549  22.436  28.030  1.00  0.00    -0.049 A 
ATOM     64  C   UNL A   1      40.000  23.298  26.378  1.00  0.00    -0.049 A 
ATOM     65  C   UNL A   1      42.036  23.728  28.244  1.00  0.00    -0.053 A 
ATOM     66  H   UNL A   1      41.929  21.644  28.572  1.00  0.00     0.063 H 
ATOM     67  C   UNL A   1      40.527  24.575  26.548  1.00  0.00    -0.053 A 
ATOM     68  H   UNL A   1      39.207  23.146  25.734  1.00  0.00     0.063 H 
ATOM     69  C   UNL A   1      41.543  24.804  27.489  1.00  0.00    -0.014 A 
ATOM     70  H   UNL A   1      42.760  23.892  28.960  1.00  0.00     0.063 H 
ATOM     71  H   UNL A   1      40.167  25.358  25.980  1.00  0.00     0.063 H 
BRANCH  69  72
ATOM     72  C   UNL A   1      42.067  26.178  27.681  1.00  0.00     0.031 A 
ATOM     73  C   UNL A   1      43.387  26.572  27.082  1.00  0.00     0.074 A 
ATOM     74  C   UNL A   1      41.383  27.052  28.443  1.00  0.00     0.049 A 
ATOM     75  N   UNL A   1      44.047  27.697  27.195  1.00  0.00    -0.248 NA
ATOM     76  C   UNL A   1      44.072  25.555  26.268  1.00  0.00    -0.034 C 
ATOM     77  C   UNL A   1      40.112  26.773  29.114  1.00  0.00    -0.036 A 
ATOM     78  N   UNL A   1      41.667  28.349  28.794  1.00  0.00    -0.354 N 
ATOM     79  C   UNL A   1      45.227  27.517  26.485  1.00  0.00     0.074 A 
ATOM     80  C   UNL A   1      45.216  26.161  25.983  1.00  0.00    -0.034 C 
ATOM     81  H   UNL A   1      43.746  24.616  25.992  1.00  0.00     0.065 H 
ATOM     82  C   UNL A   1      39.718  27.870  29.779  1.00  0.00    -0.036 A 
ATOM     83  H   UNL A   1      39.601  25.877  29.080  1.00  0.00     0.065 H 
ATOM     84  C   UNL A   1      40.721  28.918  29.608  1.00  0.00     0.049 A 
ATOM     85  H   UNL A   1      42.473  28.824  28.489  1.00  0.00     0.167 HD
ATOM     86  C   UNL A   1      46.219  28.411  26.256  1.00  0.00     0.037 A 
ATOM     87  H   UNL A   1      45.995  25.722  25.470  1.00  0.00     0.065 H 
ATOM     88  H   UNL A   1      38.846  27.960  30.325  1.00  0.00     0.065 H 
ATOM     89  C   UNL A   1      40.671  30.146  30.158  1.00  0.00     0.037 A 
ATOM     90  C   UNL A   1      46.211  29.770  26.729  1.00  0.00     0.049 A 
ATOM     91  C   UNL A   1      41.780  31.123  29.877  1.00  0.00     0.074 A 
ATOM     92  C   UNL A   1      47.139  30.770  26.498  1.00  0.00    -0.036 A 
ATOM     93  N   UNL A   1      45.220  30.320  27.528  1.00  0.00    -0.354 N 
ATOM     94  N   UNL A   1      42.860  30.961  29.154  1.00  0.00    -0.248 NA
ATOM     95  C   UNL A   1      41.655  32.456  30.482  1.00  0.00    -0.034 C 
ATOM     96  C   UNL A   1      46.728  31.916  27.188  1.00  0.00    -0.036 A 
ATOM     97  H   UNL A   1      47.988  30.686  25.919  1.00  0.00     0.065 H 
ATOM     98  C   UNL A   1      45.523  31.642  27.814  1.00  0.00     0.049 A 
ATOM     99  H   UNL A   1      44.421  29.842  27.847  1.00  0.00     0.167 HD
ATOM    100  C   UNL A   1      43.532  32.175  29.196  1.00  0.00     0.074 A 
ATOM    101  C   UNL A   1      42.730  33.069  30.004  1.00  0.00    -0.034 C 
ATOM    102  H   UNL A   1      40.925  32.820  31.113  1.00  0.00     0.065 H 
ATOM    103  H   UNL A   1      47.236  32.814  27.225  1.00  0.00     0.065 H 
ATOM    104  C   UNL A   1      44.707  32.519  28.614  1.00  0.00     0.037 A 
ATOM    105  H   UNL A   1      42.965  34.058  30.186  1.00  0.00     0.065 H 
BRANCH  86 106
ATOM    106  C   UNL A   1      47.397  27.946  25.451  1.00  0.00     0.064 A 
ATOM    107  C   UNL A   1      47.350  27.883  24.050  1.00  0.00     0.173 A 
ATOM    108  C   UNL A   1      48.596  27.588  26.084  1.00  0.00     0.173 A 
ATOM    109  F   UNL A   1      46.222  28.202  23.398  1.00  0.00    -0.203 F 
ATOM    110  C   UNL A   1      48.451  27.454  23.315  1.00  0.00     0.198 A 
ATOM    111  C   UNL A   1      49.705  27.185  25.344  1.00  0.00     0.198 A 
ATOM    112  F   UNL A   1      48.696  27.634  27.422  1.00  0.00    -0.203 F 
ATOM    113  F   UNL A   1      48.368  27.356  21.980  1.00  0.00    -0.200 F 
ATOM    114  C   UNL A   1      49.629  27.111  23.961  1.00  0.00     0.200 A 
ATOM    115  F   UNL A   1      50.847  26.865  25.969  1.00  0.00    -0.200 F 
ATOM    116  F   UNL A   1      50.691  26.702  23.252  1.00  0.00    -0.200 F 
ENDBRANCH  86 106
BRANCH  89 117
ATOM    117  C   UNL A   1      39.513  30.531  31.005  1.00  0.00     0.064 A 
ATOM    118  C   UNL A   1      39.455  30.156  32.353  1.00  0.00     0.173 A 
ATOM    119  C   UNL A   1      38.447  31.281  30.488  1.00  0.00     0.173 A 
ATOM    120  F   UNL A   1      40.442  29.420  32.886  1.00  0.00    -0.203 F 
ATOM    121  C   UNL A   1      38.366  30.500  33.151  1.00  0.00     0.198 A 
ATOM    122  C   UNL A   1      37.370  31.646  31.292  1.00  0.00     0.198 A 
ATOM    123  F   UNL A   1      38.459  31.669  29.204  1.00  0.00    -0.203 F 
ATOM    124  F   UNL A   1      38.316  30.094  34.426  1.00  0.00    -0.200 F 
ATOM    125  C   UNL A   1      37.327  31.250  32.620  1.00  0.00     0.200 A 
ATOM    126  F   UNL A   1      36.372  32.380  30.779  1.00  0.00    -0.200 F 
ATOM    127  F   UNL A   1      36.281  31.584  33.389  1.00  0.00    -0.200 F 
ENDBRANCH  89 117
BRANCH 104 128
ATOM    128  C   UNL A   1      45.181  33.928  28.806  1.00  0.00     0.064 A 
ATOM    129  C   UNL A   1      44.788  34.958  27.940  1.00  0.00     0.173 A 
ATOM    130  C   UNL A   1      46.006  34.258  29.892  1.00  0.00     0.173 A 
ATOM    131  F   UNL A   1      44.013  34.690  26.879  1.00  0.00    -0.203 F 
ATOM    132  C   UNL A   1      45.221  36.267  28.143  1.00  0.00     0.198 A 
ATOM    133  C   UNL A   1      46.415  35.570  30.106  1.00  0.00     0.198 A 
ATOM    134  F   UNL A   1      46.404  33.308  30.751  1.00  0.00    -0.203 F 
ATOM    135  F   UNL A   1      44.866  37.229  27.280  1.00  0.00    -0.200 F 
ATOM    136  C   UNL A   1      46.028  36.573  29.229  1.00  0.00     0.200 A 
ATOM    137  F   UNL A   1      47.185  35.867  31.163  1.00  0.00    -0.200 F 
ATOM    138  F   UNL A   1      46.437  37.833  29.426  1.00  0.00    -0.200 F 
ENDBRANCH 104 128
ENDBRANCH  69  72
ENDBRANCH  59  62
ENDBRANCH  55  58
ENDBRANCH  52  55
ENDBRANCH  49  52
ENDBRANCH  46  49
ENDBRANCH   1  46
TORSDOF 17
ENDMDL
MODEL 4
REMARK VINA RESULT:     -11.6      0.464      7.060
REMARK SMILES CS(=O)(=O)c1ccc(-c2cc(Cl)cnc2-c2ccc(C(=O)NCCCCCCNC(=O)c3ccc(-c4c5nc(c(-c6c(F)c(F)c(F)c(F)c6F)c6ccc([nH]6)c(-c6c(F)c(F)c(F)c(F)c6F)c6nc(c(-c7c(F)c(F)c(F)c(F)c7F)c7ccc4[nH]7)C=C6)C=C5)cc3)nc2)cc1
REMARK SMILES IDX 24 1 23 4 22 7 20 8 21 9 19 11 16 12 17 13 96 14 18 15 95 17
REMARK SMILES IDX 15 20 9 21 10 22 11 23 14 25 12 26 13 27 8 29 5 30 6 31
REMARK SMILES IDX 98 32 7 33 97 35 2 39 3 40 4 41 1 42 25 46 26 49 27 52 28 55
REMARK SMILES IDX 29 58 30 59 31 61 32 62 33 63 94 64 34 65 93 67 35 69 36 72
REMARK SMILES IDX 37 73 87 74 38 75 92 76 86 77 88 78 39 79 91 80 85 82 84 84
REMARK SMILES IDX 40 86 72 89 52 90 71 91 53 92 56 93 70 94 89 95 54 96 55 98
REMARK SMILES IDX 69 100 90 101 57 104 41 106 42 107 50 108 43 109 44 110
REMARK SMILES IDX 48 111 51 112 45 113 46 114 49 115 47 116 73 117 74 118
REMARK SMILES IDX 82 119 75 120 76 121 80 122 83 123 77 124 78 125 81 126
REMARK SMILES IDX 79 127 58 128 59 129 67 130 60 131 61 132 65 133 68 134
REMARK SMILES IDX 62 135 63 136 66 137 64 138
REMARK H PARENT 24 2 24 3 23 5 23 6 22 10 17 16 96 18 18 19 10 24 13 28 6 34
REMARK H PARENT 98 36 7 37 97 38 1 43 1 44 1 45 25 47 25 48 26 50 26 51 27 53
REMARK H PARENT 27 54 28 56 28 57 29 60 33 66 94 68 34 70 93 71 92 81 86 83
REMARK H PARENT 88 85 91 87 85 88 53 97 56 99 89 102 54 103 90 105
REMARK Flexibility Score: inf
ROOT
ATOM      1  C   UNL A   1      40.278  25.148  27.384  1.00  0.00    -0.036 C 
ATOM      2  H   UNL A   1      41.078  24.509  27.694  1.00  0.00     0.028 H 
ATOM      3  H   UNL A   1      40.190  26.018  27.999  1.00  0.00     0.028 H 
ENDROOT
BRANCH   1   4
ATOM      4  C   UNL A   1      38.963  24.374  27.513  1.00  0.00     0.018 C 
ATOM      5  H   UNL A   1      38.787  24.148  28.544  1.00  0.00     0.049 H 
ATOM      6  H   UNL A   1      38.167  24.975  27.127  1.00  0.00     0.049 H 
BRANCH   4   7
ATOM      7  N   UNL A   1      39.030  23.139  26.758  1.00  0.00    -0.351 N 
ATOM      8  C   UNL A   1      38.167  22.541  25.866  1.00  0.00     0.269 C 
ATOM      9  O   UNL A   1      38.539  21.472  25.378  1.00  0.00    -0.268 OA
ATOM     10  H   UNL A   1      39.855  22.626  26.913  1.00  0.00     0.163 HD
BRANCH   8  11
ATOM     11  C   UNL A   1      36.857  23.147  25.443  1.00  0.00     0.128 A 
ATOM     12  C   UNL A   1      34.337  24.152  24.876  1.00  0.00     0.019 A 
ATOM     13  C   UNL A   1      35.233  23.881  23.838  1.00  0.00    -0.049 A 
ATOM     14  C   UNL A   1      34.806  23.964  26.169  1.00  0.00     0.037 A 
ATOM     15  C   UNL A   1      36.515  23.406  24.123  1.00  0.00    -0.030 A 
ATOM     16  H   UNL A   1      34.947  24.032  22.858  1.00  0.00     0.063 H 
ATOM     17  N   UNL A   1      36.019  23.444  26.473  1.00  0.00    -0.250 NA
ATOM     18  H   UNL A   1      34.189  24.238  26.950  1.00  0.00     0.085 H 
ATOM     19  H   UNL A   1      37.197  23.249  23.364  1.00  0.00     0.065 H 
BRANCH  12  20
ATOM     20  C   UNL A   1      32.964  24.584  24.614  1.00  0.00     0.080 A 
ATOM     21  C   UNL A   1      31.941  23.688  24.236  1.00  0.00     0.010 A 
ATOM     22  C   UNL A   1      30.683  24.241  23.943  1.00  0.00    -0.032 A 
ATOM     23  C   UNL A   1      30.481  25.613  24.040  1.00  0.00     0.060 A 
ATOM     24  H   UNL A   1      29.906  23.626  23.655  1.00  0.00     0.065 H 
ATOM     25  N   UNL A   1      32.773  25.926  24.729  1.00  0.00    -0.254 NA
ATOM     26  Cl  UNL A   1      28.954  26.300  23.668  1.00  0.00    -0.083 Cl
ATOM     27  C   UNL A   1      31.541  26.407  24.439  1.00  0.00     0.046 A 
ATOM     28  H   UNL A   1      31.384  27.423  24.521  1.00  0.00     0.086 H 
BRANCH  21  29
ATOM     29  C   UNL A   1      32.142  22.231  24.140  1.00  0.00    -0.016 A 
ATOM     30  C   UNL A   1      32.529  19.454  23.949  1.00  0.00     0.067 A 
ATOM     31  C   UNL A   1      32.513  20.064  25.204  1.00  0.00    -0.043 A 
ATOM     32  C   UNL A   1      32.340  20.209  22.791  1.00  0.00    -0.043 A 
ATOM     33  C   UNL A   1      32.321  21.446  25.293  1.00  0.00    -0.053 A 
ATOM     34  H   UNL A   1      32.641  19.499  26.058  1.00  0.00     0.064 H 
ATOM     35  C   UNL A   1      32.146  21.590  22.890  1.00  0.00    -0.053 A 
ATOM     36  H   UNL A   1      32.344  19.751  21.865  1.00  0.00     0.064 H 
ATOM     37  H   UNL A   1      32.310  21.897  26.221  1.00  0.00     0.063 H 
ATOM     38  H   UNL A   1      32.004  22.146  22.032  1.00  0.00     0.063 H 
BRANCH  30  39
ATOM     39  S   UNL A   1      32.753  17.694  23.827  1.00  0.00     0.175 S 
ATOM     40  O   UNL A   1      32.572  17.328  22.437  1.00  0.00    -0.224 OA
ATOM     41  O   UNL A   1      31.942  17.098  24.873  1.00  0.00    -0.224 OA
BRANCH  39  42
ATOM     42  C   UNL A   1      34.460  17.424  24.220  1.00  0.00     0.043 C 
ATOM     43  H   UNL A   1      34.618  17.598  25.264  1.00  0.00     0.040 H 
ATOM     44  H   UNL A   1      35.068  18.096  23.651  1.00  0.00     0.040 H 
ATOM     45  H   UNL A   1      34.725  16.415  23.982  1.00  0.00     0.040 H 
ENDBRANCH  39  42
ENDBRANCH  30  39
ENDBRANCH  21  29
ENDBRANCH  12  20
ENDBRANCH   8  11
ENDBRANCH   4   7
ENDBRANCH   1   4
BRANCH   1  46
ATOM     46  C   UNL A   1      40.570  25.634  25.957  1.00  0.00    -0.052 C 
ATOM     47  H   UNL A   1      39.836  26.369  25.700  1.00  0.00     0.027 H 
ATOM     48  H   UNL A   1      40.538  24.764  25.335  1.00  0.00     0.027 H 
BRANCH  46  49
ATOM     49  C   UNL A   1      41.957  26.256  25.752  1.00  0.00    -0.052 C 
ATOM     50  H   UNL A   1      42.367  26.477  26.716  1.00  0.00     0.027 H 
ATOM     51  H   UNL A   1      41.805  27.122  25.142  1.00  0.00     0.027 H 
BRANCH  49  52
ATOM     52  C   UNL A   1      42.962  25.379  25.001  1.00  0.00    -0.036 C 
ATOM     53  H   UNL A   1      43.933  25.813  25.114  1.00  0.00     0.028 H 
ATOM     54  H   UNL A   1      42.633  25.344  23.983  1.00  0.00     0.028 H 
BRANCH  52  55
ATOM     55  C   UNL A   1      43.029  23.932  25.483  1.00  0.00     0.018 C 
ATOM     56  H   UNL A   1      42.715  23.289  24.688  1.00  0.00     0.049 H 
ATOM     57  H   UNL A   1      42.387  23.836  26.335  1.00  0.00     0.049 H 
BRANCH  55  58
ATOM     58  N   UNL A   1      44.373  23.556  25.888  1.00  0.00    -0.352 N 
ATOM     59  C   UNL A   1      45.151  24.060  26.899  1.00  0.00     0.251 C 
ATOM     60  H   UNL A   1      44.785  22.833  25.360  1.00  0.00     0.163 HD
ATOM     61  O   UNL A   1      46.341  23.763  26.968  1.00  0.00    -0.269 OA
BRANCH  59  62
ATOM     62  C   UNL A   1      44.565  24.974  27.903  1.00  0.00     0.039 A 
ATOM     63  C   UNL A   1      43.671  24.456  28.844  1.00  0.00    -0.049 A 
ATOM     64  C   UNL A   1      44.863  26.339  27.893  1.00  0.00    -0.049 A 
ATOM     65  C   UNL A   1      43.113  25.300  29.808  1.00  0.00    -0.053 A 
ATOM     66  H   UNL A   1      43.425  23.454  28.829  1.00  0.00     0.063 H 
ATOM     67  C   UNL A   1      44.353  27.167  28.889  1.00  0.00    -0.053 A 
ATOM     68  H   UNL A   1      45.461  26.733  27.149  1.00  0.00     0.063 H 
ATOM     69  C   UNL A   1      43.466  26.658  29.851  1.00  0.00    -0.014 A 
ATOM     70  H   UNL A   1      42.436  24.923  30.490  1.00  0.00     0.063 H 
ATOM     71  H   UNL A   1      44.628  28.162  28.920  1.00  0.00     0.063 H 
BRANCH  69  72
ATOM     72  C   UNL A   1      42.906  27.563  30.883  1.00  0.00     0.031 A 
ATOM     73  C   UNL A   1      41.636  28.319  30.613  1.00  0.00     0.074 A 
ATOM     74  C   UNL A   1      43.572  27.752  32.037  1.00  0.00     0.049 A 
ATOM     75  N   UNL A   1      41.026  29.209  31.355  1.00  0.00    -0.248 NA
ATOM     76  C   UNL A   1      40.975  28.059  29.324  1.00  0.00    -0.034 C 
ATOM     77  C   UNL A   1      44.838  27.110  32.397  1.00  0.00    -0.036 A 
ATOM     78  N   UNL A   1      43.284  28.549  33.118  1.00  0.00    -0.354 N 
ATOM     79  C   UNL A   1      39.925  29.626  30.618  1.00  0.00     0.074 A 
ATOM     80  C   UNL A   1      39.974  28.928  29.352  1.00  0.00    -0.034 C 
ATOM     81  H   UNL A   1      41.226  27.378  28.590  1.00  0.00     0.065 H 
ATOM     82  C   UNL A   1      45.208  27.524  33.619  1.00  0.00    -0.036 A 
ATOM     83  H   UNL A   1      45.361  26.446  31.806  1.00  0.00     0.065 H 
ATOM     84  C   UNL A   1      44.224  28.482  34.116  1.00  0.00     0.049 A 
ATOM     85  H   UNL A   1      42.480  29.113  33.170  1.00  0.00     0.167 HD
ATOM     86  C   UNL A   1      38.951  30.497  30.975  1.00  0.00     0.037 A 
ATOM     87  H   UNL A   1      39.317  29.085  28.573  1.00  0.00     0.065 H 
ATOM     88  H   UNL A   1      46.052  27.215  34.127  1.00  0.00     0.065 H 
ATOM     89  C   UNL A   1      44.285  29.125  35.297  1.00  0.00     0.037 A 
ATOM     90  C   UNL A   1      38.888  31.164  32.248  1.00  0.00     0.049 A 
ATOM     91  C   UNL A   1      43.183  30.078  35.674  1.00  0.00     0.074 A 
ATOM     92  C   UNL A   1      37.908  32.017  32.728  1.00  0.00    -0.036 A 
ATOM     93  N   UNL A   1      39.843  31.050  33.246  1.00  0.00    -0.354 N 
ATOM     94  N   UNL A   1      42.116  30.417  34.994  1.00  0.00    -0.248 NA
ATOM     95  C   UNL A   1      43.292  30.728  36.988  1.00  0.00    -0.034 C 
ATOM     96  C   UNL A   1      38.290  32.447  34.004  1.00  0.00    -0.036 A 
ATOM     97  H   UNL A   1      37.047  32.290  32.232  1.00  0.00     0.065 H 
ATOM     98  C   UNL A   1      39.486  31.829  34.335  1.00  0.00     0.049 A 
ATOM     99  H   UNL A   1      40.655  30.497  33.190  1.00  0.00     0.167 HD
ATOM    100  C   UNL A   1      41.414  31.300  35.804  1.00  0.00     0.074 A 
ATOM    101  C   UNL A   1      42.169  31.432  37.032  1.00  0.00    -0.034 C 
ATOM    102  H   UNL A   1      44.044  30.656  37.690  1.00  0.00     0.065 H 
ATOM    103  H   UNL A   1      37.770  33.112  34.598  1.00  0.00     0.065 H 
ATOM    104  C   UNL A   1      40.247  31.941  35.553  1.00  0.00     0.037 A 
ATOM    105  H   UNL A   1      41.873  32.003  37.839  1.00  0.00     0.065 H 
BRANCH  86 106
ATOM    106  C   UNL A   1      37.869  30.774  29.972  1.00  0.00     0.064 A 
ATOM    107  C   UNL A   1      37.783  32.006  29.307  1.00  0.00     0.173 A 
ATOM    108  C   UNL A   1      36.928  29.786  29.649  1.00  0.00     0.173 A 
ATOM    109  F   UNL A   1      38.651  32.988  29.590  1.00  0.00    -0.203 F 
ATOM    110  C   UNL A   1      36.776  32.248  28.376  1.00  0.00     0.198 A 
ATOM    111  C   UNL A   1      35.939  30.022  28.697  1.00  0.00     0.198 A 
ATOM    112  F   UNL A   1      36.969  28.588  30.253  1.00  0.00    -0.203 F 
ATOM    113  F   UNL A   1      36.684  33.450  27.788  1.00  0.00    -0.200 F 
ATOM    114  C   UNL A   1      35.860  31.255  28.067  1.00  0.00     0.200 A 
ATOM    115  F   UNL A   1      35.061  29.057  28.391  1.00  0.00    -0.200 F 
ATOM    116  F   UNL A   1      34.893  31.488  27.167  1.00  0.00    -0.200 F 
ENDBRANCH  86 106
BRANCH  89 117
ATOM    117  C   UNL A   1      45.417  28.864  36.223  1.00  0.00     0.064 A 
ATOM    118  C   UNL A   1      45.322  27.872  37.208  1.00  0.00     0.173 A 
ATOM    119  C   UNL A   1      46.611  29.594  36.142  1.00  0.00     0.173 A 
ATOM    120  F   UNL A   1      44.191  27.163  37.337  1.00  0.00    -0.203 F 
ATOM    121  C   UNL A   1      46.374  27.631  38.090  1.00  0.00     0.198 A 
ATOM    122  C   UNL A   1      47.670  29.336  37.009  1.00  0.00     0.198 A 
ATOM    123  F   UNL A   1      46.752  30.551  35.213  1.00  0.00    -0.203 F 
ATOM    124  F   UNL A   1      46.242  26.704  39.048  1.00  0.00    -0.200 F 
ATOM    125  C   UNL A   1      47.549  28.359  37.985  1.00  0.00     0.200 A 
ATOM    126  F   UNL A   1      48.810  30.034  36.897  1.00  0.00    -0.200 F 
ATOM    127  F   UNL A   1      48.561  28.124  38.831  1.00  0.00    -0.200 F 
ENDBRANCH  89 117
BRANCH 104 128
ATOM    128  C   UNL A   1      39.700  32.820  36.638  1.00  0.00     0.064 A 
ATOM    129  C   UNL A   1      38.678  32.381  37.492  1.00  0.00     0.173 A 
ATOM    130  C   UNL A   1      40.232  34.101  36.849  1.00  0.00     0.173 A 
ATOM    131  F   UNL A   1      38.128  31.170  37.319  1.00  0.00    -0.203 F 
ATOM    132  C   UNL A   1      38.195  33.202  38.508  1.00  0.00     0.198 A 
ATOM    133  C   UNL A   1      39.764  34.908  37.881  1.00  0.00     0.198 A 
ATOM    134  F   UNL A   1      41.214  34.564  36.061  1.00  0.00    -0.203 F 
ATOM    135  F   UNL A   1      37.190  32.778  39.287  1.00  0.00    -0.200 F 
ATOM    136  C   UNL A   1      38.742  34.461  38.706  1.00  0.00     0.200 A 
ATOM    137  F   UNL A   1      40.301  36.120  38.078  1.00  0.00    -0.200 F 
ATOM    138  F   UNL A   1      38.279  35.247  39.687  1.00  0.00    -0.200 F 
ENDBRANCH 104 128
ENDBRANCH  69  72
ENDBRANCH  59  62
ENDBRANCH  55  58
ENDBRANCH  52  55
ENDBRANCH  49  52
ENDBRANCH  46  49
ENDBRANCH   1  46
TORSDOF 17
ENDMDL
MODEL 5
REMARK VINA RESULT:     -11.6      3.708      8.802
REMARK SMILES CS(=O)(=O)c1ccc(-c2cc(Cl)cnc2-c2ccc(C(=O)NCCCCCCNC(=O)c3ccc(-c4c5nc(c(-c6c(F)c(F)c(F)c(F)c6F)c6ccc([nH]6)c(-c6c(F)c(F)c(F)c(F)c6F)c6nc(c(-c7c(F)c(F)c(F)c(F)c7F)c7ccc4[nH]7)C=C6)C=C5)cc3)nc2)cc1
REMARK SMILES IDX 24 1 23 4 22 7 20 8 21 9 19 11 16 12 17 13 96 14 18 15 95 17
REMARK SMILES IDX 15 20 9 21 10 22 11 23 14 25 12 26 13 27 8 29 5 30 6 31
REMARK SMILES IDX 98 32 7 33 97 35 2 39 3 40 4 41 1 42 25 46 26 49 27 52 28 55
REMARK SMILES IDX 29 58 30 59 31 61 32 62 33 63 94 64 34 65 93 67 35 69 36 72
REMARK SMILES IDX 37 73 87 74 38 75 92 76 86 77 88 78 39 79 91 80 85 82 84 84
REMARK SMILES IDX 40 86 72 89 52 90 71 91 53 92 56 93 70 94 89 95 54 96 55 98
REMARK SMILES IDX 69 100 90 101 57 104 41 106 42 107 50 108 43 109 44 110
REMARK SMILES IDX 48 111 51 112 45 113 46 114 49 115 47 116 73 117 74 118
REMARK SMILES IDX 82 119 75 120 76 121 80 122 83 123 77 124 78 125 81 126
REMARK SMILES IDX 79 127 58 128 59 129 67 130 60 131 61 132 65 133 68 134
REMARK SMILES IDX 62 135 63 136 66 137 64 138
REMARK H PARENT 24 2 24 3 23 5 23 6 22 10 17 16 96 18 18 19 10 24 13 28 6 34
REMARK H PARENT 98 36 7 37 97 38 1 43 1 44 1 45 25 47 25 48 26 50 26 51 27 53
REMARK H PARENT 27 54 28 56 28 57 29 60 33 66 94 68 34 70 93 71 92 81 86 83
REMARK H PARENT 88 85 91 87 85 88 53 97 56 99 89 102 54 103 90 105
REMARK Flexibility Score: inf
ROOT
ATOM      1  C   UNL A   1      35.738  33.683  28.887  1.00  0.00    -0.036 C 
ATOM      2  H   UNL A   1      36.028  34.647  28.523  1.00  0.00     0.028 H 
ATOM      3  H   UNL A   1      36.355  33.349  29.694  1.00  0.00     0.028 H 
ENDROOT
BRANCH   1   4
ATOM      4  C   UNL A   1      35.900  32.669  27.751  1.00  0.00     0.018 C 
ATOM      5  H   UNL A   1      35.028  32.693  27.130  1.00  0.00     0.049 H 
ATOM      6  H   UNL A   1      36.766  32.926  27.177  1.00  0.00     0.049 H 
BRANCH   4   7
ATOM      7  N   UNL A   1      36.069  31.334  28.287  1.00  0.00    -0.351 N 
ATOM      8  C   UNL A   1      35.424  30.141  28.047  1.00  0.00     0.269 C 
ATOM      9  O   UNL A   1      35.830  29.163  28.677  1.00  0.00    -0.268 OA
ATOM     10  H   UNL A   1      36.787  31.267  28.957  1.00  0.00     0.163 HD
BRANCH   8  11
ATOM     11  C   UNL A   1      34.314  29.984  27.045  1.00  0.00     0.128 A 
ATOM     12  C   UNL A   1      32.101  29.723  25.395  1.00  0.00     0.019 A 
ATOM     13  C   UNL A   1      33.298  29.079  25.070  1.00  0.00    -0.049 A 
ATOM     14  C   UNL A   1      32.118  30.537  26.521  1.00  0.00     0.037 A 
ATOM     15  C   UNL A   1      34.424  29.235  25.881  1.00  0.00    -0.030 A 
ATOM     16  H   UNL A   1      33.351  28.485  24.227  1.00  0.00     0.063 H 
ATOM     17  N   UNL A   1      33.174  30.656  27.360  1.00  0.00    -0.250 NA
ATOM     18  H   UNL A   1      31.271  31.088  26.730  1.00  0.00     0.085 H 
ATOM     19  H   UNL A   1      35.323  28.800  25.620  1.00  0.00     0.065 H 
BRANCH  12  20
ATOM     20  C   UNL A   1      30.883  29.528  24.609  1.00  0.00     0.080 A 
ATOM     21  C   UNL A   1      30.388  28.250  24.275  1.00  0.00     0.010 A 
ATOM     22  C   UNL A   1      29.248  28.201  23.453  1.00  0.00    -0.032 A 
ATOM     23  C   UNL A   1      28.651  29.377  23.014  1.00  0.00     0.060 A 
ATOM     24  H   UNL A   1      28.854  27.289  23.176  1.00  0.00     0.065 H 
ATOM     25  N   UNL A   1      30.296  30.685  24.200  1.00  0.00    -0.254 NA
ATOM     26  Cl  UNL A   1      27.271  29.328  21.997  1.00  0.00    -0.083 Cl
ATOM     27  C   UNL A   1      29.199  30.582  23.413  1.00  0.00     0.046 A 
ATOM     28  H   UNL A   1      28.746  31.453  23.094  1.00  0.00     0.086 H 
BRANCH  21  29
ATOM     29  C   UNL A   1      31.008  26.998  24.743  1.00  0.00    -0.016 A 
ATOM     30  C   UNL A   1      32.184  24.608  25.640  1.00  0.00     0.067 A 
ATOM     31  C   UNL A   1      32.388  25.026  24.324  1.00  0.00    -0.043 A 
ATOM     32  C   UNL A   1      31.413  25.373  26.516  1.00  0.00    -0.043 A 
ATOM     33  C   UNL A   1      31.800  26.215  23.883  1.00  0.00    -0.053 A 
ATOM     34  H   UNL A   1      32.968  24.462  23.684  1.00  0.00     0.064 H 
ATOM     35  C   UNL A   1      30.831  26.562  26.067  1.00  0.00    -0.053 A 
ATOM     36  H   UNL A   1      31.273  25.063  27.491  1.00  0.00     0.064 H 
ATOM     37  H   UNL A   1      31.950  26.524  22.910  1.00  0.00     0.063 H 
ATOM     38  H   UNL A   1      30.264  27.128  26.717  1.00  0.00     0.063 H 
BRANCH  30  39
ATOM     39  S   UNL A   1      32.944  23.107  26.215  1.00  0.00     0.175 S 
ATOM     40  O   UNL A   1      32.574  22.938  27.606  1.00  0.00    -0.224 OA
ATOM     41  O   UNL A   1      34.336  23.163  25.808  1.00  0.00    -0.224 OA
BRANCH  39  42
ATOM     42  C   UNL A   1      32.145  21.813  25.302  1.00  0.00     0.043 C 
ATOM     43  H   UNL A   1      32.844  21.026  25.114  1.00  0.00     0.040 H 
ATOM     44  H   UNL A   1      31.786  22.202  24.373  1.00  0.00     0.040 H 
ATOM     45  H   UNL A   1      31.323  21.432  25.871  1.00  0.00     0.040 H 
ENDBRANCH  39  42
ENDBRANCH  30  39
ENDBRANCH  21  29
ENDBRANCH  12  20
ENDBRANCH   8  11
ENDBRANCH   4   7
ENDBRANCH   1   4
BRANCH   1  46
ATOM     46  C   UNL A   1      34.304  33.781  29.427  1.00  0.00    -0.052 C 
ATOM     47  H   UNL A   1      34.308  34.455  30.258  1.00  0.00     0.027 H 
ATOM     48  H   UNL A   1      34.016  32.784  29.688  1.00  0.00     0.027 H 
BRANCH  46  49
ATOM     49  C   UNL A   1      33.261  34.278  28.418  1.00  0.00    -0.052 C 
ATOM     50  H   UNL A   1      32.474  33.553  28.371  1.00  0.00     0.027 H 
ATOM     51  H   UNL A   1      33.781  34.404  27.492  1.00  0.00     0.027 H 
BRANCH  49  52
ATOM     52  C   UNL A   1      32.633  35.636  28.742  1.00  0.00    -0.036 C 
ATOM     53  H   UNL A   1      31.603  35.478  28.986  1.00  0.00     0.028 H 
ATOM     54  H   UNL A   1      32.770  36.248  27.874  1.00  0.00     0.028 H 
BRANCH  52  55
ATOM     55  C   UNL A   1      33.289  36.379  29.902  1.00  0.00     0.018 C 
ATOM     56  H   UNL A   1      33.525  37.373  29.586  1.00  0.00     0.049 H 
ATOM     57  H   UNL A   1      34.172  35.843  30.184  1.00  0.00     0.049 H 
BRANCH  55  58
ATOM     58  N   UNL A   1      32.418  36.451  31.064  1.00  0.00    -0.352 N 
ATOM     59  C   UNL A   1      32.507  35.789  32.261  1.00  0.00     0.251 C 
ATOM     60  H   UNL A   1      31.652  37.064  30.978  1.00  0.00     0.163 HD
ATOM     61  O   UNL A   1      31.569  35.816  33.053  1.00  0.00    -0.269 OA
BRANCH  59  62
ATOM     62  C   UNL A   1      33.729  35.028  32.600  1.00  0.00     0.039 A 
ATOM     63  C   UNL A   1      34.972  35.649  32.453  1.00  0.00    -0.049 A 
ATOM     64  C   UNL A   1      33.654  33.698  33.024  1.00  0.00    -0.049 A 
ATOM     65  C   UNL A   1      36.139  34.952  32.776  1.00  0.00    -0.053 A 
ATOM     66  H   UNL A   1      35.029  36.620  32.107  1.00  0.00     0.063 H 
ATOM     67  C   UNL A   1      34.812  33.024  33.403  1.00  0.00    -0.053 A 
ATOM     68  H   UNL A   1      32.741  33.217  33.057  1.00  0.00     0.063 H 
ATOM     69  C   UNL A   1      36.066  33.642  33.274  1.00  0.00    -0.014 A 
ATOM     70  H   UNL A   1      37.059  35.403  32.647  1.00  0.00     0.063 H 
ATOM     71  H   UNL A   1      34.748  32.065  33.780  1.00  0.00     0.063 H 
BRANCH  69  72
ATOM     72  C   UNL A   1      37.291  32.895  33.650  1.00  0.00     0.031 A 
ATOM     73  C   UNL A   1      37.992  33.199  34.943  1.00  0.00     0.074 A 
ATOM     74  C   UNL A   1      37.805  31.986  32.799  1.00  0.00     0.049 A 
ATOM     75  N   UNL A   1      39.111  32.709  35.416  1.00  0.00    -0.248 NA
ATOM     76  C   UNL A   1      37.366  34.209  35.811  1.00  0.00    -0.034 C 
ATOM     77  C   UNL A   1      37.241  31.636  31.495  1.00  0.00    -0.036 A 
ATOM     78  N   UNL A   1      38.927  31.201  32.899  1.00  0.00    -0.354 N 
ATOM     79  C   UNL A   1      39.330  33.362  36.622  1.00  0.00     0.074 A 
ATOM     80  C   UNL A   1      38.256  34.315  36.788  1.00  0.00    -0.034 C 
ATOM     81  H   UNL A   1      36.470  34.705  35.690  1.00  0.00     0.065 H 
ATOM     82  C   UNL A   1      38.008  30.693  30.924  1.00  0.00    -0.036 A 
ATOM     83  H   UNL A   1      36.390  32.047  31.082  1.00  0.00     0.065 H 
ATOM     84  C   UNL A   1      39.133  30.396  31.806  1.00  0.00     0.049 A 
ATOM     85  H   UNL A   1      39.525  31.214  33.680  1.00  0.00     0.167 HD
ATOM     86  C   UNL A   1      40.327  33.167  37.518  1.00  0.00     0.037 A 
ATOM     87  H   UNL A   1      38.189  34.991  37.565  1.00  0.00     0.065 H 
ATOM     88  H   UNL A   1      37.831  30.250  30.009  1.00  0.00     0.065 H 
ATOM     89  C   UNL A   1      40.122  29.520  31.546  1.00  0.00     0.037 A 
ATOM     90  C   UNL A   1      41.376  32.194  37.365  1.00  0.00     0.049 A 
ATOM     91  C   UNL A   1      41.209  29.314  32.564  1.00  0.00     0.074 A 
ATOM     92  C   UNL A   1      42.396  31.878  38.246  1.00  0.00    -0.036 A 
ATOM     93  N   UNL A   1      41.536  31.375  36.257  1.00  0.00    -0.354 N 
ATOM     94  N   UNL A   1      41.372  29.893  33.728  1.00  0.00    -0.248 NA
ATOM     95  C   UNL A   1      42.245  28.324  32.234  1.00  0.00    -0.034 C 
ATOM     96  C   UNL A   1      43.194  30.892  37.654  1.00  0.00    -0.036 A 
ATOM     97  H   UNL A   1      42.543  32.296  39.176  1.00  0.00     0.065 H 
ATOM     98  C   UNL A   1      42.648  30.566  36.423  1.00  0.00     0.049 A 
ATOM     99  H   UNL A   1      40.947  31.371  35.468  1.00  0.00     0.167 HD
ATOM    100  C   UNL A   1      42.511  29.323  34.280  1.00  0.00     0.074 A 
ATOM    101  C   UNL A   1      42.991  28.342  33.330  1.00  0.00    -0.034 C 
ATOM    102  H   UNL A   1      42.360  27.763  31.376  1.00  0.00     0.065 H 
ATOM    103  H   UNL A   1      44.047  30.480  38.064  1.00  0.00     0.065 H 
ATOM    104  C   UNL A   1      43.105  29.588  35.469  1.00  0.00     0.037 A 
ATOM    105  H   UNL A   1      43.811  27.734  33.485  1.00  0.00     0.065 H 
BRANCH  86 106
ATOM    106  C   UNL A   1      40.326  34.023  38.750  1.00  0.00     0.064 A 
ATOM    107  C   UNL A   1      41.018  35.244  38.797  1.00  0.00     0.173 A 
ATOM    108  C   UNL A   1      39.601  33.637  39.887  1.00  0.00     0.173 A 
ATOM    109  F   UNL A   1      41.738  35.652  37.741  1.00  0.00    -0.203 F 
ATOM    110  C   UNL A   1      41.006  36.031  39.945  1.00  0.00     0.198 A 
ATOM    111  C   UNL A   1      39.568  34.440  41.024  1.00  0.00     0.198 A 
ATOM    112  F   UNL A   1      38.918  32.481  39.893  1.00  0.00    -0.203 F 
ATOM    113  F   UNL A   1      41.714  37.169  39.984  1.00  0.00    -0.200 F 
ATOM    114  C   UNL A   1      40.276  35.631  41.055  1.00  0.00     0.200 A 
ATOM    115  F   UNL A   1      38.853  34.059  42.091  1.00  0.00    -0.200 F 
ATOM    116  F   UNL A   1      40.261  36.393  42.159  1.00  0.00    -0.200 F 
ENDBRANCH  86 106
BRANCH  89 117
ATOM    117  C   UNL A   1      40.109  28.747  30.277  1.00  0.00     0.064 A 
ATOM    118  C   UNL A   1      39.474  27.501  30.203  1.00  0.00     0.173 A 
ATOM    119  C   UNL A   1      40.726  29.237  29.117  1.00  0.00     0.173 A 
ATOM    120  F   UNL A   1      38.889  26.982  31.293  1.00  0.00    -0.203 F 
ATOM    121  C   UNL A   1      39.470  26.763  29.021  1.00  0.00     0.198 A 
ATOM    122  C   UNL A   1      40.700  28.510  27.929  1.00  0.00     0.198 A 
ATOM    123  F   UNL A   1      41.342  30.428  29.136  1.00  0.00    -0.203 F 
ATOM    124  F   UNL A   1      38.890  25.556  28.988  1.00  0.00    -0.200 F 
ATOM    125  C   UNL A   1      40.078  27.272  27.883  1.00  0.00     0.200 A 
ATOM    126  F   UNL A   1      41.279  29.010  26.828  1.00  0.00    -0.200 F 
ATOM    127  F   UNL A   1      40.071  26.564  26.745  1.00  0.00    -0.200 F 
ENDBRANCH  89 117
BRANCH 104 128
ATOM    128  C   UNL A   1      44.320  28.785  35.824  1.00  0.00     0.064 A 
ATOM    129  C   UNL A   1      45.610  29.214  35.478  1.00  0.00     0.173 A 
ATOM    130  C   UNL A   1      44.195  27.592  36.552  1.00  0.00     0.173 A 
ATOM    131  F   UNL A   1      45.779  30.340  34.770  1.00  0.00    -0.203 F 
ATOM    132  C   UNL A   1      46.730  28.466  35.833  1.00  0.00     0.198 A 
ATOM    133  C   UNL A   1      45.318  26.861  36.926  1.00  0.00     0.198 A 
ATOM    134  F   UNL A   1      42.982  27.143  36.910  1.00  0.00    -0.203 F 
ATOM    135  F   UNL A   1      47.950  28.874  35.458  1.00  0.00    -0.200 F 
ATOM    136  C   UNL A   1      46.584  27.295  36.561  1.00  0.00     0.200 A 
ATOM    137  F   UNL A   1      45.176  25.736  37.640  1.00  0.00    -0.200 F 
ATOM    138  F   UNL A   1      47.664  26.581  36.906  1.00  0.00    -0.200 F 
ENDBRANCH 104 128
ENDBRANCH  69  72
ENDBRANCH  59  62
ENDBRANCH  55  58
ENDBRANCH  52  55
ENDBRANCH  49  52
ENDBRANCH  46  49
ENDBRANCH   1  46
TORSDOF 17
ENDMDL
MODEL 6
REMARK VINA RESULT:     -11.5      1.157      7.005
REMARK SMILES CS(=O)(=O)c1ccc(-c2cc(Cl)cnc2-c2ccc(C(=O)NCCCCCCNC(=O)c3ccc(-c4c5nc(c(-c6c(F)c(F)c(F)c(F)c6F)c6ccc([nH]6)c(-c6c(F)c(F)c(F)c(F)c6F)c6nc(c(-c7c(F)c(F)c(F)c(F)c7F)c7ccc4[nH]7)C=C6)C=C5)cc3)nc2)cc1
REMARK SMILES IDX 24 1 23 4 22 7 20 8 21 9 19 11 16 12 17 13 96 14 18 15 95 17
REMARK SMILES IDX 15 20 9 21 10 22 11 23 14 25 12 26 13 27 8 29 5 30 6 31
REMARK SMILES IDX 98 32 7 33 97 35 2 39 3 40 4 41 1 42 25 46 26 49 27 52 28 55
REMARK SMILES IDX 29 58 30 59 31 61 32 62 33 63 94 64 34 65 93 67 35 69 36 72
REMARK SMILES IDX 37 73 87 74 38 75 92 76 86 77 88 78 39 79 91 80 85 82 84 84
REMARK SMILES IDX 40 86 72 89 52 90 71 91 53 92 56 93 70 94 89 95 54 96 55 98
REMARK SMILES IDX 69 100 90 101 57 104 41 106 42 107 50 108 43 109 44 110
REMARK SMILES IDX 48 111 51 112 45 113 46 114 49 115 47 116 73 117 74 118
REMARK SMILES IDX 82 119 75 120 76 121 80 122 83 123 77 124 78 125 81 126
REMARK SMILES IDX 79 127 58 128 59 129 67 130 60 131 61 132 65 133 68 134
REMARK SMILES IDX 62 135 63 136 66 137 64 138
REMARK H PARENT 24 2 24 3 23 5 23 6 22 10 17 16 96 18 18 19 10 24 13 28 6 34
REMARK H PARENT 98 36 7 37 97 38 1 43 1 44 1 45 25 47 25 48 26 50 26 51 27 53
REMARK H PARENT 27 54 28 56 28 57 29 60 33 66 94 68 34 70 93 71 92 81 86 83
REMARK H PARENT 88 85 91 87 85 88 53 97 56 99 89 102 54 103 90 105
REMARK Flexibility Score: inf
ROOT
ATOM      1  C   UNL A   1      40.822  24.067  27.736  1.00  0.00    -0.036 C 
ATOM      2  H   UNL A   1      40.544  24.363  28.726  1.00  0.00     0.028 H 
ATOM      3  H   UNL A   1      41.499  24.757  27.279  1.00  0.00     0.028 H 
ENDROOT
BRANCH   1   4
ATOM      4  C   UNL A   1      39.560  24.038  26.869  1.00  0.00     0.018 C 
ATOM      5  H   UNL A   1      38.714  24.300  27.469  1.00  0.00     0.049 H 
ATOM      6  H   UNL A   1      39.673  24.738  26.067  1.00  0.00     0.049 H 
BRANCH   4   7
ATOM      7  N   UNL A   1      39.361  22.714  26.314  1.00  0.00    -0.351 N 
ATOM      8  C   UNL A   1      38.320  22.138  25.620  1.00  0.00     0.269 C 
ATOM      9  O   UNL A   1      38.477  20.966  25.271  1.00  0.00    -0.268 OA
ATOM     10  H   UNL A   1      40.121  22.107  26.462  1.00  0.00     0.163 HD
BRANCH   8  11
ATOM     11  C   UNL A   1      37.064  22.874  25.244  1.00  0.00     0.128 A 
ATOM     12  C   UNL A   1      34.635  24.118  24.757  1.00  0.00     0.019 A 
ATOM     13  C   UNL A   1      35.498  23.826  23.697  1.00  0.00    -0.049 A 
ATOM     14  C   UNL A   1      35.095  23.823  26.034  1.00  0.00     0.037 A 
ATOM     15  C   UNL A   1      36.736  23.230  23.942  1.00  0.00    -0.030 A 
ATOM     16  H   UNL A   1      35.219  24.052  22.729  1.00  0.00     0.063 H 
ATOM     17  N   UNL A   1      36.261  23.188  26.296  1.00  0.00    -0.250 NA
ATOM     18  H   UNL A   1      34.509  24.108  26.835  1.00  0.00     0.085 H 
ATOM     19  H   UNL A   1      37.397  23.055  23.169  1.00  0.00     0.065 H 
BRANCH  12  20
ATOM     20  C   UNL A   1      33.302  24.678  24.533  1.00  0.00     0.080 A 
ATOM     21  C   UNL A   1      32.196  23.888  24.153  1.00  0.00     0.010 A 
ATOM     22  C   UNL A   1      30.988  24.559  23.898  1.00  0.00    -0.032 A 
ATOM     23  C   UNL A   1      30.912  25.940  24.034  1.00  0.00     0.060 A 
ATOM     24  H   UNL A   1      30.154  24.024  23.610  1.00  0.00     0.065 H 
ATOM     25  N   UNL A   1      33.234  26.028  24.686  1.00  0.00    -0.254 NA
ATOM     26  Cl  UNL A   1      29.448  26.771  23.709  1.00  0.00    -0.083 Cl
ATOM     27  C   UNL A   1      32.046  26.625  24.432  1.00  0.00     0.046 A 
ATOM     28  H   UNL A   1      31.983  27.649  24.543  1.00  0.00     0.086 H 
BRANCH  21  29
ATOM     29  C   UNL A   1      32.263  22.422  24.016  1.00  0.00    -0.016 A 
ATOM     30  C   UNL A   1      32.386  19.625  23.760  1.00  0.00     0.067 A 
ATOM     31  C   UNL A   1      32.245  20.417  22.620  1.00  0.00    -0.043 A 
ATOM     32  C   UNL A   1      32.480  20.211  25.023  1.00  0.00    -0.043 A 
ATOM     33  C   UNL A   1      32.184  21.807  22.753  1.00  0.00    -0.053 A 
ATOM     34  H   UNL A   1      32.188  19.979  21.687  1.00  0.00     0.064 H 
ATOM     35  C   UNL A   1      32.420  21.603  25.146  1.00  0.00    -0.053 A 
ATOM     36  H   UNL A   1      32.593  19.621  25.863  1.00  0.00     0.064 H 
ATOM     37  H   UNL A   1      32.079  22.393  21.909  1.00  0.00     0.063 H 
ATOM     38  H   UNL A   1      32.493  22.034  26.081  1.00  0.00     0.063 H 
BRANCH  30  39
ATOM     39  S   UNL A   1      32.485  17.858  23.599  1.00  0.00     0.175 S 
ATOM     40  O   UNL A   1      32.192  17.531  22.217  1.00  0.00    -0.224 OA
ATOM     41  O   UNL A   1      31.705  17.296  24.686  1.00  0.00    -0.224 OA
BRANCH  39  42
ATOM     42  C   UNL A   1      34.192  17.469  23.876  1.00  0.00     0.043 C 
ATOM     43  H   UNL A   1      34.265  16.639  24.546  1.00  0.00     0.040 H 
ATOM     44  H   UNL A   1      34.686  18.317  24.302  1.00  0.00     0.040 H 
ATOM     45  H   UNL A   1      34.656  17.218  22.944  1.00  0.00     0.040 H 
ENDBRANCH  39  42
ENDBRANCH  30  39
ENDBRANCH  21  29
ENDBRANCH  12  20
ENDBRANCH   8  11
ENDBRANCH   4   7
ENDBRANCH   1   4
BRANCH   1  46
ATOM     46  C   UNL A   1      41.544  22.715  27.819  1.00  0.00    -0.052 C 
ATOM     47  H   UNL A   1      40.988  22.006  27.242  1.00  0.00     0.027 H 
ATOM     48  H   UNL A   1      41.599  22.470  28.859  1.00  0.00     0.027 H 
BRANCH  46  49
ATOM     49  C   UNL A   1      42.989  22.716  27.304  1.00  0.00    -0.052 C 
ATOM     50  H   UNL A   1      43.494  21.875  27.732  1.00  0.00     0.027 H 
ATOM     51  H   UNL A   1      43.406  23.658  27.594  1.00  0.00     0.027 H 
BRANCH  49  52
ATOM     52  C   UNL A   1      43.141  22.634  25.783  1.00  0.00    -0.036 C 
ATOM     53  H   UNL A   1      42.347  22.028  25.400  1.00  0.00     0.028 H 
ATOM     54  H   UNL A   1      44.112  22.222  25.597  1.00  0.00     0.028 H 
BRANCH  52  55
ATOM     55  C   UNL A   1      43.100  23.981  25.066  1.00  0.00     0.018 C 
ATOM     56  H   UNL A   1      42.582  24.685  25.683  1.00  0.00     0.049 H 
ATOM     57  H   UNL A   1      42.597  23.844  24.131  1.00  0.00     0.049 H 
BRANCH  55  58
ATOM     58  N   UNL A   1      44.432  24.490  24.788  1.00  0.00    -0.352 N 
ATOM     59  C   UNL A   1      45.074  25.583  25.313  1.00  0.00     0.251 C 
ATOM     60  H   UNL A   1      44.951  23.976  24.127  1.00  0.00     0.163 HD
ATOM     61  O   UNL A   1      46.121  25.984  24.813  1.00  0.00    -0.269 OA
BRANCH  59  62
ATOM     62  C   UNL A   1      44.500  26.293  26.478  1.00  0.00     0.039 A 
ATOM     63  C   UNL A   1      44.298  27.673  26.393  1.00  0.00    -0.049 A 
ATOM     64  C   UNL A   1      44.200  25.609  27.659  1.00  0.00    -0.049 A 
ATOM     65  C   UNL A   1      43.748  28.361  27.478  1.00  0.00    -0.053 A 
ATOM     66  H   UNL A   1      44.552  28.182  25.533  1.00  0.00     0.063 H 
ATOM     67  C   UNL A   1      43.597  26.284  28.717  1.00  0.00    -0.053 A 
ATOM     68  H   UNL A   1      44.423  24.605  27.747  1.00  0.00     0.063 H 
ATOM     69  C   UNL A   1      43.374  27.668  28.640  1.00  0.00    -0.014 A 
ATOM     70  H   UNL A   1      43.618  29.383  27.425  1.00  0.00     0.063 H 
ATOM     71  H   UNL A   1      43.314  25.765  29.563  1.00  0.00     0.063 H 
BRANCH  69  72
ATOM     72  C   UNL A   1      42.764  28.376  29.791  1.00  0.00     0.031 A 
ATOM     73  C   UNL A   1      41.393  28.980  29.664  1.00  0.00     0.074 A 
ATOM     74  C   UNL A   1      43.466  28.527  30.930  1.00  0.00     0.049 A 
ATOM     75  N   UNL A   1      40.719  29.696  30.528  1.00  0.00    -0.248 NA
ATOM     76  C   UNL A   1      40.698  28.773  28.385  1.00  0.00    -0.034 C 
ATOM     77  C   UNL A   1      44.822  28.026  31.159  1.00  0.00    -0.036 A 
ATOM     78  N   UNL A   1      43.142  29.159  32.105  1.00  0.00    -0.354 N 
ATOM     79  C   UNL A   1      39.534  30.039  29.892  1.00  0.00     0.074 A 
ATOM     80  C   UNL A   1      39.598  29.493  28.555  1.00  0.00    -0.034 C 
ATOM     81  H   UNL A   1      40.990  28.214  27.568  1.00  0.00     0.065 H 
ATOM     82  C   UNL A   1      45.206  28.352  32.403  1.00  0.00    -0.036 A 
ATOM     83  H   UNL A   1      45.390  27.503  30.474  1.00  0.00     0.065 H 
ATOM     84  C   UNL A   1      44.138  29.112  33.048  1.00  0.00     0.049 A 
ATOM     85  H   UNL A   1      42.277  29.602  32.256  1.00  0.00     0.167 HD
ATOM     86  C   UNL A   1      38.478  30.729  30.387  1.00  0.00     0.037 A 
ATOM     87  H   UNL A   1      38.882  29.643  27.827  1.00  0.00     0.065 H 
ATOM     88  H   UNL A   1      46.111  28.106  32.835  1.00  0.00     0.065 H 
ATOM     89  C   UNL A   1      44.185  29.628  34.290  1.00  0.00     0.037 A 
ATOM     90  C   UNL A   1      38.404  31.242  31.730  1.00  0.00     0.049 A 
ATOM     91  C   UNL A   1      42.995  30.379  34.820  1.00  0.00     0.074 A 
ATOM     92  C   UNL A   1      37.354  31.901  32.345  1.00  0.00    -0.036 A 
ATOM     93  N   UNL A   1      39.422  31.150  32.666  1.00  0.00    -0.354 N 
ATOM     94  N   UNL A   1      41.855  30.644  34.230  1.00  0.00    -0.248 NA
ATOM     95  C   UNL A   1      43.096  30.894  36.193  1.00  0.00    -0.034 C 
ATOM     96  C   UNL A   1      37.751  32.239  33.644  1.00  0.00    -0.036 A 
ATOM     97  H   UNL A   1      36.437  32.108  31.921  1.00  0.00     0.065 H 
ATOM     98  C   UNL A   1      39.033  31.755  33.851  1.00  0.00     0.049 A 
ATOM     99  H   UNL A   1      40.294  30.720  32.512  1.00  0.00     0.167 HD
ATOM    100  C   UNL A   1      41.094  31.334  35.164  1.00  0.00     0.074 A 
ATOM    101  C   UNL A   1      41.897  31.434  36.366  1.00  0.00    -0.034 C 
ATOM    102  H   UNL A   1      43.890  30.848  36.850  1.00  0.00     0.065 H 
ATOM    103  H   UNL A   1      37.186  32.762  34.332  1.00  0.00     0.065 H 
ATOM    104  C   UNL A   1      39.842  31.837  35.039  1.00  0.00     0.037 A 
ATOM    105  H   UNL A   1      41.577  31.871  37.245  1.00  0.00     0.065 H 
BRANCH  86 106
ATOM    106  C   UNL A   1      37.314  30.965  29.471  1.00  0.00     0.064 A 
ATOM    107  C   UNL A   1      36.375  29.956  29.202  1.00  0.00     0.173 A 
ATOM    108  C   UNL A   1      37.115  32.221  28.879  1.00  0.00     0.173 A 
ATOM    109  F   UNL A   1      36.528  28.734  29.733  1.00  0.00    -0.203 F 
ATOM    110  C   UNL A   1      35.297  30.189  28.353  1.00  0.00     0.198 A 
ATOM    111  C   UNL A   1      36.020  32.458  28.053  1.00  0.00     0.198 A 
ATOM    112  F   UNL A   1      37.981  33.221  29.107  1.00  0.00    -0.203 F 
ATOM    113  F   UNL A   1      34.440  29.197  28.073  1.00  0.00    -0.200 F 
ATOM    114  C   UNL A   1      35.117  31.441  27.784  1.00  0.00     0.200 A 
ATOM    115  F   UNL A   1      35.840  33.672  27.513  1.00  0.00    -0.200 F 
ATOM    116  F   UNL A   1      34.075  31.666  26.970  1.00  0.00    -0.200 F 
ENDBRANCH  86 106
BRANCH  89 117
ATOM    117  C   UNL A   1      45.393  29.423  35.131  1.00  0.00     0.064 A 
ATOM    118  C   UNL A   1      46.457  30.334  35.090  1.00  0.00     0.173 A 
ATOM    119  C   UNL A   1      45.507  28.321  35.990  1.00  0.00     0.173 A 
ATOM    120  F   UNL A   1      46.401  31.392  34.267  1.00  0.00    -0.203 F 
ATOM    121  C   UNL A   1      47.599  30.141  35.864  1.00  0.00     0.198 A 
ATOM    122  C   UNL A   1      46.639  28.143  36.782  1.00  0.00     0.198 A 
ATOM    123  F   UNL A   1      44.513  27.424  36.068  1.00  0.00    -0.203 F 
ATOM    124  F   UNL A   1      48.619  31.005  35.777  1.00  0.00    -0.200 F 
ATOM    125  C   UNL A   1      47.686  29.048  36.714  1.00  0.00     0.200 A 
ATOM    126  F   UNL A   1      46.716  27.091  37.610  1.00  0.00    -0.200 F 
ATOM    127  F   UNL A   1      48.784  28.866  37.461  1.00  0.00    -0.200 F 
ENDBRANCH  89 117
BRANCH 104 128
ATOM    128  C   UNL A   1      39.251  32.514  36.239  1.00  0.00     0.064 A 
ATOM    129  C   UNL A   1      38.372  31.843  37.100  1.00  0.00     0.173 A 
ATOM    130  C   UNL A   1      39.601  33.836  36.552  1.00  0.00     0.173 A 
ATOM    131  F   UNL A   1      37.996  30.584  36.835  1.00  0.00    -0.203 F 
ATOM    132  C   UNL A   1      37.847  32.480  38.223  1.00  0.00     0.198 A 
ATOM    133  C   UNL A   1      39.095  34.461  37.687  1.00  0.00     0.198 A 
ATOM    134  F   UNL A   1      40.444  34.518  35.761  1.00  0.00    -0.203 F 
ATOM    135  F   UNL A   1      36.976  31.834  39.010  1.00  0.00    -0.200 F 
ATOM    136  C   UNL A   1      38.214  33.785  38.519  1.00  0.00     0.200 A 
ATOM    137  F   UNL A   1      39.459  35.717  37.979  1.00  0.00    -0.200 F 
ATOM    138  F   UNL A   1      37.712  34.393  39.602  1.00  0.00    -0.200 F 
ENDBRANCH 104 128
ENDBRANCH  69  72
ENDBRANCH  59  62
ENDBRANCH  55  58
ENDBRANCH  52  55
ENDBRANCH  49  52
ENDBRANCH  46  49
ENDBRANCH   1  46
TORSDOF 17
ENDMDL
MODEL 7
REMARK VINA RESULT:     -11.5      4.728      7.755
REMARK SMILES CS(=O)(=O)c1ccc(-c2cc(Cl)cnc2-c2ccc(C(=O)NCCCCCCNC(=O)c3ccc(-c4c5nc(c(-c6c(F)c(F)c(F)c(F)c6F)c6ccc([nH]6)c(-c6c(F)c(F)c(F)c(F)c6F)c6nc(c(-c7c(F)c(F)c(F)c(F)c7F)c7ccc4[nH]7)C=C6)C=C5)cc3)nc2)cc1
REMARK SMILES IDX 24 1 23 4 22 7 20 8 21 9 19 11 16 12 17 13 96 14 18 15 95 17
REMARK SMILES IDX 15 20 9 21 10 22 11 23 14 25 12 26 13 27 8 29 5 30 6 31
REMARK SMILES IDX 98 32 7 33 97 35 2 39 3 40 4 41 1 42 25 46 26 49 27 52 28 55
REMARK SMILES IDX 29 58 30 59 31 61 32 62 33 63 94 64 34 65 93 67 35 69 36 72
REMARK SMILES IDX 37 73 87 74 38 75 92 76 86 77 88 78 39 79 91 80 85 82 84 84
REMARK SMILES IDX 40 86 72 89 52 90 71 91 53 92 56 93 70 94 89 95 54 96 55 98
REMARK SMILES IDX 69 100 90 101 57 104 41 106 42 107 50 108 43 109 44 110
REMARK SMILES IDX 48 111 51 112 45 113 46 114 49 115 47 116 73 117 74 118
REMARK SMILES IDX 82 119 75 120 76 121 80 122 83 123 77 124 78 125 81 126
REMARK SMILES IDX 79 127 58 128 59 129 67 130 60 131 61 132 65 133 68 134
REMARK SMILES IDX 62 135 63 136 66 137 64 138
REMARK H PARENT 24 2 24 3 23 5 23 6 22 10 17 16 96 18 18 19 10 24 13 28 6 34
REMARK H PARENT 98 36 7 37 97 38 1 43 1 44 1 45 25 47 25 48 26 50 26 51 27 53
REMARK H PARENT 27 54 28 56 28 57 29 60 33 66 94 68 34 70 93 71 92 81 86 83
REMARK H PARENT 88 85 91 87 85 88 53 97 56 99 89 102 54 103 90 105
REMARK Flexibility Score: inf
ROOT
ATOM      1  C   UNL A   1      40.164  24.841  27.893  1.00  0.00    -0.036 C 
ATOM      2  H   UNL A   1      39.745  24.137  28.582  1.00  0.00     0.028 H 
ATOM      3  H   UNL A   1      40.038  25.853  28.216  1.00  0.00     0.028 H 
ENDROOT
BRANCH   1   4
ATOM      4  C   UNL A   1      39.431  24.702  26.556  1.00  0.00     0.018 C 
ATOM      5  H   UNL A   1      38.459  25.142  26.639  1.00  0.00     0.049 H 
ATOM      6  H   UNL A   1      39.997  25.201  25.796  1.00  0.00     0.049 H 
BRANCH   4   7
ATOM      7  N   UNL A   1      39.295  23.305  26.199  1.00  0.00    -0.351 N 
ATOM      8  C   UNL A   1      38.256  22.572  25.668  1.00  0.00     0.269 C 
ATOM      9  O   UNL A   1      38.476  21.376  25.467  1.00  0.00    -0.268 OA
ATOM     10  H   UNL A   1      40.105  22.773  26.370  1.00  0.00     0.163 HD
BRANCH   8  11
ATOM     11  C   UNL A   1      36.927  23.168  25.291  1.00  0.00     0.128 A 
ATOM     12  C   UNL A   1      34.385  24.169  24.823  1.00  0.00     0.019 A 
ATOM     13  C   UNL A   1      35.207  23.814  23.750  1.00  0.00    -0.049 A 
ATOM     14  C   UNL A   1      34.938  24.063  26.093  1.00  0.00     0.037 A 
ATOM     15  C   UNL A   1      36.500  23.340  23.981  1.00  0.00    -0.030 A 
ATOM     16  H   UNL A   1      34.858  23.901  22.782  1.00  0.00     0.063 H 
ATOM     17  N   UNL A   1      36.163  23.547  26.351  1.00  0.00    -0.250 NA
ATOM     18  H   UNL A   1      34.378  24.399  26.892  1.00  0.00     0.085 H 
ATOM     19  H   UNL A   1      37.129  23.121  23.192  1.00  0.00     0.065 H 
BRANCH  12  20
ATOM     20  C   UNL A   1      33.002  24.603  24.623  1.00  0.00     0.080 A 
ATOM     21  C   UNL A   1      31.960  23.705  24.304  1.00  0.00     0.010 A 
ATOM     22  C   UNL A   1      30.691  24.259  24.065  1.00  0.00    -0.032 A 
ATOM     23  C   UNL A   1      30.498  25.633  24.158  1.00  0.00     0.060 A 
ATOM     24  H   UNL A   1      29.899  23.644  23.821  1.00  0.00     0.065 H 
ATOM     25  N   UNL A   1      32.820  25.945  24.734  1.00  0.00    -0.254 NA
ATOM     26  Cl  UNL A   1      28.957  26.321  23.852  1.00  0.00    -0.083 Cl
ATOM     27  C   UNL A   1      31.577  26.428  24.498  1.00  0.00     0.046 A 
ATOM     28  H   UNL A   1      31.427  27.445  24.577  1.00  0.00     0.086 H 
BRANCH  21  29
ATOM     29  C   UNL A   1      32.152  22.248  24.212  1.00  0.00    -0.016 A 
ATOM     30  C   UNL A   1      32.523  19.467  24.031  1.00  0.00     0.067 A 
ATOM     31  C   UNL A   1      32.504  20.080  25.284  1.00  0.00    -0.043 A 
ATOM     32  C   UNL A   1      32.346  20.220  22.870  1.00  0.00    -0.043 A 
ATOM     33  C   UNL A   1      32.320  21.464  25.368  1.00  0.00    -0.053 A 
ATOM     34  H   UNL A   1      32.623  19.517  26.141  1.00  0.00     0.064 H 
ATOM     35  C   UNL A   1      32.161  21.603  22.964  1.00  0.00    -0.053 A 
ATOM     36  H   UNL A   1      32.353  19.759  21.945  1.00  0.00     0.064 H 
ATOM     37  H   UNL A   1      32.306  21.918  26.295  1.00  0.00     0.063 H 
ATOM     38  H   UNL A   1      32.027  22.157  22.104  1.00  0.00     0.063 H 
BRANCH  30  39
ATOM     39  S   UNL A   1      32.737  17.706  23.916  1.00  0.00     0.175 S 
ATOM     40  O   UNL A   1      32.511  17.330  22.534  1.00  0.00    -0.224 OA
ATOM     41  O   UNL A   1      31.957  17.120  24.991  1.00  0.00    -0.224 OA
BRANCH  39  42
ATOM     42  C   UNL A   1      34.455  17.432  24.256  1.00  0.00     0.043 C 
ATOM     43  H   UNL A   1      34.738  16.462  23.907  1.00  0.00     0.040 H 
ATOM     44  H   UNL A   1      34.624  17.495  25.310  1.00  0.00     0.040 H 
ATOM     45  H   UNL A   1      35.040  18.176  23.756  1.00  0.00     0.040 H 
ENDBRANCH  39  42
ENDBRANCH  30  39
ENDBRANCH  21  29
ENDBRANCH  12  20
ENDBRANCH   8  11
ENDBRANCH   4   7
ENDBRANCH   1   4
BRANCH   1  46
ATOM     46  C   UNL A   1      41.675  24.585  27.798  1.00  0.00    -0.052 C 
ATOM     47  H   UNL A   1      42.181  25.504  28.010  1.00  0.00     0.027 H 
ATOM     48  H   UNL A   1      41.853  24.219  26.808  1.00  0.00     0.027 H 
BRANCH  46  49
ATOM     49  C   UNL A   1      42.216  23.513  28.753  1.00  0.00    -0.052 C 
ATOM     50  H   UNL A   1      41.444  23.276  29.456  1.00  0.00     0.027 H 
ATOM     51  H   UNL A   1      43.091  23.934  29.204  1.00  0.00     0.027 H 
BRANCH  49  52
ATOM     52  C   UNL A   1      42.665  22.210  28.087  1.00  0.00    -0.036 C 
ATOM     53  H   UNL A   1      41.907  21.473  28.252  1.00  0.00     0.028 H 
ATOM     54  H   UNL A   1      43.606  21.952  28.529  1.00  0.00     0.028 H 
BRANCH  52  55
ATOM     55  C   UNL A   1      42.908  22.314  26.584  1.00  0.00     0.018 C 
ATOM     56  H   UNL A   1      42.685  23.312  26.267  1.00  0.00     0.049 H 
ATOM     57  H   UNL A   1      42.275  21.603  26.095  1.00  0.00     0.049 H 
BRANCH  55  58
ATOM     58  N   UNL A   1      44.284  22.006  26.233  1.00  0.00    -0.352 N 
ATOM     59  C   UNL A   1      45.359  22.848  26.104  1.00  0.00     0.251 C 
ATOM     60  H   UNL A   1      44.472  21.054  26.064  1.00  0.00     0.163 HD
ATOM     61  O   UNL A   1      46.403  22.443  25.601  1.00  0.00    -0.269 OA
BRANCH  59  62
ATOM     62  C   UNL A   1      45.263  24.252  26.558  1.00  0.00     0.039 A 
ATOM     63  C   UNL A   1      44.796  25.219  25.664  1.00  0.00    -0.049 A 
ATOM     64  C   UNL A   1      45.665  24.620  27.846  1.00  0.00    -0.049 A 
ATOM     65  C   UNL A   1      44.687  26.550  26.076  1.00  0.00    -0.053 A 
ATOM     66  H   UNL A   1      44.531  24.952  24.704  1.00  0.00     0.063 H 
ATOM     67  C   UNL A   1      45.501  25.934  28.274  1.00  0.00    -0.053 A 
ATOM     68  H   UNL A   1      46.083  23.918  28.477  1.00  0.00     0.063 H 
ATOM     69  C   UNL A   1      45.019  26.913  27.391  1.00  0.00    -0.014 A 
ATOM     70  H   UNL A   1      44.363  27.269  25.411  1.00  0.00     0.063 H 
ATOM     71  H   UNL A   1      45.736  26.190  29.246  1.00  0.00     0.063 H 
BRANCH  69  72
ATOM     72  C   UNL A   1      44.884  28.315  27.856  1.00  0.00     0.031 A 
ATOM     73  C   UNL A   1      43.597  28.784  28.474  1.00  0.00     0.074 A 
ATOM     74  C   UNL A   1      45.898  29.181  27.667  1.00  0.00     0.049 A 
ATOM     75  N   UNL A   1      43.258  29.983  28.877  1.00  0.00    -0.248 NA
ATOM     76  C   UNL A   1      42.539  27.775  28.639  1.00  0.00    -0.034 C 
ATOM     77  C   UNL A   1      47.179  28.857  27.039  1.00  0.00    -0.036 A 
ATOM     78  N   UNL A   1      46.005  30.515  27.974  1.00  0.00    -0.354 N 
ATOM     79  C   UNL A   1      41.947  29.876  29.322  1.00  0.00     0.074 A 
ATOM     80  C   UNL A   1      41.535  28.508  29.100  1.00  0.00    -0.034 C 
ATOM     81  H   UNL A   1      42.570  26.762  28.445  1.00  0.00     0.065 H 
ATOM     82  C   UNL A   1      47.950  29.956  27.022  1.00  0.00    -0.036 A 
ATOM     83  H   UNL A   1      47.447  27.932  26.669  1.00  0.00     0.065 H 
ATOM     84  C   UNL A   1      47.207  31.068  27.610  1.00  0.00     0.049 A 
ATOM     85  H   UNL A   1      45.288  31.025  28.412  1.00  0.00     0.167 HD
ATOM     86  C   UNL A   1      41.166  30.829  29.886  1.00  0.00     0.037 A 
ATOM     87  H   UNL A   1      40.584  28.148  29.276  1.00  0.00     0.065 H 
ATOM     88  H   UNL A   1      48.913  30.008  26.654  1.00  0.00     0.065 H 
ATOM     89  C   UNL A   1      47.657  32.331  27.733  1.00  0.00     0.037 A 
ATOM     90  C   UNL A   1      41.592  32.181  30.137  1.00  0.00     0.049 A 
ATOM     91  C   UNL A   1      46.774  33.366  28.374  1.00  0.00     0.074 A 
ATOM     92  C   UNL A   1      40.896  33.203  30.758  1.00  0.00    -0.036 A 
ATOM     93  N   UNL A   1      42.828  32.697  29.780  1.00  0.00    -0.354 N 
ATOM     94  N   UNL A   1      45.559  33.238  28.847  1.00  0.00    -0.248 NA
ATOM     95  C   UNL A   1      47.332  34.720  28.506  1.00  0.00    -0.034 C 
ATOM     96  C   UNL A   1      41.700  34.349  30.746  1.00  0.00    -0.036 A 
ATOM     97  H   UNL A   1      39.949  33.134  31.161  1.00  0.00     0.065 H 
ATOM     98  C   UNL A   1      42.911  34.029  30.154  1.00  0.00     0.049 A 
ATOM     99  H   UNL A   1      43.542  32.192  29.328  1.00  0.00     0.167 HD
ATOM    100  C   UNL A   1      45.215  34.484  29.354  1.00  0.00     0.074 A 
ATOM    101  C   UNL A   1      46.355  35.351  29.144  1.00  0.00    -0.034 C 
ATOM    102  H   UNL A   1      48.242  35.084  28.186  1.00  0.00     0.065 H 
ATOM    103  H   UNL A   1      41.435  35.276  31.114  1.00  0.00     0.065 H 
ATOM    104  C   UNL A   1      44.058  34.873  29.943  1.00  0.00     0.037 A 
ATOM    105  H   UNL A   1      46.402  36.336  29.449  1.00  0.00     0.065 H 
BRANCH  86 106
ATOM    106  C   UNL A   1      39.771  30.439  30.275  1.00  0.00     0.064 A 
ATOM    107  C   UNL A   1      39.410  30.244  31.618  1.00  0.00     0.173 A 
ATOM    108  C   UNL A   1      38.774  30.289  29.300  1.00  0.00     0.173 A 
ATOM    109  F   UNL A   1      40.330  30.363  32.587  1.00  0.00    -0.203 F 
ATOM    110  C   UNL A   1      38.111  29.886  31.966  1.00  0.00     0.198 A 
ATOM    111  C   UNL A   1      37.469  29.958  29.654  1.00  0.00     0.198 A 
ATOM    112  F   UNL A   1      39.065  30.468  28.002  1.00  0.00    -0.203 F 
ATOM    113  F   UNL A   1      37.801  29.659  33.250  1.00  0.00    -0.200 F 
ATOM    114  C   UNL A   1      37.140  29.750  30.985  1.00  0.00     0.200 A 
ATOM    115  F   UNL A   1      36.529  29.838  28.706  1.00  0.00    -0.200 F 
ATOM    116  F   UNL A   1      35.887  29.409  31.322  1.00  0.00    -0.200 F 
ENDBRANCH  86 106
BRANCH  89 117
ATOM    117  C   UNL A   1      49.024  32.678  27.267  1.00  0.00     0.064 A 
ATOM    118  C   UNL A   1      50.154  32.224  27.960  1.00  0.00     0.173 A 
ATOM    119  C   UNL A   1      49.229  33.462  26.124  1.00  0.00     0.173 A 
ATOM    120  F   UNL A   1      50.006  31.488  29.072  1.00  0.00    -0.203 F 
ATOM    121  C   UNL A   1      51.439  32.556  27.538  1.00  0.00     0.198 A 
ATOM    122  C   UNL A   1      50.515  33.774  25.688  1.00  0.00     0.198 A 
ATOM    123  F   UNL A   1      48.180  33.916  25.423  1.00  0.00    -0.203 F 
ATOM    124  F   UNL A   1      52.502  32.143  28.242  1.00  0.00    -0.200 F 
ATOM    125  C   UNL A   1      51.618  33.327  26.399  1.00  0.00     0.200 A 
ATOM    126  F   UNL A   1      50.685  34.510  24.580  1.00  0.00    -0.200 F 
ATOM    127  F   UNL A   1      52.855  33.643  25.991  1.00  0.00    -0.200 F 
ENDBRANCH  89 117
BRANCH 104 128
ATOM    128  C   UNL A   1      43.979  36.290  30.429  1.00  0.00     0.064 A 
ATOM    129  C   UNL A   1      43.614  37.339  29.575  1.00  0.00     0.173 A 
ATOM    130  C   UNL A   1      44.232  36.592  31.776  1.00  0.00     0.173 A 
ATOM    131  F   UNL A   1      43.377  37.102  28.277  1.00  0.00    -0.203 F 
ATOM    132  C   UNL A   1      43.525  38.647  30.047  1.00  0.00     0.198 A 
ATOM    133  C   UNL A   1      44.117  37.895  32.250  1.00  0.00     0.198 A 
ATOM    134  F   UNL A   1      44.579  35.621  32.634  1.00  0.00    -0.203 F 
ATOM    135  F   UNL A   1      43.215  39.641  29.204  1.00  0.00    -0.200 F 
ATOM    136  C   UNL A   1      43.770  38.923  31.385  1.00  0.00     0.200 A 
ATOM    137  F   UNL A   1      44.342  38.159  33.544  1.00  0.00    -0.200 F 
ATOM    138  F   UNL A   1      43.678  40.180  31.838  1.00  0.00    -0.200 F 
ENDBRANCH 104 128
ENDBRANCH  69  72
ENDBRANCH  59  62
ENDBRANCH  55  58
ENDBRANCH  52  55
ENDBRANCH  49  52
ENDBRANCH  46  49
ENDBRANCH   1  46
TORSDOF 17
ENDMDL
MODEL 8
REMARK VINA RESULT:     -11.5      4.784      6.258
REMARK SMILES CS(=O)(=O)c1ccc(-c2cc(Cl)cnc2-c2ccc(C(=O)NCCCCCCNC(=O)c3ccc(-c4c5nc(c(-c6c(F)c(F)c(F)c(F)c6F)c6ccc([nH]6)c(-c6c(F)c(F)c(F)c(F)c6F)c6nc(c(-c7c(F)c(F)c(F)c(F)c7F)c7ccc4[nH]7)C=C6)C=C5)cc3)nc2)cc1
REMARK SMILES IDX 24 1 23 4 22 7 20 8 21 9 19 11 16 12 17 13 96 14 18 15 95 17
REMARK SMILES IDX 15 20 9 21 10 22 11 23 14 25 12 26 13 27 8 29 5 30 6 31
REMARK SMILES IDX 98 32 7 33 97 35 2 39 3 40 4 41 1 42 25 46 26 49 27 52 28 55
REMARK SMILES IDX 29 58 30 59 31 61 32 62 33 63 94 64 34 65 93 67 35 69 36 72
REMARK SMILES IDX 37 73 87 74 38 75 92 76 86 77 88 78 39 79 91 80 85 82 84 84
REMARK SMILES IDX 40 86 72 89 52 90 71 91 53 92 56 93 70 94 89 95 54 96 55 98
REMARK SMILES IDX 69 100 90 101 57 104 41 106 42 107 50 108 43 109 44 110
REMARK SMILES IDX 48 111 51 112 45 113 46 114 49 115 47 116 73 117 74 118
REMARK SMILES IDX 82 119 75 120 76 121 80 122 83 123 77 124 78 125 81 126
REMARK SMILES IDX 79 127 58 128 59 129 67 130 60 131 61 132 65 133 68 134
REMARK SMILES IDX 62 135 63 136 66 137 64 138
REMARK H PARENT 24 2 24 3 23 5 23 6 22 10 17 16 96 18 18 19 10 24 13 28 6 34
REMARK H PARENT 98 36 7 37 97 38 1 43 1 44 1 45 25 47 25 48 26 50 26 51 27 53
REMARK H PARENT 27 54 28 56 28 57 29 60 33 66 94 68 34 70 93 71 92 81 86 83
REMARK H PARENT 88 85 91 87 85 88 53 97 56 99 89 102 54 103 90 105
REMARK Flexibility Score: inf
ROOT
ATOM      1  C   UNL A   1      40.044  25.000  27.959  1.00  0.00    -0.036 C 
ATOM      2  H   UNL A   1      39.712  24.243  28.638  1.00  0.00     0.028 H 
ATOM      3  H   UNL A   1      39.826  25.986  28.310  1.00  0.00     0.028 H 
ENDROOT
BRANCH   1   4
ATOM      4  C   UNL A   1      39.298  24.821  26.633  1.00  0.00     0.018 C 
ATOM      5  H   UNL A   1      38.319  25.243  26.720  1.00  0.00     0.049 H 
ATOM      6  H   UNL A   1      39.845  25.317  25.858  1.00  0.00     0.049 H 
BRANCH   4   7
ATOM      7  N   UNL A   1      39.186  23.415  26.305  1.00  0.00    -0.351 N 
ATOM      8  C   UNL A   1      38.174  22.662  25.752  1.00  0.00     0.269 C 
ATOM      9  O   UNL A   1      38.410  21.463  25.589  1.00  0.00    -0.268 OA
ATOM     10  H   UNL A   1      39.992  22.894  26.521  1.00  0.00     0.163 HD
BRANCH   8  11
ATOM     11  C   UNL A   1      36.857  23.237  25.309  1.00  0.00     0.128 A 
ATOM     12  C   UNL A   1      34.329  24.212  24.720  1.00  0.00     0.019 A 
ATOM     13  C   UNL A   1      35.186  23.816  23.689  1.00  0.00    -0.049 A 
ATOM     14  C   UNL A   1      34.841  24.158  26.010  1.00  0.00     0.037 A 
ATOM     15  C   UNL A   1      36.471  23.356  23.981  1.00  0.00    -0.030 A 
ATOM     16  H   UNL A   1      34.867  23.864  22.708  1.00  0.00     0.063 H 
ATOM     17  N   UNL A   1      36.058  23.657  26.328  1.00  0.00    -0.250 NA
ATOM     18  H   UNL A   1      34.255  24.525  26.777  1.00  0.00     0.085 H 
ATOM     19  H   UNL A   1      37.125  23.107  23.221  1.00  0.00     0.065 H 
BRANCH  12  20
ATOM     20  C   UNL A   1      32.952  24.633  24.459  1.00  0.00     0.080 A 
ATOM     21  C   UNL A   1      31.930  23.724  24.110  1.00  0.00     0.010 A 
ATOM     22  C   UNL A   1      30.668  24.266  23.813  1.00  0.00    -0.032 A 
ATOM     23  C   UNL A   1      30.462  25.639  23.881  1.00  0.00     0.060 A 
ATOM     24  H   UNL A   1      29.891  23.642  23.546  1.00  0.00     0.065 H 
ATOM     25  N   UNL A   1      32.758  25.976  24.545  1.00  0.00    -0.254 NA
ATOM     26  Cl  UNL A   1      28.930  26.312  23.504  1.00  0.00    -0.083 Cl
ATOM     27  C   UNL A   1      31.522  26.446  24.253  1.00  0.00     0.046 A 
ATOM     28  H   UNL A   1      31.362  27.464  24.312  1.00  0.00     0.086 H 
BRANCH  21  29
ATOM     29  C   UNL A   1      32.135  22.267  24.046  1.00  0.00    -0.016 A 
ATOM     30  C   UNL A   1      32.531  19.487  23.916  1.00  0.00     0.067 A 
ATOM     31  C   UNL A   1      32.500  20.122  25.159  1.00  0.00    -0.043 A 
ATOM     32  C   UNL A   1      32.354  20.217  22.741  1.00  0.00    -0.043 A 
ATOM     33  C   UNL A   1      32.304  21.505  25.217  1.00  0.00    -0.053 A 
ATOM     34  H   UNL A   1      32.620  19.575  26.026  1.00  0.00     0.064 H 
ATOM     35  C   UNL A   1      32.155  21.600  22.809  1.00  0.00    -0.053 A 
ATOM     36  H   UNL A   1      32.369  19.740  21.825  1.00  0.00     0.064 H 
ATOM     37  H   UNL A   1      32.282  21.975  26.135  1.00  0.00     0.063 H 
ATOM     38  H   UNL A   1      32.021  22.138  21.939  1.00  0.00     0.063 H 
BRANCH  30  39
ATOM     39  S   UNL A   1      32.761  17.726  23.834  1.00  0.00     0.175 S 
ATOM     40  O   UNL A   1      32.583  17.329  22.451  1.00  0.00    -0.224 OA
ATOM     41  O   UNL A   1      31.950  17.150  24.892  1.00  0.00    -0.224 OA
BRANCH  39  42
ATOM     42  C   UNL A   1      34.468  17.470  24.235  1.00  0.00     0.043 C 
ATOM     43  H   UNL A   1      35.031  17.340  23.334  1.00  0.00     0.040 H 
ATOM     44  H   UNL A   1      34.565  16.596  24.844  1.00  0.00     0.040 H 
ATOM     45  H   UNL A   1      34.840  18.320  24.769  1.00  0.00     0.040 H 
ENDBRANCH  39  42
ENDBRANCH  30  39
ENDBRANCH  21  29
ENDBRANCH  12  20
ENDBRANCH   8  11
ENDBRANCH   4   7
ENDBRANCH   1   4
BRANCH   1  46
ATOM     46  C   UNL A   1      41.570  24.897  27.826  1.00  0.00    -0.052 C 
ATOM     47  H   UNL A   1      42.003  25.753  28.302  1.00  0.00     0.027 H 
ATOM     48  H   UNL A   1      41.775  24.843  26.778  1.00  0.00     0.027 H 
BRANCH  46  49
ATOM     49  C   UNL A   1      42.195  23.642  28.449  1.00  0.00    -0.052 C 
ATOM     50  H   UNL A   1      41.474  23.205  29.109  1.00  0.00     0.027 H 
ATOM     51  H   UNL A   1      43.085  23.969  28.945  1.00  0.00     0.027 H 
BRANCH  49  52
ATOM     52  C   UNL A   1      42.635  22.567  27.452  1.00  0.00    -0.036 C 
ATOM     53  H   UNL A   1      42.070  21.680  27.647  1.00  0.00     0.028 H 
ATOM     54  H   UNL A   1      43.688  22.435  27.593  1.00  0.00     0.028 H 
BRANCH  52  55
ATOM     55  C   UNL A   1      42.440  22.942  25.985  1.00  0.00     0.018 C 
ATOM     56  H   UNL A   1      42.067  23.943  25.931  1.00  0.00     0.049 H 
ATOM     57  H   UNL A   1      41.748  22.248  25.555  1.00  0.00     0.049 H 
BRANCH  55  58
ATOM     58  N   UNL A   1      43.682  22.862  25.235  1.00  0.00    -0.352 N 
ATOM     59  C   UNL A   1      44.580  23.853  24.929  1.00  0.00     0.251 C 
ATOM     60  H   UNL A   1      43.913  21.966  24.896  1.00  0.00     0.163 HD
ATOM     61  O   UNL A   1      45.472  23.646  24.111  1.00  0.00    -0.269 OA
BRANCH  59  62
ATOM     62  C   UNL A   1      44.471  25.179  25.574  1.00  0.00     0.039 A 
ATOM     63  C   UNL A   1      45.121  25.391  26.793  1.00  0.00    -0.049 A 
ATOM     64  C   UNL A   1      43.701  26.196  25.001  1.00  0.00    -0.049 A 
ATOM     65  C   UNL A   1      45.039  26.640  27.415  1.00  0.00    -0.053 A 
ATOM     66  H   UNL A   1      45.661  24.629  27.232  1.00  0.00     0.063 H 
ATOM     67  C   UNL A   1      43.669  27.456  25.591  1.00  0.00    -0.053 A 
ATOM     68  H   UNL A   1      43.159  26.012  24.143  1.00  0.00     0.063 H 
ATOM     69  C   UNL A   1      44.330  27.688  26.808  1.00  0.00    -0.014 A 
ATOM     70  H   UNL A   1      45.501  26.791  28.325  1.00  0.00     0.063 H 
ATOM     71  H   UNL A   1      43.155  28.225  25.131  1.00  0.00     0.063 H 
BRANCH  69  72
ATOM     72  C   UNL A   1      44.254  29.028  27.438  1.00  0.00     0.031 A 
ATOM     73  C   UNL A   1      45.421  29.971  27.347  1.00  0.00     0.074 A 
ATOM     74  C   UNL A   1      43.160  29.373  28.142  1.00  0.00     0.049 A 
ATOM     75  N   UNL A   1      45.577  31.152  27.889  1.00  0.00    -0.248 NA
ATOM     76  C   UNL A   1      46.579  29.513  26.563  1.00  0.00    -0.034 C 
ATOM     77  C   UNL A   1      41.982  28.528  28.340  1.00  0.00    -0.036 A 
ATOM     78  N   UNL A   1      42.866  30.522  28.834  1.00  0.00    -0.354 N 
ATOM     79  C   UNL A   1      46.852  31.569  27.528  1.00  0.00     0.074 A 
ATOM     80  C   UNL A   1      47.445  30.497  26.760  1.00  0.00    -0.034 C 
ATOM     81  H   UNL A   1      46.688  28.651  26.006  1.00  0.00     0.065 H 
ATOM     82  C   UNL A   1      41.085  29.192  29.087  1.00  0.00    -0.036 A 
ATOM     83  H   UNL A   1      41.859  27.574  27.965  1.00  0.00     0.065 H 
ATOM     84  C   UNL A   1      41.637  30.496  29.446  1.00  0.00     0.049 A 
ATOM     85  H   UNL A   1      43.478  31.290  28.887  1.00  0.00     0.167 HD
ATOM     86  C   UNL A   1      47.462  32.748  27.796  1.00  0.00     0.037 A 
ATOM     87  H   UNL A   1      48.416  30.496  26.410  1.00  0.00     0.065 H 
ATOM     88  H   UNL A   1      40.155  28.839  29.363  1.00  0.00     0.065 H 
ATOM     89  C   UNL A   1      41.027  31.420  30.212  1.00  0.00     0.037 A 
ATOM     90  C   UNL A   1      46.855  33.826  28.532  1.00  0.00     0.049 A 
ATOM     91  C   UNL A   1      41.722  32.726  30.483  1.00  0.00     0.074 A 
ATOM     92  C   UNL A   1      47.369  35.082  28.803  1.00  0.00    -0.036 A 
ATOM     93  N   UNL A   1      45.597  33.774  29.111  1.00  0.00    -0.354 N 
ATOM     94  N   UNL A   1      42.903  33.132  30.086  1.00  0.00    -0.248 NA
ATOM     95  C   UNL A   1      40.994  33.704  31.303  1.00  0.00    -0.034 C 
ATOM     96  C   UNL A   1      46.434  35.778  29.578  1.00  0.00    -0.036 A 
ATOM     97  H   UNL A   1      48.282  35.444  28.489  1.00  0.00     0.065 H 
ATOM     98  C   UNL A   1      45.322  34.971  29.754  1.00  0.00     0.049 A 
ATOM     99  H   UNL A   1      44.988  33.001  29.073  1.00  0.00     0.167 HD
ATOM    100  C   UNL A   1      43.050  34.419  30.584  1.00  0.00     0.074 A 
ATOM    101  C   UNL A   1      41.832  34.732  31.301  1.00  0.00    -0.034 C 
ATOM    102  H   UNL A   1      40.074  33.616  31.760  1.00  0.00     0.065 H 
ATOM    103  H   UNL A   1      46.553  36.732  29.955  1.00  0.00     0.065 H 
ATOM    104  C   UNL A   1      44.100  35.266  30.456  1.00  0.00     0.037 A 
ATOM    105  H   UNL A   1      41.640  35.639  31.755  1.00  0.00     0.065 H 
BRANCH  86 106
ATOM    106  C   UNL A   1      48.860  32.935  27.283  1.00  0.00     0.064 A 
ATOM    107  C   UNL A   1      49.123  33.678  26.122  1.00  0.00     0.173 A 
ATOM    108  C   UNL A   1      49.952  32.395  27.978  1.00  0.00     0.173 A 
ATOM    109  F   UNL A   1      48.112  34.205  25.415  1.00  0.00    -0.203 F 
ATOM    110  C   UNL A   1      50.425  33.848  25.659  1.00  0.00     0.198 A 
ATOM    111  C   UNL A   1      51.255  32.590  27.528  1.00  0.00     0.198 A 
ATOM    112  F   UNL A   1      49.756  31.680  29.097  1.00  0.00    -0.203 F 
ATOM    113  F   UNL A   1      50.648  34.520  24.521  1.00  0.00    -0.200 F 
ATOM    114  C   UNL A   1      51.490  33.309  26.366  1.00  0.00     0.200 A 
ATOM    115  F   UNL A   1      52.285  32.079  28.217  1.00  0.00    -0.200 F 
ATOM    116  F   UNL A   1      52.744  33.477  25.922  1.00  0.00    -0.200 F 
ENDBRANCH  86 106
BRANCH  89 117
ATOM    117  C   UNL A   1      39.669  31.153  30.751  1.00  0.00     0.064 A 
ATOM    118  C   UNL A   1      39.501  30.575  32.017  1.00  0.00     0.173 A 
ATOM    119  C   UNL A   1      38.516  31.471  30.019  1.00  0.00     0.173 A 
ATOM    120  F   UNL A   1      40.575  30.235  32.745  1.00  0.00    -0.203 F 
ATOM    121  C   UNL A   1      38.231  30.309  32.524  1.00  0.00     0.198 A 
ATOM    122  C   UNL A   1      37.246  31.227  30.537  1.00  0.00     0.198 A 
ATOM    123  F   UNL A   1      38.624  32.031  28.805  1.00  0.00    -0.203 F 
ATOM    124  F   UNL A   1      38.099  29.719  33.719  1.00  0.00    -0.200 F 
ATOM    125  C   UNL A   1      37.105  30.640  31.785  1.00  0.00     0.200 A 
ATOM    126  F   UNL A   1      36.159  31.559  29.826  1.00  0.00    -0.200 F 
ATOM    127  F   UNL A   1      35.883  30.387  32.276  1.00  0.00    -0.200 F 
ENDBRANCH  89 117
BRANCH 104 128
ATOM    128  C   UNL A   1      43.966  36.624  31.079  1.00  0.00     0.064 A 
ATOM    129  C   UNL A   1      44.170  36.824  32.451  1.00  0.00     0.173 A 
ATOM    130  C   UNL A   1      43.669  37.743  30.285  1.00  0.00     0.173 A 
ATOM    131  F   UNL A   1      44.441  35.784  33.253  1.00  0.00    -0.203 F 
ATOM    132  C   UNL A   1      44.062  38.095  33.011  1.00  0.00     0.198 A 
ATOM    133  C   UNL A   1      43.587  39.014  30.844  1.00  0.00     0.198 A 
ATOM    134  F   UNL A   1      43.470  37.602  28.966  1.00  0.00    -0.203 F 
ATOM    135  F   UNL A   1      44.221  38.259  34.332  1.00  0.00    -0.200 F 
ATOM    136  C   UNL A   1      43.777  39.189  32.207  1.00  0.00     0.200 A 
ATOM    137  F   UNL A   1      43.323  40.071  30.064  1.00  0.00    -0.200 F 
ATOM    138  F   UNL A   1      43.680  40.411  32.747  1.00  0.00    -0.200 F 
ENDBRANCH 104 128
ENDBRANCH  69  72
ENDBRANCH  59  62
ENDBRANCH  55  58
ENDBRANCH  52  55
ENDBRANCH  49  52
ENDBRANCH  46  49
ENDBRANCH   1  46
TORSDOF 17
ENDMDL
MODEL 9
REMARK VINA RESULT:     -11.4      3.384      8.319
REMARK SMILES CS(=O)(=O)c1ccc(-c2cc(Cl)cnc2-c2ccc(C(=O)NCCCCCCNC(=O)c3ccc(-c4c5nc(c(-c6c(F)c(F)c(F)c(F)c6F)c6ccc([nH]6)c(-c6c(F)c(F)c(F)c(F)c6F)c6nc(c(-c7c(F)c(F)c(F)c(F)c7F)c7ccc4[nH]7)C=C6)C=C5)cc3)nc2)cc1
REMARK SMILES IDX 24 1 23 4 22 7 20 8 21 9 19 11 16 12 17 13 96 14 18 15 95 17
REMARK SMILES IDX 15 20 9 21 10 22 11 23 14 25 12 26 13 27 8 29 5 30 6 31
REMARK SMILES IDX 98 32 7 33 97 35 2 39 3 40 4 41 1 42 25 46 26 49 27 52 28 55
REMARK SMILES IDX 29 58 30 59 31 61 32 62 33 63 94 64 34 65 93 67 35 69 36 72
REMARK SMILES IDX 37 73 87 74 38 75 92 76 86 77 88 78 39 79 91 80 85 82 84 84
REMARK SMILES IDX 40 86 72 89 52 90 71 91 53 92 56 93 70 94 89 95 54 96 55 98
REMARK SMILES IDX 69 100 90 101 57 104 41 106 42 107 50 108 43 109 44 110
REMARK SMILES IDX 48 111 51 112 45 113 46 114 49 115 47 116 73 117 74 118
REMARK SMILES IDX 82 119 75 120 76 121 80 122 83 123 77 124 78 125 81 126
REMARK SMILES IDX 79 127 58 128 59 129 67 130 60 131 61 132 65 133 68 134
REMARK SMILES IDX 62 135 63 136 66 137 64 138
REMARK H PARENT 24 2 24 3 23 5 23 6 22 10 17 16 96 18 18 19 10 24 13 28 6 34
REMARK H PARENT 98 36 7 37 97 38 1 43 1 44 1 45 25 47 25 48 26 50 26 51 27 53
REMARK H PARENT 27 54 28 56 28 57 29 60 33 66 94 68 34 70 93 71 92 81 86 83
REMARK H PARENT 88 85 91 87 85 88 53 97 56 99 89 102 54 103 90 105
REMARK Flexibility Score: inf
ROOT
ATOM      1  C   UNL A   1      30.785  26.860  26.181  1.00  0.00    -0.036 C 
ATOM      2  H   UNL A   1      31.582  26.303  26.627  1.00  0.00     0.028 H 
ATOM      3  H   UNL A   1      30.207  27.395  26.905  1.00  0.00     0.028 H 
ENDROOT
BRANCH   1   4
ATOM      4  C   UNL A   1      29.837  25.876  25.489  1.00  0.00     0.018 C 
ATOM      5  H   UNL A   1      28.940  26.389  25.209  1.00  0.00     0.049 H 
ATOM      6  H   UNL A   1      30.321  25.481  24.620  1.00  0.00     0.049 H 
BRANCH   4   7
ATOM      7  N   UNL A   1      29.505  24.784  26.380  1.00  0.00    -0.351 N 
ATOM      8  C   UNL A   1      30.226  23.709  26.852  1.00  0.00     0.269 C 
ATOM      9  O   UNL A   1      29.638  22.952  27.626  1.00  0.00    -0.268 OA
ATOM     10  H   UNL A   1      28.581  24.816  26.716  1.00  0.00     0.163 HD
BRANCH   8  11
ATOM     11  C   UNL A   1      31.669  23.462  26.507  1.00  0.00     0.128 A 
ATOM     12  C   UNL A   1      34.384  23.054  26.122  1.00  0.00     0.019 A 
ATOM     13  C   UNL A   1      33.592  23.534  25.075  1.00  0.00    -0.049 A 
ATOM     14  C   UNL A   1      33.728  22.733  27.303  1.00  0.00     0.037 A 
ATOM     15  C   UNL A   1      32.219  23.709  25.256  1.00  0.00    -0.030 A 
ATOM     16  H   UNL A   1      34.023  23.760  24.165  1.00  0.00     0.063 H 
ATOM     17  N   UNL A   1      32.411  22.952  27.527  1.00  0.00    -0.250 NA
ATOM     18  H   UNL A   1      34.280  22.298  28.059  1.00  0.00     0.085 H 
ATOM     19  H   UNL A   1      31.621  24.018  24.472  1.00  0.00     0.065 H 
BRANCH  12  20
ATOM     20  C   UNL A   1      35.836  22.923  25.992  1.00  0.00     0.080 A 
ATOM     21  C   UNL A   1      36.458  21.738  25.544  1.00  0.00     0.010 A 
ATOM     22  C   UNL A   1      37.863  21.718  25.535  1.00  0.00    -0.032 A 
ATOM     23  C   UNL A   1      38.582  22.836  25.944  1.00  0.00     0.060 A 
ATOM     24  H   UNL A   1      38.363  20.872  25.222  1.00  0.00     0.065 H 
ATOM     25  N   UNL A   1      36.528  24.028  26.378  1.00  0.00    -0.254 NA
ATOM     26  Cl  UNL A   1      40.297  22.817  25.953  1.00  0.00    -0.083 Cl
ATOM     27  C   UNL A   1      37.880  23.958  26.346  1.00  0.00     0.046 A 
ATOM     28  H   UNL A   1      38.417  24.789  26.639  1.00  0.00     0.086 H 
BRANCH  21  29
ATOM     29  C   UNL A   1      35.706  20.552  25.099  1.00  0.00    -0.016 A 
ATOM     30  C   UNL A   1      34.267  18.293  24.245  1.00  0.00     0.067 A 
ATOM     31  C   UNL A   1      35.616  18.167  24.578  1.00  0.00    -0.043 A 
ATOM     32  C   UNL A   1      33.624  19.527  24.346  1.00  0.00    -0.043 A 
ATOM     33  C   UNL A   1      36.327  19.294  25.001  1.00  0.00    -0.053 A 
ATOM     34  H   UNL A   1      36.084  17.249  24.512  1.00  0.00     0.064 H 
ATOM     35  C   UNL A   1      34.342  20.648  24.773  1.00  0.00    -0.053 A 
ATOM     36  H   UNL A   1      32.623  19.613  24.106  1.00  0.00     0.064 H 
ATOM     37  H   UNL A   1      37.325  19.200  25.246  1.00  0.00     0.063 H 
ATOM     38  H   UNL A   1      33.864  21.560  24.850  1.00  0.00     0.063 H 
BRANCH  30  39
ATOM     39  S   UNL A   1      33.350  16.862  23.724  1.00  0.00     0.175 S 
ATOM     40  O   UNL A   1      34.311  15.843  23.350  1.00  0.00    -0.224 OA
ATOM     41  O   UNL A   1      32.346  17.329  22.785  1.00  0.00    -0.224 OA
BRANCH  39  42
ATOM     42  C   UNL A   1      32.527  16.291  25.186  1.00  0.00     0.043 C 
ATOM     43  H   UNL A   1      33.163  16.437  26.034  1.00  0.00     0.040 H 
ATOM     44  H   UNL A   1      32.301  15.250  25.085  1.00  0.00     0.040 H 
ATOM     45  H   UNL A   1      31.620  16.842  25.322  1.00  0.00     0.040 H 
ENDBRANCH  39  42
ENDBRANCH  30  39
ENDBRANCH  21  29
ENDBRANCH  12  20
ENDBRANCH   8  11
ENDBRANCH   4   7
ENDBRANCH   1   4
BRANCH   1  46
ATOM     46  C   UNL A   1      31.393  27.902  25.232  1.00  0.00    -0.052 C 
ATOM     47  H   UNL A   1      31.660  28.762  25.810  1.00  0.00     0.027 H 
ATOM     48  H   UNL A   1      30.647  28.101  24.491  1.00  0.00     0.027 H 
BRANCH  46  49
ATOM     49  C   UNL A   1      32.640  27.439  24.468  1.00  0.00    -0.052 C 
ATOM     50  H   UNL A   1      32.446  27.544  23.421  1.00  0.00     0.027 H 
ATOM     51  H   UNL A   1      32.814  26.427  24.771  1.00  0.00     0.027 H 
BRANCH  49  52
ATOM     52  C   UNL A   1      33.926  28.206  24.789  1.00  0.00    -0.036 C 
ATOM     53  H   UNL A   1      33.921  29.115  24.226  1.00  0.00     0.028 H 
ATOM     54  H   UNL A   1      34.738  27.557  24.533  1.00  0.00     0.028 H 
BRANCH  52  55
ATOM     55  C   UNL A   1      34.104  28.560  26.263  1.00  0.00     0.018 C 
ATOM     56  H   UNL A   1      35.085  28.265  26.572  1.00  0.00     0.049 H 
ATOM     57  H   UNL A   1      33.352  28.043  26.822  1.00  0.00     0.049 H 
BRANCH  55  58
ATOM     58  N   UNL A   1      33.944  29.984  26.503  1.00  0.00    -0.352 N 
ATOM     59  C   UNL A   1      34.629  30.805  27.363  1.00  0.00     0.251 C 
ATOM     60  H   UNL A   1      33.241  30.424  25.971  1.00  0.00     0.163 HD
ATOM     61  O   UNL A   1      34.223  31.942  27.585  1.00  0.00    -0.269 OA
BRANCH  59  62
ATOM     62  C   UNL A   1      35.853  30.319  28.035  1.00  0.00     0.039 A 
ATOM     63  C   UNL A   1      37.080  30.452  27.380  1.00  0.00    -0.049 A 
ATOM     64  C   UNL A   1      35.789  29.703  29.288  1.00  0.00    -0.049 A 
ATOM     65  C   UNL A   1      38.251  30.009  28.001  1.00  0.00    -0.053 A 
ATOM     66  H   UNL A   1      37.122  30.876  26.440  1.00  0.00     0.063 H 
ATOM     67  C   UNL A   1      36.961  29.316  29.932  1.00  0.00    -0.053 A 
ATOM     68  H   UNL A   1      34.873  29.535  29.735  1.00  0.00     0.063 H 
ATOM     69  C   UNL A   1      38.202  29.458  29.291  1.00  0.00    -0.014 A 
ATOM     70  H   UNL A   1      39.154  30.087  27.509  1.00  0.00     0.063 H 
ATOM     71  H   UNL A   1      36.917  28.923  30.885  1.00  0.00     0.063 H 
BRANCH  69  72
ATOM     72  C   UNL A   1      39.436  29.007  29.979  1.00  0.00     0.031 A 
ATOM     73  C   UNL A   1      39.901  29.705  31.227  1.00  0.00     0.074 A 
ATOM     74  C   UNL A   1      40.170  28.011  29.449  1.00  0.00     0.049 A 
ATOM     75  N   UNL A   1      40.986  29.508  31.932  1.00  0.00    -0.248 NA
ATOM     76  C   UNL A   1      39.043  30.786  31.736  1.00  0.00    -0.034 C 
ATOM     77  C   UNL A   1      39.847  27.287  28.218  1.00  0.00    -0.036 A 
ATOM     78  N   UNL A   1      41.347  27.444  29.869  1.00  0.00    -0.354 N 
ATOM     79  C   UNL A   1      40.950  30.450  32.952  1.00  0.00     0.074 A 
ATOM     80  C   UNL A   1      39.761  31.247  32.750  1.00  0.00    -0.034 C 
ATOM     81  H   UNL A   1      38.122  31.103  31.393  1.00  0.00     0.065 H 
ATOM     82  C   UNL A   1      40.792  26.361  27.994  1.00  0.00    -0.036 A 
ATOM     83  H   UNL A   1      39.024  27.460  27.620  1.00  0.00     0.065 H 
ATOM     84  C   UNL A   1      41.803  26.446  29.045  1.00  0.00     0.049 A 
ATOM     85  H   UNL A   1      41.819  27.727  30.685  1.00  0.00     0.167 HD
ATOM     86  C   UNL A   1      41.821  30.618  33.977  1.00  0.00     0.037 A 
ATOM     87  H   UNL A   1      39.504  32.068  33.320  1.00  0.00     0.065 H 
ATOM     88  H   UNL A   1      40.804  25.695  27.205  1.00  0.00     0.065 H 
ATOM     89  C   UNL A   1      42.912  25.688  29.127  1.00  0.00     0.037 A 
ATOM     90  C   UNL A   1      42.985  29.800  34.193  1.00  0.00     0.049 A 
ATOM     91  C   UNL A   1      43.855  25.887  30.281  1.00  0.00     0.074 A 
ATOM     92  C   UNL A   1      43.895  29.852  35.235  1.00  0.00    -0.036 A 
ATOM     93  N   UNL A   1      43.398  28.779  33.352  1.00  0.00    -0.354 N 
ATOM     94  N   UNL A   1      43.779  26.740  31.273  1.00  0.00    -0.248 NA
ATOM     95  C   UNL A   1      45.034  25.011  30.331  1.00  0.00    -0.034 C 
ATOM     96  C   UNL A   1      44.879  28.884  35.005  1.00  0.00    -0.036 A 
ATOM     97  H   UNL A   1      43.855  30.493  36.042  1.00  0.00     0.065 H 
ATOM     98  C   UNL A   1      44.560  28.203  33.842  1.00  0.00     0.049 A 
ATOM     99  H   UNL A   1      42.936  28.504  32.527  1.00  0.00     0.167 HD
ATOM    100  C   UNL A   1      44.882  26.489  32.077  1.00  0.00     0.074 A 
ATOM    101  C   UNL A   1      45.605  25.394  31.465  1.00  0.00    -0.034 C 
ATOM    102  H   UNL A   1      45.338  24.289  29.660  1.00  0.00     0.065 H 
ATOM    103  H   UNL A   1      45.703  28.709  35.600  1.00  0.00     0.065 H 
ATOM    104  C   UNL A   1      45.260  27.108  33.222  1.00  0.00     0.037 A 
ATOM    105  H   UNL A   1      46.458  24.966  31.860  1.00  0.00     0.065 H 
BRANCH  86 106
ATOM    106  C   UNL A   1      41.541  31.728  34.946  1.00  0.00     0.064 A 
ATOM    107  C   UNL A   1      42.193  32.968  34.851  1.00  0.00     0.173 A 
ATOM    108  C   UNL A   1      40.589  31.564  35.962  1.00  0.00     0.173 A 
ATOM    109  F   UNL A   1      43.122  33.171  33.905  1.00  0.00    -0.203 F 
ATOM    110  C   UNL A   1      41.921  33.991  35.755  1.00  0.00     0.198 A 
ATOM    111  C   UNL A   1      40.299  32.600  36.847  1.00  0.00     0.198 A 
ATOM    112  F   UNL A   1      39.934  30.400  36.094  1.00  0.00    -0.203 F 
ATOM    113  F   UNL A   1      42.591  35.150  35.674  1.00  0.00    -0.200 F 
ATOM    114  C   UNL A   1      40.971  33.809  36.748  1.00  0.00     0.200 A 
ATOM    115  F   UNL A   1      39.372  32.426  37.800  1.00  0.00    -0.200 F 
ATOM    116  F   UNL A   1      40.706  34.797  37.615  1.00  0.00    -0.200 F 
ENDBRANCH  86 106
BRANCH  89 117
ATOM    117  C   UNL A   1      43.175  24.648  28.099  1.00  0.00     0.064 A 
ATOM    118  C   UNL A   1      42.830  23.309  28.330  1.00  0.00     0.173 A 
ATOM    119  C   UNL A   1      43.769  24.967  26.871  1.00  0.00     0.173 A 
ATOM    120  F   UNL A   1      42.278  22.953  29.500  1.00  0.00    -0.203 F 
ATOM    121  C   UNL A   1      43.085  22.325  27.378  1.00  0.00     0.198 A 
ATOM    122  C   UNL A   1      44.002  23.987  25.909  1.00  0.00     0.198 A 
ATOM    123  F   UNL A   1      44.112  26.235  26.600  1.00  0.00    -0.203 F 
ATOM    124  F   UNL A   1      42.783  21.047  27.640  1.00  0.00    -0.200 F 
ATOM    125  C   UNL A   1      43.667  22.666  26.166  1.00  0.00     0.200 A 
ATOM    126  F   UNL A   1      44.553  24.322  24.734  1.00  0.00    -0.200 F 
ATOM    127  F   UNL A   1      43.908  21.720  25.248  1.00  0.00    -0.200 F 
ENDBRANCH  89 117
BRANCH 104 128
ATOM    128  C   UNL A   1      46.495  26.597  33.903  1.00  0.00     0.064 A 
ATOM    129  C   UNL A   1      46.438  25.561  34.845  1.00  0.00     0.173 A 
ATOM    130  C   UNL A   1      47.754  27.124  33.577  1.00  0.00     0.173 A 
ATOM    131  F   UNL A   1      45.256  25.036  35.200  1.00  0.00    -0.203 F 
ATOM    132  C   UNL A   1      47.597  25.084  35.454  1.00  0.00     0.198 A 
ATOM    133  C   UNL A   1      48.912  26.628  34.168  1.00  0.00     0.198 A 
ATOM    134  F   UNL A   1      47.861  28.113  32.676  1.00  0.00    -0.203 F 
ATOM    135  F   UNL A   1      47.515  24.122  36.382  1.00  0.00    -0.200 F 
ATOM    136  C   UNL A   1      48.832  25.613  35.110  1.00  0.00     0.200 A 
ATOM    137  F   UNL A   1      50.106  27.131  33.826  1.00  0.00    -0.200 F 
ATOM    138  F   UNL A   1      49.946  25.148  35.692  1.00  0.00    -0.200 F 
ENDBRANCH 104 128
ENDBRANCH  69  72
ENDBRANCH  59  62
ENDBRANCH  55  58
ENDBRANCH  52  55
ENDBRANCH  49  52
ENDBRANCH  46  49
ENDBRANCH   1  46
TORSDOF 17
ENDMDL
MODEL 10
REMARK VINA RESULT:     -11.4      3.689      9.657
REMARK SMILES CS(=O)(=O)c1ccc(-c2cc(Cl)cnc2-c2ccc(C(=O)NCCCCCCNC(=O)c3ccc(-c4c5nc(c(-c6c(F)c(F)c(F)c(F)c6F)c6ccc([nH]6)c(-c6c(F)c(F)c(F)c(F)c6F)c6nc(c(-c7c(F)c(F)c(F)c(F)c7F)c7ccc4[nH]7)C=C6)C=C5)cc3)nc2)cc1
REMARK SMILES IDX 24 1 23 4 22 7 20 8 21 9 19 11 16 12 17 13 96 14 18 15 95 17
REMARK SMILES IDX 15 20 9 21 10 22 11 23 14 25 12 26 13 27 8 29 5 30 6 31
REMARK SMILES IDX 98 32 7 33 97 35 2 39 3 40 4 41 1 42 25 46 26 49 27 52 28 55
REMARK SMILES IDX 29 58 30 59 31 61 32 62 33 63 94 64 34 65 93 67 35 69 36 72
REMARK SMILES IDX 37 73 87 74 38 75 92 76 86 77 88 78 39 79 91 80 85 82 84 84
REMARK SMILES IDX 40 86 72 89 52 90 71 91 53 92 56 93 70 94 89 95 54 96 55 98
REMARK SMILES IDX 69 100 90 101 57 104 41 106 42 107 50 108 43 109 44 110
REMARK SMILES IDX 48 111 51 112 45 113 46 114 49 115 47 116 73 117 74 118
REMARK SMILES IDX 82 119 75 120 76 121 80 122 83 123 77 124 78 125 81 126
REMARK SMILES IDX 79 127 58 128 59 129 67 130 60 131 61 132 65 133 68 134
REMARK SMILES IDX 62 135 63 136 66 137 64 138
REMARK H PARENT 24 2 24 3 23 5 23 6 22 10 17 16 96 18 18 19 10 24 13 28 6 34
REMARK H PARENT 98 36 7 37 97 38 1 43 1 44 1 45 25 47 25 48 26 50 26 51 27 53
REMARK H PARENT 27 54 28 56 28 57 29 60 33 66 94 68 34 70 93 71 92 81 86 83
REMARK H PARENT 88 85 91 87 85 88 53 97 56 99 89 102 54 103 90 105
REMARK Flexibility Score: inf
ROOT
ATOM      1  C   UNL A   1      35.839  33.635  28.963  1.00  0.00    -0.036 C 
ATOM      2  H   UNL A   1      36.177  34.585  28.605  1.00  0.00     0.028 H 
ATOM      3  H   UNL A   1      36.427  33.274  29.779  1.00  0.00     0.028 H 
ENDROOT
BRANCH   1   4
ATOM      4  C   UNL A   1      35.973  32.616  27.828  1.00  0.00     0.018 C 
ATOM      5  H   UNL A   1      35.096  32.651  27.217  1.00  0.00     0.049 H 
ATOM      6  H   UNL A   1      36.837  32.858  27.244  1.00  0.00     0.049 H 
BRANCH   4   7
ATOM      7  N   UNL A   1      36.128  31.280  28.367  1.00  0.00    -0.351 N 
ATOM      8  C   UNL A   1      35.477  30.091  28.122  1.00  0.00     0.269 C 
ATOM      9  O   UNL A   1      35.871  29.111  28.756  1.00  0.00    -0.268 OA
ATOM     10  H   UNL A   1      36.840  31.208  29.043  1.00  0.00     0.163 HD
BRANCH   8  11
ATOM     11  C   UNL A   1      34.376  29.941  27.109  1.00  0.00     0.128 A 
ATOM     12  C   UNL A   1      32.176  29.683  25.441  1.00  0.00     0.019 A 
ATOM     13  C   UNL A   1      33.390  29.078  25.100  1.00  0.00    -0.049 A 
ATOM     14  C   UNL A   1      32.169  30.459  26.593  1.00  0.00     0.037 A 
ATOM     15  C   UNL A   1      34.508  29.234  25.921  1.00  0.00    -0.030 A 
ATOM     16  H   UNL A   1      33.460  28.514  24.238  1.00  0.00     0.063 H 
ATOM     17  N   UNL A   1      33.219  30.575  27.440  1.00  0.00    -0.250 NA
ATOM     18  H   UNL A   1      31.308  30.981  26.817  1.00  0.00     0.085 H 
ATOM     19  H   UNL A   1      35.419  28.830  25.651  1.00  0.00     0.065 H 
BRANCH  12  20
ATOM     20  C   UNL A   1      30.966  29.485  24.643  1.00  0.00     0.080 A 
ATOM     21  C   UNL A   1      30.472  28.205  24.312  1.00  0.00     0.010 A 
ATOM     22  C   UNL A   1      29.341  28.153  23.478  1.00  0.00    -0.032 A 
ATOM     23  C   UNL A   1      28.752  29.327  23.024  1.00  0.00     0.060 A 
ATOM     24  H   UNL A   1      28.948  27.240  23.203  1.00  0.00     0.065 H 
ATOM     25  N   UNL A   1      30.387  30.640  24.219  1.00  0.00    -0.254 NA
ATOM     26  Cl  UNL A   1      27.383  29.275  21.992  1.00  0.00    -0.083 Cl
ATOM     27  C   UNL A   1      29.298  30.534  23.421  1.00  0.00     0.046 A 
ATOM     28  H   UNL A   1      28.851  31.403  23.091  1.00  0.00     0.086 H 
BRANCH  21  29
ATOM     29  C   UNL A   1      31.083  26.955  24.796  1.00  0.00    -0.016 A 
ATOM     30  C   UNL A   1      32.243  24.568  25.723  1.00  0.00     0.067 A 
ATOM     31  C   UNL A   1      32.552  25.034  24.444  1.00  0.00    -0.043 A 
ATOM     32  C   UNL A   1      31.376  25.284  26.549  1.00  0.00    -0.043 A 
ATOM     33  C   UNL A   1      31.971  26.222  23.988  1.00  0.00    -0.053 A 
ATOM     34  H   UNL A   1      33.203  24.507  23.842  1.00  0.00     0.064 H 
ATOM     35  C   UNL A   1      30.802  26.472  26.085  1.00  0.00    -0.053 A 
ATOM     36  H   UNL A   1      31.158  24.939  27.497  1.00  0.00     0.064 H 
ATOM     37  H   UNL A   1      32.198  26.566  23.042  1.00  0.00     0.063 H 
ATOM     38  H   UNL A   1      30.163  27.001  26.699  1.00  0.00     0.063 H 
BRANCH  30  39
ATOM     39  S   UNL A   1      32.992  23.070  26.318  1.00  0.00     0.175 S 
ATOM     40  O   UNL A   1      32.615  22.919  27.710  1.00  0.00    -0.224 OA
ATOM     41  O   UNL A   1      34.386  23.113  25.917  1.00  0.00    -0.224 OA
BRANCH  39  42
ATOM     42  C   UNL A   1      32.190  21.771  25.417  1.00  0.00     0.043 C 
ATOM     43  H   UNL A   1      31.841  21.025  26.101  1.00  0.00     0.040 H 
ATOM     44  H   UNL A   1      32.884  21.331  24.732  1.00  0.00     0.040 H 
ATOM     45  H   UNL A   1      31.360  22.174  24.875  1.00  0.00     0.040 H 
ENDBRANCH  39  42
ENDBRANCH  30  39
ENDBRANCH  21  29
ENDBRANCH  12  20
ENDBRANCH   8  11
ENDBRANCH   4   7
ENDBRANCH   1   4
BRANCH   1  46
ATOM     46  C   UNL A   1      34.402  33.796  29.479  1.00  0.00    -0.052 C 
ATOM     47  H   UNL A   1      34.419  34.487  30.297  1.00  0.00     0.027 H 
ATOM     48  H   UNL A   1      34.073  32.816  29.756  1.00  0.00     0.027 H 
BRANCH  46  49
ATOM     49  C   UNL A   1      33.391  34.310  28.446  1.00  0.00    -0.052 C 
ATOM     50  H   UNL A   1      32.546  33.653  28.454  1.00  0.00     0.027 H 
ATOM     51  H   UNL A   1      33.909  34.330  27.510  1.00  0.00     0.027 H 
BRANCH  49  52
ATOM     52  C   UNL A   1      32.884  35.735  28.681  1.00  0.00    -0.036 C 
ATOM     53  H   UNL A   1      31.814  35.709  28.700  1.00  0.00     0.028 H 
ATOM     54  H   UNL A   1      33.275  36.332  27.883  1.00  0.00     0.028 H 
BRANCH  52  55
ATOM     55  C   UNL A   1      33.367  36.378  29.978  1.00  0.00     0.018 C 
ATOM     56  H   UNL A   1      33.565  37.413  29.798  1.00  0.00     0.049 H 
ATOM     57  H   UNL A   1      34.253  35.864  30.293  1.00  0.00     0.049 H 
BRANCH  55  58
ATOM     58  N   UNL A   1      32.382  36.266  31.041  1.00  0.00    -0.352 N 
ATOM     59  C   UNL A   1      32.440  35.551  32.210  1.00  0.00     0.251 C 
ATOM     60  H   UNL A   1      31.553  36.778  30.901  1.00  0.00     0.163 HD
ATOM     61  O   UNL A   1      31.432  35.408  32.896  1.00  0.00    -0.269 OA
BRANCH  59  62
ATOM     62  C   UNL A   1      33.713  34.937  32.643  1.00  0.00     0.039 A 
ATOM     63  C   UNL A   1      33.699  33.628  33.131  1.00  0.00    -0.049 A 
ATOM     64  C   UNL A   1      34.909  35.660  32.606  1.00  0.00    -0.049 A 
ATOM     65  C   UNL A   1      34.893  33.026  33.538  1.00  0.00    -0.053 A 
ATOM     66  H   UNL A   1      32.811  33.107  33.191  1.00  0.00     0.063 H 
ATOM     67  C   UNL A   1      36.106  35.040  32.954  1.00  0.00    -0.053 A 
ATOM     68  H   UNL A   1      34.905  36.652  32.319  1.00  0.00     0.063 H 
ATOM     69  C   UNL A   1      36.108  33.720  33.432  1.00  0.00    -0.014 A 
ATOM     70  H   UNL A   1      34.881  32.066  33.918  1.00  0.00     0.063 H 
ATOM     71  H   UNL A   1      36.996  35.555  32.861  1.00  0.00     0.063 H 
BRANCH  69  72
ATOM     72  C   UNL A   1      37.389  33.089  33.831  1.00  0.00     0.031 A 
ATOM     73  C   UNL A   1      38.040  32.072  32.936  1.00  0.00     0.074 A 
ATOM     74  C   UNL A   1      37.936  33.386  35.025  1.00  0.00     0.049 A 
ATOM     75  N   UNL A   1      39.118  31.358  33.138  1.00  0.00    -0.248 NA
ATOM     76  C   UNL A   1      37.374  31.802  31.652  1.00  0.00    -0.034 C 
ATOM     77  C   UNL A   1      37.376  34.323  36.000  1.00  0.00    -0.036 A 
ATOM     78  N   UNL A   1      39.078  32.920  35.628  1.00  0.00    -0.354 N 
ATOM     79  C   UNL A   1      39.249  30.544  32.020  1.00  0.00     0.074 A 
ATOM     80  C   UNL A   1      38.116  30.819  31.163  1.00  0.00    -0.034 C 
ATOM     81  H   UNL A   1      36.545  32.258  31.240  1.00  0.00     0.065 H 
ATOM     82  C   UNL A   1      38.184  34.377  37.071  1.00  0.00    -0.036 A 
ATOM     83  H   UNL A   1      36.501  34.857  35.883  1.00  0.00     0.065 H 
ATOM     84  C   UNL A   1      39.301  33.457  36.872  1.00  0.00     0.049 A 
ATOM     85  H   UNL A   1      39.678  32.265  35.208  1.00  0.00     0.167 HD
ATOM     86  C   UNL A   1      40.236  29.665  31.726  1.00  0.00     0.037 A 
ATOM     87  H   UNL A   1      37.912  30.315  30.286  1.00  0.00     0.065 H 
ATOM     88  H   UNL A   1      38.040  34.973  37.901  1.00  0.00     0.065 H 
ATOM     89  C   UNL A   1      40.293  33.229  37.753  1.00  0.00     0.037 A 
ATOM     90  C   UNL A   1      41.379  29.420  32.566  1.00  0.00     0.049 A 
ATOM     91  C   UNL A   1      41.383  32.256  37.396  1.00  0.00     0.074 A 
ATOM     92  C   UNL A   1      42.464  28.594  32.328  1.00  0.00    -0.036 A 
ATOM     93  N   UNL A   1      41.586  30.004  33.806  1.00  0.00    -0.354 N 
ATOM     94  N   UNL A   1      41.528  31.539  36.309  1.00  0.00    -0.248 NA
ATOM     95  C   UNL A   1      42.453  32.070  38.386  1.00  0.00    -0.034 C 
ATOM     96  C   UNL A   1      43.310  28.652  33.441  1.00  0.00    -0.036 A 
ATOM     97  H   UNL A   1      42.622  28.032  31.478  1.00  0.00     0.065 H 
ATOM     98  C   UNL A   1      42.773  29.545  34.354  1.00  0.00     0.049 A 
ATOM     99  H   UNL A   1      40.978  30.650  34.235  1.00  0.00     0.167 HD
ATOM    100  C   UNL A   1      42.714  30.835  36.472  1.00  0.00     0.074 A 
ATOM    101  C   UNL A   1      43.257  31.224  37.757  1.00  0.00    -0.034 C 
ATOM    102  H   UNL A   1      42.553  32.488  39.324  1.00  0.00     0.065 H 
ATOM    103  H   UNL A   1      44.185  28.119  33.563  1.00  0.00     0.065 H 
ATOM    104  C   UNL A   1      43.301  29.950  35.631  1.00  0.00     0.037 A 
ATOM    105  H   UNL A   1      44.155  30.884  38.136  1.00  0.00     0.065 H 
BRANCH  86 106
ATOM    106  C   UNL A   1      40.125  28.905  30.438  1.00  0.00     0.064 A 
ATOM    107  C   UNL A   1      39.476  27.663  30.371  1.00  0.00     0.173 A 
ATOM    108  C   UNL A   1      40.644  29.438  29.249  1.00  0.00     0.173 A 
ATOM    109  F   UNL A   1      38.973  27.104  31.482  1.00  0.00    -0.203 F 
ATOM    110  C   UNL A   1      39.376  26.970  29.168  1.00  0.00     0.198 A 
ATOM    111  C   UNL A   1      40.518  28.755  28.042  1.00  0.00     0.198 A 
ATOM    112  F   UNL A   1      41.271  30.625  29.256  1.00  0.00    -0.203 F 
ATOM    113  F   UNL A   1      38.794  25.763  29.138  1.00  0.00    -0.200 F 
ATOM    114  C   UNL A   1      39.891  27.519  28.004  1.00  0.00     0.200 A 
ATOM    115  F   UNL A   1      41.007  29.293  26.915  1.00  0.00    -0.200 F 
ATOM    116  F   UNL A   1      39.790  26.853  26.844  1.00  0.00    -0.200 F 
ENDBRANCH  86 106
BRANCH  89 117
ATOM    117  C   UNL A   1      40.317  33.959  39.046  1.00  0.00     0.064 A 
ATOM    118  C   UNL A   1      41.034  35.156  39.179  1.00  0.00     0.173 A 
ATOM    119  C   UNL A   1      39.624  33.483  40.167  1.00  0.00     0.173 A 
ATOM    120  F   UNL A   1      41.729  35.639  38.139  1.00  0.00    -0.203 F 
ATOM    121  C   UNL A   1      41.073  35.840  40.393  1.00  0.00     0.198 A 
ATOM    122  C   UNL A   1      39.644  34.180  41.373  1.00  0.00     0.198 A 
ATOM    123  F   UNL A   1      38.918  32.345  40.088  1.00  0.00    -0.203 F 
ATOM    124  F   UNL A   1      41.799  36.960  40.505  1.00  0.00    -0.200 F 
ATOM    125  C   UNL A   1      40.373  35.354  41.487  1.00  0.00     0.200 A 
ATOM    126  F   UNL A   1      38.956  33.714  42.426  1.00  0.00    -0.200 F 
ATOM    127  F   UNL A   1      40.408  36.015  42.652  1.00  0.00    -0.200 F 
ENDBRANCH  89 117
BRANCH 104 128
ATOM    128  C   UNL A   1      44.613  29.362  36.060  1.00  0.00     0.064 A 
ATOM    129  C   UNL A   1      44.679  28.153  36.766  1.00  0.00     0.173 A 
ATOM    130  C   UNL A   1      45.818  29.998  35.724  1.00  0.00     0.173 A 
ATOM    131  F   UNL A   1      43.554  27.517  37.123  1.00  0.00    -0.203 F 
ATOM    132  C   UNL A   1      45.907  27.611  37.140  1.00  0.00     0.198 A 
ATOM    133  C   UNL A   1      47.043  29.440  36.076  1.00  0.00     0.198 A 
ATOM    134  F   UNL A   1      45.806  31.154  35.044  1.00  0.00    -0.203 F 
ATOM    135  F   UNL A   1      45.947  26.476  37.850  1.00  0.00    -0.200 F 
ATOM    136  C   UNL A   1      47.087  28.251  36.789  1.00  0.00     0.200 A 
ATOM    137  F   UNL A   1      48.182  30.053  35.726  1.00  0.00    -0.200 F 
ATOM    138  F   UNL A   1      48.266  27.724  37.143  1.00  0.00    -0.200 F 
ENDBRANCH 104 128
ENDBRANCH  69  72
ENDBRANCH  59  62
ENDBRANCH  55  58
ENDBRANCH  52  55
ENDBRANCH  49  52
ENDBRANCH  46  49
ENDBRANCH   1  46
TORSDOF 17
ENDMDL
