MODEL 1
REMARK VINA RESULT:     -12.4      0.000      0.000
REMARK SMILES Cc1ccc(S(=O)(=O)n2cc(C(=O)C(=O)NCC(=O)N[C@H](Cc3c[nH]c4ccccc34)C(=O)NCCCCCCNC(=O)c3ccc(-c4c5nc(c(-c6c(F)c(F)c(F)c(F)c6F)c6ccc([nH]6)c(-c6c(F)c(F)c(F)c(F)c6F)c6nc(c(-c7c(F)c(F)c(F)c(F)c7F)c7ccc4[nH]7)C=C6)C=C5)cc3)c3ccccc32)cc1
REMARK SMILES IDX 32 1 33 2 34 3 21 5 20 7 18 8 19 9 17 11 16 14 14 15 15 16
REMARK SMILES IDX 12 18 13 19 11 20 9 21 10 22 112 23 107 25 111 26 108 27
REMARK SMILES IDX 110 28 109 30 6 34 7 35 8 36 5 37 2 38 3 39 114 40 4 41
REMARK SMILES IDX 113 43 1 47 22 51 23 54 24 55 31 56 25 57 26 59 30 60 27 62
REMARK SMILES IDX 29 63 28 65 35 69 36 72 37 75 38 78 39 81 40 84 41 87 42 88
REMARK SMILES IDX 43 90 44 91 45 92 106 93 46 94 105 96 47 98 48 101 49 102
REMARK SMILES IDX 99 103 50 104 104 105 98 106 100 107 51 108 103 109 97 111
REMARK SMILES IDX 96 113 52 115 84 118 64 119 83 120 65 121 68 122 82 123
REMARK SMILES IDX 101 124 66 125 67 127 81 129 102 130 69 133 53 135 54 136
REMARK SMILES IDX 62 137 55 138 56 139 60 140 63 141 57 142 58 143 61 144
REMARK SMILES IDX 59 145 85 146 86 147 94 148 87 149 88 150 92 151 95 152
REMARK SMILES IDX 89 153 90 154 93 155 91 156 70 157 71 158 79 159 72 160
REMARK SMILES IDX 73 161 77 162 80 163 74 164 75 165 78 166 76 167
REMARK H PARENT 34 4 21 6 20 10 17 12 17 13 16 17 10 24 111 29 108 31 110 32
REMARK H PARENT 109 33 3 42 114 44 4 45 113 46 1 48 1 49 1 50 22 52 22 53
REMARK H PARENT 24 58 25 61 30 64 27 66 29 67 28 68 35 70 35 71 36 73 36 74
REMARK H PARENT 37 76 37 77 38 79 38 80 39 82 39 83 40 85 40 86 41 89 45 95
REMARK H PARENT 106 97 46 99 105 100 104 110 98 112 100 114 103 116 97 117
REMARK H PARENT 65 126 68 128 101 131 66 132 102 134
REMARK Flexibility Score: inf
ROOT
ATOM      1  C   UNL A   1      33.599  28.255  24.158  1.00  0.00     0.242 C 
ATOM      2  O   UNL A   1      34.072  28.242  23.015  1.00  0.00    -0.273 OA
ATOM      3  N   UNL A   1      33.599  29.462  24.778  1.00  0.00    -0.354 N 
ATOM      4  H   UNL A   1      33.788  30.216  24.174  1.00  0.00     0.163 HD
ENDROOT
BRANCH   1   5
ATOM      5  C   UNL A   1      33.086  26.952  24.789  1.00  0.00     0.112 C 
ATOM      6  H   UNL A   1      33.709  26.766  25.639  1.00  0.00     0.064 H 
BRANCH   5   7
ATOM      7  N   UNL A   1      33.199  25.898  23.767  1.00  0.00    -0.342 N 
ATOM      8  C   UNL A   1      34.113  24.891  23.663  1.00  0.00     0.240 C 
ATOM      9  O   UNL A   1      34.082  24.223  22.625  1.00  0.00    -0.273 OA
ATOM     10  H   UNL A   1      32.516  25.924  23.057  1.00  0.00     0.164 HD
BRANCH   8  11
ATOM     11  C   UNL A   1      35.003  24.466  24.852  1.00  0.00     0.097 C 
ATOM     12  H   UNL A   1      36.019  24.515  24.520  1.00  0.00     0.059 H 
ATOM     13  H   UNL A   1      34.734  25.139  25.639  1.00  0.00     0.059 H 
BRANCH  11  14
ATOM     14  N   UNL A   1      34.801  23.138  25.428  1.00  0.00    -0.340 N 
ATOM     15  C   UNL A   1      35.710  22.098  25.551  1.00  0.00     0.292 C 
ATOM     16  O   UNL A   1      35.437  21.057  26.138  1.00  0.00    -0.265 OA
ATOM     17  H   UNL A   1      33.898  22.958  25.776  1.00  0.00     0.164 HD
BRANCH  15  18
ATOM     18  C   UNL A   1      37.108  22.269  24.967  1.00  0.00     0.252 C 
ATOM     19  O   UNL A   1      37.263  21.859  23.817  1.00  0.00    -0.283 OA
BRANCH  18  20
ATOM     20  C   UNL A   1      38.239  22.711  25.796  1.00  0.00     0.054 A 
ATOM     21  N   UNL A   1      39.760  23.848  27.029  1.00  0.00    -0.240 N 
ATOM     22  C   UNL A   1      38.586  23.977  26.285  1.00  0.00     0.033 A 
ATOM     23  C   UNL A   1      40.000  22.471  27.197  1.00  0.00     0.065 A 
ATOM     24  H   UNL A   1      38.063  24.853  26.124  1.00  0.00     0.084 H 
ATOM     25  C   UNL A   1      39.301  21.837  26.174  1.00  0.00     0.012 A 
ATOM     26  C   UNL A   1      40.987  21.794  27.941  1.00  0.00    -0.037 A 
ATOM     27  C   UNL A   1      39.721  20.555  25.761  1.00  0.00    -0.052 A 
ATOM     28  C   UNL A   1      41.440  20.567  27.459  1.00  0.00    -0.060 A 
ATOM     29  H   UNL A   1      41.363  22.194  28.814  1.00  0.00     0.065 H 
ATOM     30  C   UNL A   1      40.841  19.971  26.359  1.00  0.00    -0.061 A 
ATOM     31  H   UNL A   1      39.205  20.052  25.022  1.00  0.00     0.063 H 
ATOM     32  H   UNL A   1      42.229  20.096  27.927  1.00  0.00     0.062 H 
ATOM     33  H   UNL A   1      41.224  19.091  25.978  1.00  0.00     0.062 H 
BRANCH  21  34
ATOM     34  S   UNL A   1      41.256  24.710  26.752  1.00  0.00     0.268 S 
ATOM     35  O   UNL A   1      41.669  25.080  28.097  1.00  0.00    -0.201 OA
ATOM     36  O   UNL A   1      40.851  25.723  25.785  1.00  0.00    -0.201 OA
BRANCH  34  37
ATOM     37  C   UNL A   1      42.710  24.089  25.989  1.00  0.00     0.088 A 
ATOM     38  C   UNL A   1      45.283  23.715  24.894  1.00  0.00    -0.051 A 
ATOM     39  C   UNL A   1      45.085  24.703  25.847  1.00  0.00    -0.058 A 
ATOM     40  C   UNL A   1      44.190  22.904  24.511  1.00  0.00    -0.058 A 
ATOM     41  C   UNL A   1      43.824  24.871  26.388  1.00  0.00    -0.041 A 
ATOM     42  H   UNL A   1      45.867  25.305  26.147  1.00  0.00     0.063 H 
ATOM     43  C   UNL A   1      42.889  23.087  25.052  1.00  0.00    -0.041 A 
ATOM     44  H   UNL A   1      44.342  22.156  23.818  1.00  0.00     0.063 H 
ATOM     45  H   UNL A   1      43.688  25.594  27.111  1.00  0.00     0.064 H 
ATOM     46  H   UNL A   1      42.101  22.490  24.754  1.00  0.00     0.064 H 
BRANCH  38  47
ATOM     47  C   UNL A   1      46.654  23.616  24.284  1.00  0.00    -0.040 C 
ATOM     48  H   UNL A   1      46.745  22.686  23.762  1.00  0.00     0.028 H 
ATOM     49  H   UNL A   1      47.392  23.665  25.058  1.00  0.00     0.028 H 
ATOM     50  H   UNL A   1      46.799  24.425  23.601  1.00  0.00     0.028 H 
ENDBRANCH  38  47
ENDBRANCH  34  37
ENDBRANCH  21  34
ENDBRANCH  18  20
ENDBRANCH  15  18
ENDBRANCH  11  14
ENDBRANCH   8  11
ENDBRANCH   5   7
BRANCH   5  51
ATOM     51  C   UNL A   1      31.694  26.971  25.466  1.00  0.00     0.004 C 
ATOM     52  H   UNL A   1      31.646  27.878  26.030  1.00  0.00     0.034 H 
ATOM     53  H   UNL A   1      31.682  26.037  25.988  1.00  0.00     0.034 H 
BRANCH  51  54
ATOM     54  C   UNL A   1      30.418  26.905  24.658  1.00  0.00    -0.020 A 
ATOM     55  C   UNL A   1      29.532  25.862  24.476  1.00  0.00     0.005 A 
ATOM     56  C   UNL A   1      29.863  28.003  23.897  1.00  0.00     0.003 A 
ATOM     57  N   UNL A   1      28.397  26.335  23.878  1.00  0.00    -0.361 N 
ATOM     58  H   UNL A   1      29.700  24.881  24.748  1.00  0.00     0.082 H 
ATOM     59  C   UNL A   1      28.575  27.638  23.501  1.00  0.00     0.046 A 
ATOM     60  C   UNL A   1      30.324  29.285  23.525  1.00  0.00    -0.053 A 
ATOM     61  H   UNL A   1      27.573  25.815  23.739  1.00  0.00     0.166 HD
ATOM     62  C   UNL A   1      27.699  28.496  22.830  1.00  0.00    -0.038 A 
ATOM     63  C   UNL A   1      29.484  30.135  22.790  1.00  0.00    -0.062 A 
ATOM     64  H   UNL A   1      31.271  29.594  23.792  1.00  0.00     0.063 H 
ATOM     65  C   UNL A   1      28.183  29.754  22.471  1.00  0.00    -0.060 A 
ATOM     66  H   UNL A   1      26.733  28.211  22.610  1.00  0.00     0.064 H 
ATOM     67  H   UNL A   1      29.834  31.055  22.482  1.00  0.00     0.062 H 
ATOM     68  H   UNL A   1      27.569  30.409  21.961  1.00  0.00     0.062 H 
ENDBRANCH  51  54
ENDBRANCH   5  51
ENDBRANCH   1   5
BRANCH   3  69
ATOM     69  C   UNL A   1      33.376  29.862  26.152  1.00  0.00     0.017 C 
ATOM     70  H   UNL A   1      32.627  29.227  26.579  1.00  0.00     0.049 H 
ATOM     71  H   UNL A   1      33.063  30.885  26.152  1.00  0.00     0.049 H 
BRANCH  69  72
ATOM     72  C   UNL A   1      34.646  29.758  26.995  1.00  0.00    -0.036 C 
ATOM     73  H   UNL A   1      35.481  29.990  26.368  1.00  0.00     0.028 H 
ATOM     74  H   UNL A   1      34.669  28.761  27.382  1.00  0.00     0.028 H 
BRANCH  72  75
ATOM     75  C   UNL A   1      34.695  30.692  28.216  1.00  0.00    -0.052 C 
ATOM     76  H   UNL A   1      35.454  30.328  28.875  1.00  0.00     0.027 H 
ATOM     77  H   UNL A   1      33.710  30.675  28.632  1.00  0.00     0.027 H 
BRANCH  75  78
ATOM     78  C   UNL A   1      34.995  32.168  27.921  1.00  0.00    -0.052 C 
ATOM     79  H   UNL A   1      35.038  32.289  26.859  1.00  0.00     0.027 H 
ATOM     80  H   UNL A   1      35.918  32.383  28.418  1.00  0.00     0.027 H 
BRANCH  78  81
ATOM     81  C   UNL A   1      33.980  33.169  28.469  1.00  0.00    -0.036 C 
ATOM     82  H   UNL A   1      33.268  32.634  29.063  1.00  0.00     0.028 H 
ATOM     83  H   UNL A   1      33.536  33.652  27.625  1.00  0.00     0.028 H 
BRANCH  81  84
ATOM     84  C   UNL A   1      34.591  34.267  29.331  1.00  0.00     0.018 C 
ATOM     85  H   UNL A   1      33.934  35.111  29.317  1.00  0.00     0.049 H 
ATOM     86  H   UNL A   1      35.552  34.491  28.917  1.00  0.00     0.049 H 
BRANCH  84  87
ATOM     87  N   UNL A   1      34.805  33.876  30.710  1.00  0.00    -0.352 N 
ATOM     88  C   UNL A   1      35.947  33.416  31.346  1.00  0.00     0.251 C 
ATOM     89  H   UNL A   1      34.011  33.949  31.288  1.00  0.00     0.163 HD
ATOM     90  O   UNL A   1      35.852  32.917  32.446  1.00  0.00    -0.269 OA
BRANCH  88  91
ATOM     91  C   UNL A   1      37.294  33.695  30.770  1.00  0.00     0.039 A 
ATOM     92  C   UNL A   1      37.716  32.851  29.729  1.00  0.00    -0.049 A 
ATOM     93  C   UNL A   1      38.199  34.578  31.348  1.00  0.00    -0.049 A 
ATOM     94  C   UNL A   1      39.076  32.716  29.455  1.00  0.00    -0.053 A 
ATOM     95  H   UNL A   1      37.022  32.334  29.168  1.00  0.00     0.063 H 
ATOM     96  C   UNL A   1      39.549  34.385  31.146  1.00  0.00    -0.053 A 
ATOM     97  H   UNL A   1      37.865  35.368  31.921  1.00  0.00     0.063 H 
ATOM     98  C   UNL A   1      39.984  33.403  30.253  1.00  0.00    -0.014 A 
ATOM     99  H   UNL A   1      39.400  32.119  28.678  1.00  0.00     0.063 H 
ATOM    100  H   UNL A   1      40.237  34.965  31.652  1.00  0.00     0.063 H 
BRANCH  98 101
ATOM    101  C   UNL A   1      41.401  33.092  30.313  1.00  0.00     0.031 A 
ATOM    102  C   UNL A   1      42.365  33.842  29.491  1.00  0.00     0.074 A 
ATOM    103  C   UNL A   1      41.825  32.195  31.231  1.00  0.00     0.049 A 
ATOM    104  N   UNL A   1      43.533  33.399  29.175  1.00  0.00    -0.248 NA
ATOM    105  C   UNL A   1      42.074  35.158  28.927  1.00  0.00    -0.034 C 
ATOM    106  C   UNL A   1      43.194  31.956  31.676  1.00  0.00    -0.036 A 
ATOM    107  N   UNL A   1      41.076  31.171  31.836  1.00  0.00    -0.354 N 
ATOM    108  C   UNL A   1      44.232  34.436  28.607  1.00  0.00     0.074 A 
ATOM    109  C   UNL A   1      43.267  35.495  28.424  1.00  0.00    -0.034 C 
ATOM    110  H   UNL A   1      41.188  35.685  28.920  1.00  0.00     0.065 H 
ATOM    111  C   UNL A   1      43.263  30.734  32.229  1.00  0.00    -0.036 A 
ATOM    112  H   UNL A   1      43.980  32.618  31.582  1.00  0.00     0.065 H 
ATOM    113  C   UNL A   1      41.976  30.095  32.016  1.00  0.00     0.049 A 
ATOM    114  H   UNL A   1      40.124  31.197  32.084  1.00  0.00     0.167 HD
ATOM    115  C   UNL A   1      45.582  34.334  28.467  1.00  0.00     0.037 A 
ATOM    116  H   UNL A   1      43.471  36.396  27.963  1.00  0.00     0.065 H 
ATOM    117  H   UNL A   1      44.076  30.326  32.714  1.00  0.00     0.065 H 
ATOM    118  C   UNL A   1      41.796  28.911  31.361  1.00  0.00     0.037 A 
ATOM    119  C   UNL A   1      46.070  33.044  28.937  1.00  0.00     0.049 A 
ATOM    120  C   UNL A   1      42.943  28.543  30.450  1.00  0.00     0.074 A 
ATOM    121  C   UNL A   1      46.575  32.631  30.159  1.00  0.00    -0.036 A 
ATOM    122  N   UNL A   1      45.737  31.891  28.236  1.00  0.00    -0.354 N 
ATOM    123  N   UNL A   1      43.799  29.406  29.979  1.00  0.00    -0.248 NA
ATOM    124  C   UNL A   1      43.202  27.184  29.980  1.00  0.00    -0.034 C 
ATOM    125  C   UNL A   1      46.488  31.219  30.214  1.00  0.00    -0.036 A 
ATOM    126  H   UNL A   1      46.950  33.244  30.899  1.00  0.00     0.065 H 
ATOM    127  C   UNL A   1      45.957  30.773  29.016  1.00  0.00     0.049 A 
ATOM    128  H   UNL A   1      45.393  31.875  27.314  1.00  0.00     0.167 HD
ATOM    129  C   UNL A   1      44.691  28.765  29.160  1.00  0.00     0.074 A 
ATOM    130  C   UNL A   1      44.284  27.373  29.203  1.00  0.00    -0.034 C 
ATOM    131  H   UNL A   1      42.691  26.312  30.188  1.00  0.00     0.065 H 
ATOM    132  H   UNL A   1      46.772  30.625  31.009  1.00  0.00     0.065 H 
ATOM    133  C   UNL A   1      45.684  29.439  28.511  1.00  0.00     0.037 A 
ATOM    134  H   UNL A   1      44.768  26.617  28.696  1.00  0.00     0.065 H 
BRANCH 115 135
ATOM    135  C   UNL A   1      46.460  35.517  28.169  1.00  0.00     0.064 A 
ATOM    136  C   UNL A   1      46.635  35.979  26.847  1.00  0.00     0.173 A 
ATOM    137  C   UNL A   1      47.189  36.208  29.151  1.00  0.00     0.173 A 
ATOM    138  F   UNL A   1      45.958  35.443  25.823  1.00  0.00    -0.203 F 
ATOM    139  C   UNL A   1      47.533  36.998  26.527  1.00  0.00     0.198 A 
ATOM    140  C   UNL A   1      48.126  37.194  28.825  1.00  0.00     0.198 A 
ATOM    141  F   UNL A   1      46.998  35.956  30.454  1.00  0.00    -0.203 F 
ATOM    142  F   UNL A   1      47.664  37.393  25.253  1.00  0.00    -0.200 F 
ATOM    143  C   UNL A   1      48.303  37.585  27.511  1.00  0.00     0.200 A 
ATOM    144  F   UNL A   1      48.865  37.756  29.792  1.00  0.00    -0.200 F 
ATOM    145  F   UNL A   1      49.200  38.528  27.197  1.00  0.00    -0.200 F 
ENDBRANCH 115 135
BRANCH 118 146
ATOM    146  C   UNL A   1      40.363  28.603  31.104  1.00  0.00     0.064 A 
ATOM    147  C   UNL A   1      39.526  28.381  32.216  1.00  0.00     0.173 A 
ATOM    148  C   UNL A   1      39.751  28.925  29.888  1.00  0.00     0.173 A 
ATOM    149  F   UNL A   1      40.064  28.073  33.408  1.00  0.00    -0.203 F 
ATOM    150  C   UNL A   1      38.153  28.600  32.144  1.00  0.00     0.198 A 
ATOM    151  C   UNL A   1      38.370  29.129  29.816  1.00  0.00     0.198 A 
ATOM    152  F   UNL A   1      40.493  29.161  28.797  1.00  0.00    -0.203 F 
ATOM    153  F   UNL A   1      37.403  28.502  33.251  1.00  0.00    -0.200 F 
ATOM    154  C   UNL A   1      37.581  29.004  30.950  1.00  0.00     0.200 A 
ATOM    155  F   UNL A   1      37.818  29.540  28.666  1.00  0.00    -0.200 F 
ATOM    156  F   UNL A   1      36.277  29.310  30.902  1.00  0.00    -0.200 F 
ENDBRANCH 118 146
BRANCH 133 157
ATOM    157  C   UNL A   1      46.560  28.892  27.411  1.00  0.00     0.064 A 
ATOM    158  C   UNL A   1      47.919  28.583  27.576  1.00  0.00     0.173 A 
ATOM    159  C   UNL A   1      45.992  28.507  26.171  1.00  0.00     0.173 A 
ATOM    160  F   UNL A   1      48.544  28.792  28.742  1.00  0.00    -0.203 F 
ATOM    161  C   UNL A   1      48.669  27.986  26.558  1.00  0.00     0.198 A 
ATOM    162  C   UNL A   1      46.729  27.858  25.182  1.00  0.00     0.198 A 
ATOM    163  F   UNL A   1      44.698  28.722  25.894  1.00  0.00    -0.203 F 
ATOM    164  F   UNL A   1      49.974  27.747  26.751  1.00  0.00    -0.200 F 
ATOM    165  C   UNL A   1      48.072  27.612  25.369  1.00  0.00     0.200 A 
ATOM    166  F   UNL A   1      46.122  27.453  24.057  1.00  0.00    -0.200 F 
ATOM    167  F   UNL A   1      48.784  26.996  24.417  1.00  0.00    -0.200 F 
ENDBRANCH 133 157
ENDBRANCH  98 101
ENDBRANCH  88  91
ENDBRANCH  84  87
ENDBRANCH  81  84
ENDBRANCH  78  81
ENDBRANCH  75  78
ENDBRANCH  72  75
ENDBRANCH  69  72
ENDBRANCH   3  69
TORSDOF 23
ENDMDL
MODEL 2
REMARK VINA RESULT:     -11.6      2.786     10.227
REMARK SMILES Cc1ccc(S(=O)(=O)n2cc(C(=O)C(=O)NCC(=O)N[C@H](Cc3c[nH]c4ccccc34)C(=O)NCCCCCCNC(=O)c3ccc(-c4c5nc(c(-c6c(F)c(F)c(F)c(F)c6F)c6ccc([nH]6)c(-c6c(F)c(F)c(F)c(F)c6F)c6nc(c(-c7c(F)c(F)c(F)c(F)c7F)c7ccc4[nH]7)C=C6)C=C5)cc3)c3ccccc32)cc1
REMARK SMILES IDX 32 1 33 2 34 3 21 5 20 7 18 8 19 9 17 11 16 14 14 15 15 16
REMARK SMILES IDX 12 18 13 19 11 20 9 21 10 22 112 23 107 25 111 26 108 27
REMARK SMILES IDX 110 28 109 30 6 34 7 35 8 36 5 37 2 38 3 39 114 40 4 41
REMARK SMILES IDX 113 43 1 47 22 51 23 54 24 55 31 56 25 57 26 59 30 60 27 62
REMARK SMILES IDX 29 63 28 65 35 69 36 72 37 75 38 78 39 81 40 84 41 87 42 88
REMARK SMILES IDX 43 90 44 91 45 92 106 93 46 94 105 96 47 98 48 101 49 102
REMARK SMILES IDX 99 103 50 104 104 105 98 106 100 107 51 108 103 109 97 111
REMARK SMILES IDX 96 113 52 115 84 118 64 119 83 120 65 121 68 122 82 123
REMARK SMILES IDX 101 124 66 125 67 127 81 129 102 130 69 133 53 135 54 136
REMARK SMILES IDX 62 137 55 138 56 139 60 140 63 141 57 142 58 143 61 144
REMARK SMILES IDX 59 145 85 146 86 147 94 148 87 149 88 150 92 151 95 152
REMARK SMILES IDX 89 153 90 154 93 155 91 156 70 157 71 158 79 159 72 160
REMARK SMILES IDX 73 161 77 162 80 163 74 164 75 165 78 166 76 167
REMARK H PARENT 34 4 21 6 20 10 17 12 17 13 16 17 10 24 111 29 108 31 110 32
REMARK H PARENT 109 33 3 42 114 44 4 45 113 46 1 48 1 49 1 50 22 52 22 53
REMARK H PARENT 24 58 25 61 30 64 27 66 29 67 28 68 35 70 35 71 36 73 36 74
REMARK H PARENT 37 76 37 77 38 79 38 80 39 82 39 83 40 85 40 86 41 89 45 95
REMARK H PARENT 106 97 46 99 105 100 104 110 98 112 100 114 103 116 97 117
REMARK H PARENT 65 126 68 128 101 131 66 132 102 134
REMARK Flexibility Score: inf
ROOT
ATOM      1  C   UNL A   1      42.016  21.917  27.934  1.00  0.00     0.242 C 
ATOM      2  O   UNL A   1      42.286  22.397  29.042  1.00  0.00    -0.273 OA
ATOM      3  N   UNL A   1      42.811  20.895  27.528  1.00  0.00    -0.354 N 
ATOM      4  H   UNL A   1      43.375  20.526  28.245  1.00  0.00     0.163 HD
ENDROOT
BRANCH   1   5
ATOM      5  C   UNL A   1      40.861  22.504  27.107  1.00  0.00     0.112 C 
ATOM      6  H   UNL A   1      40.133  22.847  27.812  1.00  0.00     0.064 H 
BRANCH   5   7
ATOM      7  N   UNL A   1      40.348  21.424  26.247  1.00  0.00    -0.342 N 
ATOM      8  C   UNL A   1      39.066  21.166  25.858  1.00  0.00     0.240 C 
ATOM      9  O   UNL A   1      38.876  20.106  25.254  1.00  0.00    -0.273 OA
ATOM     10  H   UNL A   1      41.027  20.799  25.904  1.00  0.00     0.164 HD
BRANCH   8  11
ATOM     11  C   UNL A   1      37.944  22.222  25.977  1.00  0.00     0.097 C 
ATOM     12  H   UNL A   1      38.266  22.948  26.693  1.00  0.00     0.059 H 
ATOM     13  H   UNL A   1      37.810  22.579  24.977  1.00  0.00     0.059 H 
BRANCH  11  14
ATOM     14  N   UNL A   1      36.614  21.775  26.383  1.00  0.00    -0.340 N 
ATOM     15  C   UNL A   1      35.395  21.996  25.757  1.00  0.00     0.292 C 
ATOM     16  O   UNL A   1      34.354  21.489  26.156  1.00  0.00    -0.265 OA
ATOM     17  H   UNL A   1      36.577  21.246  27.212  1.00  0.00     0.164 HD
BRANCH  15  18
ATOM     18  C   UNL A   1      35.357  22.872  24.509  1.00  0.00     0.252 C 
ATOM     19  O   UNL A   1      36.056  22.497  23.569  1.00  0.00    -0.283 OA
BRANCH  18  20
ATOM     20  C   UNL A   1      34.686  24.180  24.508  1.00  0.00     0.054 A 
ATOM     21  N   UNL A   1      33.811  26.213  24.989  1.00  0.00    -0.240 N 
ATOM     22  C   UNL A   1      34.534  25.141  25.516  1.00  0.00     0.033 A 
ATOM     23  C   UNL A   1      33.730  26.018  23.597  1.00  0.00     0.065 A 
ATOM     24  H   UNL A   1      34.893  25.069  26.481  1.00  0.00     0.084 H 
ATOM     25  C   UNL A   1      33.938  24.657  23.392  1.00  0.00     0.012 A 
ATOM     26  C   UNL A   1      33.200  26.841  22.583  1.00  0.00    -0.037 A 
ATOM     27  C   UNL A   1      33.436  24.067  22.213  1.00  0.00    -0.052 A 
ATOM     28  C   UNL A   1      32.637  26.222  21.468  1.00  0.00    -0.060 A 
ATOM     29  H   UNL A   1      33.228  27.868  22.664  1.00  0.00     0.065 H 
ATOM     30  C   UNL A   1      32.718  24.847  21.303  1.00  0.00    -0.061 A 
ATOM     31  H   UNL A   1      33.597  23.065  22.024  1.00  0.00     0.063 H 
ATOM     32  H   UNL A   1      32.154  26.793  20.758  1.00  0.00     0.062 H 
ATOM     33  H   UNL A   1      32.246  24.397  20.502  1.00  0.00     0.062 H 
BRANCH  21  34
ATOM     34  S   UNL A   1      32.308  26.852  25.615  1.00  0.00     0.268 S 
ATOM     35  O   UNL A   1      32.743  27.630  26.765  1.00  0.00    -0.201 OA
ATOM     36  O   UNL A   1      31.510  25.644  25.783  1.00  0.00    -0.201 OA
BRANCH  34  37
ATOM     37  C   UNL A   1      31.167  27.887  24.775  1.00  0.00     0.088 A 
ATOM     38  C   UNL A   1      29.170  28.972  23.103  1.00  0.00    -0.051 A 
ATOM     39  C   UNL A   1      29.157  27.615  23.387  1.00  0.00    -0.058 A 
ATOM     40  C   UNL A   1      30.175  29.782  23.679  1.00  0.00    -0.058 A 
ATOM     41  C   UNL A   1      30.131  27.093  24.218  1.00  0.00    -0.041 A 
ATOM     42  H   UNL A   1      28.431  27.003  22.984  1.00  0.00     0.063 H 
ATOM     43  C   UNL A   1      31.188  29.246  24.518  1.00  0.00    -0.041 A 
ATOM     44  H   UNL A   1      30.173  30.795  23.483  1.00  0.00     0.063 H 
ATOM     45  H   UNL A   1      30.104  26.086  24.442  1.00  0.00     0.064 H 
ATOM     46  H   UNL A   1      31.920  29.853  24.922  1.00  0.00     0.064 H 
BRANCH  38  47
ATOM     47  C   UNL A   1      28.133  29.481  22.141  1.00  0.00    -0.040 C 
ATOM     48  H   UNL A   1      28.571  29.592  21.171  1.00  0.00     0.028 H 
ATOM     49  H   UNL A   1      27.768  30.429  22.478  1.00  0.00     0.028 H 
ATOM     50  H   UNL A   1      27.323  28.785  22.089  1.00  0.00     0.028 H 
ENDBRANCH  38  47
ENDBRANCH  34  37
ENDBRANCH  21  34
ENDBRANCH  18  20
ENDBRANCH  15  18
ENDBRANCH  11  14
ENDBRANCH   8  11
ENDBRANCH   5   7
BRANCH   5  51
ATOM     51  C   UNL A   1      41.121  23.811  26.320  1.00  0.00     0.004 C 
ATOM     52  H   UNL A   1      40.812  23.623  25.313  1.00  0.00     0.034 H 
ATOM     53  H   UNL A   1      42.158  23.993  26.517  1.00  0.00     0.034 H 
BRANCH  51  54
ATOM     54  C   UNL A   1      40.483  25.120  26.724  1.00  0.00    -0.020 A 
ATOM     55  C   UNL A   1      39.392  25.367  27.534  1.00  0.00     0.005 A 
ATOM     56  C   UNL A   1      40.946  26.428  26.313  1.00  0.00     0.003 A 
ATOM     57  N   UNL A   1      39.337  26.704  27.818  1.00  0.00    -0.361 N 
ATOM     58  H   UNL A   1      38.725  24.656  27.871  1.00  0.00     0.082 H 
ATOM     59  C   UNL A   1      40.266  27.379  27.075  1.00  0.00     0.046 A 
ATOM     60  C   UNL A   1      41.897  26.895  25.380  1.00  0.00    -0.053 A 
ATOM     61  H   UNL A   1      38.719  27.119  28.462  1.00  0.00     0.166 HD
ATOM     62  C   UNL A   1      40.532  28.750  27.019  1.00  0.00    -0.038 A 
ATOM     63  C   UNL A   1      42.127  28.274  25.258  1.00  0.00    -0.062 A 
ATOM     64  H   UNL A   1      42.419  26.227  24.791  1.00  0.00     0.063 H 
ATOM     65  C   UNL A   1      41.472  29.183  26.084  1.00  0.00    -0.060 A 
ATOM     66  H   UNL A   1      40.053  29.415  27.644  1.00  0.00     0.064 H 
ATOM     67  H   UNL A   1      42.791  28.618  24.548  1.00  0.00     0.062 H 
ATOM     68  H   UNL A   1      41.684  30.191  26.004  1.00  0.00     0.062 H 
ENDBRANCH  51  54
ENDBRANCH   5  51
ENDBRANCH   1   5
BRANCH   3  69
ATOM     69  C   UNL A   1      42.993  20.239  26.250  1.00  0.00     0.017 C 
ATOM     70  H   UNL A   1      42.032  20.002  25.842  1.00  0.00     0.049 H 
ATOM     71  H   UNL A   1      43.574  19.356  26.412  1.00  0.00     0.049 H 
BRANCH  69  72
ATOM     72  C   UNL A   1      43.746  21.121  25.253  1.00  0.00    -0.036 C 
ATOM     73  H   UNL A   1      43.349  22.112  25.320  1.00  0.00     0.028 H 
ATOM     74  H   UNL A   1      43.609  20.672  24.292  1.00  0.00     0.028 H 
BRANCH  72  75
ATOM     75  C   UNL A   1      45.265  21.201  25.475  1.00  0.00    -0.052 C 
ATOM     76  H   UNL A   1      45.736  20.589  24.735  1.00  0.00     0.027 H 
ATOM     77  H   UNL A   1      45.428  20.875  26.480  1.00  0.00     0.027 H 
BRANCH  75  78
ATOM     78  C   UNL A   1      45.884  22.603  25.390  1.00  0.00    -0.052 C 
ATOM     79  H   UNL A   1      46.702  22.560  24.703  1.00  0.00     0.027 H 
ATOM     80  H   UNL A   1      46.171  22.858  26.389  1.00  0.00     0.027 H 
BRANCH  78  81
ATOM     81  C   UNL A   1      44.940  23.713  24.930  1.00  0.00    -0.036 C 
ATOM     82  H   UNL A   1      44.002  23.268  24.666  1.00  0.00     0.028 H 
ATOM     83  H   UNL A   1      45.414  24.199  24.104  1.00  0.00     0.028 H 
BRANCH  81  84
ATOM     84  C   UNL A   1      44.680  24.786  25.980  1.00  0.00     0.018 C 
ATOM     85  H   UNL A   1      43.674  25.131  25.868  1.00  0.00     0.049 H 
ATOM     86  H   UNL A   1      45.399  25.562  25.816  1.00  0.00     0.049 H 
BRANCH  84  87
ATOM     87  N   UNL A   1      44.858  24.324  27.342  1.00  0.00    -0.352 N 
ATOM     88  C   UNL A   1      44.765  25.011  28.542  1.00  0.00     0.251 C 
ATOM     89  H   UNL A   1      45.082  23.369  27.429  1.00  0.00     0.163 HD
ATOM     90  O   UNL A   1      45.186  24.495  29.554  1.00  0.00    -0.269 OA
BRANCH  88  91
ATOM     91  C   UNL A   1      43.993  26.284  28.624  1.00  0.00     0.039 A 
ATOM     92  C   UNL A   1      44.521  27.381  27.923  1.00  0.00    -0.049 A 
ATOM     93  C   UNL A   1      42.937  26.478  29.507  1.00  0.00    -0.049 A 
ATOM     94  C   UNL A   1      44.170  28.677  28.297  1.00  0.00    -0.053 A 
ATOM     95  H   UNL A   1      45.167  27.229  27.133  1.00  0.00     0.063 H 
ATOM     96  C   UNL A   1      42.651  27.754  29.944  1.00  0.00    -0.053 A 
ATOM     97  H   UNL A   1      42.374  25.676  29.832  1.00  0.00     0.063 H 
ATOM     98  C   UNL A   1      43.322  28.845  29.387  1.00  0.00    -0.014 A 
ATOM     99  H   UNL A   1      44.531  29.492  27.777  1.00  0.00     0.063 H 
ATOM    100  H   UNL A   1      41.942  27.903  30.679  1.00  0.00     0.063 H 
BRANCH  98 101
ATOM    101  C   UNL A   1      43.157  30.102  30.093  1.00  0.00     0.031 A 
ATOM    102  C   UNL A   1      41.824  30.714  30.224  1.00  0.00     0.074 A 
ATOM    103  C   UNL A   1      44.225  30.626  30.735  1.00  0.00     0.049 A 
ATOM    104  N   UNL A   1      41.631  31.967  30.461  1.00  0.00    -0.248 NA
ATOM    105  C   UNL A   1      40.584  29.959  30.067  1.00  0.00    -0.034 C 
ATOM    106  C   UNL A   1      44.229  31.687  31.738  1.00  0.00    -0.036 A 
ATOM    107  N   UNL A   1      45.584  30.398  30.462  1.00  0.00    -0.354 N 
ATOM    108  C   UNL A   1      40.298  32.137  30.740  1.00  0.00     0.074 A 
ATOM    109  C   UNL A   1      39.675  30.871  30.430  1.00  0.00    -0.034 C 
ATOM    110  H   UNL A   1      40.447  28.984  29.758  1.00  0.00     0.065 H 
ATOM    111  C   UNL A   1      45.459  32.221  31.798  1.00  0.00    -0.036 A 
ATOM    112  H   UNL A   1      43.418  31.977  32.307  1.00  0.00     0.065 H 
ATOM    113  C   UNL A   1      46.238  31.623  30.729  1.00  0.00     0.049 A 
ATOM    114  H   UNL A   1      45.996  29.560  30.150  1.00  0.00     0.167 HD
ATOM    115  C   UNL A   1      39.880  33.293  31.325  1.00  0.00     0.037 A 
ATOM    116  H   UNL A   1      38.659  30.693  30.482  1.00  0.00     0.065 H 
ATOM    117  H   UNL A   1      45.789  32.924  32.477  1.00  0.00     0.065 H 
ATOM    118  C   UNL A   1      46.855  32.323  29.732  1.00  0.00     0.037 A 
ATOM    119  C   UNL A   1      40.988  34.219  31.525  1.00  0.00     0.049 A 
ATOM    120  C   UNL A   1      46.284  33.706  29.521  1.00  0.00     0.074 A 
ATOM    121  C   UNL A   1      41.821  34.451  32.606  1.00  0.00    -0.036 A 
ATOM    122  N   UNL A   1      41.602  34.796  30.419  1.00  0.00    -0.354 N 
ATOM    123  N   UNL A   1      45.090  34.062  29.904  1.00  0.00    -0.248 NA
ATOM    124  C   UNL A   1      47.001  34.785  28.846  1.00  0.00    -0.034 C 
ATOM    125  C   UNL A   1      42.975  35.122  32.134  1.00  0.00    -0.036 A 
ATOM    126  H   UNL A   1      41.635  34.183  33.584  1.00  0.00     0.065 H 
ATOM    127  C   UNL A   1      42.830  35.322  30.772  1.00  0.00     0.049 A 
ATOM    128  H   UNL A   1      41.217  34.826  29.515  1.00  0.00     0.167 HD
ATOM    129  C   UNL A   1      44.862  35.362  29.537  1.00  0.00     0.074 A 
ATOM    130  C   UNL A   1      46.092  35.775  28.889  1.00  0.00    -0.034 C 
ATOM    131  H   UNL A   1      47.951  34.787  28.443  1.00  0.00     0.065 H 
ATOM    132  H   UNL A   1      43.784  35.413  32.706  1.00  0.00     0.065 H 
ATOM    133  C   UNL A   1      43.673  35.983  29.792  1.00  0.00     0.037 A 
ATOM    134  H   UNL A   1      46.251  36.720  28.506  1.00  0.00     0.065 H 
BRANCH 115 135
ATOM    135  C   UNL A   1      38.526  33.441  31.959  1.00  0.00     0.064 A 
ATOM    136  C   UNL A   1      37.403  33.828  31.196  1.00  0.00     0.173 A 
ATOM    137  C   UNL A   1      38.286  33.252  33.331  1.00  0.00     0.173 A 
ATOM    138  F   UNL A   1      37.481  33.990  29.869  1.00  0.00    -0.203 F 
ATOM    139  C   UNL A   1      36.161  34.087  31.777  1.00  0.00     0.198 A 
ATOM    140  C   UNL A   1      37.056  33.559  33.920  1.00  0.00     0.198 A 
ATOM    141  F   UNL A   1      39.237  32.747  34.131  1.00  0.00    -0.203 F 
ATOM    142  F   UNL A   1      35.131  34.458  31.005  1.00  0.00    -0.200 F 
ATOM    143  C   UNL A   1      35.995  33.983  33.143  1.00  0.00     0.200 A 
ATOM    144  F   UNL A   1      36.908  33.452  35.248  1.00  0.00    -0.200 F 
ATOM    145  F   UNL A   1      34.816  34.279  33.706  1.00  0.00    -0.200 F 
ENDBRANCH 115 135
BRANCH 118 146
ATOM    146  C   UNL A   1      47.398  31.447  28.660  1.00  0.00     0.064 A 
ATOM    147  C   UNL A   1      48.450  30.569  28.994  1.00  0.00     0.173 A 
ATOM    148  C   UNL A   1      46.667  31.168  27.499  1.00  0.00     0.173 A 
ATOM    149  F   UNL A   1      49.180  30.790  30.099  1.00  0.00    -0.203 F 
ATOM    150  C   UNL A   1      48.671  29.398  28.274  1.00  0.00     0.198 A 
ATOM    151  C   UNL A   1      46.903  29.999  26.771  1.00  0.00     0.198 A 
ATOM    152  F   UNL A   1      45.647  31.957  27.135  1.00  0.00    -0.203 F 
ATOM    153  F   UNL A   1      49.597  28.522  28.694  1.00  0.00    -0.200 F 
ATOM    154  C   UNL A   1      47.877  29.099  27.181  1.00  0.00     0.200 A 
ATOM    155  F   UNL A   1      46.121  29.697  25.725  1.00  0.00    -0.200 F 
ATOM    156  F   UNL A   1      48.023  27.927  26.547  1.00  0.00    -0.200 F 
ENDBRANCH 118 146
BRANCH 133 157
ATOM    157  C   UNL A   1      43.223  37.308  29.230  1.00  0.00     0.064 A 
ATOM    158  C   UNL A   1      43.689  38.550  29.688  1.00  0.00     0.173 A 
ATOM    159  C   UNL A   1      42.404  37.353  28.074  1.00  0.00     0.173 A 
ATOM    160  F   UNL A   1      44.560  38.635  30.702  1.00  0.00    -0.203 F 
ATOM    161  C   UNL A   1      43.319  39.750  29.074  1.00  0.00     0.198 A 
ATOM    162  C   UNL A   1      42.086  38.547  27.429  1.00  0.00     0.198 A 
ATOM    163  F   UNL A   1      41.911  36.236  27.519  1.00  0.00    -0.203 F 
ATOM    164  F   UNL A   1      43.760  40.913  29.574  1.00  0.00    -0.200 F 
ATOM    165  C   UNL A   1      42.531  39.748  27.938  1.00  0.00     0.200 A 
ATOM    166  F   UNL A   1      41.367  38.521  26.298  1.00  0.00    -0.200 F 
ATOM    167  F   UNL A   1      42.221  40.897  27.325  1.00  0.00    -0.200 F 
ENDBRANCH 133 157
ENDBRANCH  98 101
ENDBRANCH  88  91
ENDBRANCH  84  87
ENDBRANCH  81  84
ENDBRANCH  78  81
ENDBRANCH  75  78
ENDBRANCH  72  75
ENDBRANCH  69  72
ENDBRANCH   3  69
TORSDOF 23
ENDMDL
MODEL 3
REMARK VINA RESULT:     -11.4      3.018     10.640
REMARK SMILES Cc1ccc(S(=O)(=O)n2cc(C(=O)C(=O)NCC(=O)N[C@H](Cc3c[nH]c4ccccc34)C(=O)NCCCCCCNC(=O)c3ccc(-c4c5nc(c(-c6c(F)c(F)c(F)c(F)c6F)c6ccc([nH]6)c(-c6c(F)c(F)c(F)c(F)c6F)c6nc(c(-c7c(F)c(F)c(F)c(F)c7F)c7ccc4[nH]7)C=C6)C=C5)cc3)c3ccccc32)cc1
REMARK SMILES IDX 32 1 33 2 34 3 21 5 20 7 18 8 19 9 17 11 16 14 14 15 15 16
REMARK SMILES IDX 12 18 13 19 11 20 9 21 10 22 112 23 107 25 111 26 108 27
REMARK SMILES IDX 110 28 109 30 6 34 7 35 8 36 5 37 2 38 3 39 114 40 4 41
REMARK SMILES IDX 113 43 1 47 22 51 23 54 24 55 31 56 25 57 26 59 30 60 27 62
REMARK SMILES IDX 29 63 28 65 35 69 36 72 37 75 38 78 39 81 40 84 41 87 42 88
REMARK SMILES IDX 43 90 44 91 45 92 106 93 46 94 105 96 47 98 48 101 49 102
REMARK SMILES IDX 99 103 50 104 104 105 98 106 100 107 51 108 103 109 97 111
REMARK SMILES IDX 96 113 52 115 84 118 64 119 83 120 65 121 68 122 82 123
REMARK SMILES IDX 101 124 66 125 67 127 81 129 102 130 69 133 53 135 54 136
REMARK SMILES IDX 62 137 55 138 56 139 60 140 63 141 57 142 58 143 61 144
REMARK SMILES IDX 59 145 85 146 86 147 94 148 87 149 88 150 92 151 95 152
REMARK SMILES IDX 89 153 90 154 93 155 91 156 70 157 71 158 79 159 72 160
REMARK SMILES IDX 73 161 77 162 80 163 74 164 75 165 78 166 76 167
REMARK H PARENT 34 4 21 6 20 10 17 12 17 13 16 17 10 24 111 29 108 31 110 32
REMARK H PARENT 109 33 3 42 114 44 4 45 113 46 1 48 1 49 1 50 22 52 22 53
REMARK H PARENT 24 58 25 61 30 64 27 66 29 67 28 68 35 70 35 71 36 73 36 74
REMARK H PARENT 37 76 37 77 38 79 38 80 39 82 39 83 40 85 40 86 41 89 45 95
REMARK H PARENT 106 97 46 99 105 100 104 110 98 112 100 114 103 116 97 117
REMARK H PARENT 65 126 68 128 101 131 66 132 102 134
REMARK Flexibility Score: inf
ROOT
ATOM      1  C   UNL A   1      43.138  23.270  25.228  1.00  0.00     0.242 C 
ATOM      2  O   UNL A   1      43.058  22.192  24.627  1.00  0.00    -0.273 OA
ATOM      3  N   UNL A   1      43.954  24.196  24.663  1.00  0.00    -0.354 N 
ATOM      4  H   UNL A   1      44.223  23.975  23.742  1.00  0.00     0.163 HD
ENDROOT
BRANCH   1   5
ATOM      5  C   UNL A   1      42.364  23.476  26.539  1.00  0.00     0.112 C 
ATOM      6  H   UNL A   1      43.021  24.010  27.193  1.00  0.00     0.064 H 
BRANCH   5   7
ATOM      7  N   UNL A   1      42.017  22.142  27.056  1.00  0.00    -0.342 N 
ATOM      8  C   UNL A   1      40.796  21.541  27.144  1.00  0.00     0.240 C 
ATOM      9  O   UNL A   1      40.752  20.470  27.757  1.00  0.00    -0.273 OA
ATOM     10  H   UNL A   1      42.776  21.606  27.383  1.00  0.00     0.164 HD
BRANCH   8  11
ATOM     11  C   UNL A   1      39.571  22.052  26.354  1.00  0.00     0.097 C 
ATOM     12  H   UNL A   1      39.043  22.730  26.991  1.00  0.00     0.059 H 
ATOM     13  H   UNL A   1      39.988  22.474  25.463  1.00  0.00     0.059 H 
BRANCH  11  14
ATOM     14  N   UNL A   1      38.602  21.072  25.869  1.00  0.00    -0.340 N 
ATOM     15  C   UNL A   1      37.320  21.284  25.384  1.00  0.00     0.292 C 
ATOM     16  O   UNL A   1      36.636  20.378  24.923  1.00  0.00    -0.265 OA
ATOM     17  H   UNL A   1      38.900  20.133  25.889  1.00  0.00     0.164 HD
BRANCH  15  18
ATOM     18  C   UNL A   1      36.756  22.701  25.393  1.00  0.00     0.252 C 
ATOM     19  O   UNL A   1      37.333  23.504  26.126  1.00  0.00    -0.283 OA
BRANCH  18  20
ATOM     20  C   UNL A   1      35.489  23.029  24.725  1.00  0.00     0.054 A 
ATOM     21  N   UNL A   1      33.837  23.626  23.295  1.00  0.00    -0.240 N 
ATOM     22  C   UNL A   1      35.218  23.466  23.421  1.00  0.00     0.033 A 
ATOM     23  C   UNL A   1      33.244  23.059  24.438  1.00  0.00     0.065 A 
ATOM     24  H   UNL A   1      35.918  23.638  22.682  1.00  0.00     0.084 H 
ATOM     25  C   UNL A   1      34.239  23.039  25.411  1.00  0.00     0.012 A 
ATOM     26  C   UNL A   1      31.888  22.868  24.771  1.00  0.00    -0.037 A 
ATOM     27  C   UNL A   1      33.856  23.009  26.769  1.00  0.00    -0.052 A 
ATOM     28  C   UNL A   1      31.531  22.927  26.117  1.00  0.00    -0.060 A 
ATOM     29  H   UNL A   1      31.182  22.690  24.041  1.00  0.00     0.065 H 
ATOM     30  C   UNL A   1      32.500  23.035  27.104  1.00  0.00    -0.061 A 
ATOM     31  H   UNL A   1      34.574  22.968  27.510  1.00  0.00     0.063 H 
ATOM     32  H   UNL A   1      30.535  22.888  26.383  1.00  0.00     0.062 H 
ATOM     33  H   UNL A   1      32.218  23.137  28.092  1.00  0.00     0.062 H 
BRANCH  21  34
ATOM     34  S   UNL A   1      33.008  25.094  22.828  1.00  0.00     0.268 S 
ATOM     35  O   UNL A   1      31.769  24.595  22.253  1.00  0.00    -0.201 OA
ATOM     36  O   UNL A   1      34.007  25.758  21.999  1.00  0.00    -0.201 OA
BRANCH  34  37
ATOM     37  C   UNL A   1      32.521  26.414  23.877  1.00  0.00     0.088 A 
ATOM     38  C   UNL A   1      32.044  28.159  26.042  1.00  0.00    -0.051 A 
ATOM     39  C   UNL A   1      33.093  27.255  26.114  1.00  0.00    -0.058 A 
ATOM     40  C   UNL A   1      31.251  28.196  24.871  1.00  0.00    -0.058 A 
ATOM     41  C   UNL A   1      33.328  26.413  25.044  1.00  0.00    -0.041 A 
ATOM     42  H   UNL A   1      33.688  27.211  26.955  1.00  0.00     0.063 H 
ATOM     43  C   UNL A   1      31.480  27.319  23.777  1.00  0.00    -0.041 A 
ATOM     44  H   UNL A   1      30.484  28.883  24.809  1.00  0.00     0.063 H 
ATOM     45  H   UNL A   1      34.123  25.756  25.095  1.00  0.00     0.064 H 
ATOM     46  H   UNL A   1      30.885  27.356  22.934  1.00  0.00     0.064 H 
BRANCH  38  47
ATOM     47  C   UNL A   1      31.784  29.006  27.256  1.00  0.00    -0.040 C 
ATOM     48  H   UNL A   1      32.666  29.044  27.860  1.00  0.00     0.028 H 
ATOM     49  H   UNL A   1      30.982  28.579  27.823  1.00  0.00     0.028 H 
ATOM     50  H   UNL A   1      31.517  29.995  26.951  1.00  0.00     0.028 H 
ENDBRANCH  38  47
ENDBRANCH  34  37
ENDBRANCH  21  34
ENDBRANCH  18  20
ENDBRANCH  15  18
ENDBRANCH  11  14
ENDBRANCH   8  11
ENDBRANCH   5   7
BRANCH   5  51
ATOM     51  C   UNL A   1      41.150  24.436  26.523  1.00  0.00     0.004 C 
ATOM     52  H   UNL A   1      40.296  23.847  26.784  1.00  0.00     0.034 H 
ATOM     53  H   UNL A   1      41.205  24.857  25.540  1.00  0.00     0.034 H 
BRANCH  51  54
ATOM     54  C   UNL A   1      41.101  25.668  27.397  1.00  0.00    -0.020 A 
ATOM     55  C   UNL A   1      40.702  25.812  28.711  1.00  0.00     0.005 A 
ATOM     56  C   UNL A   1      41.504  26.994  26.982  1.00  0.00     0.003 A 
ATOM     57  N   UNL A   1      41.068  27.052  29.159  1.00  0.00    -0.361 N 
ATOM     58  H   UNL A   1      40.206  25.098  29.267  1.00  0.00     0.082 H 
ATOM     59  C   UNL A   1      41.549  27.800  28.120  1.00  0.00     0.046 A 
ATOM     60  C   UNL A   1      41.858  27.582  25.749  1.00  0.00    -0.053 A 
ATOM     61  H   UNL A   1      40.996  27.359  30.091  1.00  0.00     0.166 HD
ATOM     62  C   UNL A   1      41.997  29.124  28.114  1.00  0.00    -0.038 A 
ATOM     63  C   UNL A   1      42.244  28.931  25.711  1.00  0.00    -0.062 A 
ATOM     64  H   UNL A   1      41.835  27.024  24.881  1.00  0.00     0.063 H 
ATOM     65  C   UNL A   1      42.335  29.681  26.880  1.00  0.00    -0.060 A 
ATOM     66  H   UNL A   1      42.076  29.669  28.986  1.00  0.00     0.064 H 
ATOM     67  H   UNL A   1      42.462  29.373  24.805  1.00  0.00     0.062 H 
ATOM     68  H   UNL A   1      42.657  30.661  26.835  1.00  0.00     0.062 H 
ENDBRANCH  51  54
ENDBRANCH   5  51
ENDBRANCH   1   5
BRANCH   3  69
ATOM     69  C   UNL A   1      44.505  25.446  25.144  1.00  0.00     0.017 C 
ATOM     70  H   UNL A   1      43.700  26.117  25.364  1.00  0.00     0.049 H 
ATOM     71  H   UNL A   1      45.142  25.841  24.382  1.00  0.00     0.049 H 
BRANCH  69  72
ATOM     72  C   UNL A   1      45.345  25.255  26.407  1.00  0.00    -0.036 C 
ATOM     73  H   UNL A   1      46.377  25.288  26.128  1.00  0.00     0.028 H 
ATOM     74  H   UNL A   1      45.047  24.317  26.826  1.00  0.00     0.028 H 
BRANCH  72  75
ATOM     75  C   UNL A   1      45.114  26.306  27.506  1.00  0.00    -0.052 C 
ATOM     76  H   UNL A   1      44.097  26.224  27.828  1.00  0.00     0.027 H 
ATOM     77  H   UNL A   1      45.357  27.247  27.061  1.00  0.00     0.027 H 
BRANCH  75  78
ATOM     78  C   UNL A   1      46.011  26.189  28.746  1.00  0.00    -0.052 C 
ATOM     79  H   UNL A   1      45.547  25.505  29.424  1.00  0.00     0.027 H 
ATOM     80  H   UNL A   1      46.106  27.182  29.132  1.00  0.00     0.027 H 
BRANCH  78  81
ATOM     81  C   UNL A   1      47.435  25.702  28.486  1.00  0.00    -0.036 C 
ATOM     82  H   UNL A   1      47.485  25.331  27.483  1.00  0.00     0.028 H 
ATOM     83  H   UNL A   1      47.642  24.949  29.216  1.00  0.00     0.028 H 
BRANCH  81  84
ATOM     84  C   UNL A   1      48.502  26.777  28.649  1.00  0.00     0.018 C 
ATOM     85  H   UNL A   1      49.324  26.358  29.190  1.00  0.00     0.049 H 
ATOM     86  H   UNL A   1      48.044  27.594  29.169  1.00  0.00     0.049 H 
BRANCH  84  87
ATOM     87  N   UNL A   1      49.000  27.302  27.393  1.00  0.00    -0.352 N 
ATOM     88  C   UNL A   1      48.580  28.390  26.645  1.00  0.00     0.251 C 
ATOM     89  H   UNL A   1      49.758  26.805  27.009  1.00  0.00     0.163 HD
ATOM     90  O   UNL A   1      48.975  28.514  25.506  1.00  0.00    -0.269 OA
BRANCH  88  91
ATOM     91  C   UNL A   1      47.803  29.490  27.285  1.00  0.00     0.039 A 
ATOM     92  C   UNL A   1      48.427  30.157  28.353  1.00  0.00    -0.049 A 
ATOM     93  C   UNL A   1      46.458  29.724  27.022  1.00  0.00    -0.049 A 
ATOM     94  C   UNL A   1      47.654  30.839  29.290  1.00  0.00    -0.053 A 
ATOM     95  H   UNL A   1      49.455  30.142  28.442  1.00  0.00     0.063 H 
ATOM     96  C   UNL A   1      45.677  30.319  27.990  1.00  0.00    -0.053 A 
ATOM     97  H   UNL A   1      46.049  29.455  26.114  1.00  0.00     0.063 H 
ATOM     98  C   UNL A   1      46.270  30.810  29.155  1.00  0.00    -0.014 A 
ATOM     99  H   UNL A   1      48.099  31.353  30.067  1.00  0.00     0.063 H 
ATOM    100  H   UNL A   1      44.657  30.402  27.853  1.00  0.00     0.063 H 
BRANCH  98 101
ATOM    101  C   UNL A   1      45.349  31.164  30.220  1.00  0.00     0.031 A 
ATOM    102  C   UNL A   1      44.689  30.113  31.014  1.00  0.00     0.074 A 
ATOM    103  C   UNL A   1      45.213  32.468  30.549  1.00  0.00     0.049 A 
ATOM    104  N   UNL A   1      43.598  30.296  31.675  1.00  0.00    -0.248 NA
ATOM    105  C   UNL A   1      45.197  28.747  31.103  1.00  0.00    -0.034 C 
ATOM    106  C   UNL A   1      44.601  33.023  31.751  1.00  0.00    -0.036 A 
ATOM    107  N   UNL A   1      45.469  33.586  29.737  1.00  0.00    -0.354 N 
ATOM    108  C   UNL A   1      43.400  29.189  32.465  1.00  0.00     0.074 A 
ATOM    109  C   UNL A   1      44.391  28.229  32.036  1.00  0.00    -0.034 C 
ATOM    110  H   UNL A   1      45.970  28.302  30.586  1.00  0.00     0.065 H 
ATOM    111  C   UNL A   1      44.260  34.300  31.513  1.00  0.00    -0.036 A 
ATOM    112  H   UNL A   1      44.455  32.518  32.639  1.00  0.00     0.065 H 
ATOM    113  C   UNL A   1      44.504  34.552  30.103  1.00  0.00     0.049 A 
ATOM    114  H   UNL A   1      46.173  33.677  29.055  1.00  0.00     0.167 HD
ATOM    115  C   UNL A   1      42.501  29.250  33.486  1.00  0.00     0.037 A 
ATOM    116  H   UNL A   1      44.466  27.267  32.403  1.00  0.00     0.065 H 
ATOM    117  H   UNL A   1      43.894  34.976  32.201  1.00  0.00     0.065 H 
ATOM    118  C   UNL A   1      43.558  34.974  29.215  1.00  0.00     0.037 A 
ATOM    119  C   UNL A   1      41.837  30.545  33.534  1.00  0.00     0.049 A 
ATOM    120  C   UNL A   1      42.142  34.698  29.663  1.00  0.00     0.074 A 
ATOM    121  C   UNL A   1      42.107  31.702  34.246  1.00  0.00    -0.036 A 
ATOM    122  N   UNL A   1      40.964  30.903  32.513  1.00  0.00    -0.354 N 
ATOM    123  N   UNL A   1      41.825  33.795  30.548  1.00  0.00    -0.248 NA
ATOM    124  C   UNL A   1      40.973  35.398  29.134  1.00  0.00    -0.034 C 
ATOM    125  C   UNL A   1      41.437  32.775  33.610  1.00  0.00    -0.036 A 
ATOM    126  H   UNL A   1      42.693  31.771  35.092  1.00  0.00     0.065 H 
ATOM    127  C   UNL A   1      40.738  32.266  32.530  1.00  0.00     0.049 A 
ATOM    128  H   UNL A   1      40.563  30.275  31.871  1.00  0.00     0.167 HD
ATOM    129  C   UNL A   1      40.465  33.769  30.707  1.00  0.00     0.074 A 
ATOM    130  C   UNL A   1      39.977  34.799  29.811  1.00  0.00    -0.034 C 
ATOM    131  H   UNL A   1      40.926  36.151  28.431  1.00  0.00     0.065 H 
ATOM    132  H   UNL A   1      41.464  33.765  33.902  1.00  0.00     0.065 H 
ATOM    133  C   UNL A   1      39.858  32.893  31.560  1.00  0.00     0.037 A 
ATOM    134  H   UNL A   1      38.980  35.044  29.704  1.00  0.00     0.065 H 
BRANCH 115 135
ATOM    135  C   UNL A   1      42.452  28.229  34.587  1.00  0.00     0.064 A 
ATOM    136  C   UNL A   1      43.380  28.260  35.651  1.00  0.00     0.173 A 
ATOM    137  C   UNL A   1      41.532  27.167  34.620  1.00  0.00     0.173 A 
ATOM    138  F   UNL A   1      44.277  29.247  35.768  1.00  0.00    -0.203 F 
ATOM    139  C   UNL A   1      43.433  27.259  36.622  1.00  0.00     0.198 A 
ATOM    140  C   UNL A   1      41.618  26.138  35.563  1.00  0.00     0.198 A 
ATOM    141  F   UNL A   1      40.516  27.111  33.747  1.00  0.00    -0.203 F 
ATOM    142  F   UNL A   1      44.340  27.336  37.606  1.00  0.00    -0.200 F 
ATOM    143  C   UNL A   1      42.574  26.181  36.561  1.00  0.00     0.200 A 
ATOM    144  F   UNL A   1      40.775  25.098  35.493  1.00  0.00    -0.200 F 
ATOM    145  F   UNL A   1      42.658  25.196  37.465  1.00  0.00    -0.200 F 
ENDBRANCH 115 135
BRANCH 118 146
ATOM    146  C   UNL A   1      44.033  34.943  27.805  1.00  0.00     0.064 A 
ATOM    147  C   UNL A   1      44.751  36.058  27.327  1.00  0.00     0.173 A 
ATOM    148  C   UNL A   1      44.158  33.742  27.099  1.00  0.00     0.173 A 
ATOM    149  F   UNL A   1      44.668  37.234  27.970  1.00  0.00    -0.203 F 
ATOM    150  C   UNL A   1      45.652  35.940  26.271  1.00  0.00     0.198 A 
ATOM    151  C   UNL A   1      45.053  33.632  26.031  1.00  0.00     0.198 A 
ATOM    152  F   UNL A   1      43.511  32.643  27.512  1.00  0.00    -0.203 F 
ATOM    153  F   UNL A   1      46.412  36.989  25.923  1.00  0.00    -0.200 F 
ATOM    154  C   UNL A   1      45.825  34.718  25.645  1.00  0.00     0.200 A 
ATOM    155  F   UNL A   1      45.237  32.444  25.437  1.00  0.00    -0.200 F 
ATOM    156  F   UNL A   1      46.761  34.578  24.696  1.00  0.00    -0.200 F 
ENDBRANCH 118 146
BRANCH 133 157
ATOM    157  C   UNL A   1      38.379  32.607  31.638  1.00  0.00     0.064 A 
ATOM    158  C   UNL A   1      37.564  32.991  32.714  1.00  0.00     0.173 A 
ATOM    159  C   UNL A   1      37.697  32.061  30.521  1.00  0.00     0.173 A 
ATOM    160  F   UNL A   1      38.072  33.623  33.780  1.00  0.00    -0.203 F 
ATOM    161  C   UNL A   1      36.180  32.793  32.701  1.00  0.00     0.198 A 
ATOM    162  C   UNL A   1      36.311  31.920  30.488  1.00  0.00     0.198 A 
ATOM    163  F   UNL A   1      38.353  31.675  29.417  1.00  0.00    -0.203 F 
ATOM    164  F   UNL A   1      35.451  33.141  33.770  1.00  0.00    -0.200 F 
ATOM    165  C   UNL A   1      35.553  32.271  31.585  1.00  0.00     0.200 A 
ATOM    166  F   UNL A   1      35.714  31.464  29.377  1.00  0.00    -0.200 F 
ATOM    167  F   UNL A   1      34.222  32.129  31.558  1.00  0.00    -0.200 F 
ENDBRANCH 133 157
ENDBRANCH  98 101
ENDBRANCH  88  91
ENDBRANCH  84  87
ENDBRANCH  81  84
ENDBRANCH  78  81
ENDBRANCH  75  78
ENDBRANCH  72  75
ENDBRANCH  69  72
ENDBRANCH   3  69
TORSDOF 23
ENDMDL
MODEL 4
REMARK VINA RESULT:     -11.4      2.960     10.185
REMARK SMILES Cc1ccc(S(=O)(=O)n2cc(C(=O)C(=O)NCC(=O)N[C@H](Cc3c[nH]c4ccccc34)C(=O)NCCCCCCNC(=O)c3ccc(-c4c5nc(c(-c6c(F)c(F)c(F)c(F)c6F)c6ccc([nH]6)c(-c6c(F)c(F)c(F)c(F)c6F)c6nc(c(-c7c(F)c(F)c(F)c(F)c7F)c7ccc4[nH]7)C=C6)C=C5)cc3)c3ccccc32)cc1
REMARK SMILES IDX 32 1 33 2 34 3 21 5 20 7 18 8 19 9 17 11 16 14 14 15 15 16
REMARK SMILES IDX 12 18 13 19 11 20 9 21 10 22 112 23 107 25 111 26 108 27
REMARK SMILES IDX 110 28 109 30 6 34 7 35 8 36 5 37 2 38 3 39 114 40 4 41
REMARK SMILES IDX 113 43 1 47 22 51 23 54 24 55 31 56 25 57 26 59 30 60 27 62
REMARK SMILES IDX 29 63 28 65 35 69 36 72 37 75 38 78 39 81 40 84 41 87 42 88
REMARK SMILES IDX 43 90 44 91 45 92 106 93 46 94 105 96 47 98 48 101 49 102
REMARK SMILES IDX 99 103 50 104 104 105 98 106 100 107 51 108 103 109 97 111
REMARK SMILES IDX 96 113 52 115 84 118 64 119 83 120 65 121 68 122 82 123
REMARK SMILES IDX 101 124 66 125 67 127 81 129 102 130 69 133 53 135 54 136
REMARK SMILES IDX 62 137 55 138 56 139 60 140 63 141 57 142 58 143 61 144
REMARK SMILES IDX 59 145 85 146 86 147 94 148 87 149 88 150 92 151 95 152
REMARK SMILES IDX 89 153 90 154 93 155 91 156 70 157 71 158 79 159 72 160
REMARK SMILES IDX 73 161 77 162 80 163 74 164 75 165 78 166 76 167
REMARK H PARENT 34 4 21 6 20 10 17 12 17 13 16 17 10 24 111 29 108 31 110 32
REMARK H PARENT 109 33 3 42 114 44 4 45 113 46 1 48 1 49 1 50 22 52 22 53
REMARK H PARENT 24 58 25 61 30 64 27 66 29 67 28 68 35 70 35 71 36 73 36 74
REMARK H PARENT 37 76 37 77 38 79 38 80 39 82 39 83 40 85 40 86 41 89 45 95
REMARK H PARENT 106 97 46 99 105 100 104 110 98 112 100 114 103 116 97 117
REMARK H PARENT 65 126 68 128 101 131 66 132 102 134
REMARK Flexibility Score: inf
ROOT
ATOM      1  C   UNL A   1      41.973  21.981  27.831  1.00  0.00     0.242 C 
ATOM      2  O   UNL A   1      42.118  22.387  28.991  1.00  0.00    -0.273 OA
ATOM      3  N   UNL A   1      42.921  21.115  27.391  1.00  0.00    -0.354 N 
ATOM      4  H   UNL A   1      43.493  20.759  28.108  1.00  0.00     0.163 HD
ENDROOT
BRANCH   1   5
ATOM      5  C   UNL A   1      40.792  22.483  26.986  1.00  0.00     0.112 C 
ATOM      6  H   UNL A   1      40.049  22.817  27.681  1.00  0.00     0.064 H 
BRANCH   5   7
ATOM      7  N   UNL A   1      40.329  21.351  26.167  1.00  0.00    -0.342 N 
ATOM      8  C   UNL A   1      39.060  21.015  25.798  1.00  0.00     0.240 C 
ATOM      9  O   UNL A   1      38.921  19.927  25.230  1.00  0.00    -0.273 OA
ATOM     10  H   UNL A   1      41.038  20.752  25.837  1.00  0.00     0.164 HD
BRANCH   8  11
ATOM     11  C   UNL A   1      37.886  22.014  25.893  1.00  0.00     0.097 C 
ATOM     12  H   UNL A   1      38.089  22.664  26.718  1.00  0.00     0.059 H 
ATOM     13  H   UNL A   1      37.852  22.476  24.929  1.00  0.00     0.059 H 
BRANCH  11  14
ATOM     14  N   UNL A   1      36.538  21.482  26.085  1.00  0.00    -0.340 N 
ATOM     15  C   UNL A   1      35.409  21.675  25.302  1.00  0.00     0.292 C 
ATOM     16  O   UNL A   1      34.352  21.097  25.525  1.00  0.00    -0.265 OA
ATOM     17  H   UNL A   1      36.415  20.909  26.876  1.00  0.00     0.164 HD
BRANCH  15  18
ATOM     18  C   UNL A   1      35.498  22.612  24.102  1.00  0.00     0.252 C 
ATOM     19  O   UNL A   1      36.622  22.774  23.629  1.00  0.00    -0.283 OA
BRANCH  18  20
ATOM     20  C   UNL A   1      34.347  23.418  23.669  1.00  0.00     0.054 A 
ATOM     21  N   UNL A   1      32.763  24.574  22.538  1.00  0.00    -0.240 N 
ATOM     22  C   UNL A   1      33.929  23.820  22.394  1.00  0.00     0.033 A 
ATOM     23  C   UNL A   1      32.334  24.432  23.871  1.00  0.00     0.065 A 
ATOM     24  H   UNL A   1      34.400  23.597  21.503  1.00  0.00     0.084 H 
ATOM     25  C   UNL A   1      33.460  24.047  24.592  1.00  0.00     0.012 A 
ATOM     26  C   UNL A   1      31.173  24.900  24.518  1.00  0.00    -0.037 A 
ATOM     27  C   UNL A   1      33.497  24.305  25.979  1.00  0.00    -0.052 A 
ATOM     28  C   UNL A   1      31.265  25.224  25.871  1.00  0.00    -0.060 A 
ATOM     29  H   UNL A   1      30.283  24.999  24.007  1.00  0.00     0.065 H 
ATOM     30  C   UNL A   1      32.426  24.967  26.585  1.00  0.00    -0.061 A 
ATOM     31  H   UNL A   1      34.309  24.007  26.542  1.00  0.00     0.063 H 
ATOM     32  H   UNL A   1      30.460  25.661  26.346  1.00  0.00     0.062 H 
ATOM     33  H   UNL A   1      32.500  25.266  27.570  1.00  0.00     0.062 H 
BRANCH  21  34
ATOM     34  S   UNL A   1      32.519  26.214  21.978  1.00  0.00     0.268 S 
ATOM     35  O   UNL A   1      31.447  26.066  21.007  1.00  0.00    -0.201 OA
ATOM     36  O   UNL A   1      33.863  26.597  21.563  1.00  0.00    -0.201 OA
BRANCH  34  37
ATOM     37  C   UNL A   1      32.064  27.605  22.946  1.00  0.00     0.088 A 
ATOM     38  C   UNL A   1      31.843  29.630  24.899  1.00  0.00    -0.051 A 
ATOM     39  C   UNL A   1      33.048  28.961  24.744  1.00  0.00    -0.058 A 
ATOM     40  C   UNL A   1      30.759  29.292  24.056  1.00  0.00    -0.058 A 
ATOM     41  C   UNL A   1      33.152  27.980  23.776  1.00  0.00    -0.041 A 
ATOM     42  H   UNL A   1      33.855  29.192  25.343  1.00  0.00     0.063 H 
ATOM     43  C   UNL A   1      30.858  28.271  23.073  1.00  0.00    -0.041 A 
ATOM     44  H   UNL A   1      29.869  29.803  24.158  1.00  0.00     0.063 H 
ATOM     45  H   UNL A   1      34.057  27.500  23.652  1.00  0.00     0.064 H 
ATOM     46  H   UNL A   1      30.053  28.033  22.472  1.00  0.00     0.064 H 
BRANCH  38  47
ATOM     47  C   UNL A   1      31.757  30.639  26.010  1.00  0.00    -0.040 C 
ATOM     48  H   UNL A   1      32.187  30.227  26.899  1.00  0.00     0.028 H 
ATOM     49  H   UNL A   1      30.730  30.884  26.190  1.00  0.00     0.028 H 
ATOM     50  H   UNL A   1      32.291  31.522  25.731  1.00  0.00     0.028 H 
ENDBRANCH  38  47
ENDBRANCH  34  37
ENDBRANCH  21  34
ENDBRANCH  18  20
ENDBRANCH  15  18
ENDBRANCH  11  14
ENDBRANCH   8  11
ENDBRANCH   5   7
BRANCH   5  51
ATOM     51  C   UNL A   1      40.991  23.773  26.154  1.00  0.00     0.004 C 
ATOM     52  H   UNL A   1      40.569  23.577  25.190  1.00  0.00     0.034 H 
ATOM     53  H   UNL A   1      42.046  23.934  26.232  1.00  0.00     0.034 H 
BRANCH  51  54
ATOM     54  C   UNL A   1      40.428  25.101  26.602  1.00  0.00    -0.020 A 
ATOM     55  C   UNL A   1      39.364  25.383  27.435  1.00  0.00     0.005 A 
ATOM     56  C   UNL A   1      40.953  26.394  26.219  1.00  0.00     0.003 A 
ATOM     57  N   UNL A   1      39.382  26.712  27.756  1.00  0.00    -0.361 N 
ATOM     58  H   UNL A   1      38.664  24.698  27.764  1.00  0.00     0.082 H 
ATOM     59  C   UNL A   1      40.335  27.358  27.018  1.00  0.00     0.046 A 
ATOM     60  C   UNL A   1      41.914  26.837  25.285  1.00  0.00    -0.053 A 
ATOM     61  H   UNL A   1      38.796  27.141  28.421  1.00  0.00     0.166 HD
ATOM     62  C   UNL A   1      40.672  28.714  26.995  1.00  0.00    -0.038 A 
ATOM     63  C   UNL A   1      42.215  28.205  25.197  1.00  0.00    -0.062 A 
ATOM     64  H   UNL A   1      42.392  26.159  24.670  1.00  0.00     0.063 H 
ATOM     65  C   UNL A   1      41.620  29.124  26.057  1.00  0.00    -0.060 A 
ATOM     66  H   UNL A   1      40.237  29.386  27.645  1.00  0.00     0.064 H 
ATOM     67  H   UNL A   1      42.885  28.534  24.486  1.00  0.00     0.062 H 
ATOM     68  H   UNL A   1      41.883  30.121  26.001  1.00  0.00     0.062 H 
ENDBRANCH  51  54
ENDBRANCH   5  51
ENDBRANCH   1   5
BRANCH   3  69
ATOM     69  C   UNL A   1      43.256  20.610  26.075  1.00  0.00     0.017 C 
ATOM     70  H   UNL A   1      42.366  20.240  25.610  1.00  0.00     0.049 H 
ATOM     71  H   UNL A   1      43.983  19.835  26.194  1.00  0.00     0.049 H 
BRANCH  69  72
ATOM     72  C   UNL A   1      43.864  21.692  25.182  1.00  0.00    -0.036 C 
ATOM     73  H   UNL A   1      43.673  22.642  25.634  1.00  0.00     0.028 H 
ATOM     74  H   UNL A   1      43.409  21.578  24.221  1.00  0.00     0.028 H 
BRANCH  72  75
ATOM     75  C   UNL A   1      45.380  21.569  24.954  1.00  0.00    -0.052 C 
ATOM     76  H   UNL A   1      45.531  21.117  23.997  1.00  0.00     0.027 H 
ATOM     77  H   UNL A   1      45.750  20.991  25.774  1.00  0.00     0.027 H 
BRANCH  75  78
ATOM     78  C   UNL A   1      46.172  22.884  24.983  1.00  0.00    -0.052 C 
ATOM     79  H   UNL A   1      46.846  22.880  24.152  1.00  0.00     0.027 H 
ATOM     80  H   UNL A   1      46.660  22.910  25.935  1.00  0.00     0.027 H 
BRANCH  78  81
ATOM     81  C   UNL A   1      45.335  24.160  24.906  1.00  0.00    -0.036 C 
ATOM     82  H   UNL A   1      44.307  23.880  24.803  1.00  0.00     0.028 H 
ATOM     83  H   UNL A   1      45.698  24.716  24.068  1.00  0.00     0.028 H 
BRANCH  81  84
ATOM     84  C   UNL A   1      45.464  25.065  26.124  1.00  0.00     0.018 C 
ATOM     85  H   UNL A   1      44.748  25.855  26.035  1.00  0.00     0.049 H 
ATOM     86  H   UNL A   1      46.472  25.426  26.138  1.00  0.00     0.049 H 
BRANCH  84  87
ATOM     87  N   UNL A   1      45.241  24.384  27.384  1.00  0.00    -0.352 N 
ATOM     88  C   UNL A   1      44.787  24.870  28.599  1.00  0.00     0.251 C 
ATOM     89  H   UNL A   1      45.445  23.420  27.375  1.00  0.00     0.163 HD
ATOM     90  O   UNL A   1      44.900  24.184  29.592  1.00  0.00    -0.269 OA
BRANCH  88  91
ATOM     91  C   UNL A   1      44.005  26.139  28.659  1.00  0.00     0.039 A 
ATOM     92  C   UNL A   1      44.516  27.223  27.927  1.00  0.00    -0.049 A 
ATOM     93  C   UNL A   1      42.955  26.343  29.548  1.00  0.00    -0.049 A 
ATOM     94  C   UNL A   1      44.157  28.524  28.275  1.00  0.00    -0.053 A 
ATOM     95  H   UNL A   1      45.156  27.058  27.134  1.00  0.00     0.063 H 
ATOM     96  C   UNL A   1      42.663  27.627  29.957  1.00  0.00    -0.053 A 
ATOM     97  H   UNL A   1      42.403  25.545  29.897  1.00  0.00     0.063 H 
ATOM     98  C   UNL A   1      43.319  28.710  29.369  1.00  0.00    -0.014 A 
ATOM     99  H   UNL A   1      44.505  29.330  27.733  1.00  0.00     0.063 H 
ATOM    100  H   UNL A   1      41.959  27.786  30.696  1.00  0.00     0.063 H 
BRANCH  98 101
ATOM    101  C   UNL A   1      43.149  29.982  30.047  1.00  0.00     0.031 A 
ATOM    102  C   UNL A   1      41.817  30.604  30.143  1.00  0.00     0.074 A 
ATOM    103  C   UNL A   1      44.209  30.512  30.697  1.00  0.00     0.049 A 
ATOM    104  N   UNL A   1      41.629  31.862  30.352  1.00  0.00    -0.248 NA
ATOM    105  C   UNL A   1      40.576  29.853  29.979  1.00  0.00    -0.034 C 
ATOM    106  C   UNL A   1      44.201  31.592  31.679  1.00  0.00    -0.036 A 
ATOM    107  N   UNL A   1      45.571  30.271  30.452  1.00  0.00    -0.354 N 
ATOM    108  C   UNL A   1      40.291  32.046  30.605  1.00  0.00     0.074 A 
ATOM    109  C   UNL A   1      39.666  30.777  30.309  1.00  0.00    -0.034 C 
ATOM    110  H   UNL A   1      40.438  28.874  29.688  1.00  0.00     0.065 H 
ATOM    111  C   UNL A   1      45.434  32.121  31.750  1.00  0.00    -0.036 A 
ATOM    112  H   UNL A   1      43.384  31.899  32.228  1.00  0.00     0.065 H 
ATOM    113  C   UNL A   1      46.228  31.497  30.706  1.00  0.00     0.049 A 
ATOM    114  H   UNL A   1      45.983  29.425  30.164  1.00  0.00     0.167 HD
ATOM    115  C   UNL A   1      39.871  33.216  31.159  1.00  0.00     0.037 A 
ATOM    116  H   UNL A   1      38.649  30.606  30.346  1.00  0.00     0.065 H 
ATOM    117  H   UNL A   1      45.757  32.835  32.420  1.00  0.00     0.065 H 
ATOM    118  C   UNL A   1      46.866  32.174  29.707  1.00  0.00     0.037 A 
ATOM    119  C   UNL A   1      40.981  34.139  31.360  1.00  0.00     0.049 A 
ATOM    120  C   UNL A   1      46.307  33.555  29.459  1.00  0.00     0.074 A 
ATOM    121  C   UNL A   1      41.797  34.387  32.450  1.00  0.00    -0.036 A 
ATOM    122  N   UNL A   1      41.617  34.691  30.254  1.00  0.00    -0.354 N 
ATOM    123  N   UNL A   1      45.109  33.926  29.813  1.00  0.00    -0.248 NA
ATOM    124  C   UNL A   1      47.042  34.616  28.775  1.00  0.00    -0.034 C 
ATOM    125  C   UNL A   1      42.963  35.043  31.986  1.00  0.00    -0.036 A 
ATOM    126  H   UNL A   1      41.592  34.140  33.430  1.00  0.00     0.065 H 
ATOM    127  C   UNL A   1      42.842  35.216  30.618  1.00  0.00     0.049 A 
ATOM    128  H   UNL A   1      41.248  34.705  29.342  1.00  0.00     0.167 HD
ATOM    129  C   UNL A   1      44.895  35.220  29.417  1.00  0.00     0.074 A 
ATOM    130  C   UNL A   1      46.139  35.613  28.783  1.00  0.00    -0.034 C 
ATOM    131  H   UNL A   1      47.999  34.605  28.389  1.00  0.00     0.065 H 
ATOM    132  H   UNL A   1      43.763  35.339  32.566  1.00  0.00     0.065 H 
ATOM    133  C   UNL A   1      43.706  35.853  29.639  1.00  0.00     0.037 A 
ATOM    134  H   UNL A   1      46.310  36.549  28.384  1.00  0.00     0.065 H 
BRANCH 115 135
ATOM    135  C   UNL A   1      38.506  33.384  31.766  1.00  0.00     0.064 A 
ATOM    136  C   UNL A   1      38.260  33.037  33.112  1.00  0.00     0.173 A 
ATOM    137  C   UNL A   1      37.390  33.846  31.049  1.00  0.00     0.173 A 
ATOM    138  F   UNL A   1      39.247  32.633  33.922  1.00  0.00    -0.203 F 
ATOM    139  C   UNL A   1      36.981  33.070  33.668  1.00  0.00     0.198 A 
ATOM    140  C   UNL A   1      36.101  33.831  31.589  1.00  0.00     0.198 A 
ATOM    141  F   UNL A   1      37.526  34.339  29.809  1.00  0.00    -0.203 F 
ATOM    142  F   UNL A   1      36.804  32.724  34.950  1.00  0.00    -0.200 F 
ATOM    143  C   UNL A   1      35.895  33.437  32.898  1.00  0.00     0.200 A 
ATOM    144  F   UNL A   1      35.056  34.192  30.831  1.00  0.00    -0.200 F 
ATOM    145  F   UNL A   1      34.661  33.422  33.418  1.00  0.00    -0.200 F 
ENDBRANCH 115 135
BRANCH 118 146
ATOM    146  C   UNL A   1      47.422  31.273  28.662  1.00  0.00     0.064 A 
ATOM    147  C   UNL A   1      48.456  30.390  29.033  1.00  0.00     0.173 A 
ATOM    148  C   UNL A   1      46.713  30.983  27.490  1.00  0.00     0.173 A 
ATOM    149  F   UNL A   1      49.165  30.622  30.150  1.00  0.00    -0.203 F 
ATOM    150  C   UNL A   1      48.680  29.204  28.338  1.00  0.00     0.198 A 
ATOM    151  C   UNL A   1      46.952  29.798  26.788  1.00  0.00     0.198 A 
ATOM    152  F   UNL A   1      45.710  31.777  27.091  1.00  0.00    -0.203 F 
ATOM    153  F   UNL A   1      49.586  28.326  28.793  1.00  0.00    -0.200 F 
ATOM    154  C   UNL A   1      47.906  28.895  27.234  1.00  0.00     0.200 A 
ATOM    155  F   UNL A   1      46.189  29.488  25.730  1.00  0.00    -0.200 F 
ATOM    156  F   UNL A   1      48.052  27.711  26.622  1.00  0.00    -0.200 F 
ENDBRANCH 118 146
BRANCH 133 157
ATOM    157  C   UNL A   1      43.274  37.169  29.044  1.00  0.00     0.064 A 
ATOM    158  C   UNL A   1      42.482  37.283  27.890  1.00  0.00     0.173 A 
ATOM    159  C   UNL A   1      43.523  38.382  29.735  1.00  0.00     0.173 A 
ATOM    160  F   UNL A   1      42.081  36.200  27.212  1.00  0.00    -0.203 F 
ATOM    161  C   UNL A   1      42.023  38.520  27.429  1.00  0.00     0.198 A 
ATOM    162  C   UNL A   1      43.013  39.605  29.304  1.00  0.00     0.198 A 
ATOM    163  F   UNL A   1      44.245  38.410  30.865  1.00  0.00    -0.203 F 
ATOM    164  F   UNL A   1      41.303  38.579  26.300  1.00  0.00    -0.200 F 
ATOM    165  C   UNL A   1      42.275  39.677  28.142  1.00  0.00     0.200 A 
ATOM    166  F   UNL A   1      43.221  40.708  30.038  1.00  0.00    -0.200 F 
ATOM    167  F   UNL A   1      41.791  40.852  27.722  1.00  0.00    -0.200 F 
ENDBRANCH 133 157
ENDBRANCH  98 101
ENDBRANCH  88  91
ENDBRANCH  84  87
ENDBRANCH  81  84
ENDBRANCH  78  81
ENDBRANCH  75  78
ENDBRANCH  72  75
ENDBRANCH  69  72
ENDBRANCH   3  69
TORSDOF 23
ENDMDL
MODEL 5
REMARK VINA RESULT:     -11.4      2.928     10.076
REMARK SMILES Cc1ccc(S(=O)(=O)n2cc(C(=O)C(=O)NCC(=O)N[C@H](Cc3c[nH]c4ccccc34)C(=O)NCCCCCCNC(=O)c3ccc(-c4c5nc(c(-c6c(F)c(F)c(F)c(F)c6F)c6ccc([nH]6)c(-c6c(F)c(F)c(F)c(F)c6F)c6nc(c(-c7c(F)c(F)c(F)c(F)c7F)c7ccc4[nH]7)C=C6)C=C5)cc3)c3ccccc32)cc1
REMARK SMILES IDX 32 1 33 2 34 3 21 5 20 7 18 8 19 9 17 11 16 14 14 15 15 16
REMARK SMILES IDX 12 18 13 19 11 20 9 21 10 22 112 23 107 25 111 26 108 27
REMARK SMILES IDX 110 28 109 30 6 34 7 35 8 36 5 37 2 38 3 39 114 40 4 41
REMARK SMILES IDX 113 43 1 47 22 51 23 54 24 55 31 56 25 57 26 59 30 60 27 62
REMARK SMILES IDX 29 63 28 65 35 69 36 72 37 75 38 78 39 81 40 84 41 87 42 88
REMARK SMILES IDX 43 90 44 91 45 92 106 93 46 94 105 96 47 98 48 101 49 102
REMARK SMILES IDX 99 103 50 104 104 105 98 106 100 107 51 108 103 109 97 111
REMARK SMILES IDX 96 113 52 115 84 118 64 119 83 120 65 121 68 122 82 123
REMARK SMILES IDX 101 124 66 125 67 127 81 129 102 130 69 133 53 135 54 136
REMARK SMILES IDX 62 137 55 138 56 139 60 140 63 141 57 142 58 143 61 144
REMARK SMILES IDX 59 145 85 146 86 147 94 148 87 149 88 150 92 151 95 152
REMARK SMILES IDX 89 153 90 154 93 155 91 156 70 157 71 158 79 159 72 160
REMARK SMILES IDX 73 161 77 162 80 163 74 164 75 165 78 166 76 167
REMARK H PARENT 34 4 21 6 20 10 17 12 17 13 16 17 10 24 111 29 108 31 110 32
REMARK H PARENT 109 33 3 42 114 44 4 45 113 46 1 48 1 49 1 50 22 52 22 53
REMARK H PARENT 24 58 25 61 30 64 27 66 29 67 28 68 35 70 35 71 36 73 36 74
REMARK H PARENT 37 76 37 77 38 79 38 80 39 82 39 83 40 85 40 86 41 89 45 95
REMARK H PARENT 106 97 46 99 105 100 104 110 98 112 100 114 103 116 97 117
REMARK H PARENT 65 126 68 128 101 131 66 132 102 134
REMARK Flexibility Score: inf
ROOT
ATOM      1  C   UNL A   1      41.410  22.600  27.561  1.00  0.00     0.242 C 
ATOM      2  O   UNL A   1      41.499  22.600  28.795  1.00  0.00    -0.273 OA
ATOM      3  N   UNL A   1      42.502  22.149  26.895  1.00  0.00    -0.354 N 
ATOM      4  H   UNL A   1      43.154  21.688  27.471  1.00  0.00     0.163 HD
ENDROOT
BRANCH   1   5
ATOM      5  C   UNL A   1      40.130  23.118  26.886  1.00  0.00     0.112 C 
ATOM      6  H   UNL A   1      39.436  23.317  27.676  1.00  0.00     0.064 H 
BRANCH   5   7
ATOM      7  N   UNL A   1      39.659  22.060  25.976  1.00  0.00    -0.342 N 
ATOM      8  C   UNL A   1      38.383  21.658  25.707  1.00  0.00     0.240 C 
ATOM      9  O   UNL A   1      38.260  20.642  25.015  1.00  0.00    -0.273 OA
ATOM     10  H   UNL A   1      40.366  21.575  25.492  1.00  0.00     0.164 HD
BRANCH   8  11
ATOM     11  C   UNL A   1      37.157  22.525  26.066  1.00  0.00     0.097 C 
ATOM     12  H   UNL A   1      37.442  23.156  26.882  1.00  0.00     0.059 H 
ATOM     13  H   UNL A   1      36.908  23.024  25.153  1.00  0.00     0.059 H 
BRANCH  11  14
ATOM     14  N   UNL A   1      35.921  21.849  26.456  1.00  0.00    -0.340 N 
ATOM     15  C   UNL A   1      34.670  21.917  25.861  1.00  0.00     0.292 C 
ATOM     16  O   UNL A   1      33.729  21.227  26.236  1.00  0.00    -0.265 OA
ATOM     17  H   UNL A   1      35.986  21.266  27.247  1.00  0.00     0.164 HD
BRANCH  15  18
ATOM     18  C   UNL A   1      34.468  22.858  24.678  1.00  0.00     0.252 C 
ATOM     19  O   UNL A   1      34.756  22.399  23.573  1.00  0.00    -0.283 OA
BRANCH  18  20
ATOM     20  C   UNL A   1      34.141  24.278  24.871  1.00  0.00     0.054 A 
ATOM     21  N   UNL A   1      33.690  26.351  25.662  1.00  0.00    -0.240 N 
ATOM     22  C   UNL A   1      34.010  25.045  26.036  1.00  0.00     0.033 A 
ATOM     23  C   UNL A   1      33.863  26.441  24.268  1.00  0.00     0.065 A 
ATOM     24  H   UNL A   1      34.129  24.703  27.003  1.00  0.00     0.084 H 
ATOM     25  C   UNL A   1      33.781  25.136  23.791  1.00  0.00     0.012 A 
ATOM     26  C   UNL A   1      33.769  27.547  23.400  1.00  0.00    -0.037 A 
ATOM     27  C   UNL A   1      33.415  24.930  22.444  1.00  0.00    -0.052 A 
ATOM     28  C   UNL A   1      33.325  27.320  22.098  1.00  0.00    -0.060 A 
ATOM     29  H   UNL A   1      34.022  28.495  23.718  1.00  0.00     0.065 H 
ATOM     30  C   UNL A   1      33.113  26.029  21.636  1.00  0.00    -0.061 A 
ATOM     31  H   UNL A   1      33.371  23.974  22.058  1.00  0.00     0.063 H 
ATOM     32  H   UNL A   1      33.153  28.121  21.471  1.00  0.00     0.062 H 
ATOM     33  H   UNL A   1      32.728  25.879  20.690  1.00  0.00     0.062 H 
BRANCH  21  34
ATOM     34  S   UNL A   1      32.284  27.256  26.174  1.00  0.00     0.268 S 
ATOM     35  O   UNL A   1      32.844  28.225  27.103  1.00  0.00    -0.201 OA
ATOM     36  O   UNL A   1      31.393  26.199  26.636  1.00  0.00    -0.201 OA
BRANCH  34  37
ATOM     37  C   UNL A   1      31.195  28.184  25.157  1.00  0.00     0.088 A 
ATOM     38  C   UNL A   1      29.384  29.084  23.189  1.00  0.00    -0.051 A 
ATOM     39  C   UNL A   1      29.450  27.730  23.486  1.00  0.00    -0.058 A 
ATOM     40  C   UNL A   1      30.215  29.981  23.898  1.00  0.00    -0.058 A 
ATOM     41  C   UNL A   1      30.330  27.300  24.461  1.00  0.00    -0.041 A 
ATOM     42  H   UNL A   1      28.851  27.055  22.987  1.00  0.00     0.063 H 
ATOM     43  C   UNL A   1      31.133  29.539  24.887  1.00  0.00    -0.041 A 
ATOM     44  H   UNL A   1      30.151  30.990  23.690  1.00  0.00     0.063 H 
ATOM     45  H   UNL A   1      30.359  26.294  24.692  1.00  0.00     0.064 H 
ATOM     46  H   UNL A   1      31.738  30.209  25.389  1.00  0.00     0.064 H 
BRANCH  38  47
ATOM     47  C   UNL A   1      28.464  29.496  22.074  1.00  0.00    -0.040 C 
ATOM     48  H   UNL A   1      27.510  29.763  22.479  1.00  0.00     0.028 H 
ATOM     49  H   UNL A   1      28.346  28.681  21.390  1.00  0.00     0.028 H 
ATOM     50  H   UNL A   1      28.881  30.335  21.559  1.00  0.00     0.028 H 
ENDBRANCH  38  47
ENDBRANCH  34  37
ENDBRANCH  21  34
ENDBRANCH  18  20
ENDBRANCH  15  18
ENDBRANCH  11  14
ENDBRANCH   8  11
ENDBRANCH   5   7
BRANCH   5  51
ATOM     51  C   UNL A   1      40.179  24.505  26.203  1.00  0.00     0.004 C 
ATOM     52  H   UNL A   1      39.421  24.497  25.448  1.00  0.00     0.034 H 
ATOM     53  H   UNL A   1      41.204  24.576  25.904  1.00  0.00     0.034 H 
BRANCH  51  54
ATOM     54  C   UNL A   1      39.983  25.783  26.987  1.00  0.00    -0.020 A 
ATOM     55  C   UNL A   1      39.120  26.067  28.025  1.00  0.00     0.005 A 
ATOM     56  C   UNL A   1      40.730  27.005  26.777  1.00  0.00     0.003 A 
ATOM     57  N   UNL A   1      39.471  27.263  28.588  1.00  0.00    -0.361 N 
ATOM     58  H   UNL A   1      38.333  25.472  28.329  1.00  0.00     0.082 H 
ATOM     59  C   UNL A   1      40.444  27.865  27.838  1.00  0.00     0.046 A 
ATOM     60  C   UNL A   1      41.640  27.454  25.797  1.00  0.00    -0.053 A 
ATOM     61  H   UNL A   1      39.082  27.636  29.412  1.00  0.00     0.166 HD
ATOM     62  C   UNL A   1      41.066  29.103  28.020  1.00  0.00    -0.038 A 
ATOM     63  C   UNL A   1      42.223  28.725  25.924  1.00  0.00    -0.062 A 
ATOM     64  H   UNL A   1      41.877  26.853  24.992  1.00  0.00     0.063 H 
ATOM     65  C   UNL A   1      41.958  29.524  27.033  1.00  0.00    -0.060 A 
ATOM     66  H   UNL A   1      40.875  29.683  28.851  1.00  0.00     0.064 H 
ATOM     67  H   UNL A   1      42.856  29.071  25.187  1.00  0.00     0.062 H 
ATOM     68  H   UNL A   1      42.425  30.440  27.126  1.00  0.00     0.062 H 
ENDBRANCH  51  54
ENDBRANCH   5  51
ENDBRANCH   1   5
BRANCH   3  69
ATOM     69  C   UNL A   1      42.900  22.209  25.503  1.00  0.00     0.017 C 
ATOM     70  H   UNL A   1      42.033  22.077  24.890  1.00  0.00     0.049 H 
ATOM     71  H   UNL A   1      43.618  21.436  25.331  1.00  0.00     0.049 H 
BRANCH  69  72
ATOM     72  C   UNL A   1      43.553  23.545  25.150  1.00  0.00    -0.036 C 
ATOM     73  H   UNL A   1      43.784  24.054  26.062  1.00  0.00     0.028 H 
ATOM     74  H   UNL A   1      42.851  24.069  24.536  1.00  0.00     0.028 H 
BRANCH  72  75
ATOM     75  C   UNL A   1      44.846  23.438  24.324  1.00  0.00    -0.052 C 
ATOM     76  H   UNL A   1      44.681  23.940  23.394  1.00  0.00     0.027 H 
ATOM     77  H   UNL A   1      45.041  22.391  24.227  1.00  0.00     0.027 H 
BRANCH  75  78
ATOM     78  C   UNL A   1      46.104  24.038  24.966  1.00  0.00    -0.052 C 
ATOM     79  H   UNL A   1      46.760  24.346  24.179  1.00  0.00     0.027 H 
ATOM     80  H   UNL A   1      46.509  23.268  25.589  1.00  0.00     0.027 H 
BRANCH  78  81
ATOM     81  C   UNL A   1      45.870  25.238  25.881  1.00  0.00    -0.036 C 
ATOM     82  H   UNL A   1      44.835  25.506  25.823  1.00  0.00     0.028 H 
ATOM     83  H   UNL A   1      46.519  26.017  25.542  1.00  0.00     0.028 H 
BRANCH  81  84
ATOM     84  C   UNL A   1      46.216  24.985  27.343  1.00  0.00     0.018 C 
ATOM     85  H   UNL A   1      45.860  25.810  27.922  1.00  0.00     0.049 H 
ATOM     86  H   UNL A   1      47.280  24.876  27.397  1.00  0.00     0.049 H 
BRANCH  84  87
ATOM     87  N   UNL A   1      45.639  23.767  27.877  1.00  0.00    -0.352 N 
ATOM     88  C   UNL A   1      44.883  23.558  29.020  1.00  0.00     0.251 C 
ATOM     89  H   UNL A   1      45.812  22.958  27.342  1.00  0.00     0.163 HD
ATOM     90  O   UNL A   1      44.702  22.425  29.411  1.00  0.00    -0.269 OA
BRANCH  88  91
ATOM     91  C   UNL A   1      44.148  24.690  29.655  1.00  0.00     0.039 A 
ATOM     92  C   UNL A   1      43.626  25.662  28.786  1.00  0.00    -0.049 A 
ATOM     93  C   UNL A   1      44.151  24.924  31.025  1.00  0.00    -0.049 A 
ATOM     94  C   UNL A   1      43.355  26.943  29.262  1.00  0.00    -0.053 A 
ATOM     95  H   UNL A   1      43.442  25.428  27.797  1.00  0.00     0.063 H 
ATOM     96  C   UNL A   1      43.972  26.210  31.487  1.00  0.00    -0.053 A 
ATOM     97  H   UNL A   1      44.286  24.145  31.688  1.00  0.00     0.063 H 
ATOM     98  C   UNL A   1      43.645  27.231  30.592  1.00  0.00    -0.014 A 
ATOM     99  H   UNL A   1      42.949  27.662  28.642  1.00  0.00     0.063 H 
ATOM    100  H   UNL A   1      44.077  26.418  32.493  1.00  0.00     0.063 H 
BRANCH  98 101
ATOM    101  C   UNL A   1      43.747  28.578  31.121  1.00  0.00     0.031 A 
ATOM    102  C   UNL A   1      42.534  29.331  31.484  1.00  0.00     0.074 A 
ATOM    103  C   UNL A   1      44.976  29.072  31.395  1.00  0.00     0.049 A 
ATOM    104  N   UNL A   1      42.489  30.616  31.572  1.00  0.00    -0.248 NA
ATOM    105  C   UNL A   1      41.251  28.688  31.752  1.00  0.00    -0.034 C 
ATOM    106  C   UNL A   1      45.305  30.247  32.196  1.00  0.00    -0.036 A 
ATOM    107  N   UNL A   1      46.201  28.678  30.832  1.00  0.00    -0.354 N 
ATOM    108  C   UNL A   1      41.286  30.952  32.143  1.00  0.00     0.074 A 
ATOM    109  C   UNL A   1      40.526  29.724  32.188  1.00  0.00    -0.034 C 
ATOM    110  H   UNL A   1      40.977  27.700  31.636  1.00  0.00     0.065 H 
ATOM    111  C   UNL A   1      46.540  30.661  31.870  1.00  0.00    -0.036 A 
ATOM    112  H   UNL A   1      44.689  30.686  32.897  1.00  0.00     0.065 H 
ATOM    113  C   UNL A   1      46.977  29.856  30.743  1.00  0.00     0.049 A 
ATOM    114  H   UNL A   1      46.465  27.770  30.556  1.00  0.00     0.167 HD
ATOM    115  C   UNL A   1      41.108  32.209  32.633  1.00  0.00     0.037 A 
ATOM    116  H   UNL A   1      39.549  29.656  32.515  1.00  0.00     0.065 H 
ATOM    117  H   UNL A   1      47.078  31.409  32.334  1.00  0.00     0.065 H 
ATOM    118  C   UNL A   1      47.359  30.358  29.532  1.00  0.00     0.037 A 
ATOM    119  C   UNL A   1      42.285  33.038  32.413  1.00  0.00     0.049 A 
ATOM    120  C   UNL A   1      46.841  31.752  29.265  1.00  0.00     0.074 A 
ATOM    121  C   UNL A   1      43.382  33.324  33.208  1.00  0.00    -0.036 A 
ATOM    122  N   UNL A   1      42.628  33.406  31.117  1.00  0.00    -0.354 N 
ATOM    123  N   UNL A   1      45.811  32.270  29.873  1.00  0.00    -0.248 NA
ATOM    124  C   UNL A   1      47.426  32.659  28.281  1.00  0.00    -0.034 C 
ATOM    125  C   UNL A   1      44.416  33.812  32.372  1.00  0.00    -0.036 A 
ATOM    126  H   UNL A   1      43.438  33.203  34.231  1.00  0.00     0.065 H 
ATOM    127  C   UNL A   1      43.936  33.849  31.074  1.00  0.00     0.049 A 
ATOM    128  H   UNL A   1      42.025  33.358  30.342  1.00  0.00     0.167 HD
ATOM    129  C   UNL A   1      45.579  33.529  29.384  1.00  0.00     0.074 A 
ATOM    130  C   UNL A   1      46.624  33.732  28.399  1.00  0.00    -0.034 C 
ATOM    131  H   UNL A   1      48.238  32.515  27.661  1.00  0.00     0.065 H 
ATOM    132  H   UNL A   1      45.361  34.092  32.677  1.00  0.00     0.065 H 
ATOM    133  C   UNL A   1      44.538  34.292  29.829  1.00  0.00     0.037 A 
ATOM    134  H   UNL A   1      46.738  34.599  27.852  1.00  0.00     0.065 H 
BRANCH 115 135
ATOM    135  C   UNL A   1      39.974  32.570  33.552  1.00  0.00     0.064 A 
ATOM    136  C   UNL A   1      38.986  33.498  33.160  1.00  0.00     0.173 A 
ATOM    137  C   UNL A   1      39.839  32.058  34.854  1.00  0.00     0.173 A 
ATOM    138  F   UNL A   1      38.968  34.022  31.928  1.00  0.00    -0.203 F 
ATOM    139  C   UNL A   1      37.991  33.940  34.033  1.00  0.00     0.198 A 
ATOM    140  C   UNL A   1      38.873  32.538  35.745  1.00  0.00     0.198 A 
ATOM    141  F   UNL A   1      40.630  31.066  35.288  1.00  0.00    -0.203 F 
ATOM    142  F   UNL A   1      37.081  34.828  33.609  1.00  0.00    -0.200 F 
ATOM    143  C   UNL A   1      37.953  33.484  35.335  1.00  0.00     0.200 A 
ATOM    144  F   UNL A   1      38.847  32.085  37.006  1.00  0.00    -0.200 F 
ATOM    145  F   UNL A   1      37.028  33.946  36.187  1.00  0.00    -0.200 F 
ENDBRANCH 115 135
BRANCH 118 146
ATOM    146  C   UNL A   1      47.551  29.302  28.502  1.00  0.00     0.064 A 
ATOM    147  C   UNL A   1      46.517  29.097  27.566  1.00  0.00     0.173 A 
ATOM    148  C   UNL A   1      48.822  28.815  28.179  1.00  0.00     0.173 A 
ATOM    149  F   UNL A   1      45.279  29.548  27.827  1.00  0.00    -0.203 F 
ATOM    150  C   UNL A   1      46.775  28.551  26.311  1.00  0.00     0.198 A 
ATOM    151  C   UNL A   1      49.073  28.254  26.924  1.00  0.00     0.198 A 
ATOM    152  F   UNL A   1      49.850  28.990  29.021  1.00  0.00    -0.203 F 
ATOM    153  F   UNL A   1      45.794  28.487  25.398  1.00  0.00    -0.200 F 
ATOM    154  C   UNL A   1      48.059  28.158  25.980  1.00  0.00     0.200 A 
ATOM    155  F   UNL A   1      50.321  27.892  26.594  1.00  0.00    -0.200 F 
ATOM    156  F   UNL A   1      48.330  27.724  24.742  1.00  0.00    -0.200 F 
ENDBRANCH 118 146
BRANCH 133 157
ATOM    157  C   UNL A   1      44.042  35.572  29.204  1.00  0.00     0.064 A 
ATOM    158  C   UNL A   1      43.366  35.632  27.976  1.00  0.00     0.173 A 
ATOM    159  C   UNL A   1      44.100  36.789  29.929  1.00  0.00     0.173 A 
ATOM    160  F   UNL A   1      43.143  34.529  27.250  1.00  0.00    -0.203 F 
ATOM    161  C   UNL A   1      42.837  36.828  27.481  1.00  0.00     0.198 A 
ATOM    162  C   UNL A   1      43.520  37.967  29.460  1.00  0.00     0.198 A 
ATOM    163  F   UNL A   1      44.697  36.865  31.127  1.00  0.00    -0.203 F 
ATOM    164  F   UNL A   1      42.234  36.840  26.284  1.00  0.00    -0.200 F 
ATOM    165  C   UNL A   1      42.901  37.990  28.228  1.00  0.00     0.200 A 
ATOM    166  F   UNL A   1      43.544  39.070  30.221  1.00  0.00    -0.200 F 
ATOM    167  F   UNL A   1      42.350  39.121  27.771  1.00  0.00    -0.200 F 
ENDBRANCH 133 157
ENDBRANCH  98 101
ENDBRANCH  88  91
ENDBRANCH  84  87
ENDBRANCH  81  84
ENDBRANCH  78  81
ENDBRANCH  75  78
ENDBRANCH  72  75
ENDBRANCH  69  72
ENDBRANCH   3  69
TORSDOF 23
ENDMDL
MODEL 6
REMARK VINA RESULT:     -11.3      3.423      7.646
REMARK SMILES Cc1ccc(S(=O)(=O)n2cc(C(=O)C(=O)NCC(=O)N[C@H](Cc3c[nH]c4ccccc34)C(=O)NCCCCCCNC(=O)c3ccc(-c4c5nc(c(-c6c(F)c(F)c(F)c(F)c6F)c6ccc([nH]6)c(-c6c(F)c(F)c(F)c(F)c6F)c6nc(c(-c7c(F)c(F)c(F)c(F)c7F)c7ccc4[nH]7)C=C6)C=C5)cc3)c3ccccc32)cc1
REMARK SMILES IDX 32 1 33 2 34 3 21 5 20 7 18 8 19 9 17 11 16 14 14 15 15 16
REMARK SMILES IDX 12 18 13 19 11 20 9 21 10 22 112 23 107 25 111 26 108 27
REMARK SMILES IDX 110 28 109 30 6 34 7 35 8 36 5 37 2 38 3 39 114 40 4 41
REMARK SMILES IDX 113 43 1 47 22 51 23 54 24 55 31 56 25 57 26 59 30 60 27 62
REMARK SMILES IDX 29 63 28 65 35 69 36 72 37 75 38 78 39 81 40 84 41 87 42 88
REMARK SMILES IDX 43 90 44 91 45 92 106 93 46 94 105 96 47 98 48 101 49 102
REMARK SMILES IDX 99 103 50 104 104 105 98 106 100 107 51 108 103 109 97 111
REMARK SMILES IDX 96 113 52 115 84 118 64 119 83 120 65 121 68 122 82 123
REMARK SMILES IDX 101 124 66 125 67 127 81 129 102 130 69 133 53 135 54 136
REMARK SMILES IDX 62 137 55 138 56 139 60 140 63 141 57 142 58 143 61 144
REMARK SMILES IDX 59 145 85 146 86 147 94 148 87 149 88 150 92 151 95 152
REMARK SMILES IDX 89 153 90 154 93 155 91 156 70 157 71 158 79 159 72 160
REMARK SMILES IDX 73 161 77 162 80 163 74 164 75 165 78 166 76 167
REMARK H PARENT 34 4 21 6 20 10 17 12 17 13 16 17 10 24 111 29 108 31 110 32
REMARK H PARENT 109 33 3 42 114 44 4 45 113 46 1 48 1 49 1 50 22 52 22 53
REMARK H PARENT 24 58 25 61 30 64 27 66 29 67 28 68 35 70 35 71 36 73 36 74
REMARK H PARENT 37 76 37 77 38 79 38 80 39 82 39 83 40 85 40 86 41 89 45 95
REMARK H PARENT 106 97 46 99 105 100 104 110 98 112 100 114 103 116 97 117
REMARK H PARENT 65 126 68 128 101 131 66 132 102 134
REMARK Flexibility Score: inf
ROOT
ATOM      1  C   UNL A   1      38.174  30.912  29.142  1.00  0.00     0.242 C 
ATOM      2  O   UNL A   1      39.144  30.147  29.106  1.00  0.00    -0.273 OA
ATOM      3  N   UNL A   1      38.472  32.236  29.152  1.00  0.00    -0.354 N 
ATOM      4  H   UNL A   1      39.410  32.431  28.925  1.00  0.00     0.163 HD
ENDROOT
BRANCH   1   5
ATOM      5  C   UNL A   1      36.749  30.340  29.201  1.00  0.00     0.112 C 
ATOM      6  H   UNL A   1      36.746  29.481  28.562  1.00  0.00     0.064 H 
BRANCH   5   7
ATOM      7  N   UNL A   1      35.835  31.395  28.730  1.00  0.00    -0.342 N 
ATOM      8  C   UNL A   1      34.887  31.342  27.751  1.00  0.00     0.240 C 
ATOM      9  O   UNL A   1      34.353  32.411  27.442  1.00  0.00    -0.273 OA
ATOM     10  H   UNL A   1      35.921  32.263  29.188  1.00  0.00     0.164 HD
BRANCH   8  11
ATOM     11  C   UNL A   1      34.355  30.002  27.196  1.00  0.00     0.097 C 
ATOM     12  H   UNL A   1      35.193  29.345  27.094  1.00  0.00     0.059 H 
ATOM     13  H   UNL A   1      33.607  29.701  27.901  1.00  0.00     0.059 H 
BRANCH  11  14
ATOM     14  N   UNL A   1      33.657  30.012  25.913  1.00  0.00    -0.340 N 
ATOM     15  C   UNL A   1      32.640  29.179  25.470  1.00  0.00     0.292 C 
ATOM     16  O   UNL A   1      32.075  29.349  24.397  1.00  0.00    -0.265 OA
ATOM     17  H   UNL A   1      33.947  30.705  25.276  1.00  0.00     0.164 HD
BRANCH  15  18
ATOM     18  C   UNL A   1      32.188  28.031  26.367  1.00  0.00     0.252 C 
ATOM     19  O   UNL A   1      31.519  28.349  27.349  1.00  0.00    -0.283 OA
BRANCH  18  20
ATOM     20  C   UNL A   1      32.687  26.662  26.175  1.00  0.00     0.054 A 
ATOM     21  N   UNL A   1      33.895  24.789  25.773  1.00  0.00    -0.240 N 
ATOM     22  C   UNL A   1      33.951  26.183  25.806  1.00  0.00     0.033 A 
ATOM     23  C   UNL A   1      32.671  24.406  26.352  1.00  0.00     0.065 A 
ATOM     24  H   UNL A   1      34.781  26.761  25.596  1.00  0.00     0.084 H 
ATOM     25  C   UNL A   1      31.840  25.518  26.253  1.00  0.00     0.012 A 
ATOM     26  C   UNL A   1      32.155  23.129  26.652  1.00  0.00    -0.037 A 
ATOM     27  C   UNL A   1      30.442  25.322  26.272  1.00  0.00    -0.052 A 
ATOM     28  C   UNL A   1      30.775  22.949  26.582  1.00  0.00    -0.060 A 
ATOM     29  H   UNL A   1      32.780  22.352  26.916  1.00  0.00     0.065 H 
ATOM     30  C   UNL A   1      29.929  24.025  26.355  1.00  0.00    -0.061 A 
ATOM     31  H   UNL A   1      29.804  26.131  26.225  1.00  0.00     0.063 H 
ATOM     32  H   UNL A   1      30.377  22.004  26.699  1.00  0.00     0.062 H 
ATOM     33  H   UNL A   1      28.915  23.867  26.247  1.00  0.00     0.062 H 
BRANCH  21  34
ATOM     34  S   UNL A   1      34.277  23.774  24.400  1.00  0.00     0.268 S 
ATOM     35  O   UNL A   1      35.709  23.970  24.243  1.00  0.00    -0.201 OA
ATOM     36  O   UNL A   1      33.337  24.255  23.395  1.00  0.00    -0.201 OA
BRANCH  34  37
ATOM     37  C   UNL A   1      34.041  22.039  24.269  1.00  0.00     0.088 A 
ATOM     38  C   UNL A   1      33.022  19.432  23.914  1.00  0.00    -0.051 A 
ATOM     39  C   UNL A   1      32.371  20.505  23.323  1.00  0.00    -0.058 A 
ATOM     40  C   UNL A   1      34.196  19.674  24.664  1.00  0.00    -0.058 A 
ATOM     41  C   UNL A   1      32.884  21.777  23.490  1.00  0.00    -0.041 A 
ATOM     42  H   UNL A   1      31.515  20.356  22.766  1.00  0.00     0.063 H 
ATOM     43  C   UNL A   1      34.715  20.982  24.853  1.00  0.00    -0.041 A 
ATOM     44  H   UNL A   1      34.691  18.873  25.087  1.00  0.00     0.063 H 
ATOM     45  H   UNL A   1      32.407  22.569  23.031  1.00  0.00     0.064 H 
ATOM     46  H   UNL A   1      35.570  21.139  25.411  1.00  0.00     0.064 H 
BRANCH  38  47
ATOM     47  C   UNL A   1      32.388  18.078  23.762  1.00  0.00    -0.040 C 
ATOM     48  H   UNL A   1      32.436  17.555  24.694  1.00  0.00     0.028 H 
ATOM     49  H   UNL A   1      32.913  17.521  23.013  1.00  0.00     0.028 H 
ATOM     50  H   UNL A   1      31.367  18.193  23.469  1.00  0.00     0.028 H 
ENDBRANCH  38  47
ENDBRANCH  34  37
ENDBRANCH  21  34
ENDBRANCH  18  20
ENDBRANCH  15  18
ENDBRANCH  11  14
ENDBRANCH   8  11
ENDBRANCH   5   7
BRANCH   5  51
ATOM     51  C   UNL A   1      36.277  29.700  30.528  1.00  0.00     0.004 C 
ATOM     52  H   UNL A   1      36.697  28.717  30.555  1.00  0.00     0.034 H 
ATOM     53  H   UNL A   1      35.213  29.805  30.466  1.00  0.00     0.034 H 
BRANCH  51  54
ATOM     54  C   UNL A   1      36.584  30.331  31.867  1.00  0.00    -0.020 A 
ATOM     55  C   UNL A   1      37.425  29.910  32.878  1.00  0.00     0.005 A 
ATOM     56  C   UNL A   1      36.022  31.576  32.344  1.00  0.00     0.003 A 
ATOM     57  N   UNL A   1      37.580  30.922  33.785  1.00  0.00    -0.361 N 
ATOM     58  H   UNL A   1      37.867  28.979  32.939  1.00  0.00     0.082 H 
ATOM     59  C   UNL A   1      36.725  31.948  33.491  1.00  0.00     0.046 A 
ATOM     60  C   UNL A   1      34.997  32.437  31.896  1.00  0.00    -0.053 A 
ATOM     61  H   UNL A   1      38.213  30.913  34.538  1.00  0.00     0.166 HD
ATOM     62  C   UNL A   1      36.520  33.154  34.167  1.00  0.00    -0.038 A 
ATOM     63  C   UNL A   1      34.728  33.619  32.603  1.00  0.00    -0.062 A 
ATOM     64  H   UNL A   1      34.448  32.199  31.055  1.00  0.00     0.063 H 
ATOM     65  C   UNL A   1      35.497  33.982  33.706  1.00  0.00    -0.060 A 
ATOM     66  H   UNL A   1      37.102  33.422  34.975  1.00  0.00     0.064 H 
ATOM     67  H   UNL A   1      33.952  34.227  32.301  1.00  0.00     0.062 H 
ATOM     68  H   UNL A   1      35.307  34.874  34.190  1.00  0.00     0.062 H 
ENDBRANCH  51  54
ENDBRANCH   5  51
ENDBRANCH   1   5
BRANCH   3  69
ATOM     69  C   UNL A   1      37.684  33.420  29.428  1.00  0.00     0.017 C 
ATOM     70  H   UNL A   1      36.898  33.162  30.107  1.00  0.00     0.049 H 
ATOM     71  H   UNL A   1      37.292  33.780  28.500  1.00  0.00     0.049 H 
BRANCH  69  72
ATOM     72  C   UNL A   1      38.523  34.537  30.049  1.00  0.00    -0.036 C 
ATOM     73  H   UNL A   1      38.050  35.470  29.827  1.00  0.00     0.028 H 
ATOM     74  H   UNL A   1      39.502  34.445  29.628  1.00  0.00     0.028 H 
BRANCH  72  75
ATOM     75  C   UNL A   1      38.702  34.444  31.573  1.00  0.00    -0.052 C 
ATOM     76  H   UNL A   1      38.047  33.678  31.932  1.00  0.00     0.027 H 
ATOM     77  H   UNL A   1      38.480  35.420  31.950  1.00  0.00     0.027 H 
BRANCH  75  78
ATOM     78  C   UNL A   1      40.119  34.120  32.064  1.00  0.00    -0.052 C 
ATOM     79  H   UNL A   1      40.623  35.046  32.247  1.00  0.00     0.027 H 
ATOM     80  H   UNL A   1      40.568  33.530  31.293  1.00  0.00     0.027 H 
BRANCH  78  81
ATOM     81  C   UNL A   1      40.200  33.279  33.337  1.00  0.00    -0.036 C 
ATOM     82  H   UNL A   1      40.893  32.481  33.167  1.00  0.00     0.028 H 
ATOM     83  H   UNL A   1      39.210  32.932  33.540  1.00  0.00     0.028 H 
BRANCH  81  84
ATOM     84  C   UNL A   1      40.655  34.053  34.568  1.00  0.00     0.018 C 
ATOM     85  H   UNL A   1      40.338  35.069  34.463  1.00  0.00     0.049 H 
ATOM     86  H   UNL A   1      41.720  33.959  34.620  1.00  0.00     0.049 H 
BRANCH  84  87
ATOM     87  N   UNL A   1      40.123  33.534  35.813  1.00  0.00    -0.352 N 
ATOM     88  C   UNL A   1      40.134  32.247  36.327  1.00  0.00     0.251 C 
ATOM     89  H   UNL A   1      39.683  34.204  36.385  1.00  0.00     0.163 HD
ATOM     90  O   UNL A   1      39.425  31.981  37.272  1.00  0.00    -0.269 OA
BRANCH  88  91
ATOM     91  C   UNL A   1      41.136  31.253  35.847  1.00  0.00     0.039 A 
ATOM     92  C   UNL A   1      42.488  31.584  36.039  1.00  0.00    -0.049 A 
ATOM     93  C   UNL A   1      40.803  30.161  35.053  1.00  0.00    -0.049 A 
ATOM     94  C   UNL A   1      43.466  30.992  35.243  1.00  0.00    -0.053 A 
ATOM     95  H   UNL A   1      42.755  32.263  36.769  1.00  0.00     0.063 H 
ATOM     96  C   UNL A   1      41.751  29.636  34.200  1.00  0.00    -0.053 A 
ATOM     97  H   UNL A   1      39.859  29.749  35.100  1.00  0.00     0.063 H 
ATOM     98  C   UNL A   1      43.065  30.106  34.249  1.00  0.00    -0.014 A 
ATOM     99  H   UNL A   1      44.465  31.207  35.388  1.00  0.00     0.063 H 
ATOM    100  H   UNL A   1      41.490  28.897  33.528  1.00  0.00     0.063 H 
BRANCH  98 101
ATOM    101  C   UNL A   1      43.913  29.698  33.144  1.00  0.00     0.031 A 
ATOM    102  C   UNL A   1      43.781  30.342  31.825  1.00  0.00     0.074 A 
ATOM    103  C   UNL A   1      44.906  28.813  33.385  1.00  0.00     0.049 A 
ATOM    104  N   UNL A   1      44.177  29.804  30.723  1.00  0.00    -0.248 NA
ATOM    105  C   UNL A   1      43.158  31.649  31.639  1.00  0.00    -0.034 C 
ATOM    106  C   UNL A   1      46.045  28.498  32.529  1.00  0.00    -0.036 A 
ATOM    107  N   UNL A   1      44.979  27.872  34.426  1.00  0.00    -0.354 N 
ATOM    108  C   UNL A   1      44.107  30.763  29.743  1.00  0.00     0.074 A 
ATOM    109  C   UNL A   1      43.416  31.879  30.346  1.00  0.00    -0.034 C 
ATOM    110  H   UNL A   1      42.654  32.237  32.320  1.00  0.00     0.065 H 
ATOM    111  C   UNL A   1      46.535  27.299  32.885  1.00  0.00    -0.036 A 
ATOM    112  H   UNL A   1      46.413  29.097  31.775  1.00  0.00     0.065 H 
ATOM    113  C   UNL A   1      45.630  26.744  33.876  1.00  0.00     0.049 A 
ATOM    114  H   UNL A   1      44.646  27.977  35.347  1.00  0.00     0.167 HD
ATOM    115  C   UNL A   1      44.753  30.560  28.562  1.00  0.00     0.037 A 
ATOM    116  H   UNL A   1      43.155  32.743  29.845  1.00  0.00     0.065 H 
ATOM    117  H   UNL A   1      47.392  26.855  32.522  1.00  0.00     0.065 H 
ATOM    118  C   UNL A   1      44.983  25.548  33.754  1.00  0.00     0.037 A 
ATOM    119  C   UNL A   1      45.410  29.260  28.532  1.00  0.00     0.049 A 
ATOM    120  C   UNL A   1      44.875  25.061  32.328  1.00  0.00     0.074 A 
ATOM    121  C   UNL A   1      46.702  28.865  28.838  1.00  0.00    -0.036 A 
ATOM    122  N   UNL A   1      44.638  28.105  28.508  1.00  0.00    -0.354 N 
ATOM    123  N   UNL A   1      44.973  25.840  31.288  1.00  0.00    -0.248 NA
ATOM    124  C   UNL A   1      44.627  23.669  31.964  1.00  0.00    -0.034 C 
ATOM    125  C   UNL A   1      46.692  27.466  29.058  1.00  0.00    -0.036 A 
ATOM    126  H   UNL A   1      47.527  29.481  28.895  1.00  0.00     0.065 H 
ATOM    127  C   UNL A   1      45.402  27.009  28.858  1.00  0.00     0.049 A 
ATOM    128  H   UNL A   1      43.683  28.073  28.273  1.00  0.00     0.167 HD
ATOM    129  C   UNL A   1      44.797  25.103  30.147  1.00  0.00     0.074 A 
ATOM    130  C   UNL A   1      44.597  23.747  30.621  1.00  0.00    -0.034 C 
ATOM    131  H   UNL A   1      44.507  22.845  32.573  1.00  0.00     0.065 H 
ATOM    132  H   UNL A   1      47.506  26.889  29.321  1.00  0.00     0.065 H 
ATOM    133  C   UNL A   1      44.825  25.677  28.909  1.00  0.00     0.037 A 
ATOM    134  H   UNL A   1      44.448  22.937  30.001  1.00  0.00     0.065 H 
BRANCH 115 135
ATOM    135  C   UNL A   1      45.007  31.663  27.574  1.00  0.00     0.064 A 
ATOM    136  C   UNL A   1      46.122  32.517  27.708  1.00  0.00     0.173 A 
ATOM    137  C   UNL A   1      44.153  31.950  26.495  1.00  0.00     0.173 A 
ATOM    138  F   UNL A   1      47.043  32.323  28.661  1.00  0.00    -0.203 F 
ATOM    139  C   UNL A   1      46.319  33.621  26.877  1.00  0.00     0.198 A 
ATOM    140  C   UNL A   1      44.322  33.084  25.695  1.00  0.00     0.198 A 
ATOM    141  F   UNL A   1      43.143  31.126  26.181  1.00  0.00    -0.203 F 
ATOM    142  F   UNL A   1      47.393  34.403  27.053  1.00  0.00    -0.200 F 
ATOM    143  C   UNL A   1      45.403  33.924  25.890  1.00  0.00     0.200 A 
ATOM    144  F   UNL A   1      43.426  33.365  24.739  1.00  0.00    -0.200 F 
ATOM    145  F   UNL A   1      45.566  35.011  25.125  1.00  0.00    -0.200 F 
ENDBRANCH 115 135
BRANCH 118 146
ATOM    146  C   UNL A   1      43.961  25.333  34.814  1.00  0.00     0.064 A 
ATOM    147  C   UNL A   1      44.390  24.795  36.044  1.00  0.00     0.173 A 
ATOM    148  C   UNL A   1      42.730  25.997  34.792  1.00  0.00     0.173 A 
ATOM    149  F   UNL A   1      45.565  24.151  36.120  1.00  0.00    -0.203 F 
ATOM    150  C   UNL A   1      43.683  25.029  37.221  1.00  0.00     0.198 A 
ATOM    151  C   UNL A   1      42.016  26.216  35.973  1.00  0.00     0.198 A 
ATOM    152  F   UNL A   1      42.274  26.542  33.655  1.00  0.00    -0.203 F 
ATOM    153  F   UNL A   1      44.184  24.612  38.394  1.00  0.00    -0.200 F 
ATOM    154  C   UNL A   1      42.512  25.766  37.189  1.00  0.00     0.200 A 
ATOM    155  F   UNL A   1      40.893  26.948  35.946  1.00  0.00    -0.200 F 
ATOM    156  F   UNL A   1      41.883  26.076  38.331  1.00  0.00    -0.200 F 
ENDBRANCH 118 146
BRANCH 133 157
ATOM    157  C   UNL A   1      44.408  25.022  27.615  1.00  0.00     0.064 A 
ATOM    158  C   UNL A   1      45.261  24.231  26.829  1.00  0.00     0.173 A 
ATOM    159  C   UNL A   1      43.051  25.049  27.205  1.00  0.00     0.173 A 
ATOM    160  F   UNL A   1      46.540  24.032  27.175  1.00  0.00    -0.203 F 
ATOM    161  C   UNL A   1      44.807  23.563  25.689  1.00  0.00     0.198 A 
ATOM    162  C   UNL A   1      42.590  24.333  26.102  1.00  0.00     0.198 A 
ATOM    163  F   UNL A   1      42.127  25.746  27.882  1.00  0.00    -0.203 F 
ATOM    164  F   UNL A   1      45.670  22.852  24.950  1.00  0.00    -0.200 F 
ATOM    165  C   UNL A   1      43.471  23.602  25.334  1.00  0.00     0.200 A 
ATOM    166  F   UNL A   1      41.283  24.339  25.804  1.00  0.00    -0.200 F 
ATOM    167  F   UNL A   1      43.032  22.921  24.268  1.00  0.00    -0.200 F 
ENDBRANCH 133 157
ENDBRANCH  98 101
ENDBRANCH  88  91
ENDBRANCH  84  87
ENDBRANCH  81  84
ENDBRANCH  78  81
ENDBRANCH  75  78
ENDBRANCH  72  75
ENDBRANCH  69  72
ENDBRANCH   3  69
TORSDOF 23
ENDMDL
MODEL 7
REMARK VINA RESULT:     -11.3      4.001      7.051
REMARK SMILES Cc1ccc(S(=O)(=O)n2cc(C(=O)C(=O)NCC(=O)N[C@H](Cc3c[nH]c4ccccc34)C(=O)NCCCCCCNC(=O)c3ccc(-c4c5nc(c(-c6c(F)c(F)c(F)c(F)c6F)c6ccc([nH]6)c(-c6c(F)c(F)c(F)c(F)c6F)c6nc(c(-c7c(F)c(F)c(F)c(F)c7F)c7ccc4[nH]7)C=C6)C=C5)cc3)c3ccccc32)cc1
REMARK SMILES IDX 32 1 33 2 34 3 21 5 20 7 18 8 19 9 17 11 16 14 14 15 15 16
REMARK SMILES IDX 12 18 13 19 11 20 9 21 10 22 112 23 107 25 111 26 108 27
REMARK SMILES IDX 110 28 109 30 6 34 7 35 8 36 5 37 2 38 3 39 114 40 4 41
REMARK SMILES IDX 113 43 1 47 22 51 23 54 24 55 31 56 25 57 26 59 30 60 27 62
REMARK SMILES IDX 29 63 28 65 35 69 36 72 37 75 38 78 39 81 40 84 41 87 42 88
REMARK SMILES IDX 43 90 44 91 45 92 106 93 46 94 105 96 47 98 48 101 49 102
REMARK SMILES IDX 99 103 50 104 104 105 98 106 100 107 51 108 103 109 97 111
REMARK SMILES IDX 96 113 52 115 84 118 64 119 83 120 65 121 68 122 82 123
REMARK SMILES IDX 101 124 66 125 67 127 81 129 102 130 69 133 53 135 54 136
REMARK SMILES IDX 62 137 55 138 56 139 60 140 63 141 57 142 58 143 61 144
REMARK SMILES IDX 59 145 85 146 86 147 94 148 87 149 88 150 92 151 95 152
REMARK SMILES IDX 89 153 90 154 93 155 91 156 70 157 71 158 79 159 72 160
REMARK SMILES IDX 73 161 77 162 80 163 74 164 75 165 78 166 76 167
REMARK H PARENT 34 4 21 6 20 10 17 12 17 13 16 17 10 24 111 29 108 31 110 32
REMARK H PARENT 109 33 3 42 114 44 4 45 113 46 1 48 1 49 1 50 22 52 22 53
REMARK H PARENT 24 58 25 61 30 64 27 66 29 67 28 68 35 70 35 71 36 73 36 74
REMARK H PARENT 37 76 37 77 38 79 38 80 39 82 39 83 40 85 40 86 41 89 45 95
REMARK H PARENT 106 97 46 99 105 100 104 110 98 112 100 114 103 116 97 117
REMARK H PARENT 65 126 68 128 101 131 66 132 102 134
REMARK Flexibility Score: inf
ROOT
ATOM      1  C   UNL A   1      33.526  28.617  25.034  1.00  0.00     0.242 C 
ATOM      2  O   UNL A   1      34.357  28.094  24.281  1.00  0.00    -0.273 OA
ATOM      3  N   UNL A   1      33.971  29.683  25.747  1.00  0.00    -0.354 N 
ATOM      4  H   UNL A   1      34.835  30.035  25.433  1.00  0.00     0.163 HD
ENDROOT
BRANCH   1   5
ATOM      5  C   UNL A   1      32.108  28.035  25.132  1.00  0.00     0.112 C 
ATOM      6  H   UNL A   1      31.952  27.800  26.165  1.00  0.00     0.064 H 
BRANCH   5   7
ATOM      7  N   UNL A   1      32.065  26.842  24.270  1.00  0.00    -0.342 N 
ATOM      8  C   UNL A   1      31.283  25.729  24.374  1.00  0.00     0.240 C 
ATOM      9  O   UNL A   1      31.545  24.797  23.608  1.00  0.00    -0.273 OA
ATOM     10  H   UNL A   1      32.691  26.849  23.510  1.00  0.00     0.164 HD
BRANCH   8  11
ATOM     11  C   UNL A   1      30.011  25.700  25.250  1.00  0.00     0.097 C 
ATOM     12  H   UNL A   1      30.131  26.444  26.010  1.00  0.00     0.059 H 
ATOM     13  H   UNL A   1      29.210  25.862  24.559  1.00  0.00     0.059 H 
BRANCH  11  14
ATOM     14  N   UNL A   1      29.662  24.450  25.921  1.00  0.00    -0.340 N 
ATOM     15  C   UNL A   1      30.459  23.638  26.714  1.00  0.00     0.292 C 
ATOM     16  O   UNL A   1      30.017  22.654  27.294  1.00  0.00    -0.265 OA
ATOM     17  H   UNL A   1      28.735  24.143  25.793  1.00  0.00     0.164 HD
BRANCH  15  18
ATOM     18  C   UNL A   1      31.928  24.003  26.897  1.00  0.00     0.252 C 
ATOM     19  O   UNL A   1      32.158  25.179  27.177  1.00  0.00    -0.283 OA
BRANCH  18  20
ATOM     20  C   UNL A   1      33.003  23.057  26.566  1.00  0.00     0.054 A 
ATOM     21  N   UNL A   1      34.920  21.863  26.403  1.00  0.00    -0.240 N 
ATOM     22  C   UNL A   1      34.314  22.942  27.047  1.00  0.00     0.033 A 
ATOM     23  C   UNL A   1      33.911  21.169  25.709  1.00  0.00     0.065 A 
ATOM     24  H   UNL A   1      34.755  23.551  27.755  1.00  0.00     0.084 H 
ATOM     25  C   UNL A   1      32.876  22.082  25.532  1.00  0.00     0.012 A 
ATOM     26  C   UNL A   1      33.958  19.963  24.981  1.00  0.00    -0.037 A 
ATOM     27  C   UNL A   1      31.965  21.876  24.475  1.00  0.00    -0.052 A 
ATOM     28  C   UNL A   1      33.101  19.825  23.890  1.00  0.00    -0.060 A 
ATOM     29  H   UNL A   1      34.607  19.207  25.246  1.00  0.00     0.065 H 
ATOM     30  C   UNL A   1      32.140  20.788  23.616  1.00  0.00    -0.061 A 
ATOM     31  H   UNL A   1      31.174  22.524  24.337  1.00  0.00     0.063 H 
ATOM     32  H   UNL A   1      33.181  18.997  23.280  1.00  0.00     0.062 H 
ATOM     33  H   UNL A   1      31.552  20.701  22.772  1.00  0.00     0.062 H 
BRANCH  21  34
ATOM     34  S   UNL A   1      36.395  21.918  25.463  1.00  0.00     0.268 S 
ATOM     35  O   UNL A   1      35.989  22.645  24.270  1.00  0.00    -0.201 OA
ATOM     36  O   UNL A   1      36.766  20.509  25.395  1.00  0.00    -0.201 OA
BRANCH  34  37
ATOM     37  C   UNL A   1      37.924  22.639  25.934  1.00  0.00     0.088 A 
ATOM     38  C   UNL A   1      40.550  23.153  26.826  1.00  0.00    -0.051 A 
ATOM     39  C   UNL A   1      40.227  21.891  26.350  1.00  0.00    -0.058 A 
ATOM     40  C   UNL A   1      39.556  24.158  26.832  1.00  0.00    -0.058 A 
ATOM     41  C   UNL A   1      38.942  21.652  25.903  1.00  0.00    -0.041 A 
ATOM     42  H   UNL A   1      40.936  21.142  26.331  1.00  0.00     0.063 H 
ATOM     43  C   UNL A   1      38.229  23.909  26.390  1.00  0.00    -0.041 A 
ATOM     44  H   UNL A   1      39.802  25.102  27.168  1.00  0.00     0.063 H 
ATOM     45  H   UNL A   1      38.713  20.716  25.530  1.00  0.00     0.064 H 
ATOM     46  H   UNL A   1      37.514  24.654  26.409  1.00  0.00     0.064 H 
BRANCH  38  47
ATOM     47  C   UNL A   1      41.940  23.347  27.367  1.00  0.00    -0.040 C 
ATOM     48  H   UNL A   1      42.131  24.392  27.494  1.00  0.00     0.028 H 
ATOM     49  H   UNL A   1      42.650  22.935  26.679  1.00  0.00     0.028 H 
ATOM     50  H   UNL A   1      42.028  22.850  28.309  1.00  0.00     0.028 H 
ENDBRANCH  38  47
ENDBRANCH  34  37
ENDBRANCH  21  34
ENDBRANCH  18  20
ENDBRANCH  15  18
ENDBRANCH  11  14
ENDBRANCH   8  11
ENDBRANCH   5   7
BRANCH   5  51
ATOM     51  C   UNL A   1      30.913  28.986  24.882  1.00  0.00     0.004 C 
ATOM     52  H   UNL A   1      31.090  29.856  25.480  1.00  0.00     0.034 H 
ATOM     53  H   UNL A   1      30.074  28.363  25.113  1.00  0.00     0.034 H 
BRANCH  51  54
ATOM     54  C   UNL A   1      30.573  29.486  23.497  1.00  0.00    -0.020 A 
ATOM     55  C   UNL A   1      31.003  29.046  22.261  1.00  0.00     0.005 A 
ATOM     56  C   UNL A   1      29.664  30.575  23.210  1.00  0.00     0.003 A 
ATOM     57  N   UNL A   1      30.239  29.626  21.286  1.00  0.00    -0.361 N 
ATOM     58  H   UNL A   1      31.779  28.385  22.098  1.00  0.00     0.082 H 
ATOM     59  C   UNL A   1      29.421  30.574  21.836  1.00  0.00     0.046 A 
ATOM     60  C   UNL A   1      29.006  31.549  23.991  1.00  0.00    -0.053 A 
ATOM     61  H   UNL A   1      30.273  29.395  20.330  1.00  0.00     0.166 HD
ATOM     62  C   UNL A   1      28.508  31.429  21.211  1.00  0.00    -0.038 A 
ATOM     63  C   UNL A   1      28.139  32.463  23.372  1.00  0.00    -0.062 A 
ATOM     64  H   UNL A   1      29.161  31.589  25.011  1.00  0.00     0.063 H 
ATOM     65  C   UNL A   1      27.876  32.385  22.006  1.00  0.00    -0.060 A 
ATOM     66  H   UNL A   1      28.308  31.356  20.202  1.00  0.00     0.064 H 
ATOM     67  H   UNL A   1      27.691  33.200  23.935  1.00  0.00     0.062 H 
ATOM     68  H   UNL A   1      27.207  33.043  21.577  1.00  0.00     0.062 H 
ENDBRANCH  51  54
ENDBRANCH   5  51
ENDBRANCH   1   5
BRANCH   3  69
ATOM     69  C   UNL A   1      33.428  30.405  26.879  1.00  0.00     0.017 C 
ATOM     70  H   UNL A   1      33.146  29.702  27.635  1.00  0.00     0.049 H 
ATOM     71  H   UNL A   1      32.584  30.966  26.537  1.00  0.00     0.049 H 
BRANCH  69  72
ATOM     72  C   UNL A   1      34.437  31.388  27.472  1.00  0.00    -0.036 C 
ATOM     73  H   UNL A   1      34.966  31.849  26.665  1.00  0.00     0.028 H 
ATOM     74  H   UNL A   1      35.066  30.815  28.121  1.00  0.00     0.028 H 
BRANCH  72  75
ATOM     75  C   UNL A   1      33.828  32.501  28.340  1.00  0.00    -0.052 C 
ATOM     76  H   UNL A   1      33.021  32.074  28.898  1.00  0.00     0.027 H 
ATOM     77  H   UNL A   1      33.530  33.269  27.658  1.00  0.00     0.027 H 
BRANCH  75  78
ATOM     78  C   UNL A   1      34.782  33.175  29.335  1.00  0.00    -0.052 C 
ATOM     79  H   UNL A   1      34.542  34.217  29.366  1.00  0.00     0.027 H 
ATOM     80  H   UNL A   1      35.770  32.970  28.977  1.00  0.00     0.027 H 
BRANCH  78  81
ATOM     81  C   UNL A   1      34.734  32.637  30.764  1.00  0.00    -0.036 C 
ATOM     82  H   UNL A   1      33.772  32.195  30.923  1.00  0.00     0.028 H 
ATOM     83  H   UNL A   1      34.920  33.467  31.412  1.00  0.00     0.028 H 
BRANCH  81  84
ATOM     84  C   UNL A   1      35.798  31.592  31.073  1.00  0.00     0.018 C 
ATOM     85  H   UNL A   1      35.548  31.120  31.999  1.00  0.00     0.049 H 
ATOM     86  H   UNL A   1      36.736  32.105  31.115  1.00  0.00     0.049 H 
BRANCH  84  87
ATOM     87  N   UNL A   1      35.922  30.567  30.055  1.00  0.00    -0.352 N 
ATOM     88  C   UNL A   1      37.050  29.978  29.507  1.00  0.00     0.251 C 
ATOM     89  H   UNL A   1      35.066  30.236  29.695  1.00  0.00     0.163 HD
ATOM     90  O   UNL A   1      36.941  29.314  28.498  1.00  0.00    -0.269 OA
BRANCH  88  91
ATOM     91  C   UNL A   1      38.346  30.003  30.243  1.00  0.00     0.039 A 
ATOM     92  C   UNL A   1      39.339  30.855  29.731  1.00  0.00    -0.049 A 
ATOM     93  C   UNL A   1      38.671  29.091  31.241  1.00  0.00    -0.049 A 
ATOM     94  C   UNL A   1      40.679  30.615  30.030  1.00  0.00    -0.053 A 
ATOM     95  H   UNL A   1      39.078  31.656  29.136  1.00  0.00     0.063 H 
ATOM     96  C   UNL A   1      39.997  28.791  31.471  1.00  0.00    -0.053 A 
ATOM     97  H   UNL A   1      37.929  28.644  31.802  1.00  0.00     0.063 H 
ATOM     98  C   UNL A   1      40.996  29.507  30.809  1.00  0.00    -0.014 A 
ATOM     99  H   UNL A   1      41.418  31.246  29.682  1.00  0.00     0.063 H 
ATOM    100  H   UNL A   1      40.250  28.040  32.133  1.00  0.00     0.063 H 
BRANCH  98 101
ATOM    101  C   UNL A   1      42.331  28.944  30.904  1.00  0.00     0.031 A 
ATOM    102  C   UNL A   1      42.730  27.822  30.037  1.00  0.00     0.074 A 
ATOM    103  C   UNL A   1      43.232  29.554  31.706  1.00  0.00     0.049 A 
ATOM    104  N   UNL A   1      43.702  27.020  30.308  1.00  0.00    -0.248 NA
ATOM    105  C   UNL A   1      42.039  27.494  28.794  1.00  0.00    -0.034 C 
ATOM    106  C   UNL A   1      44.679  29.362  31.726  1.00  0.00    -0.036 A 
ATOM    107  N   UNL A   1      42.972  30.376  32.815  1.00  0.00    -0.354 N 
ATOM    108  C   UNL A   1      43.931  26.253  29.192  1.00  0.00     0.074 A 
ATOM    109  C   UNL A   1      42.838  26.545  28.293  1.00  0.00    -0.034 C 
ATOM    110  H   UNL A   1      41.169  27.888  28.405  1.00  0.00     0.065 H 
ATOM    111  C   UNL A   1      45.154  29.780  32.911  1.00  0.00    -0.036 A 
ATOM    112  H   UNL A   1      45.243  28.970  30.957  1.00  0.00     0.065 H 
ATOM    113  C   UNL A   1      44.007  30.108  33.740  1.00  0.00     0.049 A 
ATOM    114  H   UNL A   1      42.225  31.007  32.926  1.00  0.00     0.167 HD
ATOM    115  C   UNL A   1      45.091  25.546  29.094  1.00  0.00     0.037 A 
ATOM    116  H   UNL A   1      42.692  26.080  27.383  1.00  0.00     0.065 H 
ATOM    117  H   UNL A   1      46.146  29.854  33.182  1.00  0.00     0.065 H 
ATOM    118  C   UNL A   1      43.739  29.543  34.953  1.00  0.00     0.037 A 
ATOM    119  C   UNL A   1      45.914  25.708  30.285  1.00  0.00     0.049 A 
ATOM    120  C   UNL A   1      44.425  28.214  35.167  1.00  0.00     0.074 A 
ATOM    121  C   UNL A   1      46.947  26.578  30.590  1.00  0.00    -0.036 A 
ATOM    122  N   UNL A   1      45.484  25.166  31.491  1.00  0.00    -0.354 N 
ATOM    123  N   UNL A   1      44.862  27.461  34.196  1.00  0.00    -0.248 NA
ATOM    124  C   UNL A   1      44.652  27.621  36.482  1.00  0.00    -0.034 C 
ATOM    125  C   UNL A   1      47.098  26.605  31.997  1.00  0.00    -0.036 A 
ATOM    126  H   UNL A   1      47.510  27.113  29.910  1.00  0.00     0.065 H 
ATOM    127  C   UNL A   1      46.176  25.730  32.545  1.00  0.00     0.049 A 
ATOM    128  H   UNL A   1      44.785  24.480  31.581  1.00  0.00     0.167 HD
ATOM    129  C   UNL A   1      45.400  26.313  34.716  1.00  0.00     0.074 A 
ATOM    130  C   UNL A   1      45.257  26.466  36.151  1.00  0.00    -0.034 C 
ATOM    131  H   UNL A   1      44.412  27.989  37.415  1.00  0.00     0.065 H 
ATOM    132  H   UNL A   1      47.778  27.176  32.523  1.00  0.00     0.065 H 
ATOM    133  C   UNL A   1      45.910  25.332  33.916  1.00  0.00     0.037 A 
ATOM    134  H   UNL A   1      45.582  25.769  36.839  1.00  0.00     0.065 H 
BRANCH 115 135
ATOM    135  C   UNL A   1      45.575  24.953  27.801  1.00  0.00     0.064 A 
ATOM    136  C   UNL A   1      46.115  25.768  26.784  1.00  0.00     0.173 A 
ATOM    137  C   UNL A   1      45.488  23.585  27.495  1.00  0.00     0.173 A 
ATOM    138  F   UNL A   1      46.302  27.082  26.964  1.00  0.00    -0.203 F 
ATOM    139  C   UNL A   1      46.462  25.263  25.530  1.00  0.00     0.198 A 
ATOM    140  C   UNL A   1      45.788  23.086  26.223  1.00  0.00     0.198 A 
ATOM    141  F   UNL A   1      45.127  22.693  28.430  1.00  0.00    -0.203 F 
ATOM    142  F   UNL A   1      46.966  26.084  24.598  1.00  0.00    -0.200 F 
ATOM    143  C   UNL A   1      46.270  23.928  25.238  1.00  0.00     0.200 A 
ATOM    144  F   UNL A   1      45.598  21.787  25.955  1.00  0.00    -0.200 F 
ATOM    145  F   UNL A   1      46.557  23.453  24.019  1.00  0.00    -0.200 F 
ENDBRANCH 115 135
BRANCH 118 146
ATOM    146  C   UNL A   1      42.395  29.908  35.477  1.00  0.00     0.064 A 
ATOM    147  C   UNL A   1      42.279  31.099  36.221  1.00  0.00     0.173 A 
ATOM    148  C   UNL A   1      41.224  29.368  34.934  1.00  0.00     0.173 A 
ATOM    149  F   UNL A   1      43.373  31.661  36.760  1.00  0.00    -0.203 F 
ATOM    150  C   UNL A   1      41.070  31.786  36.305  1.00  0.00     0.198 A 
ATOM    151  C   UNL A   1      40.010  30.052  35.034  1.00  0.00     0.198 A 
ATOM    152  F   UNL A   1      41.271  28.244  34.206  1.00  0.00    -0.203 F 
ATOM    153  F   UNL A   1      41.022  32.980  36.913  1.00  0.00    -0.200 F 
ATOM    154  C   UNL A   1      39.943  31.276  35.684  1.00  0.00     0.200 A 
ATOM    155  F   UNL A   1      38.922  29.570  34.416  1.00  0.00    -0.200 F 
ATOM    156  F   UNL A   1      38.803  31.981  35.679  1.00  0.00    -0.200 F 
ENDBRANCH 118 146
BRANCH 133 157
ATOM    157  C   UNL A   1      46.301  23.941  34.352  1.00  0.00     0.064 A 
ATOM    158  C   UNL A   1      45.413  22.854  34.383  1.00  0.00     0.173 A 
ATOM    159  C   UNL A   1      47.660  23.627  34.605  1.00  0.00     0.173 A 
ATOM    160  F   UNL A   1      44.124  22.999  34.049  1.00  0.00    -0.203 F 
ATOM    161  C   UNL A   1      45.840  21.561  34.699  1.00  0.00     0.198 A 
ATOM    162  C   UNL A   1      48.090  22.327  34.861  1.00  0.00     0.198 A 
ATOM    163  F   UNL A   1      48.614  24.569  34.583  1.00  0.00    -0.203 F 
ATOM    164  F   UNL A   1      44.947  20.564  34.753  1.00  0.00    -0.200 F 
ATOM    165  C   UNL A   1      47.178  21.296  34.924  1.00  0.00     0.200 A 
ATOM    166  F   UNL A   1      49.398  22.079  35.023  1.00  0.00    -0.200 F 
ATOM    167  F   UNL A   1      47.589  20.047  35.177  1.00  0.00    -0.200 F 
ENDBRANCH 133 157
ENDBRANCH  98 101
ENDBRANCH  88  91
ENDBRANCH  84  87
ENDBRANCH  81  84
ENDBRANCH  78  81
ENDBRANCH  75  78
ENDBRANCH  72  75
ENDBRANCH  69  72
ENDBRANCH   3  69
TORSDOF 23
ENDMDL
MODEL 8
REMARK VINA RESULT:     -11.3      3.449      8.689
REMARK SMILES Cc1ccc(S(=O)(=O)n2cc(C(=O)C(=O)NCC(=O)N[C@H](Cc3c[nH]c4ccccc34)C(=O)NCCCCCCNC(=O)c3ccc(-c4c5nc(c(-c6c(F)c(F)c(F)c(F)c6F)c6ccc([nH]6)c(-c6c(F)c(F)c(F)c(F)c6F)c6nc(c(-c7c(F)c(F)c(F)c(F)c7F)c7ccc4[nH]7)C=C6)C=C5)cc3)c3ccccc32)cc1
REMARK SMILES IDX 32 1 33 2 34 3 21 5 20 7 18 8 19 9 17 11 16 14 14 15 15 16
REMARK SMILES IDX 12 18 13 19 11 20 9 21 10 22 112 23 107 25 111 26 108 27
REMARK SMILES IDX 110 28 109 30 6 34 7 35 8 36 5 37 2 38 3 39 114 40 4 41
REMARK SMILES IDX 113 43 1 47 22 51 23 54 24 55 31 56 25 57 26 59 30 60 27 62
REMARK SMILES IDX 29 63 28 65 35 69 36 72 37 75 38 78 39 81 40 84 41 87 42 88
REMARK SMILES IDX 43 90 44 91 45 92 106 93 46 94 105 96 47 98 48 101 49 102
REMARK SMILES IDX 99 103 50 104 104 105 98 106 100 107 51 108 103 109 97 111
REMARK SMILES IDX 96 113 52 115 84 118 64 119 83 120 65 121 68 122 82 123
REMARK SMILES IDX 101 124 66 125 67 127 81 129 102 130 69 133 53 135 54 136
REMARK SMILES IDX 62 137 55 138 56 139 60 140 63 141 57 142 58 143 61 144
REMARK SMILES IDX 59 145 85 146 86 147 94 148 87 149 88 150 92 151 95 152
REMARK SMILES IDX 89 153 90 154 93 155 91 156 70 157 71 158 79 159 72 160
REMARK SMILES IDX 73 161 77 162 80 163 74 164 75 165 78 166 76 167
REMARK H PARENT 34 4 21 6 20 10 17 12 17 13 16 17 10 24 111 29 108 31 110 32
REMARK H PARENT 109 33 3 42 114 44 4 45 113 46 1 48 1 49 1 50 22 52 22 53
REMARK H PARENT 24 58 25 61 30 64 27 66 29 67 28 68 35 70 35 71 36 73 36 74
REMARK H PARENT 37 76 37 77 38 79 38 80 39 82 39 83 40 85 40 86 41 89 45 95
REMARK H PARENT 106 97 46 99 105 100 104 110 98 112 100 114 103 116 97 117
REMARK H PARENT 65 126 68 128 101 131 66 132 102 134
REMARK Flexibility Score: inf
ROOT
ATOM      1  C   UNL A   1      40.932  26.895  27.857  1.00  0.00     0.242 C 
ATOM      2  O   UNL A   1      41.637  26.463  28.777  1.00  0.00    -0.273 OA
ATOM      3  N   UNL A   1      40.438  28.146  28.036  1.00  0.00    -0.354 N 
ATOM      4  H   UNL A   1      40.861  28.635  28.778  1.00  0.00     0.163 HD
ENDROOT
BRANCH   1   5
ATOM      5  C   UNL A   1      40.649  26.014  26.631  1.00  0.00     0.112 C 
ATOM      6  H   UNL A   1      39.653  26.250  26.317  1.00  0.00     0.064 H 
BRANCH   5   7
ATOM      7  N   UNL A   1      40.787  24.612  27.060  1.00  0.00    -0.342 N 
ATOM      8  C   UNL A   1      39.829  23.650  27.188  1.00  0.00     0.240 C 
ATOM      9  O   UNL A   1      40.180  22.588  27.712  1.00  0.00    -0.273 OA
ATOM     10  H   UNL A   1      41.703  24.328  27.286  1.00  0.00     0.164 HD
BRANCH   8  11
ATOM     11  C   UNL A   1      38.436  23.788  26.534  1.00  0.00     0.097 C 
ATOM     12  H   UNL A   1      37.723  23.372  27.216  1.00  0.00     0.059 H 
ATOM     13  H   UNL A   1      38.339  24.835  26.336  1.00  0.00     0.059 H 
BRANCH  11  14
ATOM     14  N   UNL A   1      38.214  23.153  25.237  1.00  0.00    -0.340 N 
ATOM     15  C   UNL A   1      37.014  22.813  24.631  1.00  0.00     0.292 C 
ATOM     16  O   UNL A   1      36.961  22.361  23.493  1.00  0.00    -0.265 OA
ATOM     17  H   UNL A   1      39.027  22.937  24.724  1.00  0.00     0.164 HD
BRANCH  15  18
ATOM     18  C   UNL A   1      35.713  23.042  25.394  1.00  0.00     0.252 C 
ATOM     19  O   UNL A   1      35.366  22.134  26.148  1.00  0.00    -0.283 OA
BRANCH  18  20
ATOM     20  C   UNL A   1      34.838  24.184  25.094  1.00  0.00     0.054 A 
ATOM     21  N   UNL A   1      33.599  26.080  25.111  1.00  0.00    -0.240 N 
ATOM     22  C   UNL A   1      34.438  25.273  25.880  1.00  0.00     0.033 A 
ATOM     23  C   UNL A   1      33.676  25.618  23.783  1.00  0.00     0.065 A 
ATOM     24  H   UNL A   1      34.717  25.448  26.859  1.00  0.00     0.084 H 
ATOM     25  C   UNL A   1      34.124  24.302  23.865  1.00  0.00     0.012 A 
ATOM     26  C   UNL A   1      33.110  26.128  22.598  1.00  0.00    -0.037 A 
ATOM     27  C   UNL A   1      33.834  23.422  22.801  1.00  0.00    -0.052 A 
ATOM     28  C   UNL A   1      32.759  25.221  21.599  1.00  0.00    -0.060 A 
ATOM     29  H   UNL A   1      32.960  27.140  22.473  1.00  0.00     0.065 H 
ATOM     30  C   UNL A   1      33.082  23.876  21.715  1.00  0.00    -0.061 A 
ATOM     31  H   UNL A   1      34.176  22.448  22.826  1.00  0.00     0.063 H 
ATOM     32  H   UNL A   1      32.254  25.553  20.763  1.00  0.00     0.062 H 
ATOM     33  H   UNL A   1      32.764  23.208  20.996  1.00  0.00     0.062 H 
BRANCH  21  34
ATOM     34  S   UNL A   1      31.961  26.543  25.512  1.00  0.00     0.268 S 
ATOM     35  O   UNL A   1      32.094  27.055  26.867  1.00  0.00    -0.201 OA
ATOM     36  O   UNL A   1      31.221  25.316  25.241  1.00  0.00    -0.201 OA
BRANCH  34  37
ATOM     37  C   UNL A   1      30.960  27.722  24.680  1.00  0.00     0.088 A 
ATOM     38  C   UNL A   1      29.143  29.069  22.995  1.00  0.00    -0.051 A 
ATOM     39  C   UNL A   1      28.982  27.711  23.223  1.00  0.00    -0.058 A 
ATOM     40  C   UNL A   1      30.206  29.749  23.633  1.00  0.00    -0.058 A 
ATOM     41  C   UNL A   1      29.868  27.061  24.060  1.00  0.00    -0.041 A 
ATOM     42  H   UNL A   1      28.212  27.192  22.773  1.00  0.00     0.063 H 
ATOM     43  C   UNL A   1      31.129  29.080  24.480  1.00  0.00    -0.041 A 
ATOM     44  H   UNL A   1      30.313  30.764  23.479  1.00  0.00     0.063 H 
ATOM     45  H   UNL A   1      29.731  26.054  24.242  1.00  0.00     0.064 H 
ATOM     46  H   UNL A   1      31.904  29.592  24.931  1.00  0.00     0.064 H 
BRANCH  38  47
ATOM     47  C   UNL A   1      28.197  29.718  22.023  1.00  0.00    -0.040 C 
ATOM     48  H   UNL A   1      27.522  28.982  21.638  1.00  0.00     0.028 H 
ATOM     49  H   UNL A   1      28.755  30.147  21.216  1.00  0.00     0.028 H 
ATOM     50  H   UNL A   1      27.644  30.485  22.521  1.00  0.00     0.028 H 
ENDBRANCH  38  47
ENDBRANCH  34  37
ENDBRANCH  21  34
ENDBRANCH  18  20
ENDBRANCH  15  18
ENDBRANCH  11  14
ENDBRANCH   8  11
ENDBRANCH   5   7
BRANCH   5  51
ATOM     51  C   UNL A   1      41.427  26.311  25.327  1.00  0.00     0.004 C 
ATOM     52  H   UNL A   1      41.153  27.303  25.032  1.00  0.00     0.034 H 
ATOM     53  H   UNL A   1      41.146  25.490  24.701  1.00  0.00     0.034 H 
BRANCH  51  54
ATOM     54  C   UNL A   1      42.937  26.255  25.273  1.00  0.00    -0.020 A 
ATOM     55  C   UNL A   1      43.871  27.262  25.404  1.00  0.00     0.005 A 
ATOM     56  C   UNL A   1      43.713  25.049  25.075  1.00  0.00     0.003 A 
ATOM     57  N   UNL A   1      45.114  26.708  25.540  1.00  0.00    -0.361 N 
ATOM     58  H   UNL A   1      43.665  28.273  25.399  1.00  0.00     0.082 H 
ATOM     59  C   UNL A   1      45.049  25.358  25.331  1.00  0.00     0.046 A 
ATOM     60  C   UNL A   1      43.403  23.717  24.725  1.00  0.00    -0.053 A 
ATOM     61  H   UNL A   1      45.934  27.207  25.757  1.00  0.00     0.166 HD
ATOM     62  C   UNL A   1      46.076  24.409  25.336  1.00  0.00    -0.038 A 
ATOM     63  C   UNL A   1      44.431  22.764  24.655  1.00  0.00    -0.062 A 
ATOM     64  H   UNL A   1      42.428  23.445  24.523  1.00  0.00     0.063 H 
ATOM     65  C   UNL A   1      45.742  23.102  24.981  1.00  0.00    -0.060 A 
ATOM     66  H   UNL A   1      47.041  24.664  25.591  1.00  0.00     0.064 H 
ATOM     67  H   UNL A   1      44.212  21.801  24.359  1.00  0.00     0.062 H 
ATOM     68  H   UNL A   1      46.477  22.377  24.959  1.00  0.00     0.062 H 
ENDBRANCH  51  54
ENDBRANCH   5  51
ENDBRANCH   1   5
BRANCH   3  69
ATOM     69  C   UNL A   1      39.413  28.906  27.350  1.00  0.00     0.017 C 
ATOM     70  H   UNL A   1      39.242  28.467  26.389  1.00  0.00     0.049 H 
ATOM     71  H   UNL A   1      39.754  29.915  27.260  1.00  0.00     0.049 H 
BRANCH  69  72
ATOM     72  C   UNL A   1      38.095  28.922  28.125  1.00  0.00    -0.036 C 
ATOM     73  H   UNL A   1      38.323  29.003  29.167  1.00  0.00     0.028 H 
ATOM     74  H   UNL A   1      37.587  28.016  27.870  1.00  0.00     0.028 H 
BRANCH  72  75
ATOM     75  C   UNL A   1      37.139  30.068  27.756  1.00  0.00    -0.052 C 
ATOM     76  H   UNL A   1      36.546  29.744  26.927  1.00  0.00     0.027 H 
ATOM     77  H   UNL A   1      37.764  30.909  27.545  1.00  0.00     0.027 H 
BRANCH  75  78
ATOM     78  C   UNL A   1      36.184  30.528  28.866  1.00  0.00    -0.052 C 
ATOM     79  H   UNL A   1      36.723  30.521  29.789  1.00  0.00     0.027 H 
ATOM     80  H   UNL A   1      35.358  29.848  28.842  1.00  0.00     0.027 H 
BRANCH  78  81
ATOM     81  C   UNL A   1      35.583  31.921  28.682  1.00  0.00    -0.036 C 
ATOM     82  H   UNL A   1      34.932  32.117  29.510  1.00  0.00     0.028 H 
ATOM     83  H   UNL A   1      35.069  31.914  27.744  1.00  0.00     0.028 H 
BRANCH  81  84
ATOM     84  C   UNL A   1      36.614  33.040  28.610  1.00  0.00     0.018 C 
ATOM     85  H   UNL A   1      36.246  33.796  27.948  1.00  0.00     0.049 H 
ATOM     86  H   UNL A   1      37.527  32.602  28.262  1.00  0.00     0.049 H 
BRANCH  84  87
ATOM     87  N   UNL A   1      36.900  33.654  29.891  1.00  0.00    -0.352 N 
ATOM     88  C   UNL A   1      37.885  33.369  30.823  1.00  0.00     0.251 C 
ATOM     89  H   UNL A   1      36.297  34.392  30.141  1.00  0.00     0.163 HD
ATOM     90  O   UNL A   1      37.803  33.841  31.936  1.00  0.00    -0.269 OA
BRANCH  88  91
ATOM     91  C   UNL A   1      39.124  32.646  30.413  1.00  0.00     0.039 A 
ATOM     92  C   UNL A   1      39.110  31.249  30.561  1.00  0.00    -0.049 A 
ATOM     93  C   UNL A   1      40.317  33.293  30.112  1.00  0.00    -0.049 A 
ATOM     94  C   UNL A   1      40.312  30.551  30.662  1.00  0.00    -0.053 A 
ATOM     95  H   UNL A   1      38.213  30.741  30.594  1.00  0.00     0.063 H 
ATOM     96  C   UNL A   1      41.509  32.626  30.300  1.00  0.00    -0.053 A 
ATOM     97  H   UNL A   1      40.311  34.260  29.753  1.00  0.00     0.063 H 
ATOM     98  C   UNL A   1      41.500  31.273  30.646  1.00  0.00    -0.014 A 
ATOM     99  H   UNL A   1      40.319  29.523  30.747  1.00  0.00     0.063 H 
ATOM    100  H   UNL A   1      42.405  33.125  30.184  1.00  0.00     0.063 H 
BRANCH  98 101
ATOM    101  C   UNL A   1      42.776  30.736  31.086  1.00  0.00     0.031 A 
ATOM    102  C   UNL A   1      43.596  29.921  30.173  1.00  0.00     0.074 A 
ATOM    103  C   UNL A   1      43.249  31.109  32.296  1.00  0.00     0.049 A 
ATOM    104  N   UNL A   1      44.503  29.096  30.571  1.00  0.00    -0.248 NA
ATOM    105  C   UNL A   1      43.438  29.951  28.722  1.00  0.00    -0.034 C 
ATOM    106  C   UNL A   1      44.606  30.950  32.808  1.00  0.00    -0.036 A 
ATOM    107  N   UNL A   1      42.510  31.569  33.399  1.00  0.00    -0.354 N 
ATOM    108  C   UNL A   1      45.209  28.689  29.465  1.00  0.00     0.074 A 
ATOM    109  C   UNL A   1      44.477  29.204  28.331  1.00  0.00    -0.034 C 
ATOM    110  H   UNL A   1      42.719  30.421  28.152  1.00  0.00     0.065 H 
ATOM    111  C   UNL A   1      44.573  31.018  34.149  1.00  0.00    -0.036 A 
ATOM    112  H   UNL A   1      45.451  30.810  32.234  1.00  0.00     0.065 H 
ATOM    113  C   UNL A   1      43.175  31.069  34.541  1.00  0.00     0.049 A 
ATOM    114  H   UNL A   1      41.697  32.125  33.380  1.00  0.00     0.167 HD
ATOM    115  C   UNL A   1      46.408  28.067  29.631  1.00  0.00     0.037 A 
ATOM    116  H   UNL A   1      44.724  29.019  27.346  1.00  0.00     0.065 H 
ATOM    117  H   UNL A   1      45.387  31.033  34.782  1.00  0.00     0.065 H 
ATOM    118  C   UNL A   1      42.570  30.171  35.372  1.00  0.00     0.037 A 
ATOM    119  C   UNL A   1      46.729  27.896  31.042  1.00  0.00     0.049 A 
ATOM    120  C   UNL A   1      43.300  28.853  35.475  1.00  0.00     0.074 A 
ATOM    121  C   UNL A   1      47.466  28.664  31.927  1.00  0.00    -0.036 A 
ATOM    122  N   UNL A   1      45.972  27.020  31.812  1.00  0.00    -0.354 N 
ATOM    123  N   UNL A   1      44.145  28.422  34.581  1.00  0.00    -0.248 NA
ATOM    124  C   UNL A   1      43.120  27.910  36.576  1.00  0.00    -0.034 C 
ATOM    125  C   UNL A   1      47.105  28.286  33.243  1.00  0.00    -0.036 A 
ATOM    126  H   UNL A   1      48.159  29.384  31.673  1.00  0.00     0.065 H 
ATOM    127  C   UNL A   1      46.169  27.270  33.156  1.00  0.00     0.049 A 
ATOM    128  H   UNL A   1      45.381  26.321  31.451  1.00  0.00     0.167 HD
ATOM    129  C   UNL A   1      44.606  27.185  34.947  1.00  0.00     0.074 A 
ATOM    130  C   UNL A   1      43.946  26.913  36.210  1.00  0.00    -0.034 C 
ATOM    131  H   UNL A   1      42.520  27.988  37.412  1.00  0.00     0.065 H 
ATOM    132  H   UNL A   1      47.475  28.696  34.114  1.00  0.00     0.065 H 
ATOM    133  C   UNL A   1      45.488  26.488  34.173  1.00  0.00     0.037 A 
ATOM    134  H   UNL A   1      44.092  26.055  36.763  1.00  0.00     0.065 H 
BRANCH 115 135
ATOM    135  C   UNL A   1      47.390  27.883  28.508  1.00  0.00     0.064 A 
ATOM    136  C   UNL A   1      47.700  26.598  28.015  1.00  0.00     0.173 A 
ATOM    137  C   UNL A   1      48.089  28.945  27.908  1.00  0.00     0.173 A 
ATOM    138  F   UNL A   1      47.068  25.505  28.462  1.00  0.00    -0.203 F 
ATOM    139  C   UNL A   1      48.693  26.388  27.056  1.00  0.00     0.198 A 
ATOM    140  C   UNL A   1      49.118  28.730  26.986  1.00  0.00     0.198 A 
ATOM    141  F   UNL A   1      47.779  30.218  28.191  1.00  0.00    -0.203 F 
ATOM    142  F   UNL A   1      48.950  25.144  26.628  1.00  0.00    -0.200 F 
ATOM    143  C   UNL A   1      49.424  27.450  26.564  1.00  0.00     0.200 A 
ATOM    144  F   UNL A   1      49.819  29.771  26.515  1.00  0.00    -0.200 F 
ATOM    145  F   UNL A   1      50.409  27.242  25.681  1.00  0.00    -0.200 F 
ENDBRANCH 115 135
BRANCH 118 146
ATOM    146  C   UNL A   1      41.093  30.340  35.428  1.00  0.00     0.064 A 
ATOM    147  C   UNL A   1      40.580  31.417  36.179  1.00  0.00     0.173 A 
ATOM    148  C   UNL A   1      40.251  29.758  34.474  1.00  0.00     0.173 A 
ATOM    149  F   UNL A   1      41.348  32.014  37.105  1.00  0.00    -0.203 F 
ATOM    150  C   UNL A   1      39.333  31.969  35.895  1.00  0.00     0.198 A 
ATOM    151  C   UNL A   1      38.994  30.305  34.203  1.00  0.00     0.198 A 
ATOM    152  F   UNL A   1      40.685  28.739  33.719  1.00  0.00    -0.203 F 
ATOM    153  F   UNL A   1      38.928  33.072  36.542  1.00  0.00    -0.200 F 
ATOM    154  C   UNL A   1      38.554  31.431  34.885  1.00  0.00     0.200 A 
ATOM    155  F   UNL A   1      38.247  29.798  33.212  1.00  0.00    -0.200 F 
ATOM    156  F   UNL A   1      37.399  32.018  34.544  1.00  0.00    -0.200 F 
ENDBRANCH 118 146
BRANCH 133 157
ATOM    157  C   UNL A   1      45.873  25.040  34.346  1.00  0.00     0.064 A 
ATOM    158  C   UNL A   1      47.101  24.616  34.876  1.00  0.00     0.173 A 
ATOM    159  C   UNL A   1      44.919  24.015  34.121  1.00  0.00     0.173 A 
ATOM    160  F   UNL A   1      48.043  25.496  35.239  1.00  0.00    -0.203 F 
ATOM    161  C   UNL A   1      47.378  23.265  35.110  1.00  0.00     0.198 A 
ATOM    162  C   UNL A   1      45.178  22.677  34.411  1.00  0.00     0.198 A 
ATOM    163  F   UNL A   1      43.698  24.286  33.639  1.00  0.00    -0.203 F 
ATOM    164  F   UNL A   1      48.581  22.909  35.581  1.00  0.00    -0.200 F 
ATOM    165  C   UNL A   1      46.414  22.300  34.892  1.00  0.00     0.200 A 
ATOM    166  F   UNL A   1      44.213  21.761  34.245  1.00  0.00    -0.200 F 
ATOM    167  F   UNL A   1      46.667  21.014  35.164  1.00  0.00    -0.200 F 
ENDBRANCH 133 157
ENDBRANCH  98 101
ENDBRANCH  88  91
ENDBRANCH  84  87
ENDBRANCH  81  84
ENDBRANCH  78  81
ENDBRANCH  75  78
ENDBRANCH  72  75
ENDBRANCH  69  72
ENDBRANCH   3  69
TORSDOF 23
ENDMDL
MODEL 9
REMARK VINA RESULT:     -11.2      5.555     11.595
REMARK SMILES Cc1ccc(S(=O)(=O)n2cc(C(=O)C(=O)NCC(=O)N[C@H](Cc3c[nH]c4ccccc34)C(=O)NCCCCCCNC(=O)c3ccc(-c4c5nc(c(-c6c(F)c(F)c(F)c(F)c6F)c6ccc([nH]6)c(-c6c(F)c(F)c(F)c(F)c6F)c6nc(c(-c7c(F)c(F)c(F)c(F)c7F)c7ccc4[nH]7)C=C6)C=C5)cc3)c3ccccc32)cc1
REMARK SMILES IDX 32 1 33 2 34 3 21 5 20 7 18 8 19 9 17 11 16 14 14 15 15 16
REMARK SMILES IDX 12 18 13 19 11 20 9 21 10 22 112 23 107 25 111 26 108 27
REMARK SMILES IDX 110 28 109 30 6 34 7 35 8 36 5 37 2 38 3 39 114 40 4 41
REMARK SMILES IDX 113 43 1 47 22 51 23 54 24 55 31 56 25 57 26 59 30 60 27 62
REMARK SMILES IDX 29 63 28 65 35 69 36 72 37 75 38 78 39 81 40 84 41 87 42 88
REMARK SMILES IDX 43 90 44 91 45 92 106 93 46 94 105 96 47 98 48 101 49 102
REMARK SMILES IDX 99 103 50 104 104 105 98 106 100 107 51 108 103 109 97 111
REMARK SMILES IDX 96 113 52 115 84 118 64 119 83 120 65 121 68 122 82 123
REMARK SMILES IDX 101 124 66 125 67 127 81 129 102 130 69 133 53 135 54 136
REMARK SMILES IDX 62 137 55 138 56 139 60 140 63 141 57 142 58 143 61 144
REMARK SMILES IDX 59 145 85 146 86 147 94 148 87 149 88 150 92 151 95 152
REMARK SMILES IDX 89 153 90 154 93 155 91 156 70 157 71 158 79 159 72 160
REMARK SMILES IDX 73 161 77 162 80 163 74 164 75 165 78 166 76 167
REMARK H PARENT 34 4 21 6 20 10 17 12 17 13 16 17 10 24 111 29 108 31 110 32
REMARK H PARENT 109 33 3 42 114 44 4 45 113 46 1 48 1 49 1 50 22 52 22 53
REMARK H PARENT 24 58 25 61 30 64 27 66 29 67 28 68 35 70 35 71 36 73 36 74
REMARK H PARENT 37 76 37 77 38 79 38 80 39 82 39 83 40 85 40 86 41 89 45 95
REMARK H PARENT 106 97 46 99 105 100 104 110 98 112 100 114 103 116 97 117
REMARK H PARENT 65 126 68 128 101 131 66 132 102 134
REMARK Flexibility Score: inf
ROOT
ATOM      1  C   UNL A   1      41.867  22.361  27.952  1.00  0.00     0.242 C 
ATOM      2  O   UNL A   1      42.053  23.016  28.985  1.00  0.00    -0.273 OA
ATOM      3  N   UNL A   1      42.949  21.690  27.480  1.00  0.00    -0.354 N 
ATOM      4  H   UNL A   1      43.693  21.641  28.123  1.00  0.00     0.163 HD
ENDROOT
BRANCH   1   5
ATOM      5  C   UNL A   1      40.486  22.369  27.278  1.00  0.00     0.112 C 
ATOM      6  H   UNL A   1      39.768  22.431  28.070  1.00  0.00     0.064 H 
BRANCH   5   7
ATOM      7  N   UNL A   1      40.369  21.120  26.507  1.00  0.00    -0.342 N 
ATOM      8  C   UNL A   1      39.285  20.605  25.858  1.00  0.00     0.240 C 
ATOM      9  O   UNL A   1      39.405  19.461  25.408  1.00  0.00    -0.273 OA
ATOM     10  H   UNL A   1      41.191  20.580  26.453  1.00  0.00     0.164 HD
BRANCH   8  11
ATOM     11  C   UNL A   1      38.049  21.465  25.516  1.00  0.00     0.097 C 
ATOM     12  H   UNL A   1      38.116  22.362  26.096  1.00  0.00     0.059 H 
ATOM     13  H   UNL A   1      38.097  21.589  24.454  1.00  0.00     0.059 H 
BRANCH  11  14
ATOM     14  N   UNL A   1      36.724  20.896  25.753  1.00  0.00    -0.340 N 
ATOM     15  C   UNL A   1      35.486  21.517  25.675  1.00  0.00     0.292 C 
ATOM     16  O   UNL A   1      34.436  20.901  25.813  1.00  0.00    -0.265 OA
ATOM     17  H   UNL A   1      36.708  19.944  26.002  1.00  0.00     0.164 HD
BRANCH  15  18
ATOM     18  C   UNL A   1      35.429  23.010  25.371  1.00  0.00     0.252 C 
ATOM     19  O   UNL A   1      36.217  23.716  26.000  1.00  0.00    -0.283 OA
BRANCH  18  20
ATOM     20  C   UNL A   1      34.369  23.585  24.531  1.00  0.00     0.054 A 
ATOM     21  N   UNL A   1      33.083  24.424  22.867  1.00  0.00    -0.240 N 
ATOM     22  C   UNL A   1      34.344  23.908  23.168  1.00  0.00     0.033 A 
ATOM     23  C   UNL A   1      32.259  24.194  23.985  1.00  0.00     0.065 A 
ATOM     24  H   UNL A   1      35.123  23.785  22.502  1.00  0.00     0.084 H 
ATOM     25  C   UNL A   1      33.122  24.026  25.063  1.00  0.00     0.012 A 
ATOM     26  C   UNL A   1      30.882  24.427  24.175  1.00  0.00    -0.037 A 
ATOM     27  C   UNL A   1      32.636  24.277  26.364  1.00  0.00    -0.052 A 
ATOM     28  C   UNL A   1      30.447  24.754  25.459  1.00  0.00    -0.060 A 
ATOM     29  H   UNL A   1      30.217  24.357  23.390  1.00  0.00     0.065 H 
ATOM     30  C   UNL A   1      31.321  24.718  26.536  1.00  0.00    -0.061 A 
ATOM     31  H   UNL A   1      33.247  24.136  27.183  1.00  0.00     0.063 H 
ATOM     32  H   UNL A   1      29.463  25.025  25.610  1.00  0.00     0.062 H 
ATOM     33  H   UNL A   1      30.999  25.019  27.469  1.00  0.00     0.062 H 
BRANCH  21  34
ATOM     34  S   UNL A   1      32.750  25.990  22.163  1.00  0.00     0.268 S 
ATOM     35  O   UNL A   1      31.945  25.656  20.998  1.00  0.00    -0.201 OA
ATOM     36  O   UNL A   1      34.089  26.549  22.016  1.00  0.00    -0.201 OA
BRANCH  34  37
ATOM     37  C   UNL A   1      31.913  27.335  22.919  1.00  0.00     0.088 A 
ATOM     38  C   UNL A   1      30.249  29.528  23.535  1.00  0.00    -0.051 A 
ATOM     39  C   UNL A   1      29.876  28.651  22.527  1.00  0.00    -0.058 A 
ATOM     40  C   UNL A   1      31.448  29.286  24.244  1.00  0.00    -0.058 A 
ATOM     41  C   UNL A   1      30.690  27.572  22.241  1.00  0.00    -0.041 A 
ATOM     42  H   UNL A   1      29.003  28.803  21.999  1.00  0.00     0.063 H 
ATOM     43  C   UNL A   1      32.296  28.188  23.939  1.00  0.00    -0.041 A 
ATOM     44  H   UNL A   1      31.715  29.927  25.007  1.00  0.00     0.063 H 
ATOM     45  H   UNL A   1      30.396  26.912  21.504  1.00  0.00     0.064 H 
ATOM     46  H   UNL A   1      33.172  28.032  24.463  1.00  0.00     0.064 H 
BRANCH  38  47
ATOM     47  C   UNL A   1      29.368  30.725  23.763  1.00  0.00    -0.040 C 
ATOM     48  H   UNL A   1      28.611  30.760  23.007  1.00  0.00     0.028 H 
ATOM     49  H   UNL A   1      29.959  31.616  23.718  1.00  0.00     0.028 H 
ATOM     50  H   UNL A   1      28.908  30.651  24.726  1.00  0.00     0.028 H 
ENDBRANCH  38  47
ENDBRANCH  34  37
ENDBRANCH  21  34
ENDBRANCH  18  20
ENDBRANCH  15  18
ENDBRANCH  11  14
ENDBRANCH   8  11
ENDBRANCH   5   7
BRANCH   5  51
ATOM     51  C   UNL A   1      40.090  23.614  26.448  1.00  0.00     0.004 C 
ATOM     52  H   UNL A   1      39.136  23.397  26.016  1.00  0.00     0.034 H 
ATOM     53  H   UNL A   1      40.934  23.735  25.801  1.00  0.00     0.034 H 
BRANCH  51  54
ATOM     54  C   UNL A   1      39.970  24.982  27.079  1.00  0.00    -0.020 A 
ATOM     55  C   UNL A   1      39.216  25.404  28.156  1.00  0.00     0.005 A 
ATOM     56  C   UNL A   1      40.684  26.162  26.639  1.00  0.00     0.003 A 
ATOM     57  N   UNL A   1      39.617  26.659  28.522  1.00  0.00    -0.361 N 
ATOM     58  H   UNL A   1      38.467  24.858  28.612  1.00  0.00     0.082 H 
ATOM     59  C   UNL A   1      40.505  27.152  27.606  1.00  0.00     0.046 A 
ATOM     60  C   UNL A   1      41.487  26.476  25.522  1.00  0.00    -0.053 A 
ATOM     61  H   UNL A   1      39.312  27.137  29.327  1.00  0.00     0.166 HD
ATOM     62  C   UNL A   1      41.136  28.399  27.564  1.00  0.00    -0.038 A 
ATOM     63  C   UNL A   1      42.073  27.747  25.426  1.00  0.00    -0.062 A 
ATOM     64  H   UNL A   1      41.643  25.775  24.780  1.00  0.00     0.063 H 
ATOM     65  C   UNL A   1      41.919  28.684  26.445  1.00  0.00    -0.060 A 
ATOM     66  H   UNL A   1      41.028  29.081  28.329  1.00  0.00     0.064 H 
ATOM     67  H   UNL A   1      42.625  27.991  24.590  1.00  0.00     0.062 H 
ATOM     68  H   UNL A   1      42.389  29.600  26.372  1.00  0.00     0.062 H 
ENDBRANCH  51  54
ENDBRANCH   5  51
ENDBRANCH   1   5
BRANCH   3  69
ATOM     69  C   UNL A   1      43.225  21.031  26.221  1.00  0.00     0.017 C 
ATOM     70  H   UNL A   1      42.312  20.628  25.834  1.00  0.00     0.049 H 
ATOM     71  H   UNL A   1      43.943  20.260  26.402  1.00  0.00     0.049 H 
BRANCH  69  72
ATOM     72  C   UNL A   1      43.815  21.991  25.187  1.00  0.00    -0.036 C 
ATOM     73  H   UNL A   1      43.398  22.960  25.358  1.00  0.00     0.028 H 
ATOM     74  H   UNL A   1      43.571  21.585  24.228  1.00  0.00     0.028 H 
BRANCH  72  75
ATOM     75  C   UNL A   1      45.347  22.119  25.220  1.00  0.00    -0.052 C 
ATOM     76  H   UNL A   1      45.721  21.807  24.268  1.00  0.00     0.027 H 
ATOM     77  H   UNL A   1      45.670  21.510  26.037  1.00  0.00     0.027 H 
BRANCH  75  78
ATOM     78  C   UNL A   1      45.898  23.523  25.505  1.00  0.00    -0.052 C 
ATOM     79  H   UNL A   1      46.689  23.713  24.811  1.00  0.00     0.027 H 
ATOM     80  H   UNL A   1      46.213  23.511  26.528  1.00  0.00     0.027 H 
BRANCH  78  81
ATOM     81  C   UNL A   1      44.887  24.663  25.392  1.00  0.00    -0.036 C 
ATOM     82  H   UNL A   1      43.907  24.256  25.531  1.00  0.00     0.028 H 
ATOM     83  H   UNL A   1      45.021  25.099  24.425  1.00  0.00     0.028 H 
BRANCH  81  84
ATOM     84  C   UNL A   1      45.090  25.779  26.408  1.00  0.00     0.018 C 
ATOM     85  H   UNL A   1      44.696  25.455  27.348  1.00  0.00     0.049 H 
ATOM     86  H   UNL A   1      44.584  26.643  26.029  1.00  0.00     0.049 H 
BRANCH  84  87
ATOM     87  N   UNL A   1      46.478  26.151  26.597  1.00  0.00    -0.352 N 
ATOM     88  C   UNL A   1      47.212  26.322  27.760  1.00  0.00     0.251 C 
ATOM     89  H   UNL A   1      46.981  26.309  25.764  1.00  0.00     0.163 HD
ATOM     90  O   UNL A   1      48.292  26.869  27.704  1.00  0.00    -0.269 OA
BRANCH  88  91
ATOM     91  C   UNL A   1      46.769  25.681  29.031  1.00  0.00     0.039 A 
ATOM     92  C   UNL A   1      45.520  25.039  29.005  1.00  0.00    -0.049 A 
ATOM     93  C   UNL A   1      47.415  25.878  30.246  1.00  0.00    -0.049 A 
ATOM     94  C   UNL A   1      44.821  24.835  30.193  1.00  0.00    -0.053 A 
ATOM     95  H   UNL A   1      45.121  24.718  28.109  1.00  0.00     0.063 H 
ATOM     96  C   UNL A   1      46.695  25.762  31.417  1.00  0.00    -0.053 A 
ATOM     97  H   UNL A   1      48.421  26.107  30.272  1.00  0.00     0.063 H 
ATOM     98  C   UNL A   1      45.375  25.309  31.378  1.00  0.00    -0.014 A 
ATOM     99  H   UNL A   1      43.914  24.343  30.194  1.00  0.00     0.063 H 
ATOM    100  H   UNL A   1      47.132  26.008  32.319  1.00  0.00     0.063 H 
BRANCH  98 101
ATOM    101  C   UNL A   1      44.622  25.481  32.607  1.00  0.00     0.031 A 
ATOM    102  C   UNL A   1      44.039  26.791  32.947  1.00  0.00     0.074 A 
ATOM    103  C   UNL A   1      44.360  24.390  33.360  1.00  0.00     0.049 A 
ATOM    104  N   UNL A   1      43.720  27.142  34.145  1.00  0.00    -0.248 NA
ATOM    105  C   UNL A   1      43.793  27.832  31.954  1.00  0.00    -0.034 C 
ATOM    106  C   UNL A   1      43.389  24.269  34.443  1.00  0.00    -0.036 A 
ATOM    107  N   UNL A   1      45.076  23.182  33.395  1.00  0.00    -0.354 N 
ATOM    108  C   UNL A   1      43.007  28.313  34.059  1.00  0.00     0.074 A 
ATOM    109  C   UNL A   1      43.124  28.734  32.682  1.00  0.00    -0.034 C 
ATOM    110  H   UNL A   1      44.063  27.864  30.959  1.00  0.00     0.065 H 
ATOM    111  C   UNL A   1      43.729  23.223  35.214  1.00  0.00    -0.036 A 
ATOM    112  H   UNL A   1      42.575  24.885  34.592  1.00  0.00     0.065 H 
ATOM    113  C   UNL A   1      45.012  22.738  34.736  1.00  0.00     0.049 A 
ATOM    114  H   UNL A   1      45.529  22.737  32.643  1.00  0.00     0.167 HD
ATOM    115  C   UNL A   1      42.288  28.737  35.134  1.00  0.00     0.037 A 
ATOM    116  H   UNL A   1      42.742  29.617  32.308  1.00  0.00     0.065 H 
ATOM    117  H   UNL A   1      43.181  22.835  35.998  1.00  0.00     0.065 H 
ATOM    118  C   UNL A   1      46.139  22.641  35.501  1.00  0.00     0.037 A 
ATOM    119  C   UNL A   1      42.445  27.837  36.269  1.00  0.00     0.049 A 
ATOM    120  C   UNL A   1      46.112  23.517  36.732  1.00  0.00     0.074 A 
ATOM    121  C   UNL A   1      41.698  26.758  36.709  1.00  0.00    -0.036 A 
ATOM    122  N   UNL A   1      43.677  27.754  36.908  1.00  0.00    -0.354 N 
ATOM    123  N   UNL A   1      45.344  24.562  36.859  1.00  0.00    -0.248 NA
ATOM    124  C   UNL A   1      46.960  23.297  37.901  1.00  0.00    -0.034 C 
ATOM    125  C   UNL A   1      42.511  25.986  37.575  1.00  0.00    -0.036 A 
ATOM    126  H   UNL A   1      40.721  26.552  36.453  1.00  0.00     0.065 H 
ATOM    127  C   UNL A   1      43.740  26.612  37.682  1.00  0.00     0.049 A 
ATOM    128  H   UNL A   1      44.401  28.415  36.821  1.00  0.00     0.167 HD
ATOM    129  C   UNL A   1      45.581  25.157  38.071  1.00  0.00     0.074 A 
ATOM    130  C   UNL A   1      46.591  24.321  38.692  1.00  0.00    -0.034 C 
ATOM    131  H   UNL A   1      47.656  22.556  38.074  1.00  0.00     0.065 H 
ATOM    132  H   UNL A   1      42.234  25.110  38.045  1.00  0.00     0.065 H 
ATOM    133  C   UNL A   1      44.929  26.293  38.454  1.00  0.00     0.037 A 
ATOM    134  H   UNL A   1      46.981  24.492  39.631  1.00  0.00     0.065 H 
BRANCH 115 135
ATOM    135  C   UNL A   1      41.235  29.806  35.037  1.00  0.00     0.064 A 
ATOM    136  C   UNL A   1      41.361  31.018  35.747  1.00  0.00     0.173 A 
ATOM    137  C   UNL A   1      40.056  29.666  34.286  1.00  0.00     0.173 A 
ATOM    138  F   UNL A   1      42.459  31.302  36.460  1.00  0.00    -0.203 F 
ATOM    139  C   UNL A   1      40.347  31.977  35.770  1.00  0.00     0.198 A 
ATOM    140  C   UNL A   1      39.019  30.603  34.349  1.00  0.00     0.198 A 
ATOM    141  F   UNL A   1      39.887  28.624  33.458  1.00  0.00    -0.203 F 
ATOM    142  F   UNL A   1      40.518  33.109  36.468  1.00  0.00    -0.200 F 
ATOM    143  C   UNL A   1      39.163  31.756  35.096  1.00  0.00     0.200 A 
ATOM    144  F   UNL A   1      37.876  30.376  33.688  1.00  0.00    -0.200 F 
ATOM    145  F   UNL A   1      38.171  32.654  35.159  1.00  0.00    -0.200 F 
ENDBRANCH 115 135
BRANCH 118 146
ATOM    146  C   UNL A   1      47.352  22.319  34.703  1.00  0.00     0.064 A 
ATOM    147  C   UNL A   1      48.240  23.370  34.398  1.00  0.00     0.173 A 
ATOM    148  C   UNL A   1      47.841  21.011  34.607  1.00  0.00     0.173 A 
ATOM    149  F   UNL A   1      47.822  24.644  34.478  1.00  0.00    -0.203 F 
ATOM    150  C   UNL A   1      49.587  23.128  34.140  1.00  0.00     0.198 A 
ATOM    151  C   UNL A   1      49.191  20.772  34.333  1.00  0.00     0.198 A 
ATOM    152  F   UNL A   1      47.050  19.969  34.897  1.00  0.00    -0.203 F 
ATOM    153  F   UNL A   1      50.431  24.158  33.979  1.00  0.00    -0.200 F 
ATOM    154  C   UNL A   1      50.067  21.830  34.138  1.00  0.00     0.200 A 
ATOM    155  F   UNL A   1      49.661  19.517  34.352  1.00  0.00    -0.200 F 
ATOM    156  F   UNL A   1      51.379  21.601  33.988  1.00  0.00    -0.200 F 
ENDBRANCH 118 146
BRANCH 133 157
ATOM    157  C   UNL A   1      45.274  27.162  39.637  1.00  0.00     0.064 A 
ATOM    158  C   UNL A   1      44.810  26.928  40.941  1.00  0.00     0.173 A 
ATOM    159  C   UNL A   1      46.240  28.192  39.509  1.00  0.00     0.173 A 
ATOM    160  F   UNL A   1      43.983  25.910  41.212  1.00  0.00    -0.203 F 
ATOM    161  C   UNL A   1      45.234  27.701  42.026  1.00  0.00     0.198 A 
ATOM    162  C   UNL A   1      46.704  28.921  40.603  1.00  0.00     0.198 A 
ATOM    163  F   UNL A   1      46.783  28.502  38.323  1.00  0.00    -0.203 F 
ATOM    164  F   UNL A   1      44.730  27.462  43.245  1.00  0.00    -0.200 F 
ATOM    165  C   UNL A   1      46.189  28.685  41.860  1.00  0.00     0.200 A 
ATOM    166  F   UNL A   1      47.671  29.834  40.432  1.00  0.00    -0.200 F 
ATOM    167  F   UNL A   1      46.628  29.390  42.911  1.00  0.00    -0.200 F 
ENDBRANCH 133 157
ENDBRANCH  98 101
ENDBRANCH  88  91
ENDBRANCH  84  87
ENDBRANCH  81  84
ENDBRANCH  78  81
ENDBRANCH  75  78
ENDBRANCH  72  75
ENDBRANCH  69  72
ENDBRANCH   3  69
TORSDOF 23
ENDMDL
MODEL 10
REMARK VINA RESULT:     -11.2      4.869      7.902
REMARK SMILES Cc1ccc(S(=O)(=O)n2cc(C(=O)C(=O)NCC(=O)N[C@H](Cc3c[nH]c4ccccc34)C(=O)NCCCCCCNC(=O)c3ccc(-c4c5nc(c(-c6c(F)c(F)c(F)c(F)c6F)c6ccc([nH]6)c(-c6c(F)c(F)c(F)c(F)c6F)c6nc(c(-c7c(F)c(F)c(F)c(F)c7F)c7ccc4[nH]7)C=C6)C=C5)cc3)c3ccccc32)cc1
REMARK SMILES IDX 32 1 33 2 34 3 21 5 20 7 18 8 19 9 17 11 16 14 14 15 15 16
REMARK SMILES IDX 12 18 13 19 11 20 9 21 10 22 112 23 107 25 111 26 108 27
REMARK SMILES IDX 110 28 109 30 6 34 7 35 8 36 5 37 2 38 3 39 114 40 4 41
REMARK SMILES IDX 113 43 1 47 22 51 23 54 24 55 31 56 25 57 26 59 30 60 27 62
REMARK SMILES IDX 29 63 28 65 35 69 36 72 37 75 38 78 39 81 40 84 41 87 42 88
REMARK SMILES IDX 43 90 44 91 45 92 106 93 46 94 105 96 47 98 48 101 49 102
REMARK SMILES IDX 99 103 50 104 104 105 98 106 100 107 51 108 103 109 97 111
REMARK SMILES IDX 96 113 52 115 84 118 64 119 83 120 65 121 68 122 82 123
REMARK SMILES IDX 101 124 66 125 67 127 81 129 102 130 69 133 53 135 54 136
REMARK SMILES IDX 62 137 55 138 56 139 60 140 63 141 57 142 58 143 61 144
REMARK SMILES IDX 59 145 85 146 86 147 94 148 87 149 88 150 92 151 95 152
REMARK SMILES IDX 89 153 90 154 93 155 91 156 70 157 71 158 79 159 72 160
REMARK SMILES IDX 73 161 77 162 80 163 74 164 75 165 78 166 76 167
REMARK H PARENT 34 4 21 6 20 10 17 12 17 13 16 17 10 24 111 29 108 31 110 32
REMARK H PARENT 109 33 3 42 114 44 4 45 113 46 1 48 1 49 1 50 22 52 22 53
REMARK H PARENT 24 58 25 61 30 64 27 66 29 67 28 68 35 70 35 71 36 73 36 74
REMARK H PARENT 37 76 37 77 38 79 38 80 39 82 39 83 40 85 40 86 41 89 45 95
REMARK H PARENT 106 97 46 99 105 100 104 110 98 112 100 114 103 116 97 117
REMARK H PARENT 65 126 68 128 101 131 66 132 102 134
REMARK Flexibility Score: inf
ROOT
ATOM      1  C   UNL A   1      33.452  28.332  24.011  1.00  0.00     0.242 C 
ATOM      2  O   UNL A   1      34.043  28.284  22.926  1.00  0.00    -0.273 OA
ATOM      3  N   UNL A   1      33.304  29.571  24.543  1.00  0.00    -0.354 N 
ATOM      4  H   UNL A   1      33.503  30.299  23.910  1.00  0.00     0.163 HD
ENDROOT
BRANCH   1   5
ATOM      5  C   UNL A   1      32.966  27.035  24.677  1.00  0.00     0.112 C 
ATOM      6  H   UNL A   1      33.607  26.873  25.519  1.00  0.00     0.064 H 
BRANCH   5   7
ATOM      7  N   UNL A   1      33.074  25.963  23.674  1.00  0.00    -0.342 N 
ATOM      8  C   UNL A   1      34.028  24.997  23.542  1.00  0.00     0.240 C 
ATOM      9  O   UNL A   1      33.973  24.303  22.521  1.00  0.00    -0.273 OA
ATOM     10  H   UNL A   1      32.353  25.939  23.002  1.00  0.00     0.164 HD
BRANCH   8  11
ATOM     11  C   UNL A   1      35.002  24.644  24.687  1.00  0.00     0.097 C 
ATOM     12  H   UNL A   1      35.976  24.545  24.257  1.00  0.00     0.059 H 
ATOM     13  H   UNL A   1      34.880  25.439  25.394  1.00  0.00     0.059 H 
BRANCH  11  14
ATOM     14  N   UNL A   1      34.748  23.431  25.462  1.00  0.00    -0.340 N 
ATOM     15  C   UNL A   1      35.609  22.379  25.736  1.00  0.00     0.292 C 
ATOM     16  O   UNL A   1      35.298  21.455  26.478  1.00  0.00    -0.265 OA
ATOM     17  H   UNL A   1      33.842  23.350  25.841  1.00  0.00     0.164 HD
BRANCH  15  18
ATOM     18  C   UNL A   1      37.005  22.392  25.121  1.00  0.00     0.252 C 
ATOM     19  O   UNL A   1      37.104  21.881  24.006  1.00  0.00    -0.283 OA
BRANCH  18  20
ATOM     20  C   UNL A   1      38.183  22.808  25.896  1.00  0.00     0.054 A 
ATOM     21  N   UNL A   1      39.782  23.909  27.061  1.00  0.00    -0.240 N 
ATOM     22  C   UNL A   1      38.574  24.063  26.378  1.00  0.00     0.033 A 
ATOM     23  C   UNL A   1      40.007  22.527  27.205  1.00  0.00     0.065 A 
ATOM     24  H   UNL A   1      38.060  24.949  26.251  1.00  0.00     0.084 H 
ATOM     25  C   UNL A   1      39.247  21.914  26.214  1.00  0.00     0.012 A 
ATOM     26  C   UNL A   1      41.019  21.827  27.893  1.00  0.00    -0.037 A 
ATOM     27  C   UNL A   1      39.625  20.628  25.769  1.00  0.00    -0.052 A 
ATOM     28  C   UNL A   1      41.426  20.596  27.379  1.00  0.00    -0.060 A 
ATOM     29  H   UNL A   1      41.444  22.212  28.749  1.00  0.00     0.065 H 
ATOM     30  C   UNL A   1      40.763  20.021  26.305  1.00  0.00    -0.061 A 
ATOM     31  H   UNL A   1      39.064  20.141  25.053  1.00  0.00     0.063 H 
ATOM     32  H   UNL A   1      42.230  20.108  27.803  1.00  0.00     0.062 H 
ATOM     33  H   UNL A   1      41.113  19.138  25.898  1.00  0.00     0.062 H 
BRANCH  21  34
ATOM     34  S   UNL A   1      41.277  24.748  26.717  1.00  0.00     0.268 S 
ATOM     35  O   UNL A   1      41.720  25.171  28.036  1.00  0.00    -0.201 OA
ATOM     36  O   UNL A   1      40.856  25.722  25.717  1.00  0.00    -0.201 OA
BRANCH  34  37
ATOM     37  C   UNL A   1      42.710  24.087  25.950  1.00  0.00     0.088 A 
ATOM     38  C   UNL A   1      45.273  23.637  24.858  1.00  0.00    -0.051 A 
ATOM     39  C   UNL A   1      45.106  24.619  25.823  1.00  0.00    -0.058 A 
ATOM     40  C   UNL A   1      44.153  22.870  24.462  1.00  0.00    -0.058 A 
ATOM     41  C   UNL A   1      43.850  24.824  26.362  1.00  0.00    -0.041 A 
ATOM     42  H   UNL A   1      45.908  25.189  26.133  1.00  0.00     0.063 H 
ATOM     43  C   UNL A   1      42.858  23.091  25.001  1.00  0.00    -0.041 A 
ATOM     44  H   UNL A   1      44.281  22.126  23.759  1.00  0.00     0.063 H 
ATOM     45  H   UNL A   1      43.737  25.542  27.095  1.00  0.00     0.064 H 
ATOM     46  H   UNL A   1      42.050  22.526  24.693  1.00  0.00     0.064 H 
BRANCH  38  47
ATOM     47  C   UNL A   1      46.641  23.498  24.251  1.00  0.00    -0.040 C 
ATOM     48  H   UNL A   1      47.244  22.867  24.871  1.00  0.00     0.028 H 
ATOM     49  H   UNL A   1      47.096  24.464  24.175  1.00  0.00     0.028 H 
ATOM     50  H   UNL A   1      46.557  23.066  23.277  1.00  0.00     0.028 H 
ENDBRANCH  38  47
ENDBRANCH  34  37
ENDBRANCH  21  34
ENDBRANCH  18  20
ENDBRANCH  15  18
ENDBRANCH  11  14
ENDBRANCH   8  11
ENDBRANCH   5   7
BRANCH   5  51
ATOM     51  C   UNL A   1      31.586  27.050  25.378  1.00  0.00     0.004 C 
ATOM     52  H   UNL A   1      31.538  27.967  25.928  1.00  0.00     0.034 H 
ATOM     53  H   UNL A   1      31.594  26.125  25.915  1.00  0.00     0.034 H 
BRANCH  51  54
ATOM     54  C   UNL A   1      30.297  26.958  24.594  1.00  0.00    -0.020 A 
ATOM     55  C   UNL A   1      29.452  25.885  24.394  1.00  0.00     0.005 A 
ATOM     56  C   UNL A   1      29.680  28.057  23.883  1.00  0.00     0.003 A 
ATOM     57  N   UNL A   1      28.285  26.330  23.836  1.00  0.00    -0.361 N 
ATOM     58  H   UNL A   1      29.666  24.903  24.628  1.00  0.00     0.082 H 
ATOM     59  C   UNL A   1      28.401  27.651  23.501  1.00  0.00     0.046 A 
ATOM     60  C   UNL A   1      30.079  29.368  23.547  1.00  0.00    -0.053 A 
ATOM     61  H   UNL A   1      27.480  25.780  23.696  1.00  0.00     0.166 HD
ATOM     62  C   UNL A   1      27.475  28.493  22.879  1.00  0.00    -0.038 A 
ATOM     63  C   UNL A   1      29.188  30.207  22.859  1.00  0.00    -0.062 A 
ATOM     64  H   UNL A   1      31.018  29.709  23.806  1.00  0.00     0.063 H 
ATOM     65  C   UNL A   1      27.898  29.782  22.554  1.00  0.00    -0.060 A 
ATOM     66  H   UNL A   1      26.517  28.175  22.669  1.00  0.00     0.064 H 
ATOM     67  H   UNL A   1      29.493  31.151  22.577  1.00  0.00     0.062 H 
ATOM     68  H   UNL A   1      27.246  30.428  22.080  1.00  0.00     0.062 H 
ENDBRANCH  51  54
ENDBRANCH   5  51
ENDBRANCH   1   5
BRANCH   3  69
ATOM     69  C   UNL A   1      32.910  30.037  25.857  1.00  0.00     0.017 C 
ATOM     70  H   UNL A   1      31.953  29.622  26.098  1.00  0.00     0.049 H 
ATOM     71  H   UNL A   1      32.874  31.106  25.832  1.00  0.00     0.049 H 
BRANCH  69  72
ATOM     72  C   UNL A   1      33.911  29.625  26.937  1.00  0.00    -0.036 C 
ATOM     73  H   UNL A   1      34.655  29.007  26.481  1.00  0.00     0.028 H 
ATOM     74  H   UNL A   1      33.345  29.123  27.694  1.00  0.00     0.028 H 
BRANCH  72  75
ATOM     75  C   UNL A   1      34.625  30.791  27.639  1.00  0.00    -0.052 C 
ATOM     76  H   UNL A   1      34.112  30.983  28.558  1.00  0.00     0.027 H 
ATOM     77  H   UNL A   1      34.600  31.605  26.946  1.00  0.00     0.027 H 
BRANCH  75  78
ATOM     78  C   UNL A   1      36.108  30.571  27.966  1.00  0.00    -0.052 C 
ATOM     79  H   UNL A   1      36.580  30.165  27.097  1.00  0.00     0.027 H 
ATOM     80  H   UNL A   1      36.127  29.916  28.813  1.00  0.00     0.027 H 
BRANCH  78  81
ATOM     81  C   UNL A   1      36.884  31.819  28.385  1.00  0.00    -0.036 C 
ATOM     82  H   UNL A   1      36.256  32.404  29.024  1.00  0.00     0.028 H 
ATOM     83  H   UNL A   1      37.152  32.331  27.486  1.00  0.00     0.028 H 
BRANCH  81  84
ATOM     84  C   UNL A   1      38.182  31.527  29.127  1.00  0.00     0.018 C 
ATOM     85  H   UNL A   1      37.992  31.592  30.177  1.00  0.00     0.049 H 
ATOM     86  H   UNL A   1      38.900  32.248  28.795  1.00  0.00     0.049 H 
BRANCH  84  87
ATOM     87  N   UNL A   1      38.735  30.218  28.842  1.00  0.00    -0.352 N 
ATOM     88  C   UNL A   1      39.999  29.704  29.085  1.00  0.00     0.251 C 
ATOM     89  H   UNL A   1      38.113  29.592  28.404  1.00  0.00     0.163 HD
ATOM     90  O   UNL A   1      40.330  28.668  28.553  1.00  0.00    -0.269 OA
BRANCH  88  91
ATOM     91  C   UNL A   1      40.872  30.315  30.129  1.00  0.00     0.039 A 
ATOM     92  C   UNL A   1      40.789  29.761  31.417  1.00  0.00    -0.049 A 
ATOM     93  C   UNL A   1      41.570  31.502  29.936  1.00  0.00    -0.049 A 
ATOM     94  C   UNL A   1      41.173  30.517  32.523  1.00  0.00    -0.053 A 
ATOM     95  H   UNL A   1      40.444  28.797  31.544  1.00  0.00     0.063 H 
ATOM     96  C   UNL A   1      41.870  32.290  31.027  1.00  0.00    -0.053 A 
ATOM     97  H   UNL A   1      41.860  31.789  28.989  1.00  0.00     0.063 H 
ATOM     98  C   UNL A   1      41.603  31.823  32.315  1.00  0.00    -0.014 A 
ATOM     99  H   UNL A   1      41.140  30.115  33.473  1.00  0.00     0.063 H 
ATOM    100  H   UNL A   1      42.291  33.223  30.891  1.00  0.00     0.063 H 
BRANCH  98 101
ATOM    101  C   UNL A   1      41.694  32.818  33.368  1.00  0.00     0.031 A 
ATOM    102  C   UNL A   1      42.923  32.943  34.172  1.00  0.00     0.074 A 
ATOM    103  C   UNL A   1      40.685  33.707  33.505  1.00  0.00     0.049 A 
ATOM    104  N   UNL A   1      42.961  33.486  35.340  1.00  0.00    -0.248 NA
ATOM    105  C   UNL A   1      44.217  32.433  33.728  1.00  0.00    -0.034 C 
ATOM    106  C   UNL A   1      40.692  34.952  34.266  1.00  0.00    -0.036 A 
ATOM    107  N   UNL A   1      39.349  33.553  33.097  1.00  0.00    -0.354 N 
ATOM    108  C   UNL A   1      44.282  33.632  35.687  1.00  0.00     0.074 A 
ATOM    109  C   UNL A   1      45.026  32.914  34.678  1.00  0.00    -0.034 C 
ATOM    110  H   UNL A   1      44.445  31.857  32.904  1.00  0.00     0.065 H 
ATOM    111  C   UNL A   1      39.423  35.308  34.526  1.00  0.00    -0.036 A 
ATOM    112  H   UNL A   1      41.534  35.473  34.556  1.00  0.00     0.065 H 
ATOM    113  C   UNL A   1      38.573  34.222  34.071  1.00  0.00     0.049 A 
ATOM    114  H   UNL A   1      39.021  33.079  32.299  1.00  0.00     0.167 HD
ATOM    115  C   UNL A   1      44.613  34.452  36.722  1.00  0.00     0.037 A 
ATOM    116  H   UNL A   1      46.051  32.789  34.690  1.00  0.00     0.065 H 
ATOM    117  H   UNL A   1      39.111  36.188  34.964  1.00  0.00     0.065 H 
ATOM    118  C   UNL A   1      37.697  33.538  34.865  1.00  0.00     0.037 A 
ATOM    119  C   UNL A   1      43.429  35.032  37.342  1.00  0.00     0.049 A 
ATOM    120  C   UNL A   1      38.008  33.642  36.339  1.00  0.00     0.074 A 
ATOM    121  C   UNL A   1      42.767  36.231  37.138  1.00  0.00    -0.036 A 
ATOM    122  N   UNL A   1      42.556  34.211  38.045  1.00  0.00    -0.354 N 
ATOM    123  N   UNL A   1      39.182  33.954  36.811  1.00  0.00    -0.248 NA
ATOM    124  C   UNL A   1      37.032  33.380  37.394  1.00  0.00    -0.034 C 
ATOM    125  C   UNL A   1      41.461  36.107  37.673  1.00  0.00    -0.036 A 
ATOM    126  H   UNL A   1      43.155  37.069  36.679  1.00  0.00     0.065 H 
ATOM    127  C   UNL A   1      41.341  34.844  38.225  1.00  0.00     0.049 A 
ATOM    128  H   UNL A   1      42.773  33.308  38.370  1.00  0.00     0.167 HD
ATOM    129  C   UNL A   1      39.146  33.929  38.180  1.00  0.00     0.074 A 
ATOM    130  C   UNL A   1      37.775  33.577  38.498  1.00  0.00    -0.034 C 
ATOM    131  H   UNL A   1      36.038  33.115  37.314  1.00  0.00     0.065 H 
ATOM    132  H   UNL A   1      40.727  36.833  37.654  1.00  0.00     0.065 H 
ATOM    133  C   UNL A   1      40.253  34.193  38.934  1.00  0.00     0.037 A 
ATOM    134  H   UNL A   1      37.413  33.488  39.459  1.00  0.00     0.065 H 
BRANCH 115 135
ATOM    135  C   UNL A   1      46.018  34.928  36.964  1.00  0.00     0.064 A 
ATOM    136  C   UNL A   1      46.797  34.394  38.012  1.00  0.00     0.173 A 
ATOM    137  C   UNL A   1      46.633  35.944  36.213  1.00  0.00     0.173 A 
ATOM    138  F   UNL A   1      46.352  33.384  38.771  1.00  0.00    -0.203 F 
ATOM    139  C   UNL A   1      48.058  34.897  38.335  1.00  0.00     0.198 A 
ATOM    140  C   UNL A   1      47.874  36.483  36.567  1.00  0.00     0.198 A 
ATOM    141  F   UNL A   1      46.051  36.429  35.106  1.00  0.00    -0.203 F 
ATOM    142  F   UNL A   1      48.752  34.356  39.345  1.00  0.00    -0.200 F 
ATOM    143  C   UNL A   1      48.584  35.963  37.632  1.00  0.00     0.200 A 
ATOM    144  F   UNL A   1      48.374  37.516  35.875  1.00  0.00    -0.200 F 
ATOM    145  F   UNL A   1      49.773  36.478  37.973  1.00  0.00    -0.200 F 
ENDBRANCH 115 135
BRANCH 118 146
ATOM    146  C   UNL A   1      37.117  32.345  34.192  1.00  0.00     0.064 A 
ATOM    147  C   UNL A   1      36.128  32.556  33.210  1.00  0.00     0.173 A 
ATOM    148  C   UNL A   1      37.778  31.111  34.189  1.00  0.00     0.173 A 
ATOM    149  F   UNL A   1      35.467  33.724  33.167  1.00  0.00    -0.203 F 
ATOM    150  C   UNL A   1      35.905  31.628  32.196  1.00  0.00     0.198 A 
ATOM    151  C   UNL A   1      37.541  30.177  33.178  1.00  0.00     0.198 A 
ATOM    152  F   UNL A   1      38.738  30.855  35.089  1.00  0.00    -0.203 F 
ATOM    153  F   UNL A   1      35.047  31.915  31.206  1.00  0.00    -0.200 F 
ATOM    154  C   UNL A   1      36.635  30.452  32.163  1.00  0.00     0.200 A 
ATOM    155  F   UNL A   1      38.261  29.047  33.133  1.00  0.00    -0.200 F 
ATOM    156  F   UNL A   1      36.493  29.604  31.136  1.00  0.00    -0.200 F 
ENDBRANCH 118 146
BRANCH 133 157
ATOM    157  C   UNL A   1      40.396  33.961  40.417  1.00  0.00     0.064 A 
ATOM    158  C   UNL A   1      41.100  32.883  40.975  1.00  0.00     0.173 A 
ATOM    159  C   UNL A   1      39.946  34.939  41.340  1.00  0.00     0.173 A 
ATOM    160  F   UNL A   1      41.675  31.952  40.202  1.00  0.00    -0.203 F 
ATOM    161  C   UNL A   1      41.291  32.760  42.355  1.00  0.00     0.198 A 
ATOM    162  C   UNL A   1      40.190  34.843  42.708  1.00  0.00     0.198 A 
ATOM    163  F   UNL A   1      39.281  36.031  40.936  1.00  0.00    -0.203 F 
ATOM    164  F   UNL A   1      41.937  31.691  42.841  1.00  0.00    -0.200 F 
ATOM    165  C   UNL A   1      40.850  33.745  43.218  1.00  0.00     0.200 A 
ATOM    166  F   UNL A   1      39.803  35.834  43.524  1.00  0.00    -0.200 F 
ATOM    167  F   UNL A   1      41.078  33.647  44.534  1.00  0.00    -0.200 F 
ENDBRANCH 133 157
ENDBRANCH  98 101
ENDBRANCH  88  91
ENDBRANCH  84  87
ENDBRANCH  81  84
ENDBRANCH  78  81
ENDBRANCH  75  78
ENDBRANCH  72  75
ENDBRANCH  69  72
ENDBRANCH   3  69
TORSDOF 23
ENDMDL
