MODEL 1
REMARK VINA RESULT:     -12.7      0.000      0.000
REMARK SMILES Cc1ccc(Nc2c(C)cccc2Cl)c(CC(=O)NCCCCCCNC(=O)c2ccc(-c3c4nc(c(-c5c(F)c(F)c(F)c(F)c5F)c5ccc([nH]5)c(-c5c(F)c(F)c(F)c(F)c5F)c5nc(c(-c6c(F)c(F)c(F)c(F)c6F)c6ccc3[nH]6)C=C5)C=C4)cc2)c1
REMARK SMILES IDX 21 1 20 4 19 7 17 8 18 9 16 11 15 14 2 15 3 16 92 17 4 18
REMARK SMILES IDX 5 21 1 23 6 27 7 29 8 30 13 31 10 32 12 33 14 34 11 35 9 39
REMARK SMILES IDX 22 43 23 46 24 49 25 52 26 55 27 56 28 58 29 59 30 60 91 61
REMARK SMILES IDX 31 62 90 64 32 66 33 69 34 70 84 71 35 72 89 73 83 74 85 75
REMARK SMILES IDX 36 76 88 77 82 79 81 81 37 83 69 86 49 87 68 88 50 89 53 90
REMARK SMILES IDX 67 91 86 92 51 93 52 95 66 97 87 98 54 101 38 103 39 104
REMARK SMILES IDX 47 105 40 106 41 107 45 108 48 109 42 110 43 111 46 112
REMARK SMILES IDX 44 113 70 114 71 115 79 116 72 117 73 118 77 119 80 120
REMARK SMILES IDX 74 121 75 122 78 123 76 124 55 125 56 126 64 127 57 128
REMARK SMILES IDX 58 129 62 130 65 131 59 132 60 133 63 134 61 135
REMARK H PARENT 21 2 21 3 20 5 20 6 19 10 16 12 16 13 3 19 92 20 4 22 1 24
REMARK H PARENT 1 25 1 26 6 28 10 36 12 37 11 38 9 40 9 41 9 42 22 44 22 45
REMARK H PARENT 23 47 23 48 24 50 24 51 25 53 25 54 26 57 30 63 91 65 31 67
REMARK H PARENT 90 68 89 78 83 80 85 82 88 84 82 85 50 94 53 96 86 99 51 100
REMARK H PARENT 87 102
REMARK Flexibility Score: inf
ROOT
ATOM      1  C   UNL A   1      31.865  28.272  27.260  1.00  0.00    -0.036 C 
ATOM      2  H   UNL A   1      31.531  27.988  28.236  1.00  0.00     0.028 H 
ATOM      3  H   UNL A   1      31.566  29.259  26.977  1.00  0.00     0.028 H 
ENDROOT
BRANCH   1   4
ATOM      4  C   UNL A   1      31.222  27.324  26.244  1.00  0.00     0.017 C 
ATOM      5  H   UNL A   1      30.282  27.733  25.938  1.00  0.00     0.049 H 
ATOM      6  H   UNL A   1      31.891  27.226  25.414  1.00  0.00     0.049 H 
BRANCH   4   7
ATOM      7  N   UNL A   1      31.001  26.005  26.796  1.00  0.00    -0.356 N 
ATOM      8  C   UNL A   1      31.796  24.901  26.714  1.00  0.00     0.224 C 
ATOM      9  O   UNL A   1      31.360  23.830  27.146  1.00  0.00    -0.275 OA
ATOM     10  H   UNL A   1      30.163  25.888  27.298  1.00  0.00     0.163 HD
BRANCH   8  11
ATOM     11  C   UNL A   1      33.179  24.980  26.093  1.00  0.00     0.054 C 
ATOM     12  H   UNL A   1      33.505  25.999  26.125  1.00  0.00     0.042 H 
ATOM     13  H   UNL A   1      33.811  24.328  26.661  1.00  0.00     0.042 H 
BRANCH  11  14
ATOM     14  C   UNL A   1      33.238  24.507  24.657  1.00  0.00    -0.015 A 
ATOM     15  C   UNL A   1      32.651  24.968  22.322  1.00  0.00    -0.051 A 
ATOM     16  C   UNL A   1      33.171  23.726  21.966  1.00  0.00    -0.057 A 
ATOM     17  C   UNL A   1      32.709  25.358  23.661  1.00  0.00    -0.054 A 
ATOM     18  C   UNL A   1      33.738  22.894  22.935  1.00  0.00    -0.038 A 
ATOM     19  H   UNL A   1      33.136  23.418  20.981  1.00  0.00     0.063 H 
ATOM     20  H   UNL A   1      32.359  26.290  23.931  1.00  0.00     0.063 H 
ATOM     21  C   UNL A   1      33.785  23.259  24.291  1.00  0.00     0.042 A 
ATOM     22  H   UNL A   1      34.135  21.987  22.646  1.00  0.00     0.064 H 
BRANCH  15  23
ATOM     23  C   UNL A   1      32.048  25.860  21.280  1.00  0.00    -0.040 C 
ATOM     24  H   UNL A   1      32.300  25.494  20.307  1.00  0.00     0.028 H 
ATOM     25  H   UNL A   1      32.429  26.853  21.397  1.00  0.00     0.028 H 
ATOM     26  H   UNL A   1      30.983  25.871  21.391  1.00  0.00     0.028 H 
ENDBRANCH  15  23
BRANCH  21  27
ATOM     27  N   UNL A   1      34.424  22.435  25.242  1.00  0.00    -0.354 N 
ATOM     28  H   UNL A   1      34.054  22.476  26.155  1.00  0.00     0.167 HD
BRANCH  27  29
ATOM     29  C   UNL A   1      35.523  21.558  25.070  1.00  0.00     0.060 A 
ATOM     30  C   UNL A   1      35.346  20.170  24.885  1.00  0.00    -0.026 A 
ATOM     31  C   UNL A   1      36.837  22.068  25.157  1.00  0.00     0.064 A 
ATOM     32  C   UNL A   1      36.473  19.330  24.846  1.00  0.00    -0.057 A 
ATOM     33  C   UNL A   1      37.946  21.221  25.095  1.00  0.00    -0.041 A 
ATOM     34  Cl  UNL A   1      37.124  23.762  25.378  1.00  0.00    -0.082 Cl
ATOM     35  C   UNL A   1      37.763  19.850  24.952  1.00  0.00    -0.060 A 
ATOM     36  H   UNL A   1      36.344  18.311  24.737  1.00  0.00     0.063 H 
ATOM     37  H   UNL A   1      38.899  21.613  25.156  1.00  0.00     0.064 H 
ATOM     38  H   UNL A   1      38.579  19.219  24.924  1.00  0.00     0.062 H 
BRANCH  30  39
ATOM     39  C   UNL A   1      33.990  19.538  24.717  1.00  0.00    -0.038 C 
ATOM     40  H   UNL A   1      33.258  20.302  24.557  1.00  0.00     0.028 H 
ATOM     41  H   UNL A   1      33.742  18.987  25.600  1.00  0.00     0.028 H 
ATOM     42  H   UNL A   1      34.006  18.877  23.876  1.00  0.00     0.028 H 
ENDBRANCH  30  39
ENDBRANCH  27  29
ENDBRANCH  21  27
ENDBRANCH  11  14
ENDBRANCH   8  11
ENDBRANCH   4   7
ENDBRANCH   1   4
BRANCH   1  43
ATOM     43  C   UNL A   1      33.402  28.277  27.267  1.00  0.00    -0.052 C 
ATOM     44  H   UNL A   1      33.733  27.483  26.631  1.00  0.00     0.027 H 
ATOM     45  H   UNL A   1      33.681  28.168  28.295  1.00  0.00     0.027 H 
BRANCH  43  46
ATOM     46  C   UNL A   1      34.086  29.570  26.795  1.00  0.00    -0.052 C 
ATOM     47  H   UNL A   1      33.839  29.713  25.763  1.00  0.00     0.027 H 
ATOM     48  H   UNL A   1      35.130  29.428  26.979  1.00  0.00     0.027 H 
BRANCH  46  49
ATOM     49  C   UNL A   1      33.703  30.845  27.548  1.00  0.00    -0.036 C 
ATOM     50  H   UNL A   1      33.370  30.568  28.528  1.00  0.00     0.028 H 
ATOM     51  H   UNL A   1      32.942  31.325  26.970  1.00  0.00     0.028 H 
BRANCH  49  52
ATOM     52  C   UNL A   1      34.835  31.852  27.699  1.00  0.00     0.018 C 
ATOM     53  H   UNL A   1      34.552  32.755  27.197  1.00  0.00     0.049 H 
ATOM     54  H   UNL A   1      35.710  31.406  27.273  1.00  0.00     0.049 H 
BRANCH  52  55
ATOM     55  N   UNL A   1      35.151  32.174  29.082  1.00  0.00    -0.352 N 
ATOM     56  C   UNL A   1      35.906  31.483  30.015  1.00  0.00     0.251 C 
ATOM     57  H   UNL A   1      34.768  33.021  29.406  1.00  0.00     0.163 HD
ATOM     58  O   UNL A   1      35.980  31.891  31.158  1.00  0.00    -0.269 OA
BRANCH  56  59
ATOM     59  C   UNL A   1      36.747  30.334  29.584  1.00  0.00     0.039 A 
ATOM     60  C   UNL A   1      36.865  29.255  30.472  1.00  0.00    -0.049 A 
ATOM     61  C   UNL A   1      37.563  30.397  28.460  1.00  0.00    -0.049 A 
ATOM     62  C   UNL A   1      37.970  28.412  30.383  1.00  0.00    -0.053 A 
ATOM     63  H   UNL A   1      36.139  29.087  31.185  1.00  0.00     0.063 H 
ATOM     64  C   UNL A   1      38.708  29.629  28.425  1.00  0.00    -0.053 A 
ATOM     65  H   UNL A   1      37.315  31.007  27.665  1.00  0.00     0.063 H 
ATOM     66  C   UNL A   1      38.952  28.700  29.441  1.00  0.00    -0.014 A 
ATOM     67  H   UNL A   1      38.057  27.592  31.003  1.00  0.00     0.063 H 
ATOM     68  H   UNL A   1      39.382  29.738  27.651  1.00  0.00     0.063 H 
BRANCH  66  69
ATOM     69  C   UNL A   1      40.330  28.233  29.542  1.00  0.00     0.031 A 
ATOM     70  C   UNL A   1      40.715  26.891  29.067  1.00  0.00     0.074 A 
ATOM     71  C   UNL A   1      41.278  29.128  29.905  1.00  0.00     0.049 A 
ATOM     72  N   UNL A   1      41.886  26.380  29.243  1.00  0.00    -0.248 NA
ATOM     73  C   UNL A   1      39.786  25.976  28.408  1.00  0.00    -0.034 C 
ATOM     74  C   UNL A   1      42.722  29.038  29.699  1.00  0.00    -0.036 A 
ATOM     75  N   UNL A   1      41.122  30.241  30.753  1.00  0.00    -0.354 N 
ATOM     76  C   UNL A   1      41.961  25.238  28.487  1.00  0.00     0.074 A 
ATOM     77  C   UNL A   1      40.600  24.959  28.105  1.00  0.00    -0.034 C 
ATOM     78  H   UNL A   1      38.776  26.085  28.226  1.00  0.00     0.065 H 
ATOM     79  C   UNL A   1      43.336  29.812  30.607  1.00  0.00    -0.036 A 
ATOM     80  H   UNL A   1      43.192  28.471  28.976  1.00  0.00     0.065 H 
ATOM     81  C   UNL A   1      42.313  30.288  31.519  1.00  0.00     0.049 A 
ATOM     82  H   UNL A   1      40.352  30.854  30.803  1.00  0.00     0.167 HD
ATOM     83  C   UNL A   1      43.194  24.747  28.179  1.00  0.00     0.037 A 
ATOM     84  H   UNL A   1      40.293  24.083  27.653  1.00  0.00     0.065 H 
ATOM     85  H   UNL A   1      44.345  30.029  30.646  1.00  0.00     0.065 H 
ATOM     86  C   UNL A   1      42.286  30.033  32.861  1.00  0.00     0.037 A 
ATOM     87  C   UNL A   1      44.218  25.321  29.056  1.00  0.00     0.049 A 
ATOM     88  C   UNL A   1      43.093  28.825  33.300  1.00  0.00     0.074 A 
ATOM     89  C   UNL A   1      45.248  26.235  28.917  1.00  0.00    -0.036 A 
ATOM     90  N   UNL A   1      44.090  25.096  30.417  1.00  0.00    -0.354 N 
ATOM     91  N   UNL A   1      43.712  28.014  32.487  1.00  0.00    -0.248 NA
ATOM     92  C   UNL A   1      43.173  28.383  34.693  1.00  0.00    -0.034 C 
ATOM     93  C   UNL A   1      45.676  26.613  30.229  1.00  0.00    -0.036 A 
ATOM     94  H   UNL A   1      45.637  26.581  28.026  1.00  0.00     0.065 H 
ATOM     95  C   UNL A   1      44.929  25.904  31.154  1.00  0.00     0.049 A 
ATOM     96  H   UNL A   1      43.473  24.438  30.811  1.00  0.00     0.167 HD
ATOM     97  C   UNL A   1      44.198  26.949  33.194  1.00  0.00     0.074 A 
ATOM     98  C   UNL A   1      43.843  27.224  34.573  1.00  0.00    -0.034 C 
ATOM     99  H   UNL A   1      42.810  28.839  35.544  1.00  0.00     0.065 H 
ATOM    100  H   UNL A   1      46.415  27.299  30.449  1.00  0.00     0.065 H 
ATOM    101  C   UNL A   1      44.814  25.887  32.602  1.00  0.00     0.037 A 
ATOM    102  H   UNL A   1      44.078  26.606  35.365  1.00  0.00     0.065 H 
BRANCH  83 103
ATOM    103  C   UNL A   1      43.514  23.836  27.012  1.00  0.00     0.064 A 
ATOM    104  C   UNL A   1      43.095  22.487  27.035  1.00  0.00     0.173 A 
ATOM    105  C   UNL A   1      44.330  24.177  25.911  1.00  0.00     0.173 A 
ATOM    106  F   UNL A   1      42.327  22.014  28.026  1.00  0.00    -0.203 F 
ATOM    107  C   UNL A   1      43.474  21.565  26.052  1.00  0.00     0.198 A 
ATOM    108  C   UNL A   1      44.662  23.267  24.903  1.00  0.00     0.198 A 
ATOM    109  F   UNL A   1      44.902  25.377  25.786  1.00  0.00    -0.203 F 
ATOM    110  F   UNL A   1      43.098  20.282  26.163  1.00  0.00    -0.200 F 
ATOM    111  C   UNL A   1      44.249  21.957  24.980  1.00  0.00     0.200 A 
ATOM    112  F   UNL A   1      45.420  23.672  23.873  1.00  0.00    -0.200 F 
ATOM    113  F   UNL A   1      44.614  21.076  24.040  1.00  0.00    -0.200 F 
ENDBRANCH  83 103
BRANCH  86 114
ATOM    114  C   UNL A   1      41.025  30.488  33.505  1.00  0.00     0.064 A 
ATOM    115  C   UNL A   1      40.872  31.860  33.788  1.00  0.00     0.173 A 
ATOM    116  C   UNL A   1      39.871  29.697  33.495  1.00  0.00     0.173 A 
ATOM    117  F   UNL A   1      41.949  32.664  33.809  1.00  0.00    -0.203 F 
ATOM    118  C   UNL A   1      39.612  32.434  33.931  1.00  0.00     0.198 A 
ATOM    119  C   UNL A   1      38.610  30.273  33.660  1.00  0.00     0.198 A 
ATOM    120  F   UNL A   1      39.945  28.390  33.209  1.00  0.00    -0.203 F 
ATOM    121  F   UNL A   1      39.495  33.761  34.083  1.00  0.00    -0.200 F 
ATOM    122  C   UNL A   1      38.480  31.642  33.840  1.00  0.00     0.200 A 
ATOM    123  F   UNL A   1      37.514  29.511  33.543  1.00  0.00    -0.200 F 
ATOM    124  F   UNL A   1      37.263  32.201  33.884  1.00  0.00    -0.200 F 
ENDBRANCH  86 114
BRANCH 101 125
ATOM    125  C   UNL A   1      45.341  24.725  33.385  1.00  0.00     0.064 A 
ATOM    126  C   UNL A   1      46.699  24.611  33.715  1.00  0.00     0.173 A 
ATOM    127  C   UNL A   1      44.515  23.636  33.729  1.00  0.00     0.173 A 
ATOM    128  F   UNL A   1      47.562  25.589  33.400  1.00  0.00    -0.203 F 
ATOM    129  C   UNL A   1      47.199  23.482  34.367  1.00  0.00     0.198 A 
ATOM    130  C   UNL A   1      45.024  22.491  34.336  1.00  0.00     0.198 A 
ATOM    131  F   UNL A   1      43.192  23.672  33.507  1.00  0.00    -0.203 F 
ATOM    132  F   UNL A   1      48.494  23.428  34.704  1.00  0.00    -0.200 F 
ATOM    133  C   UNL A   1      46.364  22.417  34.662  1.00  0.00     0.200 A 
ATOM    134  F   UNL A   1      44.207  21.462  34.607  1.00  0.00    -0.200 F 
ATOM    135  F   UNL A   1      46.851  21.323  35.265  1.00  0.00    -0.200 F 
ENDBRANCH 101 125
ENDBRANCH  66  69
ENDBRANCH  56  59
ENDBRANCH  52  55
ENDBRANCH  49  52
ENDBRANCH  46  49
ENDBRANCH  43  46
ENDBRANCH   1  43
TORSDOF 18
ENDMDL
MODEL 2
REMARK VINA RESULT:     -12.4      3.729      9.817
REMARK SMILES Cc1ccc(Nc2c(C)cccc2Cl)c(CC(=O)NCCCCCCNC(=O)c2ccc(-c3c4nc(c(-c5c(F)c(F)c(F)c(F)c5F)c5ccc([nH]5)c(-c5c(F)c(F)c(F)c(F)c5F)c5nc(c(-c6c(F)c(F)c(F)c(F)c6F)c6ccc3[nH]6)C=C5)C=C4)cc2)c1
REMARK SMILES IDX 21 1 20 4 19 7 17 8 18 9 16 11 15 14 2 15 3 16 92 17 4 18
REMARK SMILES IDX 5 21 1 23 6 27 7 29 8 30 13 31 10 32 12 33 14 34 11 35 9 39
REMARK SMILES IDX 22 43 23 46 24 49 25 52 26 55 27 56 28 58 29 59 30 60 91 61
REMARK SMILES IDX 31 62 90 64 32 66 33 69 34 70 84 71 35 72 89 73 83 74 85 75
REMARK SMILES IDX 36 76 88 77 82 79 81 81 37 83 69 86 49 87 68 88 50 89 53 90
REMARK SMILES IDX 67 91 86 92 51 93 52 95 66 97 87 98 54 101 38 103 39 104
REMARK SMILES IDX 47 105 40 106 41 107 45 108 48 109 42 110 43 111 46 112
REMARK SMILES IDX 44 113 70 114 71 115 79 116 72 117 73 118 77 119 80 120
REMARK SMILES IDX 74 121 75 122 78 123 76 124 55 125 56 126 64 127 57 128
REMARK SMILES IDX 58 129 62 130 65 131 59 132 60 133 63 134 61 135
REMARK H PARENT 21 2 21 3 20 5 20 6 19 10 16 12 16 13 3 19 92 20 4 22 1 24
REMARK H PARENT 1 25 1 26 6 28 10 36 12 37 11 38 9 40 9 41 9 42 22 44 22 45
REMARK H PARENT 23 47 23 48 24 50 24 51 25 53 25 54 26 57 30 63 91 65 31 67
REMARK H PARENT 90 68 89 78 83 80 85 82 88 84 82 85 50 94 53 96 86 99 51 100
REMARK H PARENT 87 102
REMARK Flexibility Score: inf
ROOT
ATOM      1  C   UNL A   1      35.766  23.612  24.837  1.00  0.00    -0.036 C 
ATOM      2  H   UNL A   1      36.650  23.666  25.436  1.00  0.00     0.028 H 
ATOM      3  H   UNL A   1      35.812  24.211  23.952  1.00  0.00     0.028 H 
ENDROOT
BRANCH   1   4
ATOM      4  C   UNL A   1      34.599  24.160  25.663  1.00  0.00     0.017 C 
ATOM      5  H   UNL A   1      34.851  25.142  26.005  1.00  0.00     0.049 H 
ATOM      6  H   UNL A   1      33.731  24.179  25.037  1.00  0.00     0.049 H 
BRANCH   4   7
ATOM      7  N   UNL A   1      34.305  23.326  26.808  1.00  0.00    -0.356 N 
ATOM      8  C   UNL A   1      33.113  22.784  27.186  1.00  0.00     0.224 C 
ATOM      9  O   UNL A   1      33.049  22.207  28.275  1.00  0.00    -0.275 OA
ATOM     10  H   UNL A   1      35.069  23.123  27.394  1.00  0.00     0.163 HD
BRANCH   8  11
ATOM     11  C   UNL A   1      31.888  22.898  26.297  1.00  0.00     0.054 C 
ATOM     12  H   UNL A   1      31.032  22.595  26.863  1.00  0.00     0.042 H 
ATOM     13  H   UNL A   1      31.831  23.919  25.978  1.00  0.00     0.042 H 
BRANCH  11  14
ATOM     14  C   UNL A   1      31.955  22.051  25.045  1.00  0.00    -0.015 A 
ATOM     15  C   UNL A   1      32.522  19.873  24.071  1.00  0.00    -0.051 A 
ATOM     16  C   UNL A   1      32.236  20.385  22.809  1.00  0.00    -0.057 A 
ATOM     17  C   UNL A   1      32.357  20.704  25.182  1.00  0.00    -0.054 A 
ATOM     18  C   UNL A   1      31.793  21.702  22.664  1.00  0.00    -0.038 A 
ATOM     19  H   UNL A   1      32.353  19.788  21.975  1.00  0.00     0.063 H 
ATOM     20  H   UNL A   1      32.532  20.325  26.126  1.00  0.00     0.063 H 
ATOM     21  C   UNL A   1      31.644  22.560  23.766  1.00  0.00     0.042 A 
ATOM     22  H   UNL A   1      31.568  22.055  21.720  1.00  0.00     0.064 H 
BRANCH  15  23
ATOM     23  C   UNL A   1      32.992  18.459  24.224  1.00  0.00    -0.040 C 
ATOM     24  H   UNL A   1      32.255  17.893  24.754  1.00  0.00     0.028 H 
ATOM     25  H   UNL A   1      33.912  18.446  24.770  1.00  0.00     0.028 H 
ATOM     26  H   UNL A   1      33.145  18.026  23.257  1.00  0.00     0.028 H 
ENDBRANCH  15  23
BRANCH  21  27
ATOM     27  N   UNL A   1      31.129  23.865  23.606  1.00  0.00    -0.354 N 
ATOM     28  H   UNL A   1      30.152  23.924  23.492  1.00  0.00     0.167 HD
BRANCH  27  29
ATOM     29  C   UNL A   1      31.820  25.101  23.587  1.00  0.00     0.060 A 
ATOM     30  C   UNL A   1      32.882  25.347  22.690  1.00  0.00    -0.026 A 
ATOM     31  C   UNL A   1      31.491  26.095  24.534  1.00  0.00     0.064 A 
ATOM     32  C   UNL A   1      33.615  26.542  22.799  1.00  0.00    -0.057 A 
ATOM     33  C   UNL A   1      32.216  27.286  24.615  1.00  0.00    -0.041 A 
ATOM     34  Cl  UNL A   1      30.194  25.860  25.660  1.00  0.00    -0.082 Cl
ATOM     35  C   UNL A   1      33.286  27.504  23.754  1.00  0.00    -0.060 A 
ATOM     36  H   UNL A   1      34.409  26.711  22.161  1.00  0.00     0.063 H 
ATOM     37  H   UNL A   1      31.957  28.003  25.311  1.00  0.00     0.064 H 
ATOM     38  H   UNL A   1      33.836  28.374  23.822  1.00  0.00     0.062 H 
BRANCH  30  39
ATOM     39  C   UNL A   1      33.269  24.380  21.603  1.00  0.00    -0.038 C 
ATOM     40  H   UNL A   1      32.965  24.770  20.654  1.00  0.00     0.028 H 
ATOM     41  H   UNL A   1      32.786  23.440  21.773  1.00  0.00     0.028 H 
ATOM     42  H   UNL A   1      34.330  24.242  21.609  1.00  0.00     0.028 H 
ENDBRANCH  30  39
ENDBRANCH  27  29
ENDBRANCH  21  27
ENDBRANCH  11  14
ENDBRANCH   8  11
ENDBRANCH   4   7
ENDBRANCH   1   4
BRANCH   1  43
ATOM     43  C   UNL A   1      35.603  22.160  24.360  1.00  0.00    -0.052 C 
ATOM     44  H   UNL A   1      35.778  22.142  23.305  1.00  0.00     0.027 H 
ATOM     45  H   UNL A   1      34.612  21.876  24.650  1.00  0.00     0.027 H 
BRANCH  43  46
ATOM     46  C   UNL A   1      36.529  21.117  25.006  1.00  0.00    -0.052 C 
ATOM     47  H   UNL A   1      36.407  20.196  24.473  1.00  0.00     0.027 H 
ATOM     48  H   UNL A   1      36.238  21.069  26.034  1.00  0.00     0.027 H 
BRANCH  46  49
ATOM     49  C   UNL A   1      38.020  21.458  25.014  1.00  0.00    -0.036 C 
ATOM     50  H   UNL A   1      38.262  21.923  24.080  1.00  0.00     0.028 H 
ATOM     51  H   UNL A   1      38.543  20.539  25.170  1.00  0.00     0.028 H 
BRANCH  49  52
ATOM     52  C   UNL A   1      38.446  22.395  26.136  1.00  0.00     0.018 C 
ATOM     53  H   UNL A   1      38.004  22.051  27.049  1.00  0.00     0.049 H 
ATOM     54  H   UNL A   1      38.114  23.377  25.868  1.00  0.00     0.049 H 
BRANCH  52  55
ATOM     55  N   UNL A   1      39.887  22.469  26.321  1.00  0.00    -0.352 N 
ATOM     56  C   UNL A   1      40.715  23.565  26.501  1.00  0.00     0.251 C 
ATOM     57  H   UNL A   1      40.348  21.599  26.321  1.00  0.00     0.163 HD
ATOM     58  O   UNL A   1      41.920  23.413  26.555  1.00  0.00    -0.269 OA
BRANCH  56  59
ATOM     59  C   UNL A   1      40.125  24.902  26.780  1.00  0.00     0.039 A 
ATOM     60  C   UNL A   1      40.611  25.987  26.036  1.00  0.00    -0.049 A 
ATOM     61  C   UNL A   1      39.292  25.128  27.870  1.00  0.00    -0.049 A 
ATOM     62  C   UNL A   1      40.494  27.276  26.549  1.00  0.00    -0.053 A 
ATOM     63  H   UNL A   1      41.051  25.831  25.117  1.00  0.00     0.063 H 
ATOM     64  C   UNL A   1      39.258  26.388  28.431  1.00  0.00    -0.053 A 
ATOM     65  H   UNL A   1      38.709  24.367  28.252  1.00  0.00     0.063 H 
ATOM     66  C   UNL A   1      39.939  27.441  27.814  1.00  0.00    -0.014 A 
ATOM     67  H   UNL A   1      40.812  28.091  26.002  1.00  0.00     0.063 H 
ATOM     68  H   UNL A   1      38.731  26.553  29.303  1.00  0.00     0.063 H 
BRANCH  66  69
ATOM     69  C   UNL A   1      40.180  28.607  28.656  1.00  0.00     0.031 A 
ATOM     70  C   UNL A   1      39.194  29.701  28.741  1.00  0.00     0.074 A 
ATOM     71  C   UNL A   1      41.237  28.572  29.500  1.00  0.00     0.049 A 
ATOM     72  N   UNL A   1      39.408  30.807  29.368  1.00  0.00    -0.248 NA
ATOM     73  C   UNL A   1      37.900  29.669  28.064  1.00  0.00    -0.034 C 
ATOM     74  C   UNL A   1      41.463  29.391  30.689  1.00  0.00    -0.036 A 
ATOM     75  N   UNL A   1      42.459  27.899  29.311  1.00  0.00    -0.354 N 
ATOM     76  C   UNL A   1      38.217  31.486  29.436  1.00  0.00     0.074 A 
ATOM     77  C   UNL A   1      37.356  30.811  28.499  1.00  0.00    -0.034 C 
ATOM     78  H   UNL A   1      37.512  28.959  27.424  1.00  0.00     0.065 H 
ATOM     79  C   UNL A   1      42.780  29.431  30.942  1.00  0.00    -0.036 A 
ATOM     80  H   UNL A   1      40.730  29.863  31.242  1.00  0.00     0.065 H 
ATOM     81  C   UNL A   1      43.445  28.776  29.831  1.00  0.00     0.049 A 
ATOM     82  H   UNL A   1      42.600  27.012  28.906  1.00  0.00     0.167 HD
ATOM     83  C   UNL A   1      38.082  32.460  30.379  1.00  0.00     0.037 A 
ATOM     84  H   UNL A   1      36.433  31.165  28.201  1.00  0.00     0.065 H 
ATOM     85  H   UNL A   1      43.234  29.847  31.771  1.00  0.00     0.065 H 
ATOM     86  C   UNL A   1      44.348  29.375  29.000  1.00  0.00     0.037 A 
ATOM     87  C   UNL A   1      39.389  32.874  30.893  1.00  0.00     0.049 A 
ATOM     88  C   UNL A   1      44.278  30.891  28.965  1.00  0.00     0.074 A 
ATOM     89  C   UNL A   1      40.088  32.714  32.077  1.00  0.00    -0.036 A 
ATOM     90  N   UNL A   1      40.294  33.399  29.985  1.00  0.00    -0.354 N 
ATOM     91  N   UNL A   1      43.387  31.605  29.595  1.00  0.00    -0.248 NA
ATOM     92  C   UNL A   1      45.153  31.710  28.123  1.00  0.00    -0.034 C 
ATOM     93  C   UNL A   1      41.451  33.077  31.832  1.00  0.00    -0.036 A 
ATOM     94  H   UNL A   1      39.697  32.390  32.975  1.00  0.00     0.065 H 
ATOM     95  C   UNL A   1      41.563  33.487  30.514  1.00  0.00     0.049 A 
ATOM     96  H   UNL A   1      40.058  33.677  29.070  1.00  0.00     0.167 HD
ATOM     97  C   UNL A   1      43.508  32.914  29.218  1.00  0.00     0.074 A 
ATOM     98  C   UNL A   1      44.631  32.936  28.300  1.00  0.00    -0.034 C 
ATOM     99  H   UNL A   1      45.958  31.423  27.545  1.00  0.00     0.065 H 
ATOM    100  H   UNL A   1      42.219  33.039  32.519  1.00  0.00     0.065 H 
ATOM    101  C   UNL A   1      42.653  33.888  29.641  1.00  0.00     0.037 A 
ATOM    102  H   UNL A   1      44.985  33.788  27.839  1.00  0.00     0.065 H 
BRANCH  83 103
ATOM    103  C   UNL A   1      36.769  32.970  30.935  1.00  0.00     0.064 A 
ATOM    104  C   UNL A   1      35.959  33.829  30.158  1.00  0.00     0.173 A 
ATOM    105  C   UNL A   1      36.309  32.770  32.255  1.00  0.00     0.173 A 
ATOM    106  F   UNL A   1      36.276  34.124  28.889  1.00  0.00    -0.203 F 
ATOM    107  C   UNL A   1      34.805  34.439  30.665  1.00  0.00     0.198 A 
ATOM    108  C   UNL A   1      35.128  33.338  32.742  1.00  0.00     0.198 A 
ATOM    109  F   UNL A   1      37.006  32.077  33.160  1.00  0.00    -0.203 F 
ATOM    110  F   UNL A   1      34.114  35.294  29.898  1.00  0.00    -0.200 F 
ATOM    111  C   UNL A   1      34.384  34.185  31.953  1.00  0.00     0.200 A 
ATOM    112  F   UNL A   1      34.741  33.079  34.000  1.00  0.00    -0.200 F 
ATOM    113  F   UNL A   1      33.281  34.769  32.441  1.00  0.00    -0.200 F 
ENDBRANCH  83 103
BRANCH  86 114
ATOM    114  C   UNL A   1      44.719  28.517  27.843  1.00  0.00     0.064 A 
ATOM    115  C   UNL A   1      45.563  27.411  28.070  1.00  0.00     0.173 A 
ATOM    116  C   UNL A   1      43.987  28.539  26.651  1.00  0.00     0.173 A 
ATOM    117  F   UNL A   1      46.287  27.342  29.199  1.00  0.00    -0.203 F 
ATOM    118  C   UNL A   1      45.577  26.322  27.203  1.00  0.00     0.198 A 
ATOM    119  C   UNL A   1      44.020  27.454  25.774  1.00  0.00     0.198 A 
ATOM    120  F   UNL A   1      43.148  29.551  26.386  1.00  0.00    -0.203 F 
ATOM    121  F   UNL A   1      46.302  25.236  27.507  1.00  0.00    -0.200 F 
ATOM    122  C   UNL A   1      44.785  26.334  26.068  1.00  0.00     0.200 A 
ATOM    123  F   UNL A   1      43.231  27.453  24.691  1.00  0.00    -0.200 F 
ATOM    124  F   UNL A   1      44.723  25.252  25.279  1.00  0.00    -0.200 F 
ENDBRANCH  86 114
BRANCH 101 125
ATOM    125  C   UNL A   1      42.793  35.318  29.221  1.00  0.00     0.064 A 
ATOM    126  C   UNL A   1      43.358  36.284  30.066  1.00  0.00     0.173 A 
ATOM    127  C   UNL A   1      42.261  35.781  28.001  1.00  0.00     0.173 A 
ATOM    128  F   UNL A   1      43.865  35.936  31.258  1.00  0.00    -0.203 F 
ATOM    129  C   UNL A   1      43.404  37.632  29.704  1.00  0.00     0.198 A 
ATOM    130  C   UNL A   1      42.264  37.132  27.664  1.00  0.00     0.198 A 
ATOM    131  F   UNL A   1      41.749  34.928  27.100  1.00  0.00    -0.203 F 
ATOM    132  F   UNL A   1      43.991  38.519  30.518  1.00  0.00    -0.200 F 
ATOM    133  C   UNL A   1      42.843  38.056  28.511  1.00  0.00     0.200 A 
ATOM    134  F   UNL A   1      41.708  37.531  26.511  1.00  0.00    -0.200 F 
ATOM    135  F   UNL A   1      42.866  39.354  28.177  1.00  0.00    -0.200 F 
ENDBRANCH 101 125
ENDBRANCH  66  69
ENDBRANCH  56  59
ENDBRANCH  52  55
ENDBRANCH  49  52
ENDBRANCH  46  49
ENDBRANCH  43  46
ENDBRANCH   1  43
TORSDOF 18
ENDMDL
MODEL 3
REMARK VINA RESULT:     -12.4      3.836     10.095
REMARK SMILES Cc1ccc(Nc2c(C)cccc2Cl)c(CC(=O)NCCCCCCNC(=O)c2ccc(-c3c4nc(c(-c5c(F)c(F)c(F)c(F)c5F)c5ccc([nH]5)c(-c5c(F)c(F)c(F)c(F)c5F)c5nc(c(-c6c(F)c(F)c(F)c(F)c6F)c6ccc3[nH]6)C=C5)C=C4)cc2)c1
REMARK SMILES IDX 21 1 20 4 19 7 17 8 18 9 16 11 15 14 2 15 3 16 92 17 4 18
REMARK SMILES IDX 5 21 1 23 6 27 7 29 8 30 13 31 10 32 12 33 14 34 11 35 9 39
REMARK SMILES IDX 22 43 23 46 24 49 25 52 26 55 27 56 28 58 29 59 30 60 91 61
REMARK SMILES IDX 31 62 90 64 32 66 33 69 34 70 84 71 35 72 89 73 83 74 85 75
REMARK SMILES IDX 36 76 88 77 82 79 81 81 37 83 69 86 49 87 68 88 50 89 53 90
REMARK SMILES IDX 67 91 86 92 51 93 52 95 66 97 87 98 54 101 38 103 39 104
REMARK SMILES IDX 47 105 40 106 41 107 45 108 48 109 42 110 43 111 46 112
REMARK SMILES IDX 44 113 70 114 71 115 79 116 72 117 73 118 77 119 80 120
REMARK SMILES IDX 74 121 75 122 78 123 76 124 55 125 56 126 64 127 57 128
REMARK SMILES IDX 58 129 62 130 65 131 59 132 60 133 63 134 61 135
REMARK H PARENT 21 2 21 3 20 5 20 6 19 10 16 12 16 13 3 19 92 20 4 22 1 24
REMARK H PARENT 1 25 1 26 6 28 10 36 12 37 11 38 9 40 9 41 9 42 22 44 22 45
REMARK H PARENT 23 47 23 48 24 50 24 51 25 53 25 54 26 57 30 63 91 65 31 67
REMARK H PARENT 90 68 89 78 83 80 85 82 88 84 82 85 50 94 53 96 86 99 51 100
REMARK H PARENT 87 102
REMARK Flexibility Score: inf
ROOT
ATOM      1  C   UNL A   1      36.257  23.248  23.690  1.00  0.00    -0.036 C 
ATOM      2  H   UNL A   1      36.900  23.821  24.325  1.00  0.00     0.028 H 
ATOM      3  H   UNL A   1      36.379  23.467  22.650  1.00  0.00     0.028 H 
ENDROOT
BRANCH   1   4
ATOM      4  C   UNL A   1      34.809  23.608  24.033  1.00  0.00     0.017 C 
ATOM      5  H   UNL A   1      34.160  22.872  23.607  1.00  0.00     0.049 H 
ATOM      6  H   UNL A   1      34.718  23.634  25.099  1.00  0.00     0.049 H 
BRANCH   4   7
ATOM      7  N   UNL A   1      34.437  24.911  23.523  1.00  0.00    -0.356 N 
ATOM      8  C   UNL A   1      34.020  26.010  24.212  1.00  0.00     0.224 C 
ATOM      9  O   UNL A   1      33.624  26.988  23.573  1.00  0.00    -0.275 OA
ATOM     10  H   UNL A   1      34.491  25.017  22.546  1.00  0.00     0.163 HD
BRANCH   8  11
ATOM     11  C   UNL A   1      34.029  26.029  25.730  1.00  0.00     0.054 C 
ATOM     12  H   UNL A   1      33.575  25.125  26.081  1.00  0.00     0.042 H 
ATOM     13  H   UNL A   1      35.052  26.120  26.033  1.00  0.00     0.042 H 
BRANCH  11  14
ATOM     14  C   UNL A   1      33.286  27.201  26.336  1.00  0.00    -0.015 A 
ATOM     15  C   UNL A   1      33.382  29.550  27.030  1.00  0.00    -0.051 A 
ATOM     16  C   UNL A   1      32.089  29.434  27.532  1.00  0.00    -0.057 A 
ATOM     17  C   UNL A   1      33.963  28.438  26.416  1.00  0.00    -0.054 A 
ATOM     18  C   UNL A   1      31.392  28.229  27.417  1.00  0.00    -0.038 A 
ATOM     19  H   UNL A   1      31.642  30.244  27.991  1.00  0.00     0.063 H 
ATOM     20  H   UNL A   1      34.908  28.522  26.010  1.00  0.00     0.063 H 
ATOM     21  C   UNL A   1      31.967  27.093  26.824  1.00  0.00     0.042 A 
ATOM     22  H   UNL A   1      30.427  28.172  27.778  1.00  0.00     0.064 H 
BRANCH  15  23
ATOM     23  C   UNL A   1      34.125  30.846  27.149  1.00  0.00    -0.040 C 
ATOM     24  H   UNL A   1      33.536  31.546  27.702  1.00  0.00     0.028 H 
ATOM     25  H   UNL A   1      34.319  31.236  26.172  1.00  0.00     0.028 H 
ATOM     26  H   UNL A   1      35.053  30.681  27.657  1.00  0.00     0.028 H 
ENDBRANCH  15  23
BRANCH  21  27
ATOM     27  N   UNL A   1      31.222  25.906  26.656  1.00  0.00    -0.354 N 
ATOM     28  H   UNL A   1      30.717  25.607  27.448  1.00  0.00     0.167 HD
BRANCH  27  29
ATOM     29  C   UNL A   1      31.098  25.083  25.510  1.00  0.00     0.060 A 
ATOM     30  C   UNL A   1      30.514  25.554  24.315  1.00  0.00    -0.026 A 
ATOM     31  C   UNL A   1      31.503  23.732  25.579  1.00  0.00     0.064 A 
ATOM     32  C   UNL A   1      30.302  24.659  23.251  1.00  0.00    -0.057 A 
ATOM     33  C   UNL A   1      31.303  22.861  24.505  1.00  0.00    -0.041 A 
ATOM     34  Cl  UNL A   1      32.232  23.091  27.015  1.00  0.00    -0.082 Cl
ATOM     35  C   UNL A   1      30.691  23.323  23.345  1.00  0.00    -0.060 A 
ATOM     36  H   UNL A   1      29.850  24.997  22.386  1.00  0.00     0.063 H 
ATOM     37  H   UNL A   1      31.609  21.878  24.573  1.00  0.00     0.064 H 
ATOM     38  H   UNL A   1      30.525  22.680  22.556  1.00  0.00     0.062 H 
BRANCH  30  39
ATOM     39  C   UNL A   1      30.109  26.991  24.119  1.00  0.00    -0.038 C 
ATOM     40  H   UNL A   1      29.234  27.033  23.503  1.00  0.00     0.028 H 
ATOM     41  H   UNL A   1      30.905  27.524  23.643  1.00  0.00     0.028 H 
ATOM     42  H   UNL A   1      29.898  27.435  25.068  1.00  0.00     0.028 H 
ENDBRANCH  30  39
ENDBRANCH  27  29
ENDBRANCH  21  27
ENDBRANCH  11  14
ENDBRANCH   8  11
ENDBRANCH   4   7
ENDBRANCH   1   4
BRANCH   1  43
ATOM     43  C   UNL A   1      36.619  21.765  23.860  1.00  0.00    -0.052 C 
ATOM     44  H   UNL A   1      37.464  21.562  23.236  1.00  0.00     0.027 H 
ATOM     45  H   UNL A   1      35.733  21.225  23.596  1.00  0.00     0.027 H 
BRANCH  43  46
ATOM     46  C   UNL A   1      36.967  21.302  25.284  1.00  0.00    -0.052 C 
ATOM     47  H   UNL A   1      36.688  20.272  25.370  1.00  0.00     0.027 H 
ATOM     48  H   UNL A   1      36.432  21.956  25.939  1.00  0.00     0.027 H 
BRANCH  46  49
ATOM     49  C   UNL A   1      38.437  21.423  25.688  1.00  0.00    -0.036 C 
ATOM     50  H   UNL A   1      39.039  21.121  24.856  1.00  0.00     0.028 H 
ATOM     51  H   UNL A   1      38.571  20.801  26.547  1.00  0.00     0.028 H 
BRANCH  49  52
ATOM     52  C   UNL A   1      38.864  22.826  26.098  1.00  0.00     0.018 C 
ATOM     53  H   UNL A   1      38.282  23.121  26.947  1.00  0.00     0.049 H 
ATOM     54  H   UNL A   1      38.702  23.463  25.253  1.00  0.00     0.049 H 
BRANCH  52  55
ATOM     55  N   UNL A   1      40.273  22.931  26.447  1.00  0.00    -0.352 N 
ATOM     56  C   UNL A   1      41.026  24.031  26.823  1.00  0.00     0.251 C 
ATOM     57  H   UNL A   1      40.770  22.082  26.411  1.00  0.00     0.163 HD
ATOM     58  O   UNL A   1      42.224  23.915  26.994  1.00  0.00    -0.269 OA
BRANCH  56  59
ATOM     59  C   UNL A   1      40.349  25.310  27.167  1.00  0.00     0.039 A 
ATOM     60  C   UNL A   1      40.637  26.424  26.365  1.00  0.00    -0.049 A 
ATOM     61  C   UNL A   1      39.635  25.473  28.348  1.00  0.00    -0.049 A 
ATOM     62  C   UNL A   1      40.461  27.705  26.884  1.00  0.00    -0.053 A 
ATOM     63  H   UNL A   1      40.977  26.296  25.400  1.00  0.00     0.063 H 
ATOM     64  C   UNL A   1      39.549  26.733  28.905  1.00  0.00    -0.053 A 
ATOM     65  H   UNL A   1      39.177  24.667  28.801  1.00  0.00     0.063 H 
ATOM     66  C   UNL A   1      40.048  27.836  28.206  1.00  0.00    -0.014 A 
ATOM     67  H   UNL A   1      40.632  28.538  26.299  1.00  0.00     0.063 H 
ATOM     68  H   UNL A   1      39.118  26.861  29.833  1.00  0.00     0.063 H 
BRANCH  66  69
ATOM     69  C   UNL A   1      40.276  29.032  29.008  1.00  0.00     0.031 A 
ATOM     70  C   UNL A   1      39.248  30.085  29.114  1.00  0.00     0.074 A 
ATOM     71  C   UNL A   1      41.371  29.064  29.802  1.00  0.00     0.049 A 
ATOM     72  N   UNL A   1      39.442  31.215  29.704  1.00  0.00    -0.248 NA
ATOM     73  C   UNL A   1      37.927  29.981  28.499  1.00  0.00    -0.034 C 
ATOM     74  C   UNL A   1      41.616  29.922  30.959  1.00  0.00    -0.036 A 
ATOM     75  N   UNL A   1      42.612  28.439  29.571  1.00  0.00    -0.354 N 
ATOM     76  C   UNL A   1      38.227  31.843  29.812  1.00  0.00     0.074 A 
ATOM     77  C   UNL A   1      37.354  31.109  28.933  1.00  0.00    -0.034 C 
ATOM     78  H   UNL A   1      37.542  29.239  27.894  1.00  0.00     0.065 H 
ATOM     79  C   UNL A   1      42.940  30.024  31.150  1.00  0.00    -0.036 A 
ATOM     80  H   UNL A   1      40.889  30.376  31.535  1.00  0.00     0.065 H 
ATOM     81  C   UNL A   1      43.581  29.370  30.024  1.00  0.00     0.049 A 
ATOM     82  H   UNL A   1      42.772  27.549  29.181  1.00  0.00     0.167 HD
ATOM     83  C   UNL A   1      38.092  32.834  30.737  1.00  0.00     0.037 A 
ATOM     84  H   UNL A   1      36.403  31.416  28.670  1.00  0.00     0.065 H 
ATOM     85  H   UNL A   1      43.412  30.480  31.946  1.00  0.00     0.065 H 
ATOM     86  C   UNL A   1      44.418  29.986  29.137  1.00  0.00     0.037 A 
ATOM     87  C   UNL A   1      39.403  33.317  31.180  1.00  0.00     0.049 A 
ATOM     88  C   UNL A   1      44.280  31.496  29.070  1.00  0.00     0.074 A 
ATOM     89  C   UNL A   1      40.162  33.217  32.332  1.00  0.00    -0.036 A 
ATOM     90  N   UNL A   1      40.241  33.857  30.218  1.00  0.00    -0.354 N 
ATOM     91  N   UNL A   1      43.389  32.187  29.725  1.00  0.00    -0.248 NA
ATOM     92  C   UNL A   1      45.078  32.330  28.169  1.00  0.00    -0.034 C 
ATOM     93  C   UNL A   1      41.494  33.631  32.015  1.00  0.00    -0.036 A 
ATOM     94  H   UNL A   1      39.827  32.899  33.255  1.00  0.00     0.065 H 
ATOM     95  C   UNL A   1      41.528  34.012  30.684  1.00  0.00     0.049 A 
ATOM     96  H   UNL A   1      39.951  34.102  29.309  1.00  0.00     0.167 HD
ATOM     97  C   UNL A   1      43.435  33.490  29.312  1.00  0.00     0.074 A 
ATOM     98  C   UNL A   1      44.512  33.537  28.342  1.00  0.00    -0.034 C 
ATOM     99  H   UNL A   1      45.868  32.063  27.561  1.00  0.00     0.065 H 
ATOM    100  H   UNL A   1      42.295  33.644  32.666  1.00  0.00     0.065 H 
ATOM    101  C   UNL A   1      42.558  34.437  29.752  1.00  0.00     0.037 A 
ATOM    102  H   UNL A   1      44.807  34.391  27.846  1.00  0.00     0.065 H 
BRANCH  83 103
ATOM    103  C   UNL A   1      36.785  33.303  31.342  1.00  0.00     0.064 A 
ATOM    104  C   UNL A   1      35.854  34.010  30.550  1.00  0.00     0.173 A 
ATOM    105  C   UNL A   1      36.440  33.211  32.708  1.00  0.00     0.173 A 
ATOM    106  F   UNL A   1      36.053  34.190  29.237  1.00  0.00    -0.203 F 
ATOM    107  C   UNL A   1      34.693  34.583  31.083  1.00  0.00     0.198 A 
ATOM    108  C   UNL A   1      35.255  33.738  33.229  1.00  0.00     0.198 A 
ATOM    109  F   UNL A   1      37.255  32.673  33.620  1.00  0.00    -0.203 F 
ATOM    110  F   UNL A   1      33.880  35.297  30.292  1.00  0.00    -0.200 F 
ATOM    111  C   UNL A   1      34.388  34.438  32.421  1.00  0.00     0.200 A 
ATOM    112  F   UNL A   1      34.982  33.588  34.533  1.00  0.00    -0.200 F 
ATOM    113  F   UNL A   1      33.279  34.987  32.934  1.00  0.00    -0.200 F 
ENDBRANCH  83 103
BRANCH  86 114
ATOM    114  C   UNL A   1      44.772  29.116  27.985  1.00  0.00     0.064 A 
ATOM    115  C   UNL A   1      45.710  28.083  28.186  1.00  0.00     0.173 A 
ATOM    116  C   UNL A   1      43.962  29.041  26.847  1.00  0.00     0.173 A 
ATOM    117  F   UNL A   1      46.512  28.107  29.264  1.00  0.00    -0.203 F 
ATOM    118  C   UNL A   1      45.747  26.967  27.355  1.00  0.00     0.198 A 
ATOM    119  C   UNL A   1      44.016  27.930  26.004  1.00  0.00     0.198 A 
ATOM    120  F   UNL A   1      43.034  29.979  26.610  1.00  0.00    -0.203 F 
ATOM    121  F   UNL A   1      46.569  25.947  27.641  1.00  0.00    -0.200 F 
ATOM    122  C   UNL A   1      44.880  26.880  26.279  1.00  0.00     0.200 A 
ATOM    123  F   UNL A   1      43.158  27.833  24.980  1.00  0.00    -0.200 F 
ATOM    124  F   UNL A   1      44.846  25.768  25.531  1.00  0.00    -0.200 F 
ENDBRANCH  86 114
BRANCH 101 125
ATOM    125  C   UNL A   1      42.616  35.861  29.293  1.00  0.00     0.064 A 
ATOM    126  C   UNL A   1      42.024  36.273  28.090  1.00  0.00     0.173 A 
ATOM    127  C   UNL A   1      43.365  36.829  29.991  1.00  0.00     0.173 A 
ATOM    128  F   UNL A   1      41.315  35.409  27.347  1.00  0.00    -0.203 F 
ATOM    129  C   UNL A   1      42.158  37.582  27.622  1.00  0.00     0.198 A 
ATOM    130  C   UNL A   1      43.537  38.120  29.499  1.00  0.00     0.198 A 
ATOM    131  F   UNL A   1      43.924  36.549  31.179  1.00  0.00    -0.203 F 
ATOM    132  F   UNL A   1      41.542  37.950  26.492  1.00  0.00    -0.200 F 
ATOM    133  C   UNL A   1      42.927  38.499  28.319  1.00  0.00     0.200 A 
ATOM    134  F   UNL A   1      44.293  38.995  30.177  1.00  0.00    -0.200 F 
ATOM    135  F   UNL A   1      43.075  39.748  27.855  1.00  0.00    -0.200 F 
ENDBRANCH 101 125
ENDBRANCH  66  69
ENDBRANCH  56  59
ENDBRANCH  52  55
ENDBRANCH  49  52
ENDBRANCH  46  49
ENDBRANCH  43  46
ENDBRANCH   1  43
TORSDOF 18
ENDMDL
MODEL 4
REMARK VINA RESULT:     -12.4      3.835     10.022
REMARK SMILES Cc1ccc(Nc2c(C)cccc2Cl)c(CC(=O)NCCCCCCNC(=O)c2ccc(-c3c4nc(c(-c5c(F)c(F)c(F)c(F)c5F)c5ccc([nH]5)c(-c5c(F)c(F)c(F)c(F)c5F)c5nc(c(-c6c(F)c(F)c(F)c(F)c6F)c6ccc3[nH]6)C=C5)C=C4)cc2)c1
REMARK SMILES IDX 21 1 20 4 19 7 17 8 18 9 16 11 15 14 2 15 3 16 92 17 4 18
REMARK SMILES IDX 5 21 1 23 6 27 7 29 8 30 13 31 10 32 12 33 14 34 11 35 9 39
REMARK SMILES IDX 22 43 23 46 24 49 25 52 26 55 27 56 28 58 29 59 30 60 91 61
REMARK SMILES IDX 31 62 90 64 32 66 33 69 34 70 84 71 35 72 89 73 83 74 85 75
REMARK SMILES IDX 36 76 88 77 82 79 81 81 37 83 69 86 49 87 68 88 50 89 53 90
REMARK SMILES IDX 67 91 86 92 51 93 52 95 66 97 87 98 54 101 38 103 39 104
REMARK SMILES IDX 47 105 40 106 41 107 45 108 48 109 42 110 43 111 46 112
REMARK SMILES IDX 44 113 70 114 71 115 79 116 72 117 73 118 77 119 80 120
REMARK SMILES IDX 74 121 75 122 78 123 76 124 55 125 56 126 64 127 57 128
REMARK SMILES IDX 58 129 62 130 65 131 59 132 60 133 63 134 61 135
REMARK H PARENT 21 2 21 3 20 5 20 6 19 10 16 12 16 13 3 19 92 20 4 22 1 24
REMARK H PARENT 1 25 1 26 6 28 10 36 12 37 11 38 9 40 9 41 9 42 22 44 22 45
REMARK H PARENT 23 47 23 48 24 50 24 51 25 53 25 54 26 57 30 63 91 65 31 67
REMARK H PARENT 90 68 89 78 83 80 85 82 88 84 82 85 50 94 53 96 86 99 51 100
REMARK H PARENT 87 102
REMARK Flexibility Score: inf
ROOT
ATOM      1  C   UNL A   1      35.404  21.805  26.282  1.00  0.00    -0.036 C 
ATOM      2  H   UNL A   1      36.132  22.092  27.011  1.00  0.00     0.028 H 
ATOM      3  H   UNL A   1      35.061  22.618  25.678  1.00  0.00     0.028 H 
ENDROOT
BRANCH   1   4
ATOM      4  C   UNL A   1      34.173  21.278  27.025  1.00  0.00     0.017 C 
ATOM      5  H   UNL A   1      34.475  20.930  27.991  1.00  0.00     0.049 H 
ATOM      6  H   UNL A   1      33.467  22.078  27.105  1.00  0.00     0.049 H 
BRANCH   4   7
ATOM      7  N   UNL A   1      33.534  20.190  26.315  1.00  0.00    -0.356 N 
ATOM      8  C   UNL A   1      32.715  20.245  25.227  1.00  0.00     0.224 C 
ATOM      9  O   UNL A   1      32.167  19.205  24.852  1.00  0.00    -0.275 OA
ATOM     10  H   UNL A   1      33.716  19.289  26.665  1.00  0.00     0.163 HD
BRANCH   8  11
ATOM     11  C   UNL A   1      32.469  21.556  24.501  1.00  0.00     0.054 C 
ATOM     12  H   UNL A   1      33.416  21.974  24.231  1.00  0.00     0.042 H 
ATOM     13  H   UNL A   1      31.860  21.329  23.650  1.00  0.00     0.042 H 
BRANCH  11  14
ATOM     14  C   UNL A   1      31.713  22.580  25.320  1.00  0.00    -0.015 A 
ATOM     15  C   UNL A   1      29.798  23.025  26.784  1.00  0.00    -0.051 A 
ATOM     16  C   UNL A   1      30.144  24.373  26.796  1.00  0.00    -0.057 A 
ATOM     17  C   UNL A   1      30.598  22.135  26.064  1.00  0.00    -0.054 A 
ATOM     18  C   UNL A   1      31.272  24.818  26.101  1.00  0.00    -0.038 A 
ATOM     19  H   UNL A   1      29.564  25.047  27.320  1.00  0.00     0.063 H 
ATOM     20  H   UNL A   1      30.371  21.128  26.077  1.00  0.00     0.063 H 
ATOM     21  C   UNL A   1      32.075  23.943  25.352  1.00  0.00     0.042 A 
ATOM     22  H   UNL A   1      31.521  25.819  26.140  1.00  0.00     0.064 H 
BRANCH  15  23
ATOM     23  C   UNL A   1      28.591  22.549  27.535  1.00  0.00    -0.040 C 
ATOM     24  H   UNL A   1      27.795  22.359  26.847  1.00  0.00     0.028 H 
ATOM     25  H   UNL A   1      28.287  23.300  28.233  1.00  0.00     0.028 H 
ATOM     26  H   UNL A   1      28.829  21.648  28.062  1.00  0.00     0.028 H 
ENDBRANCH  15  23
BRANCH  21  27
ATOM     27  N   UNL A   1      33.248  24.401  24.714  1.00  0.00    -0.354 N 
ATOM     28  H   UNL A   1      34.043  23.829  24.826  1.00  0.00     0.167 HD
BRANCH  27  29
ATOM     29  C   UNL A   1      33.444  25.569  23.937  1.00  0.00     0.060 A 
ATOM     30  C   UNL A   1      33.712  26.821  24.529  1.00  0.00    -0.026 A 
ATOM     31  C   UNL A   1      33.299  25.500  22.534  1.00  0.00     0.064 A 
ATOM     32  C   UNL A   1      33.772  27.969  23.718  1.00  0.00    -0.057 A 
ATOM     33  C   UNL A   1      33.383  26.647  21.741  1.00  0.00    -0.041 A 
ATOM     34  Cl  UNL A   1      32.976  23.992  21.743  1.00  0.00    -0.082 Cl
ATOM     35  C   UNL A   1      33.607  27.884  22.336  1.00  0.00    -0.060 A 
ATOM     36  H   UNL A   1      33.941  28.890  24.153  1.00  0.00     0.063 H 
ATOM     37  H   UNL A   1      33.278  26.577  20.717  1.00  0.00     0.064 H 
ATOM     38  H   UNL A   1      33.652  28.736  21.756  1.00  0.00     0.062 H 
BRANCH  30  39
ATOM     39  C   UNL A   1      33.947  26.990  26.006  1.00  0.00    -0.038 C 
ATOM     40  H   UNL A   1      34.519  27.877  26.177  1.00  0.00     0.028 H 
ATOM     41  H   UNL A   1      34.482  26.143  26.381  1.00  0.00     0.028 H 
ATOM     42  H   UNL A   1      33.007  27.070  26.511  1.00  0.00     0.028 H 
ENDBRANCH  30  39
ENDBRANCH  27  29
ENDBRANCH  21  27
ENDBRANCH  11  14
ENDBRANCH   8  11
ENDBRANCH   4   7
ENDBRANCH   1   4
BRANCH   1  43
ATOM     43  C   UNL A   1      36.063  20.805  25.320  1.00  0.00    -0.052 C 
ATOM     44  H   UNL A   1      35.356  20.580  24.549  1.00  0.00     0.027 H 
ATOM     45  H   UNL A   1      36.339  19.968  25.927  1.00  0.00     0.027 H 
BRANCH  43  46
ATOM     46  C   UNL A   1      37.365  21.261  24.642  1.00  0.00    -0.052 C 
ATOM     47  H   UNL A   1      37.218  22.264  24.294  1.00  0.00     0.027 H 
ATOM     48  H   UNL A   1      37.550  20.551  23.864  1.00  0.00     0.027 H 
BRANCH  46  49
ATOM     49  C   UNL A   1      38.618  21.250  25.519  1.00  0.00    -0.036 C 
ATOM     50  H   UNL A   1      39.442  20.918  24.922  1.00  0.00     0.028 H 
ATOM     51  H   UNL A   1      38.409  20.598  26.341  1.00  0.00     0.028 H 
BRANCH  49  52
ATOM     52  C   UNL A   1      38.979  22.602  26.119  1.00  0.00     0.018 C 
ATOM     53  H   UNL A   1      38.467  22.705  27.053  1.00  0.00     0.049 H 
ATOM     54  H   UNL A   1      38.685  23.348  25.409  1.00  0.00     0.049 H 
BRANCH  52  55
ATOM     55  N   UNL A   1      40.404  22.776  26.354  1.00  0.00    -0.352 N 
ATOM     56  C   UNL A   1      41.136  23.918  26.636  1.00  0.00     0.251 C 
ATOM     57  H   UNL A   1      40.934  21.947  26.305  1.00  0.00     0.163 HD
ATOM     58  O   UNL A   1      42.347  23.858  26.718  1.00  0.00    -0.269 OA
BRANCH  56  59
ATOM     59  C   UNL A   1      40.433  25.180  26.993  1.00  0.00     0.039 A 
ATOM     60  C   UNL A   1      40.708  26.311  26.211  1.00  0.00    -0.049 A 
ATOM     61  C   UNL A   1      39.704  25.311  28.169  1.00  0.00    -0.049 A 
ATOM     62  C   UNL A   1      40.503  27.580  26.747  1.00  0.00    -0.053 A 
ATOM     63  H   UNL A   1      41.060  26.204  25.248  1.00  0.00     0.063 H 
ATOM     64  C   UNL A   1      39.589  26.561  28.743  1.00  0.00    -0.053 A 
ATOM     65  H   UNL A   1      39.256  24.490  28.604  1.00  0.00     0.063 H 
ATOM     66  C   UNL A   1      40.074  27.684  28.066  1.00  0.00    -0.014 A 
ATOM     67  H   UNL A   1      40.665  28.425  26.177  1.00  0.00     0.063 H 
ATOM     68  H   UNL A   1      39.146  26.667  29.669  1.00  0.00     0.063 H 
BRANCH  66  69
ATOM     69  C   UNL A   1      40.272  28.871  28.889  1.00  0.00     0.031 A 
ATOM     70  C   UNL A   1      39.243  29.924  28.965  1.00  0.00     0.074 A 
ATOM     71  C   UNL A   1      41.336  28.892  29.726  1.00  0.00     0.049 A 
ATOM     72  N   UNL A   1      39.415  31.048  29.574  1.00  0.00    -0.248 NA
ATOM     73  C   UNL A   1      37.947  29.829  28.298  1.00  0.00    -0.034 C 
ATOM     74  C   UNL A   1      41.536  29.738  30.901  1.00  0.00    -0.036 A 
ATOM     75  N   UNL A   1      42.584  28.268  29.538  1.00  0.00    -0.354 N 
ATOM     76  C   UNL A   1      38.198  31.678  29.640  1.00  0.00     0.074 A 
ATOM     77  C   UNL A   1      37.359  30.954  28.720  1.00  0.00    -0.034 C 
ATOM     78  H   UNL A   1      37.584  29.094  27.671  1.00  0.00     0.065 H 
ATOM     79  C   UNL A   1      42.851  29.836  31.144  1.00  0.00    -0.036 A 
ATOM     80  H   UNL A   1      40.787  30.188  31.452  1.00  0.00     0.065 H 
ATOM     81  C   UNL A   1      43.535  29.192  30.038  1.00  0.00     0.049 A 
ATOM     82  H   UNL A   1      42.758  27.381  29.145  1.00  0.00     0.167 HD
ATOM     83  C   UNL A   1      38.028  32.660  30.569  1.00  0.00     0.037 A 
ATOM     84  H   UNL A   1      36.420  31.265  28.423  1.00  0.00     0.065 H 
ATOM     85  H   UNL A   1      43.293  30.284  31.963  1.00  0.00     0.065 H 
ATOM     86  C   UNL A   1      44.407  29.816  29.191  1.00  0.00     0.037 A 
ATOM     87  C   UNL A   1      39.321  33.136  31.068  1.00  0.00     0.049 A 
ATOM     88  C   UNL A   1      44.275  31.326  29.134  1.00  0.00     0.074 A 
ATOM     89  C   UNL A   1      40.033  33.022  32.249  1.00  0.00    -0.036 A 
ATOM     90  N   UNL A   1      40.197  33.684  30.145  1.00  0.00    -0.354 N 
ATOM     91  N   UNL A   1      43.359  32.013  29.760  1.00  0.00    -0.248 NA
ATOM     92  C   UNL A   1      45.109  32.168  28.274  1.00  0.00    -0.034 C 
ATOM     93  C   UNL A   1      41.378  33.437  31.988  1.00  0.00    -0.036 A 
ATOM     94  H   UNL A   1      39.662  32.696  33.154  1.00  0.00     0.065 H 
ATOM     95  C   UNL A   1      41.465  33.832  30.664  1.00  0.00     0.049 A 
ATOM     96  H   UNL A   1      39.944  33.938  29.228  1.00  0.00     0.167 HD
ATOM     97  C   UNL A   1      43.423  33.320  29.363  1.00  0.00     0.074 A 
ATOM     98  C   UNL A   1      44.538  33.374  28.436  1.00  0.00    -0.034 C 
ATOM     99  H   UNL A   1      45.921  31.905  27.694  1.00  0.00     0.065 H 
ATOM    100  H   UNL A   1      42.152  33.442  32.671  1.00  0.00     0.065 H 
ATOM    101  C   UNL A   1      42.532  34.264  29.777  1.00  0.00     0.037 A 
ATOM    102  H   UNL A   1      44.854  34.233  27.960  1.00  0.00     0.065 H 
BRANCH  83 103
ATOM    103  C   UNL A   1      36.699  33.124  31.127  1.00  0.00     0.064 A 
ATOM    104  C   UNL A   1      35.834  33.907  30.330  1.00  0.00     0.173 A 
ATOM    105  C   UNL A   1      36.271  32.955  32.462  1.00  0.00     0.173 A 
ATOM    106  F   UNL A   1      36.116  34.166  29.046  1.00  0.00    -0.203 F 
ATOM    107  C   UNL A   1      34.657  34.477  30.832  1.00  0.00     0.198 A 
ATOM    108  C   UNL A   1      35.069  33.480  32.946  1.00  0.00     0.198 A 
ATOM    109  F   UNL A   1      37.016  32.336  33.382  1.00  0.00    -0.203 F 
ATOM    110  F   UNL A   1      33.911  35.263  30.044  1.00  0.00    -0.200 F 
ATOM    111  C   UNL A   1      34.269  34.254  32.137  1.00  0.00     0.200 A 
ATOM    112  F   UNL A   1      34.715  33.253  34.220  1.00  0.00    -0.200 F 
ATOM    113  F   UNL A   1      33.146  34.800  32.620  1.00  0.00    -0.200 F 
ENDBRANCH  83 103
BRANCH  86 114
ATOM    114  C   UNL A   1      44.806  28.956  28.045  1.00  0.00     0.064 A 
ATOM    115  C   UNL A   1      45.738  27.924  28.272  1.00  0.00     0.173 A 
ATOM    116  C   UNL A   1      44.037  28.889  26.878  1.00  0.00     0.173 A 
ATOM    117  F   UNL A   1      46.501  27.941  29.377  1.00  0.00    -0.203 F 
ATOM    118  C   UNL A   1      45.809  26.815  27.433  1.00  0.00     0.198 A 
ATOM    119  C   UNL A   1      44.125  27.786  26.028  1.00  0.00     0.198 A 
ATOM    120  F   UNL A   1      43.115  29.827  26.616  1.00  0.00    -0.203 F 
ATOM    121  F   UNL A   1      46.623  25.795  27.739  1.00  0.00    -0.200 F 
ATOM    122  C   UNL A   1      44.982  26.736  26.325  1.00  0.00     0.200 A 
ATOM    123  F   UNL A   1      43.305  27.695  24.973  1.00  0.00    -0.200 F 
ATOM    124  F   UNL A   1      44.978  25.631  25.567  1.00  0.00    -0.200 F 
ENDBRANCH  86 114
BRANCH 101 125
ATOM    125  C   UNL A   1      42.610  35.692  29.335  1.00  0.00     0.064 A 
ATOM    126  C   UNL A   1      42.002  36.132  28.149  1.00  0.00     0.173 A 
ATOM    127  C   UNL A   1      43.392  36.635  30.030  1.00  0.00     0.173 A 
ATOM    128  F   UNL A   1      41.261  35.293  27.411  1.00  0.00    -0.203 F 
ATOM    129  C   UNL A   1      42.153  37.444  27.696  1.00  0.00     0.198 A 
ATOM    130  C   UNL A   1      43.581  37.928  29.551  1.00  0.00     0.198 A 
ATOM    131  F   UNL A   1      43.969  36.328  31.203  1.00  0.00    -0.203 F 
ATOM    132  F   UNL A   1      41.523  37.839  26.583  1.00  0.00    -0.200 F 
ATOM    133  C   UNL A   1      42.956  38.335  28.388  1.00  0.00     0.200 A 
ATOM    134  F   UNL A   1      44.369  38.780  30.225  1.00  0.00    -0.200 F 
ATOM    135  F   UNL A   1      43.120  39.587  27.938  1.00  0.00    -0.200 F 
ENDBRANCH 101 125
ENDBRANCH  66  69
ENDBRANCH  56  59
ENDBRANCH  52  55
ENDBRANCH  49  52
ENDBRANCH  46  49
ENDBRANCH  43  46
ENDBRANCH   1  43
TORSDOF 18
ENDMDL
MODEL 5
REMARK VINA RESULT:     -12.2      1.306      2.655
REMARK SMILES Cc1ccc(Nc2c(C)cccc2Cl)c(CC(=O)NCCCCCCNC(=O)c2ccc(-c3c4nc(c(-c5c(F)c(F)c(F)c(F)c5F)c5ccc([nH]5)c(-c5c(F)c(F)c(F)c(F)c5F)c5nc(c(-c6c(F)c(F)c(F)c(F)c6F)c6ccc3[nH]6)C=C5)C=C4)cc2)c1
REMARK SMILES IDX 21 1 20 4 19 7 17 8 18 9 16 11 15 14 2 15 3 16 92 17 4 18
REMARK SMILES IDX 5 21 1 23 6 27 7 29 8 30 13 31 10 32 12 33 14 34 11 35 9 39
REMARK SMILES IDX 22 43 23 46 24 49 25 52 26 55 27 56 28 58 29 59 30 60 91 61
REMARK SMILES IDX 31 62 90 64 32 66 33 69 34 70 84 71 35 72 89 73 83 74 85 75
REMARK SMILES IDX 36 76 88 77 82 79 81 81 37 83 69 86 49 87 68 88 50 89 53 90
REMARK SMILES IDX 67 91 86 92 51 93 52 95 66 97 87 98 54 101 38 103 39 104
REMARK SMILES IDX 47 105 40 106 41 107 45 108 48 109 42 110 43 111 46 112
REMARK SMILES IDX 44 113 70 114 71 115 79 116 72 117 73 118 77 119 80 120
REMARK SMILES IDX 74 121 75 122 78 123 76 124 55 125 56 126 64 127 57 128
REMARK SMILES IDX 58 129 62 130 65 131 59 132 60 133 63 134 61 135
REMARK H PARENT 21 2 21 3 20 5 20 6 19 10 16 12 16 13 3 19 92 20 4 22 1 24
REMARK H PARENT 1 25 1 26 6 28 10 36 12 37 11 38 9 40 9 41 9 42 22 44 22 45
REMARK H PARENT 23 47 23 48 24 50 24 51 25 53 25 54 26 57 30 63 91 65 31 67
REMARK H PARENT 90 68 89 78 83 80 85 82 88 84 82 85 50 94 53 96 86 99 51 100
REMARK H PARENT 87 102
REMARK Flexibility Score: inf
ROOT
ATOM      1  C   UNL A   1      31.534  27.668  27.025  1.00  0.00    -0.036 C 
ATOM      2  H   UNL A   1      32.475  27.425  27.471  1.00  0.00     0.028 H 
ATOM      3  H   UNL A   1      30.756  27.845  27.738  1.00  0.00     0.028 H 
ENDROOT
BRANCH   1   4
ATOM      4  C   UNL A   1      31.081  26.466  26.192  1.00  0.00     0.017 C 
ATOM      5  H   UNL A   1      30.067  26.619  25.887  1.00  0.00     0.049 H 
ATOM      6  H   UNL A   1      31.732  26.386  25.346  1.00  0.00     0.049 H 
BRANCH   4   7
ATOM      7  N   UNL A   1      31.164  25.227  26.935  1.00  0.00    -0.356 N 
ATOM      8  C   UNL A   1      31.754  24.052  26.576  1.00  0.00     0.224 C 
ATOM      9  O   UNL A   1      31.598  23.069  27.304  1.00  0.00    -0.275 OA
ATOM     10  H   UNL A   1      30.734  25.232  27.821  1.00  0.00     0.163 HD
BRANCH   8  11
ATOM     11  C   UNL A   1      32.574  23.950  25.302  1.00  0.00     0.054 C 
ATOM     12  H   UNL A   1      31.985  23.452  24.560  1.00  0.00     0.042 H 
ATOM     13  H   UNL A   1      32.833  24.950  25.019  1.00  0.00     0.042 H 
BRANCH  11  14
ATOM     14  C   UNL A   1      33.874  23.191  25.466  1.00  0.00    -0.015 A 
ATOM     15  C   UNL A   1      36.272  23.316  25.956  1.00  0.00    -0.051 A 
ATOM     16  C   UNL A   1      36.376  21.951  25.703  1.00  0.00    -0.057 A 
ATOM     17  C   UNL A   1      35.018  23.922  25.857  1.00  0.00    -0.054 A 
ATOM     18  C   UNL A   1      35.243  21.209  25.360  1.00  0.00    -0.038 A 
ATOM     19  H   UNL A   1      37.295  21.485  25.769  1.00  0.00     0.063 H 
ATOM     20  H   UNL A   1      34.923  24.926  26.076  1.00  0.00     0.063 H 
ATOM     21  C   UNL A   1      33.977  21.804  25.232  1.00  0.00     0.042 A 
ATOM     22  H   UNL A   1      35.339  20.195  25.196  1.00  0.00     0.064 H 
BRANCH  15  23
ATOM     23  C   UNL A   1      37.488  24.109  26.329  1.00  0.00    -0.040 C 
ATOM     24  H   UNL A   1      37.799  24.700  25.494  1.00  0.00     0.028 H 
ATOM     25  H   UNL A   1      38.277  23.442  26.607  1.00  0.00     0.028 H 
ATOM     26  H   UNL A   1      37.258  24.751  27.154  1.00  0.00     0.028 H 
ENDBRANCH  15  23
BRANCH  21  27
ATOM     27  N   UNL A   1      32.834  21.024  24.953  1.00  0.00    -0.354 N 
ATOM     28  H   UNL A   1      32.050  21.201  25.523  1.00  0.00     0.167 HD
BRANCH  27  29
ATOM     29  C   UNL A   1      32.655  20.022  23.968  1.00  0.00     0.060 A 
ATOM     30  C   UNL A   1      32.301  20.340  22.639  1.00  0.00    -0.026 A 
ATOM     31  C   UNL A   1      32.762  18.663  24.333  1.00  0.00     0.064 A 
ATOM     32  C   UNL A   1      32.013  19.302  21.734  1.00  0.00    -0.057 A 
ATOM     33  C   UNL A   1      32.492  17.644  23.417  1.00  0.00    -0.041 A 
ATOM     34  Cl  UNL A   1      33.198  18.204  25.946  1.00  0.00    -0.082 Cl
ATOM     35  C   UNL A   1      32.105  17.965  22.120  1.00  0.00    -0.060 A 
ATOM     36  H   UNL A   1      31.727  19.533  20.769  1.00  0.00     0.063 H 
ATOM     37  H   UNL A   1      32.579  16.656  23.701  1.00  0.00     0.064 H 
ATOM     38  H   UNL A   1      31.888  17.216  21.445  1.00  0.00     0.062 H 
BRANCH  30  39
ATOM     39  C   UNL A   1      32.223  21.756  22.133  1.00  0.00    -0.038 C 
ATOM     40  H   UNL A   1      31.899  22.399  22.925  1.00  0.00     0.028 H 
ATOM     41  H   UNL A   1      31.525  21.808  21.324  1.00  0.00     0.028 H 
ATOM     42  H   UNL A   1      33.188  22.067  21.793  1.00  0.00     0.028 H 
ENDBRANCH  30  39
ENDBRANCH  27  29
ENDBRANCH  21  27
ENDBRANCH  11  14
ENDBRANCH   8  11
ENDBRANCH   4   7
ENDBRANCH   1   4
BRANCH   1  43
ATOM     43  C   UNL A   1      31.702  28.979  26.242  1.00  0.00    -0.052 C 
ATOM     44  H   UNL A   1      30.742  29.253  25.856  1.00  0.00     0.027 H 
ATOM     45  H   UNL A   1      32.437  28.769  25.493  1.00  0.00     0.027 H 
BRANCH  43  46
ATOM     46  C   UNL A   1      32.253  30.181  27.025  1.00  0.00    -0.052 C 
ATOM     47  H   UNL A   1      31.513  30.469  27.744  1.00  0.00     0.027 H 
ATOM     48  H   UNL A   1      32.466  30.930  26.293  1.00  0.00     0.027 H 
BRANCH  46  49
ATOM     49  C   UNL A   1      33.566  29.948  27.774  1.00  0.00    -0.036 C 
ATOM     50  H   UNL A   1      33.834  28.917  27.668  1.00  0.00     0.028 H 
ATOM     51  H   UNL A   1      33.393  30.232  28.791  1.00  0.00     0.028 H 
BRANCH  49  52
ATOM     52  C   UNL A   1      34.731  30.795  27.280  1.00  0.00     0.018 C 
ATOM     53  H   UNL A   1      34.366  31.468  26.531  1.00  0.00     0.049 H 
ATOM     54  H   UNL A   1      35.468  30.121  26.897  1.00  0.00     0.049 H 
BRANCH  52  55
ATOM     55  N   UNL A   1      35.372  31.576  28.327  1.00  0.00    -0.352 N 
ATOM     56  C   UNL A   1      36.410  31.249  29.185  1.00  0.00     0.251 C 
ATOM     57  H   UNL A   1      35.011  32.485  28.444  1.00  0.00     0.163 HD
ATOM     58  O   UNL A   1      36.746  32.028  30.055  1.00  0.00    -0.269 OA
BRANCH  56  59
ATOM     59  C   UNL A   1      37.211  30.019  28.943  1.00  0.00     0.039 A 
ATOM     60  C   UNL A   1      37.289  29.088  29.989  1.00  0.00    -0.049 A 
ATOM     61  C   UNL A   1      38.029  29.878  27.828  1.00  0.00    -0.049 A 
ATOM     62  C   UNL A   1      38.364  28.204  30.040  1.00  0.00    -0.053 A 
ATOM     63  H   UNL A   1      36.557  29.059  30.715  1.00  0.00     0.063 H 
ATOM     64  C   UNL A   1      39.147  29.075  27.921  1.00  0.00    -0.053 A 
ATOM     65  H   UNL A   1      37.804  30.365  26.947  1.00  0.00     0.063 H 
ATOM     66  C   UNL A   1      39.357  28.308  29.071  1.00  0.00    -0.014 A 
ATOM     67  H   UNL A   1      38.422  27.488  30.781  1.00  0.00     0.063 H 
ATOM     68  H   UNL A   1      39.826  29.039  27.145  1.00  0.00     0.063 H 
BRANCH  66  69
ATOM     69  C   UNL A   1      40.717  27.815  29.253  1.00  0.00     0.031 A 
ATOM     70  C   UNL A   1      41.101  26.461  28.813  1.00  0.00     0.074 A 
ATOM     71  C   UNL A   1      41.661  28.695  29.660  1.00  0.00     0.049 A 
ATOM     72  N   UNL A   1      42.250  25.929  29.058  1.00  0.00    -0.248 NA
ATOM     73  C   UNL A   1      40.193  25.558  28.111  1.00  0.00    -0.034 C 
ATOM     74  C   UNL A   1      43.112  28.575  29.536  1.00  0.00    -0.036 A 
ATOM     75  N   UNL A   1      41.481  29.820  30.488  1.00  0.00    -0.354 N 
ATOM     76  C   UNL A   1      42.345  24.778  28.318  1.00  0.00     0.074 A 
ATOM     77  C   UNL A   1      41.002  24.522  27.863  1.00  0.00    -0.034 C 
ATOM     78  H   UNL A   1      39.197  25.684  27.872  1.00  0.00     0.065 H 
ATOM     79  C   UNL A   1      43.691  29.346  30.469  1.00  0.00    -0.036 A 
ATOM     80  H   UNL A   1      43.610  27.992  28.845  1.00  0.00     0.065 H 
ATOM     81  C   UNL A   1      42.629  29.851  31.319  1.00  0.00     0.049 A 
ATOM     82  H   UNL A   1      40.722  30.448  30.489  1.00  0.00     0.167 HD
ATOM     83  C   UNL A   1      43.583  24.261  28.083  1.00  0.00     0.037 A 
ATOM     84  H   UNL A   1      40.703  23.648  27.403  1.00  0.00     0.065 H 
ATOM     85  H   UNL A   1      44.700  29.544  30.563  1.00  0.00     0.065 H 
ATOM     86  C   UNL A   1      42.522  29.610  32.660  1.00  0.00     0.037 A 
ATOM     87  C   UNL A   1      44.568  24.823  29.011  1.00  0.00     0.049 A 
ATOM     88  C   UNL A   1      43.279  28.392  33.153  1.00  0.00     0.074 A 
ATOM     89  C   UNL A   1      45.622  25.715  28.921  1.00  0.00    -0.036 A 
ATOM     90  N   UNL A   1      44.360  24.615  30.365  1.00  0.00    -0.354 N 
ATOM     91  N   UNL A   1      43.926  27.560  32.384  1.00  0.00    -0.248 NA
ATOM     92  C   UNL A   1      43.273  27.962  34.553  1.00  0.00    -0.034 C 
ATOM     93  C   UNL A   1      45.984  26.099  30.252  1.00  0.00    -0.036 A 
ATOM     94  H   UNL A   1      46.067  26.045  28.051  1.00  0.00     0.065 H 
ATOM     95  C   UNL A   1      45.173  25.413  31.140  1.00  0.00     0.049 A 
ATOM     96  H   UNL A   1      43.709  23.972  30.730  1.00  0.00     0.167 HD
ATOM     97  C   UNL A   1      44.350  26.494  33.126  1.00  0.00     0.074 A 
ATOM     98  C   UNL A   1      43.925  26.789  34.481  1.00  0.00    -0.034 C 
ATOM     99  H   UNL A   1      42.872  28.434  35.379  1.00  0.00     0.065 H 
ATOM    100  H   UNL A   1      46.723  26.772  30.506  1.00  0.00     0.065 H 
ATOM    101  C   UNL A   1      44.977  25.414  32.579  1.00  0.00     0.037 A 
ATOM    102  H   UNL A   1      44.103  26.175  35.291  1.00  0.00     0.065 H 
BRANCH  83 103
ATOM    103  C   UNL A   1      43.949  23.332  26.945  1.00  0.00     0.064 A 
ATOM    104  C   UNL A   1      44.777  23.792  25.896  1.00  0.00     0.173 A 
ATOM    105  C   UNL A   1      43.423  22.037  26.748  1.00  0.00     0.173 A 
ATOM    106  F   UNL A   1      45.337  25.009  25.936  1.00  0.00    -0.203 F 
ATOM    107  C   UNL A   1      45.040  23.027  24.753  1.00  0.00     0.198 A 
ATOM    108  C   UNL A   1      43.730  21.254  25.631  1.00  0.00     0.198 A 
ATOM    109  F   UNL A   1      42.537  21.487  27.584  1.00  0.00    -0.203 F 
ATOM    110  F   UNL A   1      45.782  23.544  23.764  1.00  0.00    -0.200 F 
ATOM    111  C   UNL A   1      44.525  21.754  24.626  1.00  0.00     0.200 A 
ATOM    112  F   UNL A   1      43.214  20.020  25.528  1.00  0.00    -0.200 F 
ATOM    113  F   UNL A   1      44.773  21.021  23.532  1.00  0.00    -0.200 F 
ENDBRANCH  83 103
BRANCH  86 114
ATOM    114  C   UNL A   1      41.236  30.097  33.228  1.00  0.00     0.064 A 
ATOM    115  C   UNL A   1      41.060  31.484  33.400  1.00  0.00     0.173 A 
ATOM    116  C   UNL A   1      40.092  29.292  33.244  1.00  0.00     0.173 A 
ATOM    117  F   UNL A   1      42.127  32.301  33.392  1.00  0.00    -0.203 F 
ATOM    118  C   UNL A   1      39.790  32.050  33.460  1.00  0.00     0.198 A 
ATOM    119  C   UNL A   1      38.821  29.862  33.326  1.00  0.00     0.198 A 
ATOM    120  F   UNL A   1      40.190  27.967  33.062  1.00  0.00    -0.203 F 
ATOM    121  F   UNL A   1      39.653  33.383  33.506  1.00  0.00    -0.200 F 
ATOM    122  C   UNL A   1      38.670  31.239  33.397  1.00  0.00     0.200 A 
ATOM    123  F   UNL A   1      37.737  29.079  33.235  1.00  0.00    -0.200 F 
ATOM    124  F   UNL A   1      37.446  31.783  33.360  1.00  0.00    -0.200 F 
ENDBRANCH  86 114
BRANCH 101 125
ATOM    125  C   UNL A   1      45.436  24.250  33.401  1.00  0.00     0.064 A 
ATOM    126  C   UNL A   1      44.607  23.144  33.643  1.00  0.00     0.173 A 
ATOM    127  C   UNL A   1      46.680  24.262  34.063  1.00  0.00     0.173 A 
ATOM    128  F   UNL A   1      43.395  23.063  33.074  1.00  0.00    -0.203 F 
ATOM    129  C   UNL A   1      45.008  22.103  34.483  1.00  0.00     0.198 A 
ATOM    130  C   UNL A   1      47.056  23.247  34.938  1.00  0.00     0.198 A 
ATOM    131  F   UNL A   1      47.567  25.248  33.854  1.00  0.00    -0.203 F 
ATOM    132  F   UNL A   1      44.208  21.043  34.655  1.00  0.00    -0.200 F 
ATOM    133  C   UNL A   1      46.224  22.163  35.142  1.00  0.00     0.200 A 
ATOM    134  F   UNL A   1      48.232  23.322  35.579  1.00  0.00    -0.200 F 
ATOM    135  F   UNL A   1      46.595  21.175  35.968  1.00  0.00    -0.200 F 
ENDBRANCH 101 125
ENDBRANCH  66  69
ENDBRANCH  56  59
ENDBRANCH  52  55
ENDBRANCH  49  52
ENDBRANCH  46  49
ENDBRANCH  43  46
ENDBRANCH   1  43
TORSDOF 18
ENDMDL
MODEL 6
REMARK VINA RESULT:     -12.2      4.029     10.356
REMARK SMILES Cc1ccc(Nc2c(C)cccc2Cl)c(CC(=O)NCCCCCCNC(=O)c2ccc(-c3c4nc(c(-c5c(F)c(F)c(F)c(F)c5F)c5ccc([nH]5)c(-c5c(F)c(F)c(F)c(F)c5F)c5nc(c(-c6c(F)c(F)c(F)c(F)c6F)c6ccc3[nH]6)C=C5)C=C4)cc2)c1
REMARK SMILES IDX 21 1 20 4 19 7 17 8 18 9 16 11 15 14 2 15 3 16 92 17 4 18
REMARK SMILES IDX 5 21 1 23 6 27 7 29 8 30 13 31 10 32 12 33 14 34 11 35 9 39
REMARK SMILES IDX 22 43 23 46 24 49 25 52 26 55 27 56 28 58 29 59 30 60 91 61
REMARK SMILES IDX 31 62 90 64 32 66 33 69 34 70 84 71 35 72 89 73 83 74 85 75
REMARK SMILES IDX 36 76 88 77 82 79 81 81 37 83 69 86 49 87 68 88 50 89 53 90
REMARK SMILES IDX 67 91 86 92 51 93 52 95 66 97 87 98 54 101 38 103 39 104
REMARK SMILES IDX 47 105 40 106 41 107 45 108 48 109 42 110 43 111 46 112
REMARK SMILES IDX 44 113 70 114 71 115 79 116 72 117 73 118 77 119 80 120
REMARK SMILES IDX 74 121 75 122 78 123 76 124 55 125 56 126 64 127 57 128
REMARK SMILES IDX 58 129 62 130 65 131 59 132 60 133 63 134 61 135
REMARK H PARENT 21 2 21 3 20 5 20 6 19 10 16 12 16 13 3 19 92 20 4 22 1 24
REMARK H PARENT 1 25 1 26 6 28 10 36 12 37 11 38 9 40 9 41 9 42 22 44 22 45
REMARK H PARENT 23 47 23 48 24 50 24 51 25 53 25 54 26 57 30 63 91 65 31 67
REMARK H PARENT 90 68 89 78 83 80 85 82 88 84 82 85 50 94 53 96 86 99 51 100
REMARK H PARENT 87 102
REMARK Flexibility Score: inf
ROOT
ATOM      1  C   UNL A   1      34.894  22.953  23.211  1.00  0.00    -0.036 C 
ATOM      2  H   UNL A   1      35.181  22.643  22.228  1.00  0.00     0.028 H 
ATOM      3  H   UNL A   1      34.616  22.143  23.851  1.00  0.00     0.028 H 
ENDROOT
BRANCH   1   4
ATOM      4  C   UNL A   1      33.651  23.839  23.083  1.00  0.00     0.017 C 
ATOM      5  H   UNL A   1      33.917  24.731  22.554  1.00  0.00     0.049 H 
ATOM      6  H   UNL A   1      32.903  23.285  22.556  1.00  0.00     0.049 H 
BRANCH   4   7
ATOM      7  N   UNL A   1      33.109  24.205  24.374  1.00  0.00    -0.356 N 
ATOM      8  C   UNL A   1      33.045  25.435  24.956  1.00  0.00     0.224 C 
ATOM      9  O   UNL A   1      32.659  25.513  26.125  1.00  0.00    -0.275 OA
ATOM     10  H   UNL A   1      32.736  23.464  24.904  1.00  0.00     0.163 HD
BRANCH   8  11
ATOM     11  C   UNL A   1      33.452  26.682  24.191  1.00  0.00     0.054 C 
ATOM     12  H   UNL A   1      34.519  26.699  24.117  1.00  0.00     0.042 H 
ATOM     13  H   UNL A   1      32.974  26.628  23.234  1.00  0.00     0.042 H 
BRANCH  11  14
ATOM     14  C   UNL A   1      32.999  27.975  24.835  1.00  0.00    -0.015 A 
ATOM     15  C   UNL A   1      33.465  29.703  26.510  1.00  0.00    -0.051 A 
ATOM     16  C   UNL A   1      32.249  30.306  26.198  1.00  0.00    -0.057 A 
ATOM     17  C   UNL A   1      33.841  28.554  25.810  1.00  0.00    -0.054 A 
ATOM     18  C   UNL A   1      31.429  29.768  25.203  1.00  0.00    -0.038 A 
ATOM     19  H   UNL A   1      31.953  31.155  26.705  1.00  0.00     0.063 H 
ATOM     20  H   UNL A   1      34.755  28.119  26.008  1.00  0.00     0.063 H 
ATOM     21  C   UNL A   1      31.778  28.600  24.504  1.00  0.00     0.042 A 
ATOM     22  H   UNL A   1      30.542  30.242  24.975  1.00  0.00     0.064 H 
BRANCH  15  23
ATOM     23  C   UNL A   1      34.346  30.285  27.573  1.00  0.00    -0.040 C 
ATOM     24  H   UNL A   1      33.883  30.158  28.529  1.00  0.00     0.028 H 
ATOM     25  H   UNL A   1      34.491  31.329  27.384  1.00  0.00     0.028 H 
ATOM     26  H   UNL A   1      35.293  29.787  27.567  1.00  0.00     0.028 H 
ENDBRANCH  15  23
BRANCH  21  27
ATOM     27  N   UNL A   1      30.969  28.112  23.456  1.00  0.00    -0.354 N 
ATOM     28  H   UNL A   1      31.453  27.699  22.704  1.00  0.00     0.167 HD
BRANCH  27  29
ATOM     29  C   UNL A   1      29.558  28.134  23.333  1.00  0.00     0.060 A 
ATOM     30  C   UNL A   1      28.879  29.216  22.734  1.00  0.00    -0.026 A 
ATOM     31  C   UNL A   1      28.797  27.080  23.886  1.00  0.00     0.064 A 
ATOM     32  C   UNL A   1      27.473  29.244  22.751  1.00  0.00    -0.057 A 
ATOM     33  C   UNL A   1      27.401  27.114  23.876  1.00  0.00    -0.041 A 
ATOM     34  Cl  UNL A   1      29.568  25.719  24.631  1.00  0.00    -0.082 Cl
ATOM     35  C   UNL A   1      26.739  28.203  23.319  1.00  0.00    -0.060 A 
ATOM     36  H   UNL A   1      26.976  30.048  22.337  1.00  0.00     0.063 H 
ATOM     37  H   UNL A   1      26.862  26.332  24.282  1.00  0.00     0.064 H 
ATOM     38  H   UNL A   1      25.709  28.240  23.326  1.00  0.00     0.062 H 
BRANCH  30  39
ATOM     39  C   UNL A   1      29.598  30.355  22.060  1.00  0.00    -0.038 C 
ATOM     40  H   UNL A   1      29.118  30.579  21.131  1.00  0.00     0.028 H 
ATOM     41  H   UNL A   1      30.615  30.077  21.878  1.00  0.00     0.028 H 
ATOM     42  H   UNL A   1      29.571  31.218  22.692  1.00  0.00     0.028 H 
ENDBRANCH  30  39
ENDBRANCH  27  29
ENDBRANCH  21  27
ENDBRANCH  11  14
ENDBRANCH   8  11
ENDBRANCH   4   7
ENDBRANCH   1   4
BRANCH   1  43
ATOM     43  C   UNL A   1      36.108  23.624  23.872  1.00  0.00    -0.052 C 
ATOM     44  H   UNL A   1      35.754  24.473  24.418  1.00  0.00     0.027 H 
ATOM     45  H   UNL A   1      36.774  23.859  23.068  1.00  0.00     0.027 H 
BRANCH  43  46
ATOM     46  C   UNL A   1      36.929  22.756  24.839  1.00  0.00    -0.052 C 
ATOM     47  H   UNL A   1      37.237  21.878  24.309  1.00  0.00     0.027 H 
ATOM     48  H   UNL A   1      36.286  22.562  25.671  1.00  0.00     0.027 H 
BRANCH  46  49
ATOM     49  C   UNL A   1      38.181  23.409  25.428  1.00  0.00    -0.036 C 
ATOM     50  H   UNL A   1      37.898  24.347  25.859  1.00  0.00     0.028 H 
ATOM     51  H   UNL A   1      38.878  23.513  24.624  1.00  0.00     0.028 H 
BRANCH  49  52
ATOM     52  C   UNL A   1      38.876  22.583  26.501  1.00  0.00     0.018 C 
ATOM     53  H   UNL A   1      38.699  21.547  26.298  1.00  0.00     0.049 H 
ATOM     54  H   UNL A   1      38.471  22.889  27.443  1.00  0.00     0.049 H 
BRANCH  52  55
ATOM     55  N   UNL A   1      40.314  22.800  26.566  1.00  0.00    -0.352 N 
ATOM     56  C   UNL A   1      41.041  23.971  26.708  1.00  0.00     0.251 C 
ATOM     57  H   UNL A   1      40.858  21.982  26.500  1.00  0.00     0.163 HD
ATOM     58  O   UNL A   1      42.255  23.941  26.656  1.00  0.00    -0.269 OA
BRANCH  56  59
ATOM     59  C   UNL A   1      40.347  25.234  27.078  1.00  0.00     0.039 A 
ATOM     60  C   UNL A   1      40.593  26.359  26.279  1.00  0.00    -0.049 A 
ATOM     61  C   UNL A   1      39.657  25.373  28.277  1.00  0.00    -0.049 A 
ATOM     62  C   UNL A   1      40.403  27.632  26.811  1.00  0.00    -0.053 A 
ATOM     63  H   UNL A   1      40.912  26.245  25.305  1.00  0.00     0.063 H 
ATOM     64  C   UNL A   1      39.559  26.626  28.845  1.00  0.00    -0.053 A 
ATOM     65  H   UNL A   1      39.226  24.554  28.734  1.00  0.00     0.063 H 
ATOM     66  C   UNL A   1      40.019  27.745  28.144  1.00  0.00    -0.014 A 
ATOM     67  H   UNL A   1      40.544  28.473  26.229  1.00  0.00     0.063 H 
ATOM     68  H   UNL A   1      39.147  26.739  29.785  1.00  0.00     0.063 H 
BRANCH  66  69
ATOM     69  C   UNL A   1      40.242  28.940  28.950  1.00  0.00     0.031 A 
ATOM     70  C   UNL A   1      39.219  29.999  29.039  1.00  0.00     0.074 A 
ATOM     71  C   UNL A   1      41.324  28.963  29.762  1.00  0.00     0.049 A 
ATOM     72  N   UNL A   1      39.411  31.128  29.633  1.00  0.00    -0.248 NA
ATOM     73  C   UNL A   1      37.908  29.904  28.403  1.00  0.00    -0.034 C 
ATOM     74  C   UNL A   1      41.555  29.820  30.923  1.00  0.00    -0.036 A 
ATOM     75  N   UNL A   1      42.564  28.331  29.551  1.00  0.00    -0.354 N 
ATOM     76  C   UNL A   1      38.199  31.764  29.721  1.00  0.00     0.074 A 
ATOM     77  C   UNL A   1      37.335  31.035  28.827  1.00  0.00    -0.034 C 
ATOM     78  H   UNL A   1      37.527  29.165  27.792  1.00  0.00     0.065 H 
ATOM     79  C   UNL A   1      42.877  29.913  31.135  1.00  0.00    -0.036 A 
ATOM     80  H   UNL A   1      40.822  30.279  31.487  1.00  0.00     0.065 H 
ATOM     81  C   UNL A   1      43.531  29.255  30.020  1.00  0.00     0.049 A 
ATOM     82  H   UNL A   1      42.725  27.440  29.163  1.00  0.00     0.167 HD
ATOM     83  C   UNL A   1      38.055  32.755  30.644  1.00  0.00     0.037 A 
ATOM     84  H   UNL A   1      36.391  31.349  28.550  1.00  0.00     0.065 H 
ATOM     85  H   UNL A   1      43.339  30.366  31.939  1.00  0.00     0.065 H 
ATOM     86  C   UNL A   1      44.387  29.866  29.147  1.00  0.00     0.037 A 
ATOM     87  C   UNL A   1      39.361  33.230  31.108  1.00  0.00     0.049 A 
ATOM     88  C   UNL A   1      44.261  31.376  29.078  1.00  0.00     0.074 A 
ATOM     89  C   UNL A   1      40.101  33.124  32.273  1.00  0.00    -0.036 A 
ATOM     90  N   UNL A   1      40.219  33.764  30.161  1.00  0.00    -0.354 N 
ATOM     91  N   UNL A   1      43.363  32.074  29.719  1.00  0.00    -0.248 NA
ATOM     92  C   UNL A   1      45.079  32.205  28.191  1.00  0.00    -0.034 C 
ATOM     93  C   UNL A   1      41.441  33.530  31.978  1.00  0.00    -0.036 A 
ATOM     94  H   UNL A   1      39.749  32.809  33.191  1.00  0.00     0.065 H 
ATOM     95  C   UNL A   1      41.499  33.911  30.648  1.00  0.00     0.049 A 
ATOM     96  H   UNL A   1      39.945  34.011  29.247  1.00  0.00     0.167 HD
ATOM     97  C   UNL A   1      43.425  33.376  29.307  1.00  0.00     0.074 A 
ATOM     98  C   UNL A   1      44.517  33.416  28.355  1.00  0.00    -0.034 C 
ATOM     99  H   UNL A   1      45.876  31.933  27.596  1.00  0.00     0.065 H 
ATOM    100  H   UNL A   1      42.231  33.537  32.642  1.00  0.00     0.065 H 
ATOM    101  C   UNL A   1      42.547  34.329  29.733  1.00  0.00     0.037 A 
ATOM    102  H   UNL A   1      44.827  34.268  27.863  1.00  0.00     0.065 H 
BRANCH  83 103
ATOM    103  C   UNL A   1      36.742  33.232  31.228  1.00  0.00     0.064 A 
ATOM    104  C   UNL A   1      35.848  33.985  30.434  1.00  0.00     0.173 A 
ATOM    105  C   UNL A   1      36.356  33.105  32.580  1.00  0.00     0.173 A 
ATOM    106  F   UNL A   1      36.088  34.203  29.133  1.00  0.00    -0.203 F 
ATOM    107  C   UNL A   1      34.685  34.565  30.954  1.00  0.00     0.198 A 
ATOM    108  C   UNL A   1      35.167  33.640  33.085  1.00  0.00     0.198 A 
ATOM    109  F   UNL A   1      37.133  32.520  33.496  1.00  0.00    -0.203 F 
ATOM    110  F   UNL A   1      33.909  35.322  30.164  1.00  0.00    -0.200 F 
ATOM    111  C   UNL A   1      34.339  34.384  32.276  1.00  0.00     0.200 A 
ATOM    112  F   UNL A   1      34.855  33.454  34.376  1.00  0.00    -0.200 F 
ATOM    113  F   UNL A   1      33.228  34.940  32.776  1.00  0.00    -0.200 F 
ENDBRANCH  83 103
BRANCH  86 114
ATOM    114  C   UNL A   1      44.755  28.993  28.001  1.00  0.00     0.064 A 
ATOM    115  C   UNL A   1      45.685  27.957  28.216  1.00  0.00     0.173 A 
ATOM    116  C   UNL A   1      43.960  28.921  26.851  1.00  0.00     0.173 A 
ATOM    117  F   UNL A   1      46.472  27.979  29.305  1.00  0.00    -0.203 F 
ATOM    118  C   UNL A   1      45.730  26.840  27.386  1.00  0.00     0.198 A 
ATOM    119  C   UNL A   1      44.023  27.809  26.010  1.00  0.00     0.198 A 
ATOM    120  F   UNL A   1      43.039  29.863  26.601  1.00  0.00    -0.203 F 
ATOM    121  F   UNL A   1      46.544  25.817  27.684  1.00  0.00    -0.200 F 
ATOM    122  C   UNL A   1      44.878  26.756  26.297  1.00  0.00     0.200 A 
ATOM    123  F   UNL A   1      43.178  27.715  24.973  1.00  0.00    -0.200 F 
ATOM    124  F   UNL A   1      44.850  25.644  25.550  1.00  0.00    -0.200 F 
ENDBRANCH  86 114
BRANCH 101 125
ATOM    125  C   UNL A   1      42.622  35.752  29.275  1.00  0.00     0.064 A 
ATOM    126  C   UNL A   1      42.012  36.178  28.085  1.00  0.00     0.173 A 
ATOM    127  C   UNL A   1      43.403  36.704  29.959  1.00  0.00     0.173 A 
ATOM    128  F   UNL A   1      41.272  35.329  27.356  1.00  0.00    -0.203 F 
ATOM    129  C   UNL A   1      42.161  37.485  27.618  1.00  0.00     0.198 A 
ATOM    130  C   UNL A   1      43.589  37.993  29.465  1.00  0.00     0.198 A 
ATOM    131  F   UNL A   1      43.982  36.412  31.134  1.00  0.00    -0.203 F 
ATOM    132  F   UNL A   1      41.528  37.867  26.501  1.00  0.00    -0.200 F 
ATOM    133  C   UNL A   1      42.962  38.386  28.300  1.00  0.00     0.200 A 
ATOM    134  F   UNL A   1      44.376  38.853  30.129  1.00  0.00    -0.200 F 
ATOM    135  F   UNL A   1      43.124  39.633  27.835  1.00  0.00    -0.200 F 
ENDBRANCH 101 125
ENDBRANCH  66  69
ENDBRANCH  56  59
ENDBRANCH  52  55
ENDBRANCH  49  52
ENDBRANCH  46  49
ENDBRANCH  43  46
ENDBRANCH   1  43
TORSDOF 18
ENDMDL
MODEL 7
REMARK VINA RESULT:     -12.2      3.898     10.011
REMARK SMILES Cc1ccc(Nc2c(C)cccc2Cl)c(CC(=O)NCCCCCCNC(=O)c2ccc(-c3c4nc(c(-c5c(F)c(F)c(F)c(F)c5F)c5ccc([nH]5)c(-c5c(F)c(F)c(F)c(F)c5F)c5nc(c(-c6c(F)c(F)c(F)c(F)c6F)c6ccc3[nH]6)C=C5)C=C4)cc2)c1
REMARK SMILES IDX 21 1 20 4 19 7 17 8 18 9 16 11 15 14 2 15 3 16 92 17 4 18
REMARK SMILES IDX 5 21 1 23 6 27 7 29 8 30 13 31 10 32 12 33 14 34 11 35 9 39
REMARK SMILES IDX 22 43 23 46 24 49 25 52 26 55 27 56 28 58 29 59 30 60 91 61
REMARK SMILES IDX 31 62 90 64 32 66 33 69 34 70 84 71 35 72 89 73 83 74 85 75
REMARK SMILES IDX 36 76 88 77 82 79 81 81 37 83 69 86 49 87 68 88 50 89 53 90
REMARK SMILES IDX 67 91 86 92 51 93 52 95 66 97 87 98 54 101 38 103 39 104
REMARK SMILES IDX 47 105 40 106 41 107 45 108 48 109 42 110 43 111 46 112
REMARK SMILES IDX 44 113 70 114 71 115 79 116 72 117 73 118 77 119 80 120
REMARK SMILES IDX 74 121 75 122 78 123 76 124 55 125 56 126 64 127 57 128
REMARK SMILES IDX 58 129 62 130 65 131 59 132 60 133 63 134 61 135
REMARK H PARENT 21 2 21 3 20 5 20 6 19 10 16 12 16 13 3 19 92 20 4 22 1 24
REMARK H PARENT 1 25 1 26 6 28 10 36 12 37 11 38 9 40 9 41 9 42 22 44 22 45
REMARK H PARENT 23 47 23 48 24 50 24 51 25 53 25 54 26 57 30 63 91 65 31 67
REMARK H PARENT 90 68 89 78 83 80 85 82 88 84 82 85 50 94 53 96 86 99 51 100
REMARK H PARENT 87 102
REMARK Flexibility Score: inf
ROOT
ATOM      1  C   UNL A   1      36.498  22.881  23.319  1.00  0.00    -0.036 C 
ATOM      2  H   UNL A   1      36.799  23.797  22.856  1.00  0.00     0.028 H 
ATOM      3  H   UNL A   1      36.725  22.013  22.738  1.00  0.00     0.028 H 
ENDROOT
BRANCH   1   4
ATOM      4  C   UNL A   1      34.974  22.906  23.470  1.00  0.00     0.017 C 
ATOM      5  H   UNL A   1      34.694  23.797  23.992  1.00  0.00     0.049 H 
ATOM      6  H   UNL A   1      34.544  22.880  22.490  1.00  0.00     0.049 H 
BRANCH   4   7
ATOM      7  N   UNL A   1      34.482  21.760  24.203  1.00  0.00    -0.356 N 
ATOM      8  C   UNL A   1      34.088  21.684  25.506  1.00  0.00     0.224 C 
ATOM      9  O   UNL A   1      33.823  20.575  25.976  1.00  0.00    -0.275 OA
ATOM     10  H   UNL A   1      34.424  20.921  23.692  1.00  0.00     0.163 HD
BRANCH   8  11
ATOM     11  C   UNL A   1      33.991  22.932  26.365  1.00  0.00     0.054 C 
ATOM     12  H   UNL A   1      34.225  22.666  27.375  1.00  0.00     0.042 H 
ATOM     13  H   UNL A   1      34.680  23.643  25.957  1.00  0.00     0.042 H 
BRANCH  11  14
ATOM     14  C   UNL A   1      32.626  23.586  26.349  1.00  0.00    -0.015 A 
ATOM     15  C   UNL A   1      30.242  23.365  26.874  1.00  0.00    -0.051 A 
ATOM     16  C   UNL A   1      30.019  24.612  26.296  1.00  0.00    -0.057 A 
ATOM     17  C   UNL A   1      31.548  22.872  26.916  1.00  0.00    -0.054 A 
ATOM     18  C   UNL A   1      31.085  25.349  25.773  1.00  0.00    -0.038 A 
ATOM     19  H   UNL A   1      29.061  24.994  26.253  1.00  0.00     0.063 H 
ATOM     20  H   UNL A   1      31.729  21.964  27.372  1.00  0.00     0.063 H 
ATOM     21  C   UNL A   1      32.401  24.860  25.785  1.00  0.00     0.042 A 
ATOM     22  H   UNL A   1      30.899  26.280  25.368  1.00  0.00     0.064 H 
BRANCH  15  23
ATOM     23  C   UNL A   1      29.098  22.580  27.439  1.00  0.00    -0.040 C 
ATOM     24  H   UNL A   1      28.752  23.046  28.336  1.00  0.00     0.028 H 
ATOM     25  H   UNL A   1      29.423  21.584  27.657  1.00  0.00     0.028 H 
ATOM     26  H   UNL A   1      28.300  22.545  26.725  1.00  0.00     0.028 H 
ENDBRANCH  15  23
BRANCH  21  27
ATOM     27  N   UNL A   1      33.473  25.649  25.314  1.00  0.00    -0.354 N 
ATOM     28  H   UNL A   1      34.372  25.336  25.567  1.00  0.00     0.167 HD
BRANCH  27  29
ATOM     29  C   UNL A   1      33.437  26.827  24.530  1.00  0.00     0.060 A 
ATOM     30  C   UNL A   1      33.403  26.782  23.120  1.00  0.00    -0.026 A 
ATOM     31  C   UNL A   1      33.510  28.086  25.165  1.00  0.00     0.064 A 
ATOM     32  C   UNL A   1      33.496  27.980  22.388  1.00  0.00    -0.057 A 
ATOM     33  C   UNL A   1      33.581  29.268  24.424  1.00  0.00    -0.041 A 
ATOM     34  Cl  UNL A   1      33.549  28.213  26.893  1.00  0.00    -0.082 Cl
ATOM     35  C   UNL A   1      33.587  29.213  23.034  1.00  0.00    -0.060 A 
ATOM     36  H   UNL A   1      33.499  27.946  21.356  1.00  0.00     0.063 H 
ATOM     37  H   UNL A   1      33.629  30.179  24.906  1.00  0.00     0.064 H 
ATOM     38  H   UNL A   1      33.657  30.082  22.482  1.00  0.00     0.062 H 
BRANCH  30  39
ATOM     39  C   UNL A   1      33.262  25.496  22.350  1.00  0.00    -0.038 C 
ATOM     40  H   UNL A   1      33.404  25.688  21.306  1.00  0.00     0.028 H 
ATOM     41  H   UNL A   1      32.284  25.092  22.508  1.00  0.00     0.028 H 
ATOM     42  H   UNL A   1      33.997  24.796  22.686  1.00  0.00     0.028 H 
ENDBRANCH  30  39
ENDBRANCH  27  29
ENDBRANCH  21  27
ENDBRANCH  11  14
ENDBRANCH   8  11
ENDBRANCH   4   7
ENDBRANCH   1   4
BRANCH   1  43
ATOM     43  C   UNL A   1      37.281  22.733  24.633  1.00  0.00    -0.052 C 
ATOM     44  H   UNL A   1      36.631  23.019  25.434  1.00  0.00     0.027 H 
ATOM     45  H   UNL A   1      38.145  23.355  24.519  1.00  0.00     0.027 H 
BRANCH  43  46
ATOM     46  C   UNL A   1      37.828  21.333  24.951  1.00  0.00    -0.052 C 
ATOM     47  H   UNL A   1      38.175  20.901  24.035  1.00  0.00     0.027 H 
ATOM     48  H   UNL A   1      37.019  20.803  25.406  1.00  0.00     0.027 H 
BRANCH  46  49
ATOM     49  C   UNL A   1      38.978  21.275  25.959  1.00  0.00    -0.036 C 
ATOM     50  H   UNL A   1      39.842  20.887  25.460  1.00  0.00     0.028 H 
ATOM     51  H   UNL A   1      38.647  20.654  26.765  1.00  0.00     0.028 H 
BRANCH  49  52
ATOM     52  C   UNL A   1      39.346  22.620  26.572  1.00  0.00     0.018 C 
ATOM     53  H   UNL A   1      39.077  22.604  27.608  1.00  0.00     0.049 H 
ATOM     54  H   UNL A   1      38.814  23.370  26.024  1.00  0.00     0.049 H 
BRANCH  52  55
ATOM     55  N   UNL A   1      40.761  22.941  26.469  1.00  0.00    -0.352 N 
ATOM     56  C   UNL A   1      41.412  24.164  26.524  1.00  0.00     0.251 C 
ATOM     57  H   UNL A   1      41.353  22.164  26.342  1.00  0.00     0.163 HD
ATOM     58  O   UNL A   1      42.611  24.221  26.331  1.00  0.00    -0.269 OA
BRANCH  56  59
ATOM     59  C   UNL A   1      40.674  25.376  26.969  1.00  0.00     0.039 A 
ATOM     60  C   UNL A   1      40.778  26.522  26.166  1.00  0.00    -0.049 A 
ATOM     61  C   UNL A   1      40.085  25.462  28.225  1.00  0.00    -0.049 A 
ATOM     62  C   UNL A   1      40.555  27.775  26.730  1.00  0.00    -0.053 A 
ATOM     63  H   UNL A   1      41.018  26.436  25.167  1.00  0.00     0.063 H 
ATOM     64  C   UNL A   1      39.957  26.702  28.816  1.00  0.00    -0.053 A 
ATOM     65  H   UNL A   1      39.748  24.614  28.706  1.00  0.00     0.063 H 
ATOM     66  C   UNL A   1      40.282  27.854  28.092  1.00  0.00    -0.014 A 
ATOM     67  H   UNL A   1      40.591  28.628  26.149  1.00  0.00     0.063 H 
ATOM     68  H   UNL A   1      39.622  26.781  29.789  1.00  0.00     0.063 H 
BRANCH  66  69
ATOM     69  C   UNL A   1      40.498  29.053  28.891  1.00  0.00     0.031 A 
ATOM     70  C   UNL A   1      39.470  30.107  28.975  1.00  0.00     0.074 A 
ATOM     71  C   UNL A   1      41.581  29.088  29.703  1.00  0.00     0.049 A 
ATOM     72  N   UNL A   1      39.656  31.241  29.563  1.00  0.00    -0.248 NA
ATOM     73  C   UNL A   1      38.160  30.002  28.339  1.00  0.00    -0.034 C 
ATOM     74  C   UNL A   1      41.807  29.952  30.860  1.00  0.00    -0.036 A 
ATOM     75  N   UNL A   1      42.824  28.461  29.497  1.00  0.00    -0.354 N 
ATOM     76  C   UNL A   1      38.440  31.871  29.647  1.00  0.00     0.074 A 
ATOM     77  C   UNL A   1      37.580  31.133  28.757  1.00  0.00    -0.034 C 
ATOM     78  H   UNL A   1      37.783  29.257  27.732  1.00  0.00     0.065 H 
ATOM     79  C   UNL A   1      43.128  30.054  31.072  1.00  0.00    -0.036 A 
ATOM     80  H   UNL A   1      41.071  30.410  31.421  1.00  0.00     0.065 H 
ATOM     81  C   UNL A   1      43.786  29.393  29.960  1.00  0.00     0.049 A 
ATOM     82  H   UNL A   1      42.990  27.568  29.113  1.00  0.00     0.167 HD
ATOM     83  C   UNL A   1      38.291  32.867  30.564  1.00  0.00     0.037 A 
ATOM     84  H   UNL A   1      36.635  31.439  28.478  1.00  0.00     0.065 H 
ATOM     85  H   UNL A   1      43.588  30.513  31.873  1.00  0.00     0.065 H 
ATOM     86  C   UNL A   1      44.639  30.003  29.084  1.00  0.00     0.037 A 
ATOM     87  C   UNL A   1      39.595  33.351  31.026  1.00  0.00     0.049 A 
ATOM     88  C   UNL A   1      44.504  31.513  29.007  1.00  0.00     0.074 A 
ATOM     89  C   UNL A   1      40.334  33.255  32.192  1.00  0.00    -0.036 A 
ATOM     90  N   UNL A   1      40.449  33.885  30.075  1.00  0.00    -0.354 N 
ATOM     91  N   UNL A   1      43.603  32.209  29.643  1.00  0.00    -0.248 NA
ATOM     92  C   UNL A   1      45.318  32.341  28.115  1.00  0.00    -0.034 C 
ATOM     93  C   UNL A   1      41.673  33.667  31.894  1.00  0.00    -0.036 A 
ATOM     94  H   UNL A   1      39.984  32.943  33.111  1.00  0.00     0.065 H 
ATOM     95  C   UNL A   1      41.729  34.041  30.562  1.00  0.00     0.049 A 
ATOM     96  H   UNL A   1      40.175  34.125  29.160  1.00  0.00     0.167 HD
ATOM     97  C   UNL A   1      43.657  33.509  29.225  1.00  0.00     0.074 A 
ATOM     98  C   UNL A   1      44.750  33.550  28.272  1.00  0.00    -0.034 C 
ATOM     99  H   UNL A   1      46.117  32.070  27.521  1.00  0.00     0.065 H 
ATOM    100  H   UNL A   1      42.462  33.682  32.559  1.00  0.00     0.065 H 
ATOM    101  C   UNL A   1      42.775  34.460  29.645  1.00  0.00     0.037 A 
ATOM    102  H   UNL A   1      45.055  34.401  27.776  1.00  0.00     0.065 H 
BRANCH  83 103
ATOM    103  C   UNL A   1      36.975  33.340  31.146  1.00  0.00     0.064 A 
ATOM    104  C   UNL A   1      36.673  33.091  32.504  1.00  0.00     0.173 A 
ATOM    105  C   UNL A   1      35.919  33.918  30.408  1.00  0.00     0.173 A 
ATOM    106  F   UNL A   1      37.572  32.532  33.325  1.00  0.00    -0.203 F 
ATOM    107  C   UNL A   1      35.423  33.384  33.062  1.00  0.00     0.198 A 
ATOM    108  C   UNL A   1      34.690  34.259  30.981  1.00  0.00     0.198 A 
ATOM    109  F   UNL A   1      35.992  34.122  29.090  1.00  0.00    -0.203 F 
ATOM    110  F   UNL A   1      35.175  33.065  34.341  1.00  0.00    -0.200 F 
ATOM    111  C   UNL A   1      34.435  33.977  32.304  1.00  0.00     0.200 A 
ATOM    112  F   UNL A   1      33.744  34.832  30.222  1.00  0.00    -0.200 F 
ATOM    113  F   UNL A   1      33.238  34.256  32.836  1.00  0.00    -0.200 F 
ENDBRANCH  83 103
BRANCH  86 114
ATOM    114  C   UNL A   1      45.011  29.126  27.942  1.00  0.00     0.064 A 
ATOM    115  C   UNL A   1      46.000  28.142  28.145  1.00  0.00     0.173 A 
ATOM    116  C   UNL A   1      44.183  28.990  26.823  1.00  0.00     0.173 A 
ATOM    117  F   UNL A   1      46.821  28.226  29.206  1.00  0.00    -0.203 F 
ATOM    118  C   UNL A   1      46.073  27.012  27.336  1.00  0.00     0.198 A 
ATOM    119  C   UNL A   1      44.273  27.866  26.001  1.00  0.00     0.198 A 
ATOM    120  F   UNL A   1      43.208  29.879  26.587  1.00  0.00    -0.203 F 
ATOM    121  F   UNL A   1      46.948  26.038  27.625  1.00  0.00    -0.200 F 
ATOM    122  C   UNL A   1      45.190  26.863  26.279  1.00  0.00     0.200 A 
ATOM    123  F   UNL A   1      43.401  27.708  24.997  1.00  0.00    -0.200 F 
ATOM    124  F   UNL A   1      45.194  25.736  25.554  1.00  0.00    -0.200 F 
ENDBRANCH  86 114
BRANCH 101 125
ATOM    125  C   UNL A   1      42.842  35.880  29.179  1.00  0.00     0.064 A 
ATOM    126  C   UNL A   1      43.421  36.889  29.963  1.00  0.00     0.173 A 
ATOM    127  C   UNL A   1      42.225  36.290  27.980  1.00  0.00     0.173 A 
ATOM    128  F   UNL A   1      44.007  36.591  31.133  1.00  0.00    -0.203 F 
ATOM    129  C   UNL A   1      43.401  38.226  29.563  1.00  0.00     0.198 A 
ATOM    130  C   UNL A   1      42.163  37.630  27.607  1.00  0.00     0.198 A 
ATOM    131  F   UNL A   1      41.691  35.396  27.134  1.00  0.00    -0.203 F 
ATOM    132  F   UNL A   1      44.003  39.155  30.317  1.00  0.00    -0.200 F 
ATOM    133  C   UNL A   1      42.758  38.597  28.394  1.00  0.00     0.200 A 
ATOM    134  F   UNL A   1      41.529  37.978  26.478  1.00  0.00    -0.200 F 
ATOM    135  F   UNL A   1      42.717  39.885  28.024  1.00  0.00    -0.200 F 
ENDBRANCH 101 125
ENDBRANCH  66  69
ENDBRANCH  56  59
ENDBRANCH  52  55
ENDBRANCH  49  52
ENDBRANCH  46  49
ENDBRANCH  43  46
ENDBRANCH   1  43
TORSDOF 18
ENDMDL
MODEL 8
REMARK VINA RESULT:     -12.1      3.805      9.714
REMARK SMILES Cc1ccc(Nc2c(C)cccc2Cl)c(CC(=O)NCCCCCCNC(=O)c2ccc(-c3c4nc(c(-c5c(F)c(F)c(F)c(F)c5F)c5ccc([nH]5)c(-c5c(F)c(F)c(F)c(F)c5F)c5nc(c(-c6c(F)c(F)c(F)c(F)c6F)c6ccc3[nH]6)C=C5)C=C4)cc2)c1
REMARK SMILES IDX 21 1 20 4 19 7 17 8 18 9 16 11 15 14 2 15 3 16 92 17 4 18
REMARK SMILES IDX 5 21 1 23 6 27 7 29 8 30 13 31 10 32 12 33 14 34 11 35 9 39
REMARK SMILES IDX 22 43 23 46 24 49 25 52 26 55 27 56 28 58 29 59 30 60 91 61
REMARK SMILES IDX 31 62 90 64 32 66 33 69 34 70 84 71 35 72 89 73 83 74 85 75
REMARK SMILES IDX 36 76 88 77 82 79 81 81 37 83 69 86 49 87 68 88 50 89 53 90
REMARK SMILES IDX 67 91 86 92 51 93 52 95 66 97 87 98 54 101 38 103 39 104
REMARK SMILES IDX 47 105 40 106 41 107 45 108 48 109 42 110 43 111 46 112
REMARK SMILES IDX 44 113 70 114 71 115 79 116 72 117 73 118 77 119 80 120
REMARK SMILES IDX 74 121 75 122 78 123 76 124 55 125 56 126 64 127 57 128
REMARK SMILES IDX 58 129 62 130 65 131 59 132 60 133 63 134 61 135
REMARK H PARENT 21 2 21 3 20 5 20 6 19 10 16 12 16 13 3 19 92 20 4 22 1 24
REMARK H PARENT 1 25 1 26 6 28 10 36 12 37 11 38 9 40 9 41 9 42 22 44 22 45
REMARK H PARENT 23 47 23 48 24 50 24 51 25 53 25 54 26 57 30 63 91 65 31 67
REMARK H PARENT 90 68 89 78 83 80 85 82 88 84 82 85 50 94 53 96 86 99 51 100
REMARK H PARENT 87 102
REMARK Flexibility Score: inf
ROOT
ATOM      1  C   UNL A   1      34.499  24.507  25.589  1.00  0.00    -0.036 C 
ATOM      2  H   UNL A   1      33.669  23.834  25.533  1.00  0.00     0.028 H 
ATOM      3  H   UNL A   1      34.766  24.773  26.590  1.00  0.00     0.028 H 
ENDROOT
BRANCH   1   4
ATOM      4  C   UNL A   1      34.100  25.811  24.894  1.00  0.00     0.017 C 
ATOM      5  H   UNL A   1      34.822  26.032  24.136  1.00  0.00     0.049 H 
ATOM      6  H   UNL A   1      33.126  25.677  24.473  1.00  0.00     0.049 H 
BRANCH   4   7
ATOM      7  N   UNL A   1      34.037  26.923  25.818  1.00  0.00    -0.356 N 
ATOM      8  C   UNL A   1      32.959  27.411  26.493  1.00  0.00     0.224 C 
ATOM      9  O   UNL A   1      33.093  28.455  27.137  1.00  0.00    -0.275 OA
ATOM     10  H   UNL A   1      34.888  27.390  25.980  1.00  0.00     0.163 HD
BRANCH   8  11
ATOM     11  C   UNL A   1      31.620  26.697  26.446  1.00  0.00     0.054 C 
ATOM     12  H   UNL A   1      31.801  25.644  26.408  1.00  0.00     0.042 H 
ATOM     13  H   UNL A   1      31.081  26.992  27.323  1.00  0.00     0.042 H 
BRANCH  11  14
ATOM     14  C   UNL A   1      30.763  27.076  25.257  1.00  0.00    -0.015 A 
ATOM     15  C   UNL A   1      30.023  28.862  23.750  1.00  0.00    -0.051 A 
ATOM     16  C   UNL A   1      29.156  27.960  23.138  1.00  0.00    -0.057 A 
ATOM     17  C   UNL A   1      30.836  28.407  24.790  1.00  0.00    -0.054 A 
ATOM     18  C   UNL A   1      29.108  26.629  23.561  1.00  0.00    -0.038 A 
ATOM     19  H   UNL A   1      28.545  28.277  22.368  1.00  0.00     0.063 H 
ATOM     20  H   UNL A   1      31.507  29.057  25.227  1.00  0.00     0.063 H 
ATOM     21  C   UNL A   1      29.900  26.158  24.620  1.00  0.00     0.042 A 
ATOM     22  H   UNL A   1      28.472  25.973  23.080  1.00  0.00     0.064 H 
BRANCH  15  23
ATOM     23  C   UNL A   1      30.076  30.287  23.291  1.00  0.00    -0.040 C 
ATOM     24  H   UNL A   1      30.830  30.393  22.539  1.00  0.00     0.028 H 
ATOM     25  H   UNL A   1      30.309  30.920  24.121  1.00  0.00     0.028 H 
ATOM     26  H   UNL A   1      29.126  30.568  22.884  1.00  0.00     0.028 H 
ENDBRANCH  15  23
BRANCH  21  27
ATOM     27  N   UNL A   1      29.887  24.795  24.986  1.00  0.00    -0.354 N 
ATOM     28  H   UNL A   1      29.110  24.506  25.519  1.00  0.00     0.167 HD
BRANCH  27  29
ATOM     29  C   UNL A   1      30.834  23.783  24.696  1.00  0.00     0.060 A 
ATOM     30  C   UNL A   1      31.548  23.759  23.478  1.00  0.00    -0.026 A 
ATOM     31  C   UNL A   1      31.024  22.726  25.613  1.00  0.00     0.064 A 
ATOM     32  C   UNL A   1      32.381  22.663  23.188  1.00  0.00    -0.057 A 
ATOM     33  C   UNL A   1      31.872  21.656  25.317  1.00  0.00    -0.041 A 
ATOM     34  Cl  UNL A   1      30.184  22.698  27.128  1.00  0.00    -0.082 Cl
ATOM     35  C   UNL A   1      32.541  21.619  24.099  1.00  0.00    -0.060 A 
ATOM     36  H   UNL A   1      32.883  22.632  22.286  1.00  0.00     0.063 H 
ATOM     37  H   UNL A   1      32.001  20.894  26.002  1.00  0.00     0.064 H 
ATOM     38  H   UNL A   1      33.155  20.822  23.869  1.00  0.00     0.062 H 
BRANCH  30  39
ATOM     39  C   UNL A   1      31.464  24.868  22.464  1.00  0.00    -0.038 C 
ATOM     40  H   UNL A   1      32.364  25.446  22.493  1.00  0.00     0.028 H 
ATOM     41  H   UNL A   1      30.629  25.497  22.692  1.00  0.00     0.028 H 
ATOM     42  H   UNL A   1      31.341  24.450  21.487  1.00  0.00     0.028 H 
ENDBRANCH  30  39
ENDBRANCH  27  29
ENDBRANCH  21  27
ENDBRANCH  11  14
ENDBRANCH   8  11
ENDBRANCH   4   7
ENDBRANCH   1   4
BRANCH   1  43
ATOM     43  C   UNL A   1      35.727  23.799  24.995  1.00  0.00    -0.052 C 
ATOM     44  H   UNL A   1      35.917  24.229  24.034  1.00  0.00     0.027 H 
ATOM     45  H   UNL A   1      35.471  22.759  24.973  1.00  0.00     0.027 H 
BRANCH  43  46
ATOM     46  C   UNL A   1      37.027  23.879  25.809  1.00  0.00    -0.052 C 
ATOM     47  H   UNL A   1      36.799  23.604  26.819  1.00  0.00     0.027 H 
ATOM     48  H   UNL A   1      37.376  24.884  25.698  1.00  0.00     0.027 H 
BRANCH  46  49
ATOM     49  C   UNL A   1      38.175  22.988  25.331  1.00  0.00    -0.036 C 
ATOM     50  H   UNL A   1      38.849  23.590  24.757  1.00  0.00     0.028 H 
ATOM     51  H   UNL A   1      37.732  22.199  24.760  1.00  0.00     0.028 H 
BRANCH  49  52
ATOM     52  C   UNL A   1      38.964  22.323  26.450  1.00  0.00     0.018 C 
ATOM     53  H   UNL A   1      38.803  21.266  26.395  1.00  0.00     0.049 H 
ATOM     54  H   UNL A   1      38.615  22.741  27.371  1.00  0.00     0.049 H 
BRANCH  52  55
ATOM     55  N   UNL A   1      40.396  22.574  26.385  1.00  0.00    -0.352 N 
ATOM     56  C   UNL A   1      41.103  23.765  26.436  1.00  0.00     0.251 C 
ATOM     57  H   UNL A   1      40.953  21.767  26.290  1.00  0.00     0.163 HD
ATOM     58  O   UNL A   1      42.308  23.762  26.280  1.00  0.00    -0.269 OA
BRANCH  56  59
ATOM     59  C   UNL A   1      40.412  25.020  26.836  1.00  0.00     0.039 A 
ATOM     60  C   UNL A   1      40.669  26.166  26.070  1.00  0.00    -0.049 A 
ATOM     61  C   UNL A   1      39.715  25.130  28.034  1.00  0.00    -0.049 A 
ATOM     62  C   UNL A   1      40.480  27.425  26.636  1.00  0.00    -0.053 A 
ATOM     63  H   UNL A   1      40.995  26.078  25.095  1.00  0.00     0.063 H 
ATOM     64  C   UNL A   1      39.618  26.368  28.635  1.00  0.00    -0.053 A 
ATOM     65  H   UNL A   1      39.277  24.301  28.464  1.00  0.00     0.063 H 
ATOM     66  C   UNL A   1      40.087  27.503  27.968  1.00  0.00    -0.014 A 
ATOM     67  H   UNL A   1      40.629  28.280  26.078  1.00  0.00     0.063 H 
ATOM     68  H   UNL A   1      39.199  26.456  29.575  1.00  0.00     0.063 H 
BRANCH  66  69
ATOM     69  C   UNL A   1      40.310  28.674  28.808  1.00  0.00     0.031 A 
ATOM     70  C   UNL A   1      39.309  29.754  28.888  1.00  0.00     0.074 A 
ATOM     71  C   UNL A   1      41.365  28.655  29.656  1.00  0.00     0.049 A 
ATOM     72  N   UNL A   1      39.505  30.865  29.514  1.00  0.00    -0.248 NA
ATOM     73  C   UNL A   1      38.018  29.703  28.207  1.00  0.00    -0.034 C 
ATOM     74  C   UNL A   1      41.576  29.479  30.843  1.00  0.00    -0.036 A 
ATOM     75  N   UNL A   1      42.597  27.998  29.472  1.00  0.00    -0.354 N 
ATOM     76  C   UNL A   1      38.306  31.527  29.577  1.00  0.00     0.074 A 
ATOM     77  C   UNL A   1      37.456  30.838  28.638  1.00  0.00    -0.034 C 
ATOM     78  H   UNL A   1      37.641  28.987  27.567  1.00  0.00     0.065 H 
ATOM     79  C   UNL A   1      42.891  29.538  31.101  1.00  0.00    -0.036 A 
ATOM     80  H   UNL A   1      40.835  29.943  31.393  1.00  0.00     0.065 H 
ATOM     81  C   UNL A   1      43.568  28.889  29.993  1.00  0.00     0.049 A 
ATOM     82  H   UNL A   1      42.750  27.113  29.069  1.00  0.00     0.167 HD
ATOM     83  C   UNL A   1      38.154  32.501  30.517  1.00  0.00     0.037 A 
ATOM     84  H   UNL A   1      36.529  31.179  28.337  1.00  0.00     0.065 H 
ATOM     85  H   UNL A   1      43.336  29.962  31.930  1.00  0.00     0.065 H 
ATOM     86  C   UNL A   1      44.466  29.500  29.163  1.00  0.00     0.037 A 
ATOM     87  C   UNL A   1      39.454  32.934  31.034  1.00  0.00     0.049 A 
ATOM     88  C   UNL A   1      44.376  31.014  29.125  1.00  0.00     0.074 A 
ATOM     89  C   UNL A   1      40.151  32.786  32.220  1.00  0.00    -0.036 A 
ATOM     90  N   UNL A   1      40.354  33.470  30.128  1.00  0.00    -0.354 N 
ATOM     91  N   UNL A   1      43.473  31.717  29.751  1.00  0.00    -0.248 NA
ATOM     92  C   UNL A   1      45.241  31.843  28.284  1.00  0.00    -0.034 C 
ATOM     93  C   UNL A   1      41.509  33.167  31.979  1.00  0.00    -0.036 A 
ATOM     94  H   UNL A   1      39.762  32.458  33.118  1.00  0.00     0.065 H 
ATOM     95  C   UNL A   1      41.621  33.576  30.660  1.00  0.00     0.049 A 
ATOM     96  H   UNL A   1      40.117  33.743  29.212  1.00  0.00     0.167 HD
ATOM     97  C   UNL A   1      43.577  33.027  29.372  1.00  0.00     0.074 A 
ATOM     98  C   UNL A   1      44.702  33.062  28.457  1.00  0.00    -0.034 C 
ATOM     99  H   UNL A   1      46.052  31.566  27.709  1.00  0.00     0.065 H 
ATOM    100  H   UNL A   1      42.276  33.141  32.669  1.00  0.00     0.065 H 
ATOM    101  C   UNL A   1      42.708  33.990  29.790  1.00  0.00     0.037 A 
ATOM    102  H   UNL A   1      45.046  33.918  27.996  1.00  0.00     0.065 H 
BRANCH  83 103
ATOM    103  C   UNL A   1      36.832  32.995  31.068  1.00  0.00     0.064 A 
ATOM    104  C   UNL A   1      36.017  33.848  30.290  1.00  0.00     0.173 A 
ATOM    105  C   UNL A   1      36.368  32.783  32.384  1.00  0.00     0.173 A 
ATOM    106  F   UNL A   1      36.339  34.152  29.025  1.00  0.00    -0.203 F 
ATOM    107  C   UNL A   1      34.854  34.443  30.793  1.00  0.00     0.198 A 
ATOM    108  C   UNL A   1      35.178  33.336  32.867  1.00  0.00     0.198 A 
ATOM    109  F   UNL A   1      37.066  32.094  33.290  1.00  0.00    -0.203 F 
ATOM    110  F   UNL A   1      34.158  35.294  30.026  1.00  0.00    -0.200 F 
ATOM    111  C   UNL A   1      34.428  34.178  32.078  1.00  0.00     0.200 A 
ATOM    112  F   UNL A   1      34.787  33.067  34.122  1.00  0.00    -0.200 F 
ATOM    113  F   UNL A   1      33.317  34.748  32.562  1.00  0.00    -0.200 F 
ENDBRANCH  83 103
BRANCH  86 114
ATOM    114  C   UNL A   1      44.852  28.644  28.010  1.00  0.00     0.064 A 
ATOM    115  C   UNL A   1      45.741  27.574  28.235  1.00  0.00     0.173 A 
ATOM    116  C   UNL A   1      44.102  28.625  26.828  1.00  0.00     0.173 A 
ATOM    117  F   UNL A   1      46.484  27.544  29.353  1.00  0.00    -0.203 F 
ATOM    118  C   UNL A   1      45.784  26.477  27.378  1.00  0.00     0.198 A 
ATOM    119  C   UNL A   1      44.164  27.534  25.962  1.00  0.00     0.198 A 
ATOM    120  F   UNL A   1      43.221  29.602  26.567  1.00  0.00    -0.203 F 
ATOM    121  F   UNL A   1      46.554  25.422  27.681  1.00  0.00    -0.200 F 
ATOM    122  C   UNL A   1      44.975  26.447  26.255  1.00  0.00     0.200 A 
ATOM    123  F   UNL A   1      43.360  27.492  24.891  1.00  0.00    -0.200 F 
ATOM    124  F   UNL A   1      44.943  25.355  25.478  1.00  0.00    -0.200 F 
ENDBRANCH  86 114
BRANCH 101 125
ATOM    125  C   UNL A   1      42.829  35.421  29.368  1.00  0.00     0.064 A 
ATOM    126  C   UNL A   1      43.442  36.383  30.184  1.00  0.00     0.173 A 
ATOM    127  C   UNL A   1      42.234  35.889  28.179  1.00  0.00     0.173 A 
ATOM    128  F   UNL A   1      44.010  36.029  31.347  1.00  0.00    -0.203 F 
ATOM    129  C   UNL A   1      43.472  37.731  29.824  1.00  0.00     0.198 A 
ATOM    130  C   UNL A   1      42.224  37.241  27.846  1.00  0.00     0.198 A 
ATOM    131  F   UNL A   1      41.672  35.041  27.304  1.00  0.00    -0.203 F 
ATOM    132  F   UNL A   1      44.104  38.614  30.608  1.00  0.00    -0.200 F 
ATOM    133  C   UNL A   1      42.850  38.161  28.665  1.00  0.00     0.200 A 
ATOM    134  F   UNL A   1      41.608  37.646  26.726  1.00  0.00    -0.200 F 
ATOM    135  F   UNL A   1      42.858  39.460  28.334  1.00  0.00    -0.200 F 
ENDBRANCH 101 125
ENDBRANCH  66  69
ENDBRANCH  56  59
ENDBRANCH  52  55
ENDBRANCH  49  52
ENDBRANCH  46  49
ENDBRANCH  43  46
ENDBRANCH   1  43
TORSDOF 18
ENDMDL
MODEL 9
REMARK VINA RESULT:     -12.0      1.391      2.338
REMARK SMILES Cc1ccc(Nc2c(C)cccc2Cl)c(CC(=O)NCCCCCCNC(=O)c2ccc(-c3c4nc(c(-c5c(F)c(F)c(F)c(F)c5F)c5ccc([nH]5)c(-c5c(F)c(F)c(F)c(F)c5F)c5nc(c(-c6c(F)c(F)c(F)c(F)c6F)c6ccc3[nH]6)C=C5)C=C4)cc2)c1
REMARK SMILES IDX 21 1 20 4 19 7 17 8 18 9 16 11 15 14 2 15 3 16 92 17 4 18
REMARK SMILES IDX 5 21 1 23 6 27 7 29 8 30 13 31 10 32 12 33 14 34 11 35 9 39
REMARK SMILES IDX 22 43 23 46 24 49 25 52 26 55 27 56 28 58 29 59 30 60 91 61
REMARK SMILES IDX 31 62 90 64 32 66 33 69 34 70 84 71 35 72 89 73 83 74 85 75
REMARK SMILES IDX 36 76 88 77 82 79 81 81 37 83 69 86 49 87 68 88 50 89 53 90
REMARK SMILES IDX 67 91 86 92 51 93 52 95 66 97 87 98 54 101 38 103 39 104
REMARK SMILES IDX 47 105 40 106 41 107 45 108 48 109 42 110 43 111 46 112
REMARK SMILES IDX 44 113 70 114 71 115 79 116 72 117 73 118 77 119 80 120
REMARK SMILES IDX 74 121 75 122 78 123 76 124 55 125 56 126 64 127 57 128
REMARK SMILES IDX 58 129 62 130 65 131 59 132 60 133 63 134 61 135
REMARK H PARENT 21 2 21 3 20 5 20 6 19 10 16 12 16 13 3 19 92 20 4 22 1 24
REMARK H PARENT 1 25 1 26 6 28 10 36 12 37 11 38 9 40 9 41 9 42 22 44 22 45
REMARK H PARENT 23 47 23 48 24 50 24 51 25 53 25 54 26 57 30 63 91 65 31 67
REMARK H PARENT 90 68 89 78 83 80 85 82 88 84 82 85 50 94 53 96 86 99 51 100
REMARK H PARENT 87 102
REMARK Flexibility Score: inf
ROOT
ATOM      1  C   UNL A   1      31.258  27.823  27.255  1.00  0.00    -0.036 C 
ATOM      2  H   UNL A   1      31.382  27.086  28.020  1.00  0.00     0.028 H 
ATOM      3  H   UNL A   1      30.382  28.424  27.379  1.00  0.00     0.028 H 
ENDROOT
BRANCH   1   4
ATOM      4  C   UNL A   1      31.090  27.096  25.919  1.00  0.00     0.017 C 
ATOM      5  H   UNL A   1      31.946  26.477  25.753  1.00  0.00     0.049 H 
ATOM      6  H   UNL A   1      30.194  26.513  25.970  1.00  0.00     0.049 H 
BRANCH   4   7
ATOM      7  N   UNL A   1      30.958  28.018  24.811  1.00  0.00    -0.356 N 
ATOM      8  C   UNL A   1      31.882  28.360  23.870  1.00  0.00     0.224 C 
ATOM      9  O   UNL A   1      31.609  29.269  23.082  1.00  0.00    -0.275 OA
ATOM     10  H   UNL A   1      30.082  28.458  24.726  1.00  0.00     0.163 HD
BRANCH   8  11
ATOM     11  C   UNL A   1      33.222  27.650  23.798  1.00  0.00     0.054 C 
ATOM     12  H   UNL A   1      33.927  28.307  23.334  1.00  0.00     0.042 H 
ATOM     13  H   UNL A   1      33.493  27.399  24.804  1.00  0.00     0.042 H 
BRANCH  11  14
ATOM     14  C   UNL A   1      33.191  26.354  23.016  1.00  0.00    -0.015 A 
ATOM     15  C   UNL A   1      32.812  25.279  20.846  1.00  0.00    -0.051 A 
ATOM     16  C   UNL A   1      32.991  24.038  21.451  1.00  0.00    -0.057 A 
ATOM     17  C   UNL A   1      32.936  26.429  21.629  1.00  0.00    -0.054 A 
ATOM     18  C   UNL A   1      33.290  23.954  22.814  1.00  0.00    -0.038 A 
ATOM     19  H   UNL A   1      32.903  23.176  20.890  1.00  0.00     0.063 H 
ATOM     20  H   UNL A   1      32.839  27.355  21.184  1.00  0.00     0.063 H 
ATOM     21  C   UNL A   1      33.395  25.097  23.623  1.00  0.00     0.042 A 
ATOM     22  H   UNL A   1      33.439  23.024  23.237  1.00  0.00     0.064 H 
BRANCH  15  23
ATOM     23  C   UNL A   1      32.497  25.367  19.384  1.00  0.00    -0.040 C 
ATOM     24  H   UNL A   1      32.703  24.427  18.917  1.00  0.00     0.028 H 
ATOM     25  H   UNL A   1      33.101  26.128  18.934  1.00  0.00     0.028 H 
ATOM     26  H   UNL A   1      31.463  25.611  19.255  1.00  0.00     0.028 H 
ENDBRANCH  15  23
BRANCH  21  27
ATOM     27  N   UNL A   1      33.766  24.993  24.981  1.00  0.00    -0.354 N 
ATOM     28  H   UNL A   1      33.965  25.846  25.432  1.00  0.00     0.167 HD
BRANCH  27  29
ATOM     29  C   UNL A   1      33.892  23.835  25.786  1.00  0.00     0.060 A 
ATOM     30  C   UNL A   1      32.816  23.341  26.555  1.00  0.00    -0.026 A 
ATOM     31  C   UNL A   1      35.146  23.192  25.885  1.00  0.00     0.064 A 
ATOM     32  C   UNL A   1      33.032  22.265  27.433  1.00  0.00    -0.057 A 
ATOM     33  C   UNL A   1      35.337  22.111  26.748  1.00  0.00    -0.041 A 
ATOM     34  Cl  UNL A   1      36.506  23.744  24.965  1.00  0.00    -0.082 Cl
ATOM     35  C   UNL A   1      34.283  21.655  27.531  1.00  0.00    -0.060 A 
ATOM     36  H   UNL A   1      32.252  21.920  28.016  1.00  0.00     0.063 H 
ATOM     37  H   UNL A   1      36.260  21.651  26.803  1.00  0.00     0.064 H 
ATOM     38  H   UNL A   1      34.424  20.867  28.182  1.00  0.00     0.062 H 
BRANCH  30  39
ATOM     39  C   UNL A   1      31.427  23.916  26.472  1.00  0.00    -0.038 C 
ATOM     40  H   UNL A   1      31.466  24.878  26.006  1.00  0.00     0.028 H 
ATOM     41  H   UNL A   1      31.023  24.014  27.459  1.00  0.00     0.028 H 
ATOM     42  H   UNL A   1      30.805  23.265  25.895  1.00  0.00     0.028 H 
ENDBRANCH  30  39
ENDBRANCH  27  29
ENDBRANCH  21  27
ENDBRANCH  11  14
ENDBRANCH   8  11
ENDBRANCH   4   7
ENDBRANCH   1   4
BRANCH   1  43
ATOM     43  C   UNL A   1      32.452  28.788  27.327  1.00  0.00    -0.052 C 
ATOM     44  H   UNL A   1      33.176  28.465  26.608  1.00  0.00     0.027 H 
ATOM     45  H   UNL A   1      32.787  28.748  28.343  1.00  0.00     0.027 H 
BRANCH  43  46
ATOM     46  C   UNL A   1      32.153  30.271  27.057  1.00  0.00    -0.052 C 
ATOM     47  H   UNL A   1      31.386  30.580  27.737  1.00  0.00     0.027 H 
ATOM     48  H   UNL A   1      31.872  30.326  26.026  1.00  0.00     0.027 H 
BRANCH  46  49
ATOM     49  C   UNL A   1      33.332  31.233  27.216  1.00  0.00    -0.036 C 
ATOM     50  H   UNL A   1      33.041  32.012  27.890  1.00  0.00     0.028 H 
ATOM     51  H   UNL A   1      33.566  31.595  26.237  1.00  0.00     0.028 H 
BRANCH  49  52
ATOM     52  C   UNL A   1      34.602  30.588  27.754  1.00  0.00     0.018 C 
ATOM     53  H   UNL A   1      35.225  30.323  26.924  1.00  0.00     0.049 H 
ATOM     54  H   UNL A   1      34.302  29.735  28.327  1.00  0.00     0.049 H 
BRANCH  52  55
ATOM     55  N   UNL A   1      35.365  31.452  28.644  1.00  0.00    -0.352 N 
ATOM     56  C   UNL A   1      36.535  31.210  29.345  1.00  0.00     0.251 C 
ATOM     57  H   UNL A   1      34.989  32.354  28.765  1.00  0.00     0.163 HD
ATOM     58  O   UNL A   1      36.969  32.051  30.108  1.00  0.00    -0.269 OA
BRANCH  56  59
ATOM     59  C   UNL A   1      37.339  29.994  29.050  1.00  0.00     0.039 A 
ATOM     60  C   UNL A   1      37.395  29.005  30.043  1.00  0.00    -0.049 A 
ATOM     61  C   UNL A   1      38.179  29.914  27.945  1.00  0.00    -0.049 A 
ATOM     62  C   UNL A   1      38.468  28.117  30.065  1.00  0.00    -0.053 A 
ATOM     63  H   UNL A   1      36.649  28.936  30.751  1.00  0.00     0.063 H 
ATOM     64  C   UNL A   1      39.293  29.104  28.014  1.00  0.00    -0.053 A 
ATOM     65  H   UNL A   1      37.971  30.451  27.088  1.00  0.00     0.063 H 
ATOM     66  C   UNL A   1      39.480  28.272  29.123  1.00  0.00    -0.014 A 
ATOM     67  H   UNL A   1      38.510  27.360  30.764  1.00  0.00     0.063 H 
ATOM     68  H   UNL A   1      39.987  29.110  27.250  1.00  0.00     0.063 H 
BRANCH  66  69
ATOM     69  C   UNL A   1      40.835  27.767  29.302  1.00  0.00     0.031 A 
ATOM     70  C   UNL A   1      41.207  26.411  28.856  1.00  0.00     0.074 A 
ATOM     71  C   UNL A   1      41.787  28.637  29.713  1.00  0.00     0.049 A 
ATOM     72  N   UNL A   1      42.351  25.868  29.100  1.00  0.00    -0.248 NA
ATOM     73  C   UNL A   1      40.291  25.519  28.151  1.00  0.00    -0.034 C 
ATOM     74  C   UNL A   1      43.237  28.504  29.589  1.00  0.00    -0.036 A 
ATOM     75  N   UNL A   1      41.617  29.759  30.546  1.00  0.00    -0.354 N 
ATOM     76  C   UNL A   1      42.436  24.719  28.355  1.00  0.00     0.074 A 
ATOM     77  C   UNL A   1      41.091  24.477  27.899  1.00  0.00    -0.034 C 
ATOM     78  H   UNL A   1      39.296  25.656  27.912  1.00  0.00     0.065 H 
ATOM     79  C   UNL A   1      43.823  29.266  30.525  1.00  0.00    -0.036 A 
ATOM     80  H   UNL A   1      43.730  27.919  28.896  1.00  0.00     0.065 H 
ATOM     81  C   UNL A   1      42.765  29.777  31.377  1.00  0.00     0.049 A 
ATOM     82  H   UNL A   1      40.863  30.394  30.550  1.00  0.00     0.167 HD
ATOM     83  C   UNL A   1      43.669  24.192  28.118  1.00  0.00     0.037 A 
ATOM     84  H   UNL A   1      40.783  23.607  27.435  1.00  0.00     0.065 H 
ATOM     85  H   UNL A   1      44.833  29.454  30.620  1.00  0.00     0.065 H 
ATOM     86  C   UNL A   1      42.655  29.531  32.717  1.00  0.00     0.037 A 
ATOM     87  C   UNL A   1      44.659  24.741  29.048  1.00  0.00     0.049 A 
ATOM     88  C   UNL A   1      43.402  28.304  33.205  1.00  0.00     0.074 A 
ATOM     89  C   UNL A   1      45.721  25.624  28.962  1.00  0.00    -0.036 A 
ATOM     90  N   UNL A   1      44.449  24.529  30.401  1.00  0.00    -0.354 N 
ATOM     91  N   UNL A   1      44.040  27.470  32.432  1.00  0.00    -0.248 NA
ATOM     92  C   UNL A   1      43.391  27.868  34.603  1.00  0.00    -0.034 C 
ATOM     93  C   UNL A   1      46.086  25.999  30.294  1.00  0.00    -0.036 A 
ATOM     94  H   UNL A   1      46.169  25.954  28.093  1.00  0.00     0.065 H 
ATOM     95  C   UNL A   1      45.269  25.317  31.180  1.00  0.00     0.049 A 
ATOM     96  H   UNL A   1      43.792  23.891  30.763  1.00  0.00     0.167 HD
ATOM     97  C   UNL A   1      44.455  26.396  33.170  1.00  0.00     0.074 A 
ATOM     98  C   UNL A   1      44.033  26.690  34.527  1.00  0.00    -0.034 C 
ATOM     99  H   UNL A   1      42.994  28.341  35.431  1.00  0.00     0.065 H 
ATOM    100  H   UNL A   1      46.831  26.665  30.552  1.00  0.00     0.065 H 
ATOM    101  C   UNL A   1      45.073  25.313  32.619  1.00  0.00     0.037 A 
ATOM    102  H   UNL A   1      44.205  26.071  35.333  1.00  0.00     0.065 H 
BRANCH  83 103
ATOM    103  C   UNL A   1      44.026  23.265  26.975  1.00  0.00     0.064 A 
ATOM    104  C   UNL A   1      44.870  23.718  25.935  1.00  0.00     0.173 A 
ATOM    105  C   UNL A   1      43.481  21.980  26.767  1.00  0.00     0.173 A 
ATOM    106  F   UNL A   1      45.449  24.925  25.987  1.00  0.00    -0.203 F 
ATOM    107  C   UNL A   1      45.127  22.956  24.789  1.00  0.00     0.198 A 
ATOM    108  C   UNL A   1      43.782  21.199  25.647  1.00  0.00     0.198 A 
ATOM    109  F   UNL A   1      42.580  21.440  27.593  1.00  0.00    -0.203 F 
ATOM    110  F   UNL A   1      45.884  23.467  23.808  1.00  0.00    -0.200 F 
ATOM    111  C   UNL A   1      44.592  21.693  24.650  1.00  0.00     0.200 A 
ATOM    112  F   UNL A   1      43.246  19.975  25.532  1.00  0.00    -0.200 F 
ATOM    113  F   UNL A   1      44.835  20.963  23.553  1.00  0.00    -0.200 F 
ENDBRANCH  83 103
BRANCH  86 114
ATOM    114  C   UNL A   1      41.374  30.027  33.287  1.00  0.00     0.064 A 
ATOM    115  C   UNL A   1      41.224  31.412  33.498  1.00  0.00     0.173 A 
ATOM    116  C   UNL A   1      40.213  29.246  33.268  1.00  0.00     0.173 A 
ATOM    117  F   UNL A   1      42.307  32.207  33.525  1.00  0.00    -0.203 F 
ATOM    118  C   UNL A   1      39.965  32.002  33.563  1.00  0.00     0.198 A 
ATOM    119  C   UNL A   1      38.953  29.838  33.355  1.00  0.00     0.198 A 
ATOM    120  F   UNL A   1      40.286  27.925  33.047  1.00  0.00    -0.203 F 
ATOM    121  F   UNL A   1      39.855  33.336  33.648  1.00  0.00    -0.200 F 
ATOM    122  C   UNL A   1      38.829  31.216  33.465  1.00  0.00     0.200 A 
ATOM    123  F   UNL A   1      37.855  29.081  33.230  1.00  0.00    -0.200 F 
ATOM    124  F   UNL A   1      37.617  31.786  33.433  1.00  0.00    -0.200 F 
ENDBRANCH  86 114
BRANCH 101 125
ATOM    125  C   UNL A   1      45.521  24.142  33.436  1.00  0.00     0.064 A 
ATOM    126  C   UNL A   1      44.674  23.053  33.692  1.00  0.00     0.173 A 
ATOM    127  C   UNL A   1      46.775  24.130  34.078  1.00  0.00     0.173 A 
ATOM    128  F   UNL A   1      43.452  22.995  33.143  1.00  0.00    -0.203 F 
ATOM    129  C   UNL A   1      45.066  22.006  34.528  1.00  0.00     0.198 A 
ATOM    130  C   UNL A   1      47.144  23.109  34.950  1.00  0.00     0.198 A 
ATOM    131  F   UNL A   1      47.678  25.098  33.854  1.00  0.00    -0.203 F 
ATOM    132  F   UNL A   1      44.248  20.962  34.715  1.00  0.00    -0.200 F 
ATOM    133  C   UNL A   1      46.294  22.043  35.169  1.00  0.00     0.200 A 
ATOM    134  F   UNL A   1      48.331  23.162  35.572  1.00  0.00    -0.200 F 
ATOM    135  F   UNL A   1      46.658  21.049  35.991  1.00  0.00    -0.200 F 
ENDBRANCH 101 125
ENDBRANCH  66  69
ENDBRANCH  56  59
ENDBRANCH  52  55
ENDBRANCH  49  52
ENDBRANCH  46  49
ENDBRANCH  43  46
ENDBRANCH   1  43
TORSDOF 18
ENDMDL
MODEL 10
REMARK VINA RESULT:     -11.9      2.507      3.847
REMARK SMILES Cc1ccc(Nc2c(C)cccc2Cl)c(CC(=O)NCCCCCCNC(=O)c2ccc(-c3c4nc(c(-c5c(F)c(F)c(F)c(F)c5F)c5ccc([nH]5)c(-c5c(F)c(F)c(F)c(F)c5F)c5nc(c(-c6c(F)c(F)c(F)c(F)c6F)c6ccc3[nH]6)C=C5)C=C4)cc2)c1
REMARK SMILES IDX 21 1 20 4 19 7 17 8 18 9 16 11 15 14 2 15 3 16 92 17 4 18
REMARK SMILES IDX 5 21 1 23 6 27 7 29 8 30 13 31 10 32 12 33 14 34 11 35 9 39
REMARK SMILES IDX 22 43 23 46 24 49 25 52 26 55 27 56 28 58 29 59 30 60 91 61
REMARK SMILES IDX 31 62 90 64 32 66 33 69 34 70 84 71 35 72 89 73 83 74 85 75
REMARK SMILES IDX 36 76 88 77 82 79 81 81 37 83 69 86 49 87 68 88 50 89 53 90
REMARK SMILES IDX 67 91 86 92 51 93 52 95 66 97 87 98 54 101 38 103 39 104
REMARK SMILES IDX 47 105 40 106 41 107 45 108 48 109 42 110 43 111 46 112
REMARK SMILES IDX 44 113 70 114 71 115 79 116 72 117 73 118 77 119 80 120
REMARK SMILES IDX 74 121 75 122 78 123 76 124 55 125 56 126 64 127 57 128
REMARK SMILES IDX 58 129 62 130 65 131 59 132 60 133 63 134 61 135
REMARK H PARENT 21 2 21 3 20 5 20 6 19 10 16 12 16 13 3 19 92 20 4 22 1 24
REMARK H PARENT 1 25 1 26 6 28 10 36 12 37 11 38 9 40 9 41 9 42 22 44 22 45
REMARK H PARENT 23 47 23 48 24 50 24 51 25 53 25 54 26 57 30 63 91 65 31 67
REMARK H PARENT 90 68 89 78 83 80 85 82 88 84 82 85 50 94 53 96 86 99 51 100
REMARK H PARENT 87 102
REMARK Flexibility Score: inf
ROOT
ATOM      1  C   UNL A   1      34.666  31.399  27.797  1.00  0.00    -0.036 C 
ATOM      2  H   UNL A   1      35.457  31.769  27.180  1.00  0.00     0.028 H 
ATOM      3  H   UNL A   1      34.996  30.713  28.548  1.00  0.00     0.028 H 
ENDROOT
BRANCH   1   4
ATOM      4  C   UNL A   1      33.694  30.620  26.907  1.00  0.00     0.017 C 
ATOM      5  H   UNL A   1      33.086  31.316  26.368  1.00  0.00     0.049 H 
ATOM      6  H   UNL A   1      34.271  30.013  26.240  1.00  0.00     0.049 H 
BRANCH   4   7
ATOM      7  N   UNL A   1      32.835  29.745  27.675  1.00  0.00    -0.356 N 
ATOM      8  C   UNL A   1      32.315  28.535  27.324  1.00  0.00     0.224 C 
ATOM      9  O   UNL A   1      31.494  28.007  28.079  1.00  0.00    -0.275 OA
ATOM     10  H   UNL A   1      32.592  30.067  28.573  1.00  0.00     0.163 HD
BRANCH   8  11
ATOM     11  C   UNL A   1      32.724  27.856  26.029  1.00  0.00     0.054 C 
ATOM     12  H   UNL A   1      33.329  28.538  25.468  1.00  0.00     0.042 H 
ATOM     13  H   UNL A   1      33.252  26.965  26.300  1.00  0.00     0.042 H 
BRANCH  11  14
ATOM     14  C   UNL A   1      31.559  27.429  25.163  1.00  0.00    -0.015 A 
ATOM     15  C   UNL A   1      29.817  28.124  23.584  1.00  0.00    -0.051 A 
ATOM     16  C   UNL A   1      29.321  26.823  23.589  1.00  0.00    -0.057 A 
ATOM     17  C   UNL A   1      30.946  28.412  24.354  1.00  0.00    -0.054 A 
ATOM     18  C   UNL A   1      29.947  25.832  24.349  1.00  0.00    -0.038 A 
ATOM     19  H   UNL A   1      28.486  26.590  23.028  1.00  0.00     0.063 H 
ATOM     20  H   UNL A   1      31.343  29.364  24.331  1.00  0.00     0.063 H 
ATOM     21  C   UNL A   1      31.069  26.107  25.148  1.00  0.00     0.042 A 
ATOM     22  H   UNL A   1      29.574  24.870  24.322  1.00  0.00     0.064 H 
BRANCH  15  23
ATOM     23  C   UNL A   1      29.147  29.184  22.763  1.00  0.00    -0.040 C 
ATOM     24  H   UNL A   1      29.571  29.197  21.782  1.00  0.00     0.028 H 
ATOM     25  H   UNL A   1      29.292  30.138  23.227  1.00  0.00     0.028 H 
ATOM     26  H   UNL A   1      28.099  28.976  22.697  1.00  0.00     0.028 H 
ENDBRANCH  15  23
BRANCH  21  27
ATOM     27  N   UNL A   1      31.727  25.077  25.854  1.00  0.00    -0.354 N 
ATOM     28  H   UNL A   1      31.869  25.245  26.814  1.00  0.00     0.167 HD
BRANCH  27  29
ATOM     29  C   UNL A   1      32.212  23.835  25.376  1.00  0.00     0.060 A 
ATOM     30  C   UNL A   1      33.341  23.751  24.533  1.00  0.00    -0.026 A 
ATOM     31  C   UNL A   1      31.511  22.650  25.688  1.00  0.00     0.064 A 
ATOM     32  C   UNL A   1      33.703  22.507  23.986  1.00  0.00    -0.057 A 
ATOM     33  C   UNL A   1      31.897  21.419  25.152  1.00  0.00    -0.041 A 
ATOM     34  Cl  UNL A   1      30.120  22.681  26.721  1.00  0.00    -0.082 Cl
ATOM     35  C   UNL A   1      32.987  21.350  24.291  1.00  0.00    -0.060 A 
ATOM     36  H   UNL A   1      34.513  22.449  23.348  1.00  0.00     0.063 H 
ATOM     37  H   UNL A   1      31.374  20.562  25.395  1.00  0.00     0.064 H 
ATOM     38  H   UNL A   1      33.264  20.446  23.879  1.00  0.00     0.062 H 
BRANCH  30  39
ATOM     39  C   UNL A   1      34.193  24.945  24.193  1.00  0.00    -0.038 C 
ATOM     40  H   UNL A   1      34.324  24.998  23.132  1.00  0.00     0.028 H 
ATOM     41  H   UNL A   1      35.148  24.848  24.665  1.00  0.00     0.028 H 
ATOM     42  H   UNL A   1      33.713  25.837  24.537  1.00  0.00     0.028 H 
ENDBRANCH  30  39
ENDBRANCH  27  29
ENDBRANCH  21  27
ENDBRANCH  11  14
ENDBRANCH   8  11
ENDBRANCH   4   7
ENDBRANCH   1   4
BRANCH   1  43
ATOM     43  C   UNL A   1      34.051  32.591  28.547  1.00  0.00    -0.052 C 
ATOM     44  H   UNL A   1      34.418  32.568  29.552  1.00  0.00     0.027 H 
ATOM     45  H   UNL A   1      32.991  32.465  28.459  1.00  0.00     0.027 H 
BRANCH  43  46
ATOM     46  C   UNL A   1      34.342  33.987  27.974  1.00  0.00    -0.052 C 
ATOM     47  H   UNL A   1      33.758  34.104  27.085  1.00  0.00     0.027 H 
ATOM     48  H   UNL A   1      35.398  34.018  27.811  1.00  0.00     0.027 H 
BRANCH  46  49
ATOM     49  C   UNL A   1      34.032  35.168  28.896  1.00  0.00    -0.036 C 
ATOM     50  H   UNL A   1      33.264  35.758  28.437  1.00  0.00     0.028 H 
ATOM     51  H   UNL A   1      34.948  35.704  29.025  1.00  0.00     0.028 H 
BRANCH  49  52
ATOM     52  C   UNL A   1      33.561  34.773  30.289  1.00  0.00     0.018 C 
ATOM     53  H   UNL A   1      33.588  33.706  30.365  1.00  0.00     0.049 H 
ATOM     54  H   UNL A   1      32.572  35.165  30.408  1.00  0.00     0.049 H 
BRANCH  52  55
ATOM     55  N   UNL A   1      34.371  35.332  31.360  1.00  0.00    -0.352 N 
ATOM     56  C   UNL A   1      35.507  34.835  31.981  1.00  0.00     0.251 C 
ATOM     57  H   UNL A   1      34.065  36.205  31.698  1.00  0.00     0.163 HD
ATOM     58  O   UNL A   1      35.991  35.429  32.924  1.00  0.00    -0.269 OA
BRANCH  56  59
ATOM     59  C   UNL A   1      36.219  33.667  31.397  1.00  0.00     0.039 A 
ATOM     60  C   UNL A   1      36.162  32.460  32.109  1.00  0.00    -0.049 A 
ATOM     61  C   UNL A   1      37.086  33.794  30.318  1.00  0.00    -0.049 A 
ATOM     62  C   UNL A   1      37.158  31.505  31.919  1.00  0.00    -0.053 A 
ATOM     63  H   UNL A   1      35.389  32.281  32.768  1.00  0.00     0.063 H 
ATOM     64  C   UNL A   1      38.128  32.899  30.193  1.00  0.00    -0.053 A 
ATOM     65  H   UNL A   1      36.951  34.544  29.622  1.00  0.00     0.063 H 
ATOM     66  C   UNL A   1      38.210  31.803  31.059  1.00  0.00    -0.014 A 
ATOM     67  H   UNL A   1      37.115  30.596  32.405  1.00  0.00     0.063 H 
ATOM     68  H   UNL A   1      38.845  33.036  29.464  1.00  0.00     0.063 H 
BRANCH  66  69
ATOM     69  C   UNL A   1      39.513  31.153  31.121  1.00  0.00     0.031 A 
ATOM     70  C   UNL A   1      39.749  29.855  30.461  1.00  0.00     0.074 A 
ATOM     71  C   UNL A   1      40.549  31.857  31.635  1.00  0.00     0.049 A 
ATOM     72  N   UNL A   1      40.839  29.178  30.587  1.00  0.00    -0.248 NA
ATOM     73  C   UNL A   1      38.742  29.172  29.653  1.00  0.00    -0.034 C 
ATOM     74  C   UNL A   1      41.978  31.613  31.451  1.00  0.00    -0.036 A 
ATOM     75  N   UNL A   1      40.497  32.847  32.634  1.00  0.00    -0.354 N 
ATOM     76  C   UNL A   1      40.804  28.156  29.672  1.00  0.00     0.074 A 
ATOM     77  C   UNL A   1      39.436  28.113  29.221  1.00  0.00    -0.034 C 
ATOM     78  H   UNL A   1      37.762  29.435  29.466  1.00  0.00     0.065 H 
ATOM     79  C   UNL A   1      42.645  32.162  32.478  1.00  0.00    -0.036 A 
ATOM     80  H   UNL A   1      42.404  31.100  30.663  1.00  0.00     0.065 H 
ATOM     81  C   UNL A   1      41.652  32.629  33.427  1.00  0.00     0.049 A 
ATOM     82  H   UNL A   1      39.808  33.540  32.757  1.00  0.00     0.167 HD
ATOM     83  C   UNL A   1      41.978  27.561  29.323  1.00  0.00     0.037 A 
ATOM     84  H   UNL A   1      39.042  27.358  28.638  1.00  0.00     0.065 H 
ATOM     85  H   UNL A   1      43.671  32.239  32.572  1.00  0.00     0.065 H 
ATOM     86  C   UNL A   1      41.537  32.189  34.715  1.00  0.00     0.037 A 
ATOM     87  C   UNL A   1      43.028  27.865  30.299  1.00  0.00     0.049 A 
ATOM     88  C   UNL A   1      42.169  30.837  34.988  1.00  0.00     0.074 A 
ATOM     89  C   UNL A   1      44.168  28.649  30.321  1.00  0.00    -0.036 A 
ATOM     90  N   UNL A   1      42.816  27.465  31.608  1.00  0.00    -0.354 N 
ATOM     91  N   UNL A   1      42.716  30.078  34.078  1.00  0.00    -0.248 NA
ATOM     92  C   UNL A   1      42.135  30.192  36.302  1.00  0.00    -0.034 C 
ATOM     93  C   UNL A   1      44.584  28.777  31.684  1.00  0.00    -0.036 A 
ATOM     94  H   UNL A   1      44.634  29.068  29.501  1.00  0.00     0.065 H 
ATOM     95  C   UNL A   1      43.717  28.043  32.476  1.00  0.00     0.049 A 
ATOM     96  H   UNL A   1      42.106  26.842  31.886  1.00  0.00     0.167 HD
ATOM     97  C   UNL A   1      43.036  28.869  34.631  1.00  0.00     0.074 A 
ATOM     98  C   UNL A   1      42.661  28.985  36.027  1.00  0.00    -0.034 C 
ATOM     99  H   UNL A   1      41.796  30.564  37.203  1.00  0.00     0.065 H 
ATOM    100  H   UNL A   1      45.393  29.323  32.020  1.00  0.00     0.065 H 
ATOM    101  C   UNL A   1      43.540  27.833  33.902  1.00  0.00     0.037 A 
ATOM    102  H   UNL A   1      42.784  28.235  36.724  1.00  0.00     0.065 H 
BRANCH  83 103
ATOM    103  C   UNL A   1      42.231  26.794  28.042  1.00  0.00     0.064 A 
ATOM    104  C   UNL A   1      41.692  25.498  27.877  1.00  0.00     0.173 A 
ATOM    105  C   UNL A   1      43.090  27.207  27.000  1.00  0.00     0.173 A 
ATOM    106  F   UNL A   1      40.871  24.965  28.792  1.00  0.00    -0.203 F 
ATOM    107  C   UNL A   1      42.001  24.689  26.776  1.00  0.00     0.198 A 
ATOM    108  C   UNL A   1      43.353  26.419  25.876  1.00  0.00     0.198 A 
ATOM    109  F   UNL A   1      43.770  28.356  27.043  1.00  0.00    -0.203 F 
ATOM    110  F   UNL A   1      41.509  23.444  26.708  1.00  0.00    -0.200 F 
ATOM    111  C   UNL A   1      42.822  25.154  25.770  1.00  0.00     0.200 A 
ATOM    112  F   UNL A   1      44.159  26.891  24.913  1.00  0.00    -0.200 F 
ATOM    113  F   UNL A   1      43.120  24.381  24.718  1.00  0.00    -0.200 F 
ENDBRANCH  83 103
BRANCH  86 114
ATOM    114  C   UNL A   1      40.316  32.705  35.389  1.00  0.00     0.064 A 
ATOM    115  C   UNL A   1      39.246  31.817  35.614  1.00  0.00     0.173 A 
ATOM    116  C   UNL A   1      40.334  33.896  36.123  1.00  0.00     0.173 A 
ATOM    117  F   UNL A   1      39.182  30.659  34.935  1.00  0.00    -0.203 F 
ATOM    118  C   UNL A   1      38.307  32.053  36.614  1.00  0.00     0.198 A 
ATOM    119  C   UNL A   1      39.378  34.139  37.111  1.00  0.00     0.198 A 
ATOM    120  F   UNL A   1      41.337  34.773  35.974  1.00  0.00    -0.203 F 
ATOM    121  F   UNL A   1      37.369  31.133  36.882  1.00  0.00    -0.200 F 
ATOM    122  C   UNL A   1      38.391  33.203  37.380  1.00  0.00     0.200 A 
ATOM    123  F   UNL A   1      39.477  35.238  37.872  1.00  0.00    -0.200 F 
ATOM    124  F   UNL A   1      37.548  33.392  38.405  1.00  0.00    -0.200 F 
ENDBRANCH  86 114
BRANCH 101 125
ATOM    125  C   UNL A   1      43.885  26.512  34.517  1.00  0.00     0.064 A 
ATOM    126  C   UNL A   1      45.216  26.094  34.670  1.00  0.00     0.173 A 
ATOM    127  C   UNL A   1      42.887  25.581  34.865  1.00  0.00     0.173 A 
ATOM    128  F   UNL A   1      46.229  26.907  34.338  1.00  0.00    -0.203 F 
ATOM    129  C   UNL A   1      45.528  24.825  35.161  1.00  0.00     0.198 A 
ATOM    130  C   UNL A   1      43.202  24.299  35.308  1.00  0.00     0.198 A 
ATOM    131  F   UNL A   1      41.586  25.904  34.807  1.00  0.00    -0.203 F 
ATOM    132  F   UNL A   1      46.810  24.477  35.335  1.00  0.00    -0.200 F 
ATOM    133  C   UNL A   1      44.522  23.923  35.464  1.00  0.00     0.200 A 
ATOM    134  F   UNL A   1      42.218  23.431  35.588  1.00  0.00    -0.200 F 
ATOM    135  F   UNL A   1      44.825  22.696  35.910  1.00  0.00    -0.200 F 
ENDBRANCH 101 125
ENDBRANCH  66  69
ENDBRANCH  56  59
ENDBRANCH  52  55
ENDBRANCH  49  52
ENDBRANCH  46  49
ENDBRANCH  43  46
ENDBRANCH   1  43
TORSDOF 18
ENDMDL
