MODEL 1
REMARK VINA RESULT:     -12.7      0.000      0.000
REMARK SMILES O=C(NCCCCCCNC(=O)c1cccnc1Nc1cccc(C(F)(F)F)c1)c1ccc(-c2c3nc(c(-c4c(F)c(F)c(F)c(F)c4F)c4ccc([nH]4)c(-c4c(F)c(F)c(F)c(F)c4F)c4nc(c(-c5c(F)c(F)c(F)c(F)c5F)c5ccc2[nH]5)C=C4)C=C3)cc1
REMARK SMILES IDX 7 1 6 4 5 7 4 10 3 13 1 14 2 15 30 17 31 18 92 19 32 20
REMARK SMILES IDX 91 22 33 24 34 27 35 28 85 29 36 30 90 31 84 32 86 33 37 34
REMARK SMILES IDX 89 35 83 37 82 39 38 41 70 44 50 45 69 46 51 47 54 48 68 49
REMARK SMILES IDX 87 50 52 51 53 53 67 55 88 56 55 59 39 61 40 62 48 63 41 64
REMARK SMILES IDX 42 65 46 66 49 67 43 68 44 69 47 70 45 71 71 72 72 73 80 74
REMARK SMILES IDX 73 75 74 76 78 77 81 78 75 79 76 80 79 81 77 82 56 83 57 84
REMARK SMILES IDX 65 85 58 86 59 87 63 88 66 89 60 90 61 91 64 92 62 93 8 94
REMARK SMILES IDX 9 97 10 100 11 101 12 103 13 104 14 105 18 106 15 107 17 109
REMARK SMILES IDX 16 110 19 113 20 115 21 116 29 117 22 118 24 120 23 122
REMARK SMILES IDX 25 125 26 126 27 127 28 128
REMARK H PARENT 7 2 7 3 6 5 6 6 5 8 5 9 4 11 4 12 3 16 31 21 92 23 32 25 91 26
REMARK H PARENT 90 36 84 38 86 40 89 42 83 43 51 52 54 54 87 57 52 58 88 60
REMARK H PARENT 8 95 8 96 9 98 9 99 10 102 14 108 15 111 16 112 19 114 21 119
REMARK H PARENT 29 121 22 123 23 124
REMARK Flexibility Score: inf
ROOT
ATOM      1  C   UNL A   1      32.611  29.920  27.251  1.00  0.00    -0.052 C 
ATOM      2  H   UNL A   1      32.084  29.075  27.642  1.00  0.00     0.027 H 
ATOM      3  H   UNL A   1      32.926  30.613  28.001  1.00  0.00     0.027 H 
ENDROOT
BRANCH   1   4
ATOM      4  C   UNL A   1      31.656  30.692  26.334  1.00  0.00    -0.052 C 
ATOM      5  H   UNL A   1      32.041  30.643  25.337  1.00  0.00     0.027 H 
ATOM      6  H   UNL A   1      30.698  30.229  26.443  1.00  0.00     0.027 H 
BRANCH   4   7
ATOM      7  C   UNL A   1      31.463  32.164  26.695  1.00  0.00    -0.036 C 
ATOM      8  H   UNL A   1      31.148  32.686  25.816  1.00  0.00     0.028 H 
ATOM      9  H   UNL A   1      30.736  32.193  27.480  1.00  0.00     0.028 H 
BRANCH   7  10
ATOM     10  C   UNL A   1      32.711  32.846  27.233  1.00  0.00     0.018 C 
ATOM     11  H   UNL A   1      33.061  32.302  28.086  1.00  0.00     0.049 H 
ATOM     12  H   UNL A   1      33.442  32.858  26.451  1.00  0.00     0.049 H 
BRANCH  10  13
ATOM     13  N   UNL A   1      32.458  34.222  27.628  1.00  0.00    -0.352 N 
ATOM     14  O   UNL A   1      32.581  36.029  28.978  1.00  0.00    -0.269 OA
ATOM     15  C   UNL A   1      33.033  34.936  28.646  1.00  0.00     0.251 C 
ATOM     16  H   UNL A   1      31.785  34.703  27.093  1.00  0.00     0.163 HD
BRANCH  15  17
ATOM     17  C   UNL A   1      34.202  34.374  29.352  1.00  0.00     0.039 A 
ATOM     18  C   UNL A   1      34.024  33.623  30.518  1.00  0.00    -0.049 A 
ATOM     19  C   UNL A   1      35.482  34.584  28.835  1.00  0.00    -0.049 A 
ATOM     20  C   UNL A   1      35.131  33.172  31.223  1.00  0.00    -0.053 A 
ATOM     21  H   UNL A   1      33.072  33.405  30.852  1.00  0.00     0.063 H 
ATOM     22  C   UNL A   1      36.591  34.051  29.497  1.00  0.00    -0.053 A 
ATOM     23  H   UNL A   1      35.609  35.131  27.968  1.00  0.00     0.063 H 
ATOM     24  C   UNL A   1      36.421  33.342  30.698  1.00  0.00    -0.014 A 
ATOM     25  H   UNL A   1      35.004  32.710  32.138  1.00  0.00     0.063 H 
ATOM     26  H   UNL A   1      37.536  34.179  29.104  1.00  0.00     0.063 H 
BRANCH  24  27
ATOM     27  C   UNL A   1      37.557  32.636  31.337  1.00  0.00     0.031 A 
ATOM     28  C   UNL A   1      38.248  31.488  30.665  1.00  0.00     0.074 A 
ATOM     29  C   UNL A   1      37.945  33.054  32.558  1.00  0.00     0.049 A 
ATOM     30  N   UNL A   1      39.233  30.749  31.113  1.00  0.00    -0.248 NA
ATOM     31  C   UNL A   1      37.778  31.109  29.324  1.00  0.00    -0.034 C 
ATOM     32  C   UNL A   1      37.324  34.151  33.308  1.00  0.00    -0.036 A 
ATOM     33  N   UNL A   1      38.944  32.613  33.388  1.00  0.00    -0.354 N 
ATOM     34  C   UNL A   1      39.486  29.809  30.124  1.00  0.00     0.074 A 
ATOM     35  C   UNL A   1      38.545  30.060  29.052  1.00  0.00    -0.034 C 
ATOM     36  H   UNL A   1      37.042  31.545  28.745  1.00  0.00     0.065 H 
ATOM     37  C   UNL A   1      37.968  34.313  34.470  1.00  0.00    -0.036 A 
ATOM     38  H   UNL A   1      36.516  34.709  32.988  1.00  0.00     0.065 H 
ATOM     39  C   UNL A   1      38.995  33.286  34.584  1.00  0.00     0.049 A 
ATOM     40  H   UNL A   1      39.564  31.887  33.148  1.00  0.00     0.167 HD
ATOM     41  C   UNL A   1      40.422  28.831  30.121  1.00  0.00     0.037 A 
ATOM     42  H   UNL A   1      38.480  29.498  28.189  1.00  0.00     0.065 H 
ATOM     43  H   UNL A   1      37.769  35.045  35.170  1.00  0.00     0.065 H 
ATOM     44  C   UNL A   1      39.752  33.072  35.675  1.00  0.00     0.037 A 
ATOM     45  C   UNL A   1      41.364  28.608  31.191  1.00  0.00     0.049 A 
ATOM     46  C   UNL A   1      40.751  31.950  35.649  1.00  0.00     0.074 A 
ATOM     47  C   UNL A   1      42.402  27.694  31.245  1.00  0.00    -0.036 A 
ATOM     48  N   UNL A   1      41.370  29.291  32.398  1.00  0.00    -0.354 N 
ATOM     49  N   UNL A   1      41.036  31.121  34.675  1.00  0.00    -0.248 NA
ATOM     50  C   UNL A   1      41.526  31.727  36.876  1.00  0.00    -0.034 C 
ATOM     51  C   UNL A   1      42.990  27.775  32.511  1.00  0.00    -0.036 A 
ATOM     52  H   UNL A   1      42.692  27.061  30.482  1.00  0.00     0.065 H 
ATOM     53  C   UNL A   1      42.361  28.783  33.223  1.00  0.00     0.049 A 
ATOM     54  H   UNL A   1      40.761  30.028  32.634  1.00  0.00     0.167 HD
ATOM     55  C   UNL A   1      42.028  30.286  35.166  1.00  0.00     0.074 A 
ATOM     56  C   UNL A   1      42.322  30.733  36.512  1.00  0.00    -0.034 C 
ATOM     57  H   UNL A   1      41.467  32.217  37.782  1.00  0.00     0.065 H 
ATOM     58  H   UNL A   1      43.763  27.183  32.855  1.00  0.00     0.065 H 
ATOM     59  C   UNL A   1      42.634  29.236  34.562  1.00  0.00     0.037 A 
ATOM     60  H   UNL A   1      43.057  30.328  37.111  1.00  0.00     0.065 H 
BRANCH  41  61
ATOM     61  C   UNL A   1      40.482  27.898  28.947  1.00  0.00     0.064 A 
ATOM     62  C   UNL A   1      39.692  26.742  28.879  1.00  0.00     0.173 A 
ATOM     63  C   UNL A   1      41.255  28.233  27.824  1.00  0.00     0.173 A 
ATOM     64  F   UNL A   1      38.940  26.375  29.926  1.00  0.00    -0.203 F 
ATOM     65  C   UNL A   1      39.677  25.953  27.729  1.00  0.00     0.198 A 
ATOM     66  C   UNL A   1      41.219  27.457  26.668  1.00  0.00     0.198 A 
ATOM     67  F   UNL A   1      42.023  29.333  27.835  1.00  0.00    -0.203 F 
ATOM     68  F   UNL A   1      38.927  24.843  27.692  1.00  0.00    -0.200 F 
ATOM     69  C   UNL A   1      40.430  26.317  26.622  1.00  0.00     0.200 A 
ATOM     70  F   UNL A   1      41.934  27.819  25.595  1.00  0.00    -0.200 F 
ATOM     71  F   UNL A   1      40.391  25.572  25.510  1.00  0.00    -0.200 F 
ENDBRANCH  41  61
BRANCH  44  72
ATOM     72  C   UNL A   1      39.558  33.899  36.895  1.00  0.00     0.064 A 
ATOM     73  C   UNL A   1      38.759  33.453  37.956  1.00  0.00     0.173 A 
ATOM     74  C   UNL A   1      40.147  35.168  37.011  1.00  0.00     0.173 A 
ATOM     75  F   UNL A   1      38.161  32.255  37.885  1.00  0.00    -0.203 F 
ATOM     76  C   UNL A   1      38.527  34.259  39.068  1.00  0.00     0.198 A 
ATOM     77  C   UNL A   1      39.947  35.956  38.142  1.00  0.00     0.198 A 
ATOM     78  F   UNL A   1      40.927  35.641  36.028  1.00  0.00    -0.203 F 
ATOM     79  F   UNL A   1      37.705  33.836  40.038  1.00  0.00    -0.200 F 
ATOM     80  C   UNL A   1      39.125  35.507  39.163  1.00  0.00     0.200 A 
ATOM     81  F   UNL A   1      40.544  37.151  38.236  1.00  0.00    -0.200 F 
ATOM     82  F   UNL A   1      38.900  36.282  40.232  1.00  0.00    -0.200 F 
ENDBRANCH  44  72
BRANCH  59  83
ATOM     83  C   UNL A   1      43.680  28.507  35.352  1.00  0.00     0.064 A 
ATOM     84  C   UNL A   1      43.341  27.467  36.231  1.00  0.00     0.173 A 
ATOM     85  C   UNL A   1      45.039  28.826  35.205  1.00  0.00     0.173 A 
ATOM     86  F   UNL A   1      42.054  27.138  36.421  1.00  0.00    -0.203 F 
ATOM     87  C   UNL A   1      44.320  26.791  36.951  1.00  0.00     0.198 A 
ATOM     88  C   UNL A   1      46.018  28.124  35.902  1.00  0.00     0.198 A 
ATOM     89  F   UNL A   1      45.417  29.810  34.375  1.00  0.00    -0.203 F 
ATOM     90  F   UNL A   1      43.968  25.837  37.824  1.00  0.00    -0.200 F 
ATOM     91  C   UNL A   1      45.658  27.113  36.779  1.00  0.00     0.200 A 
ATOM     92  F   UNL A   1      47.311  28.427  35.724  1.00  0.00    -0.200 F 
ATOM     93  F   UNL A   1      46.601  26.454  37.466  1.00  0.00    -0.200 F 
ENDBRANCH  59  83
ENDBRANCH  24  27
ENDBRANCH  15  17
ENDBRANCH  10  13
ENDBRANCH   7  10
ENDBRANCH   4   7
ENDBRANCH   1   4
BRANCH   1  94
ATOM     94  C   UNL A   1      33.892  29.411  26.579  1.00  0.00    -0.036 C 
ATOM     95  H   UNL A   1      34.729  29.774  27.139  1.00  0.00     0.028 H 
ATOM     96  H   UNL A   1      33.871  29.774  25.573  1.00  0.00     0.028 H 
BRANCH  94  97
ATOM     97  C   UNL A   1      34.003  27.892  26.488  1.00  0.00     0.018 C 
ATOM     98  H   UNL A   1      34.780  27.559  27.143  1.00  0.00     0.049 H 
ATOM     99  H   UNL A   1      34.223  27.631  25.473  1.00  0.00     0.049 H 
BRANCH  97 100
ATOM    100  N   UNL A   1      32.758  27.245  26.865  1.00  0.00    -0.352 N 
ATOM    101  C   UNL A   1      31.883  26.554  26.070  1.00  0.00     0.255 C 
ATOM    102  H   UNL A   1      32.512  27.312  27.815  1.00  0.00     0.163 HD
ATOM    103  O   UNL A   1      30.739  26.330  26.457  1.00  0.00    -0.269 OA
BRANCH 101 104
ATOM    104  C   UNL A   1      32.306  26.091  24.736  1.00  0.00     0.082 A 
ATOM    105  C   UNL A   1      32.871  24.817  24.587  1.00  0.00    -0.044 A 
ATOM    106  C   UNL A   1      32.092  26.890  23.609  1.00  0.00     0.143 A 
ATOM    107  C   UNL A   1      33.295  24.403  23.333  1.00  0.00    -0.043 A 
ATOM    108  H   UNL A   1      32.972  24.193  25.403  1.00  0.00     0.063 H 
ATOM    109  N   UNL A   1      32.520  26.478  22.388  1.00  0.00    -0.238 NA
ATOM    110  C   UNL A   1      33.108  25.267  22.274  1.00  0.00     0.029 A 
ATOM    111  H   UNL A   1      33.736  23.479  23.197  1.00  0.00     0.064 H 
ATOM    112  H   UNL A   1      33.437  24.972  21.340  1.00  0.00     0.084 H 
BRANCH 106 113
ATOM    113  N   UNL A   1      31.531  28.181  23.728  1.00  0.00    -0.340 N 
ATOM    114  H   UNL A   1      32.148  28.914  23.953  1.00  0.00     0.168 HD
BRANCH 113 115
ATOM    115  C   UNL A   1      30.177  28.520  23.558  1.00  0.00     0.040 A 
ATOM    116  C   UNL A   1      29.224  27.511  23.398  1.00  0.00    -0.039 A 
ATOM    117  C   UNL A   1      29.772  29.855  23.443  1.00  0.00    -0.026 A 
ATOM    118  C   UNL A   1      27.879  27.831  23.205  1.00  0.00    -0.060 A 
ATOM    119  H   UNL A   1      29.517  26.522  23.421  1.00  0.00     0.064 H 
ATOM    120  C   UNL A   1      28.429  30.194  23.231  1.00  0.00     0.058 A 
ATOM    121  H   UNL A   1      30.478  30.604  23.515  1.00  0.00     0.065 H 
ATOM    122  C   UNL A   1      27.482  29.166  23.127  1.00  0.00    -0.050 A 
ATOM    123  H   UNL A   1      27.177  27.079  23.121  1.00  0.00     0.062 H 
ATOM    124  H   UNL A   1      26.485  29.398  22.993  1.00  0.00     0.063 H 
BRANCH 120 125
ATOM    125  C   UNL A   1      28.008  31.636  23.120  1.00  0.00     0.416 C 
ATOM    126  F   UNL A   1      27.688  31.987  21.843  1.00  0.00    -0.166 F 
ATOM    127  F   UNL A   1      26.905  31.917  23.869  1.00  0.00    -0.166 F 
ATOM    128  F   UNL A   1      28.963  32.524  23.517  1.00  0.00    -0.166 F 
ENDBRANCH 120 125
ENDBRANCH 113 115
ENDBRANCH 106 113
ENDBRANCH 101 104
ENDBRANCH  97 100
ENDBRANCH  94  97
ENDBRANCH   1  94
TORSDOF 16
ENDMDL
MODEL 2
REMARK VINA RESULT:     -12.6      0.172      1.576
REMARK SMILES O=C(NCCCCCCNC(=O)c1cccnc1Nc1cccc(C(F)(F)F)c1)c1ccc(-c2c3nc(c(-c4c(F)c(F)c(F)c(F)c4F)c4ccc([nH]4)c(-c4c(F)c(F)c(F)c(F)c4F)c4nc(c(-c5c(F)c(F)c(F)c(F)c5F)c5ccc2[nH]5)C=C4)C=C3)cc1
REMARK SMILES IDX 7 1 6 4 5 7 4 10 3 13 1 14 2 15 30 17 31 18 92 19 32 20
REMARK SMILES IDX 91 22 33 24 34 27 35 28 85 29 36 30 90 31 84 32 86 33 37 34
REMARK SMILES IDX 89 35 83 37 82 39 38 41 70 44 50 45 69 46 51 47 54 48 68 49
REMARK SMILES IDX 87 50 52 51 53 53 67 55 88 56 55 59 39 61 40 62 48 63 41 64
REMARK SMILES IDX 42 65 46 66 49 67 43 68 44 69 47 70 45 71 71 72 72 73 80 74
REMARK SMILES IDX 73 75 74 76 78 77 81 78 75 79 76 80 79 81 77 82 56 83 57 84
REMARK SMILES IDX 65 85 58 86 59 87 63 88 66 89 60 90 61 91 64 92 62 93 8 94
REMARK SMILES IDX 9 97 10 100 11 101 12 103 13 104 14 105 18 106 15 107 17 109
REMARK SMILES IDX 16 110 19 113 20 115 21 116 29 117 22 118 24 120 23 122
REMARK SMILES IDX 25 125 26 126 27 127 28 128
REMARK H PARENT 7 2 7 3 6 5 6 6 5 8 5 9 4 11 4 12 3 16 31 21 92 23 32 25 91 26
REMARK H PARENT 90 36 84 38 86 40 89 42 83 43 51 52 54 54 87 57 52 58 88 60
REMARK H PARENT 8 95 8 96 9 98 9 99 10 102 14 108 15 111 16 112 19 114 21 119
REMARK H PARENT 29 121 22 123 23 124
REMARK Flexibility Score: inf
ROOT
ATOM      1  C   UNL A   1      32.483  29.917  27.051  1.00  0.00    -0.052 C 
ATOM      2  H   UNL A   1      31.910  29.057  27.328  1.00  0.00     0.027 H 
ATOM      3  H   UNL A   1      32.747  30.541  27.879  1.00  0.00     0.027 H 
ENDROOT
BRANCH   1   4
ATOM      4  C   UNL A   1      31.622  30.783  26.125  1.00  0.00    -0.052 C 
ATOM      5  H   UNL A   1      32.101  30.822  25.169  1.00  0.00     0.027 H 
ATOM      6  H   UNL A   1      30.656  30.323  26.098  1.00  0.00     0.027 H 
BRANCH   4   7
ATOM      7  C   UNL A   1      31.400  32.217  26.603  1.00  0.00    -0.036 C 
ATOM      8  H   UNL A   1      31.223  32.832  25.746  1.00  0.00     0.028 H 
ATOM      9  H   UNL A   1      30.567  32.189  27.275  1.00  0.00     0.028 H 
BRANCH   7  10
ATOM     10  C   UNL A   1      32.567  32.806  27.381  1.00  0.00     0.018 C 
ATOM     11  H   UNL A   1      32.676  32.268  28.299  1.00  0.00     0.049 H 
ATOM     12  H   UNL A   1      33.444  32.721  26.773  1.00  0.00     0.049 H 
BRANCH  10  13
ATOM     13  N   UNL A   1      32.370  34.214  27.684  1.00  0.00    -0.352 N 
ATOM     14  O   UNL A   1      32.591  36.106  28.898  1.00  0.00    -0.269 OA
ATOM     15  C   UNL A   1      32.997  34.978  28.633  1.00  0.00     0.251 C 
ATOM     16  H   UNL A   1      31.697  34.679  27.135  1.00  0.00     0.163 HD
BRANCH  15  17
ATOM     17  C   UNL A   1      34.168  34.427  29.344  1.00  0.00     0.039 A 
ATOM     18  C   UNL A   1      33.999  33.748  30.555  1.00  0.00    -0.049 A 
ATOM     19  C   UNL A   1      35.441  34.575  28.788  1.00  0.00    -0.049 A 
ATOM     20  C   UNL A   1      35.110  33.310  31.261  1.00  0.00    -0.053 A 
ATOM     21  H   UNL A   1      33.050  33.574  30.921  1.00  0.00     0.063 H 
ATOM     22  C   UNL A   1      36.551  34.051  29.457  1.00  0.00    -0.053 A 
ATOM     23  H   UNL A   1      35.562  35.068  27.890  1.00  0.00     0.063 H 
ATOM     24  C   UNL A   1      36.392  33.416  30.699  1.00  0.00    -0.014 A 
ATOM     25  H   UNL A   1      34.993  32.903  32.204  1.00  0.00     0.063 H 
ATOM     26  H   UNL A   1      37.490  34.133  29.037  1.00  0.00     0.063 H 
BRANCH  24  27
ATOM     27  C   UNL A   1      37.524  32.719  31.353  1.00  0.00     0.031 A 
ATOM     28  C   UNL A   1      38.208  31.551  30.708  1.00  0.00     0.074 A 
ATOM     29  C   UNL A   1      37.917  33.163  32.564  1.00  0.00     0.049 A 
ATOM     30  N   UNL A   1      39.189  30.817  31.172  1.00  0.00    -0.248 NA
ATOM     31  C   UNL A   1      37.733  31.144  29.377  1.00  0.00    -0.034 C 
ATOM     32  C   UNL A   1      37.303  34.281  33.288  1.00  0.00    -0.036 A 
ATOM     33  N   UNL A   1      38.914  32.737  33.402  1.00  0.00    -0.354 N 
ATOM     34  C   UNL A   1      39.435  29.853  30.205  1.00  0.00     0.074 A 
ATOM     35  C   UNL A   1      38.494  30.084  29.129  1.00  0.00    -0.034 C 
ATOM     36  H   UNL A   1      36.999  31.570  28.789  1.00  0.00     0.065 H 
ATOM     37  C   UNL A   1      37.950  34.467  34.446  1.00  0.00    -0.036 A 
ATOM     38  H   UNL A   1      36.498  34.836  32.957  1.00  0.00     0.065 H 
ATOM     39  C   UNL A   1      38.971  33.437  34.583  1.00  0.00     0.049 A 
ATOM     40  H   UNL A   1      39.530  32.001  33.179  1.00  0.00     0.167 HD
ATOM     41  C   UNL A   1      40.365  28.869  30.224  1.00  0.00     0.037 A 
ATOM     42  H   UNL A   1      38.425  29.502  28.279  1.00  0.00     0.065 H 
ATOM     43  H   UNL A   1      37.757  35.217  35.128  1.00  0.00     0.065 H 
ATOM     44  C   UNL A   1      39.728  33.244  35.677  1.00  0.00     0.037 A 
ATOM     45  C   UNL A   1      41.307  28.666  31.298  1.00  0.00     0.049 A 
ATOM     46  C   UNL A   1      40.720  32.116  35.677  1.00  0.00     0.074 A 
ATOM     47  C   UNL A   1      42.341  27.747  31.372  1.00  0.00    -0.036 A 
ATOM     48  N   UNL A   1      41.319  29.377  32.488  1.00  0.00    -0.354 N 
ATOM     49  N   UNL A   1      40.999  31.262  34.722  1.00  0.00    -0.248 NA
ATOM     50  C   UNL A   1      41.496  31.917  36.907  1.00  0.00    -0.034 C 
ATOM     51  C   UNL A   1      42.931  27.855  32.634  1.00  0.00    -0.036 A 
ATOM     52  H   UNL A   1      42.625  27.095  30.624  1.00  0.00     0.065 H 
ATOM     53  C   UNL A   1      42.308  28.883  33.323  1.00  0.00     0.049 A 
ATOM     54  H   UNL A   1      40.715  30.124  32.708  1.00  0.00     0.167 HD
ATOM     55  C   UNL A   1      41.987  30.434  35.231  1.00  0.00     0.074 A 
ATOM     56  C   UNL A   1      42.286  30.910  36.565  1.00  0.00    -0.034 C 
ATOM     57  H   UNL A   1      41.442  32.429  37.802  1.00  0.00     0.065 H 
ATOM     58  H   UNL A   1      43.701  27.267  32.991  1.00  0.00     0.065 H 
ATOM     59  C   UNL A   1      42.587  29.366  34.651  1.00  0.00     0.037 A 
ATOM     60  H   UNL A   1      43.019  30.515  37.173  1.00  0.00     0.065 H 
BRANCH  41  61
ATOM     61  C   UNL A   1      40.418  27.909  29.072  1.00  0.00     0.064 A 
ATOM     62  C   UNL A   1      39.649  26.738  29.049  1.00  0.00     0.173 A 
ATOM     63  C   UNL A   1      41.162  28.229  27.925  1.00  0.00     0.173 A 
ATOM     64  F   UNL A   1      38.924  26.384  30.120  1.00  0.00    -0.203 F 
ATOM     65  C   UNL A   1      39.624  25.920  27.920  1.00  0.00     0.198 A 
ATOM     66  C   UNL A   1      41.116  27.424  26.790  1.00  0.00     0.198 A 
ATOM     67  F   UNL A   1      41.909  29.343  27.893  1.00  0.00    -0.203 F 
ATOM     68  F   UNL A   1      38.894  24.796  27.925  1.00  0.00    -0.200 F 
ATOM     69  C   UNL A   1      40.347  26.270  26.788  1.00  0.00     0.200 A 
ATOM     70  F   UNL A   1      41.802  27.772  25.693  1.00  0.00    -0.200 F 
ATOM     71  F   UNL A   1      40.299  25.496  25.695  1.00  0.00    -0.200 F 
ENDBRANCH  41  61
BRANCH  44  72
ATOM     72  C   UNL A   1      39.541  34.101  36.877  1.00  0.00     0.064 A 
ATOM     73  C   UNL A   1      40.154  35.356  36.978  1.00  0.00     0.173 A 
ATOM     74  C   UNL A   1      38.764  33.666  37.963  1.00  0.00     0.173 A 
ATOM     75  F   UNL A   1      40.919  35.809  35.974  1.00  0.00    -0.203 F 
ATOM     76  C   UNL A   1      40.028  36.127  38.132  1.00  0.00     0.198 A 
ATOM     77  C   UNL A   1      38.607  34.455  39.100  1.00  0.00     0.198 A 
ATOM     78  F   UNL A   1      38.149  32.475  37.917  1.00  0.00    -0.203 F 
ATOM     79  F   UNL A   1      40.680  37.294  38.228  1.00  0.00    -0.200 F 
ATOM     80  C   UNL A   1      39.251  35.678  39.189  1.00  0.00     0.200 A 
ATOM     81  F   UNL A   1      37.838  34.025  40.109  1.00  0.00    -0.200 F 
ATOM     82  F   UNL A   1      39.133  36.419  40.299  1.00  0.00    -0.200 F 
ENDBRANCH  44  72
BRANCH  59  83
ATOM     83  C   UNL A   1      43.630  28.650  35.457  1.00  0.00     0.064 A 
ATOM     84  C   UNL A   1      44.991  28.969  35.340  1.00  0.00     0.173 A 
ATOM     85  C   UNL A   1      43.263  27.659  36.381  1.00  0.00     0.173 A 
ATOM     86  F   UNL A   1      45.393  29.895  34.456  1.00  0.00    -0.203 F 
ATOM     87  C   UNL A   1      45.949  28.305  36.100  1.00  0.00     0.198 A 
ATOM     88  C   UNL A   1      44.221  27.022  37.164  1.00  0.00     0.198 A 
ATOM     89  F   UNL A   1      41.974  27.320  36.534  1.00  0.00    -0.203 F 
ATOM     90  F   UNL A   1      47.248  28.589  35.933  1.00  0.00    -0.200 F 
ATOM     91  C   UNL A   1      45.563  27.340  37.018  1.00  0.00     0.200 A 
ATOM     92  F   UNL A   1      43.845  26.100  38.061  1.00  0.00    -0.200 F 
ATOM     93  F   UNL A   1      46.486  26.709  37.756  1.00  0.00    -0.200 F 
ENDBRANCH  59  83
ENDBRANCH  24  27
ENDBRANCH  15  17
ENDBRANCH  10  13
ENDBRANCH   7  10
ENDBRANCH   4   7
ENDBRANCH   1   4
BRANCH   1  94
ATOM     94  C   UNL A   1      33.806  29.431  26.448  1.00  0.00    -0.036 C 
ATOM     95  H   UNL A   1      34.607  29.846  27.023  1.00  0.00     0.028 H 
ATOM     96  H   UNL A   1      33.811  29.755  25.428  1.00  0.00     0.028 H 
BRANCH  94  97
ATOM     97  C   UNL A   1      33.975  27.915  26.420  1.00  0.00     0.018 C 
ATOM     98  H   UNL A   1      34.748  27.638  27.105  1.00  0.00     0.049 H 
ATOM     99  H   UNL A   1      34.227  27.622  25.422  1.00  0.00     0.049 H 
BRANCH  97 100
ATOM    100  N   UNL A   1      32.747  27.237  26.797  1.00  0.00    -0.352 N 
ATOM    101  C   UNL A   1      31.882  26.535  25.999  1.00  0.00     0.255 C 
ATOM    102  H   UNL A   1      32.504  27.290  27.749  1.00  0.00     0.163 HD
ATOM    103  O   UNL A   1      30.746  26.282  26.389  1.00  0.00    -0.269 OA
BRANCH 101 104
ATOM    104  C   UNL A   1      32.309  26.094  24.659  1.00  0.00     0.082 A 
ATOM    105  C   UNL A   1      32.887  24.829  24.493  1.00  0.00    -0.044 A 
ATOM    106  C   UNL A   1      32.086  26.907  23.543  1.00  0.00     0.143 A 
ATOM    107  C   UNL A   1      33.314  24.435  23.232  1.00  0.00    -0.043 A 
ATOM    108  H   UNL A   1      32.995  24.195  25.300  1.00  0.00     0.063 H 
ATOM    109  N   UNL A   1      32.517  26.515  22.316  1.00  0.00    -0.238 NA
ATOM    110  C   UNL A   1      33.117  25.312  22.185  1.00  0.00     0.029 A 
ATOM    111  H   UNL A   1      33.764  23.518  23.083  1.00  0.00     0.064 H 
ATOM    112  H   UNL A   1      33.448  25.033  21.247  1.00  0.00     0.084 H 
BRANCH 106 113
ATOM    113  N   UNL A   1      31.512  28.189  23.679  1.00  0.00    -0.340 N 
ATOM    114  H   UNL A   1      32.123  28.927  23.908  1.00  0.00     0.168 HD
BRANCH 113 115
ATOM    115  C   UNL A   1      30.153  28.515  23.523  1.00  0.00     0.040 A 
ATOM    116  C   UNL A   1      29.204  27.497  23.410  1.00  0.00    -0.039 A 
ATOM    117  C   UNL A   1      29.738  29.844  23.376  1.00  0.00    -0.026 A 
ATOM    118  C   UNL A   1      27.854  27.803  23.231  1.00  0.00    -0.060 A 
ATOM    119  H   UNL A   1      29.503  26.511  23.457  1.00  0.00     0.064 H 
ATOM    120  C   UNL A   1      28.389  30.170  23.177  1.00  0.00     0.058 A 
ATOM    121  H   UNL A   1      30.440  30.600  23.413  1.00  0.00     0.065 H 
ATOM    122  C   UNL A   1      27.447  29.133  23.121  1.00  0.00    -0.050 A 
ATOM    123  H   UNL A   1      27.155  27.045  23.181  1.00  0.00     0.062 H 
ATOM    124  H   UNL A   1      26.447  29.356  22.997  1.00  0.00     0.063 H 
BRANCH 120 125
ATOM    125  C   UNL A   1      27.958  31.604  23.031  1.00  0.00     0.416 C 
ATOM    126  F   UNL A   1      27.519  31.890  21.773  1.00  0.00    -0.166 F 
ATOM    127  F   UNL A   1      26.928  31.928  23.863  1.00  0.00    -0.166 F 
ATOM    128  F   UNL A   1      28.944  32.509  23.290  1.00  0.00    -0.166 F 
ENDBRANCH 120 125
ENDBRANCH 113 115
ENDBRANCH 106 113
ENDBRANCH 101 104
ENDBRANCH  97 100
ENDBRANCH  94  97
ENDBRANCH   1  94
TORSDOF 16
ENDMDL
MODEL 3
REMARK VINA RESULT:     -12.4      5.895     11.022
REMARK SMILES O=C(NCCCCCCNC(=O)c1cccnc1Nc1cccc(C(F)(F)F)c1)c1ccc(-c2c3nc(c(-c4c(F)c(F)c(F)c(F)c4F)c4ccc([nH]4)c(-c4c(F)c(F)c(F)c(F)c4F)c4nc(c(-c5c(F)c(F)c(F)c(F)c5F)c5ccc2[nH]5)C=C4)C=C3)cc1
REMARK SMILES IDX 7 1 6 4 5 7 4 10 3 13 1 14 2 15 30 17 31 18 92 19 32 20
REMARK SMILES IDX 91 22 33 24 34 27 35 28 85 29 36 30 90 31 84 32 86 33 37 34
REMARK SMILES IDX 89 35 83 37 82 39 38 41 70 44 50 45 69 46 51 47 54 48 68 49
REMARK SMILES IDX 87 50 52 51 53 53 67 55 88 56 55 59 39 61 40 62 48 63 41 64
REMARK SMILES IDX 42 65 46 66 49 67 43 68 44 69 47 70 45 71 71 72 72 73 80 74
REMARK SMILES IDX 73 75 74 76 78 77 81 78 75 79 76 80 79 81 77 82 56 83 57 84
REMARK SMILES IDX 65 85 58 86 59 87 63 88 66 89 60 90 61 91 64 92 62 93 8 94
REMARK SMILES IDX 9 97 10 100 11 101 12 103 13 104 14 105 18 106 15 107 17 109
REMARK SMILES IDX 16 110 19 113 20 115 21 116 29 117 22 118 24 120 23 122
REMARK SMILES IDX 25 125 26 126 27 127 28 128
REMARK H PARENT 7 2 7 3 6 5 6 6 5 8 5 9 4 11 4 12 3 16 31 21 92 23 32 25 91 26
REMARK H PARENT 90 36 84 38 86 40 89 42 83 43 51 52 54 54 87 57 52 58 88 60
REMARK H PARENT 8 95 8 96 9 98 9 99 10 102 14 108 15 111 16 112 19 114 21 119
REMARK H PARENT 29 121 22 123 23 124
REMARK Flexibility Score: inf
ROOT
ATOM      1  C   UNL A   1      36.851  22.221  24.262  1.00  0.00    -0.052 C 
ATOM      2  H   UNL A   1      36.002  22.371  23.628  1.00  0.00     0.027 H 
ATOM      3  H   UNL A   1      37.776  22.151  23.731  1.00  0.00     0.027 H 
ENDROOT
BRANCH   1   4
ATOM      4  C   UNL A   1      36.673  20.881  24.984  1.00  0.00    -0.052 C 
ATOM      5  H   UNL A   1      36.489  21.083  26.018  1.00  0.00     0.027 H 
ATOM      6  H   UNL A   1      35.861  20.384  24.497  1.00  0.00     0.027 H 
BRANCH   4   7
ATOM      7  C   UNL A   1      37.869  19.935  24.893  1.00  0.00    -0.036 C 
ATOM      8  H   UNL A   1      37.553  18.963  25.210  1.00  0.00     0.028 H 
ATOM      9  H   UNL A   1      38.198  19.954  23.874  1.00  0.00     0.028 H 
BRANCH   7  10
ATOM     10  C   UNL A   1      39.062  20.349  25.741  1.00  0.00     0.018 C 
ATOM     11  H   UNL A   1      39.511  21.216  25.304  1.00  0.00     0.049 H 
ATOM     12  H   UNL A   1      38.708  20.550  26.731  1.00  0.00     0.049 H 
BRANCH  10  13
ATOM     13  N   UNL A   1      40.062  19.298  25.831  1.00  0.00    -0.352 N 
ATOM     14  O   UNL A   1      42.157  18.457  25.932  1.00  0.00    -0.269 OA
ATOM     15  C   UNL A   1      41.406  19.419  26.072  1.00  0.00     0.251 C 
ATOM     16  H   UNL A   1      39.731  18.380  25.702  1.00  0.00     0.163 HD
BRANCH  15  17
ATOM     17  C   UNL A   1      41.949  20.725  26.497  1.00  0.00     0.039 A 
ATOM     18  C   UNL A   1      42.337  21.668  25.541  1.00  0.00    -0.049 A 
ATOM     19  C   UNL A   1      42.053  21.015  27.860  1.00  0.00    -0.049 A 
ATOM     20  C   UNL A   1      42.927  22.858  25.946  1.00  0.00    -0.053 A 
ATOM     21  H   UNL A   1      42.186  21.480  24.538  1.00  0.00     0.063 H 
ATOM     22  C   UNL A   1      42.562  22.251  28.266  1.00  0.00    -0.053 A 
ATOM     23  H   UNL A   1      41.756  20.320  28.563  1.00  0.00     0.063 H 
ATOM     24  C   UNL A   1      43.004  23.180  27.310  1.00  0.00    -0.014 A 
ATOM     25  H   UNL A   1      43.310  23.508  25.241  1.00  0.00     0.063 H 
ATOM     26  H   UNL A   1      42.614  22.481  29.270  1.00  0.00     0.063 H 
BRANCH  24  27
ATOM     27  C   UNL A   1      43.402  24.553  27.704  1.00  0.00     0.031 A 
ATOM     28  C   UNL A   1      42.385  25.601  28.041  1.00  0.00     0.074 A 
ATOM     29  C   UNL A   1      44.719  24.836  27.738  1.00  0.00     0.049 A 
ATOM     30  N   UNL A   1      42.578  26.854  28.368  1.00  0.00    -0.248 NA
ATOM     31  C   UNL A   1      40.969  25.204  28.001  1.00  0.00    -0.034 C 
ATOM     32  C   UNL A   1      45.791  23.890  27.407  1.00  0.00    -0.036 A 
ATOM     33  N   UNL A   1      45.387  25.990  28.059  1.00  0.00    -0.354 N 
ATOM     34  C   UNL A   1      41.315  27.400  28.553  1.00  0.00     0.074 A 
ATOM     35  C   UNL A   1      40.358  26.346  28.292  1.00  0.00    -0.034 C 
ATOM     36  H   UNL A   1      40.558  24.278  27.799  1.00  0.00     0.065 H 
ATOM     37  C   UNL A   1      46.977  24.492  27.565  1.00  0.00    -0.036 A 
ATOM     38  H   UNL A   1      45.652  22.915  27.100  1.00  0.00     0.065 H 
ATOM     39  C   UNL A   1      46.750  25.884  27.932  1.00  0.00     0.049 A 
ATOM     40  H   UNL A   1      44.933  26.812  28.353  1.00  0.00     0.167 HD
ATOM     41  C   UNL A   1      40.997  28.667  28.910  1.00  0.00     0.037 A 
ATOM     42  H   UNL A   1      39.333  26.467  28.327  1.00  0.00     0.065 H 
ATOM     43  H   UNL A   1      47.899  24.043  27.447  1.00  0.00     0.065 H 
ATOM     44  C   UNL A   1      47.713  26.814  28.052  1.00  0.00     0.037 A 
ATOM     45  C   UNL A   1      41.967  29.698  29.186  1.00  0.00     0.049 A 
ATOM     46  C   UNL A   1      47.317  28.219  28.408  1.00  0.00     0.074 A 
ATOM     47  C   UNL A   1      41.744  30.990  29.633  1.00  0.00    -0.036 A 
ATOM     48  N   UNL A   1      43.337  29.563  29.023  1.00  0.00    -0.354 N 
ATOM     49  N   UNL A   1      46.125  28.701  28.660  1.00  0.00    -0.248 NA
ATOM     50  C   UNL A   1      48.397  29.211  28.487  1.00  0.00    -0.034 C 
ATOM     51  C   UNL A   1      42.972  31.657  29.671  1.00  0.00    -0.036 A 
ATOM     52  H   UNL A   1      40.829  31.391  29.892  1.00  0.00     0.065 H 
ATOM     53  C   UNL A   1      43.967  30.764  29.311  1.00  0.00     0.049 A 
ATOM     54  H   UNL A   1      43.796  28.737  28.745  1.00  0.00     0.167 HD
ATOM     55  C   UNL A   1      46.311  30.047  28.938  1.00  0.00     0.074 A 
ATOM     56  C   UNL A   1      47.735  30.296  28.859  1.00  0.00    -0.034 C 
ATOM     57  H   UNL A   1      49.405  29.093  28.303  1.00  0.00     0.065 H 
ATOM     58  H   UNL A   1      43.112  32.647  29.927  1.00  0.00     0.065 H 
ATOM     59  C   UNL A   1      45.386  30.995  29.221  1.00  0.00     0.037 A 
ATOM     60  H   UNL A   1      48.179  31.204  29.065  1.00  0.00     0.065 H 
BRANCH  41  61
ATOM     61  C   UNL A   1      39.547  29.041  29.010  1.00  0.00     0.064 A 
ATOM     62  C   UNL A   1      38.796  29.397  27.881  1.00  0.00     0.173 A 
ATOM     63  C   UNL A   1      38.875  28.927  30.237  1.00  0.00     0.173 A 
ATOM     64  F   UNL A   1      39.390  29.525  26.686  1.00  0.00    -0.203 F 
ATOM     65  C   UNL A   1      37.424  29.627  27.978  1.00  0.00     0.198 A 
ATOM     66  C   UNL A   1      37.501  29.133  30.327  1.00  0.00     0.198 A 
ATOM     67  F   UNL A   1      39.547  28.582  31.346  1.00  0.00    -0.203 F 
ATOM     68  F   UNL A   1      36.728  29.983  26.890  1.00  0.00    -0.200 F 
ATOM     69  C   UNL A   1      36.777  29.484  29.197  1.00  0.00     0.200 A 
ATOM     70  F   UNL A   1      36.875  28.978  31.501  1.00  0.00    -0.200 F 
ATOM     71  F   UNL A   1      35.454  29.679  29.282  1.00  0.00    -0.200 F 
ENDBRANCH  41  61
BRANCH  44  72
ATOM     72  C   UNL A   1      49.132  26.463  27.780  1.00  0.00     0.064 A 
ATOM     73  C   UNL A   1      50.042  26.249  28.824  1.00  0.00     0.173 A 
ATOM     74  C   UNL A   1      49.614  26.361  26.465  1.00  0.00     0.173 A 
ATOM     75  F   UNL A   1      49.634  26.352  30.098  1.00  0.00    -0.203 F 
ATOM     76  C   UNL A   1      51.384  25.985  28.565  1.00  0.00     0.198 A 
ATOM     77  C   UNL A   1      50.948  26.056  26.207  1.00  0.00     0.198 A 
ATOM     78  F   UNL A   1      48.785  26.548  25.428  1.00  0.00    -0.203 F 
ATOM     79  F   UNL A   1      52.246  25.852  29.582  1.00  0.00    -0.200 F 
ATOM     80  C   UNL A   1      51.836  25.883  27.257  1.00  0.00     0.200 A 
ATOM     81  F   UNL A   1      51.373  25.939  24.943  1.00  0.00    -0.200 F 
ATOM     82  F   UNL A   1      53.128  25.631  27.009  1.00  0.00    -0.200 F 
ENDBRANCH  44  72
BRANCH  59  83
ATOM     83  C   UNL A   1      45.890  32.385  29.474  1.00  0.00     0.064 A 
ATOM     84  C   UNL A   1      45.982  33.329  28.440  1.00  0.00     0.173 A 
ATOM     85  C   UNL A   1      46.254  32.789  30.767  1.00  0.00     0.173 A 
ATOM     86  F   UNL A   1      45.665  32.985  27.182  1.00  0.00    -0.203 F 
ATOM     87  C   UNL A   1      46.442  34.619  28.687  1.00  0.00     0.198 A 
ATOM     88  C   UNL A   1      46.680  34.090  31.017  1.00  0.00     0.198 A 
ATOM     89  F   UNL A   1      46.180  31.926  31.791  1.00  0.00    -0.203 F 
ATOM     90  F   UNL A   1      46.571  35.487  27.675  1.00  0.00    -0.200 F 
ATOM     91  C   UNL A   1      46.781  35.001  29.977  1.00  0.00     0.200 A 
ATOM     92  F   UNL A   1      46.994  34.462  32.266  1.00  0.00    -0.200 F 
ATOM     93  F   UNL A   1      47.214  36.246  30.215  1.00  0.00    -0.200 F 
ENDBRANCH  59  83
ENDBRANCH  24  27
ENDBRANCH  15  17
ENDBRANCH  10  13
ENDBRANCH   7  10
ENDBRANCH   4   7
ENDBRANCH   1   4
BRANCH   1  94
ATOM     94  C   UNL A   1      36.980  23.444  25.178  1.00  0.00    -0.036 C 
ATOM     95  H   UNL A   1      37.695  24.111  24.744  1.00  0.00     0.028 H 
ATOM     96  H   UNL A   1      37.278  23.074  26.137  1.00  0.00     0.028 H 
BRANCH  94  97
ATOM     97  C   UNL A   1      35.682  24.215  25.398  1.00  0.00     0.018 C 
ATOM     98  H   UNL A   1      35.908  25.156  25.854  1.00  0.00     0.049 H 
ATOM     99  H   UNL A   1      35.045  23.630  26.028  1.00  0.00     0.049 H 
BRANCH  97 100
ATOM    100  N   UNL A   1      34.988  24.454  24.144  1.00  0.00    -0.352 N 
ATOM    101  C   UNL A   1      33.787  25.083  23.942  1.00  0.00     0.255 C 
ATOM    102  H   UNL A   1      35.439  24.121  23.336  1.00  0.00     0.163 HD
ATOM    103  O   UNL A   1      33.187  24.943  22.880  1.00  0.00    -0.269 OA
BRANCH 101 104
ATOM    104  C   UNL A   1      33.203  25.918  25.006  1.00  0.00     0.082 A 
ATOM    105  C   UNL A   1      33.708  27.204  25.240  1.00  0.00    -0.044 A 
ATOM    106  C   UNL A   1      32.110  25.457  25.746  1.00  0.00     0.143 A 
ATOM    107  C   UNL A   1      33.172  27.970  26.266  1.00  0.00    -0.043 A 
ATOM    108  H   UNL A   1      34.471  27.578  24.655  1.00  0.00     0.063 H 
ATOM    109  N   UNL A   1      31.600  26.211  26.754  1.00  0.00    -0.238 NA
ATOM    110  C   UNL A   1      32.133  27.429  26.996  1.00  0.00     0.029 A 
ATOM    111  H   UNL A   1      33.538  28.912  26.476  1.00  0.00     0.064 H 
ATOM    112  H   UNL A   1      31.741  27.986  27.772  1.00  0.00     0.084 H 
BRANCH 106 113
ATOM    113  N   UNL A   1      31.584  24.163  25.539  1.00  0.00    -0.340 N 
ATOM    114  H   UNL A   1      30.695  24.107  25.119  1.00  0.00     0.168 HD
BRANCH 113 115
ATOM    115  C   UNL A   1      32.204  22.947  25.875  1.00  0.00     0.040 A 
ATOM    116  C   UNL A   1      32.911  22.837  27.075  1.00  0.00    -0.039 A 
ATOM    117  C   UNL A   1      32.216  21.867  24.984  1.00  0.00    -0.026 A 
ATOM    118  C   UNL A   1      33.552  21.644  27.414  1.00  0.00    -0.060 A 
ATOM    119  H   UNL A   1      32.961  23.644  27.716  1.00  0.00     0.064 H 
ATOM    120  C   UNL A   1      32.870  20.668  25.299  1.00  0.00     0.058 A 
ATOM    121  H   UNL A   1      31.734  21.957  24.076  1.00  0.00     0.065 H 
ATOM    122  C   UNL A   1      33.527  20.562  26.533  1.00  0.00    -0.050 A 
ATOM    123  H   UNL A   1      34.044  21.562  28.317  1.00  0.00     0.062 H 
ATOM    124  H   UNL A   1      33.996  19.679  26.790  1.00  0.00     0.063 H 
BRANCH 120 125
ATOM    125  C   UNL A   1      32.864  19.513  24.334  1.00  0.00     0.416 C 
ATOM    126  F   UNL A   1      32.033  18.508  24.731  1.00  0.00    -0.166 F 
ATOM    127  F   UNL A   1      32.440  19.873  23.090  1.00  0.00    -0.166 F 
ATOM    128  F   UNL A   1      34.084  18.931  24.157  1.00  0.00    -0.166 F 
ENDBRANCH 120 125
ENDBRANCH 113 115
ENDBRANCH 106 113
ENDBRANCH 101 104
ENDBRANCH  97 100
ENDBRANCH  94  97
ENDBRANCH   1  94
TORSDOF 16
ENDMDL
MODEL 4
REMARK VINA RESULT:     -12.4      0.783      1.578
REMARK SMILES O=C(NCCCCCCNC(=O)c1cccnc1Nc1cccc(C(F)(F)F)c1)c1ccc(-c2c3nc(c(-c4c(F)c(F)c(F)c(F)c4F)c4ccc([nH]4)c(-c4c(F)c(F)c(F)c(F)c4F)c4nc(c(-c5c(F)c(F)c(F)c(F)c5F)c5ccc2[nH]5)C=C4)C=C3)cc1
REMARK SMILES IDX 7 1 6 4 5 7 4 10 3 13 1 14 2 15 30 17 31 18 92 19 32 20
REMARK SMILES IDX 91 22 33 24 34 27 35 28 85 29 36 30 90 31 84 32 86 33 37 34
REMARK SMILES IDX 89 35 83 37 82 39 38 41 70 44 50 45 69 46 51 47 54 48 68 49
REMARK SMILES IDX 87 50 52 51 53 53 67 55 88 56 55 59 39 61 40 62 48 63 41 64
REMARK SMILES IDX 42 65 46 66 49 67 43 68 44 69 47 70 45 71 71 72 72 73 80 74
REMARK SMILES IDX 73 75 74 76 78 77 81 78 75 79 76 80 79 81 77 82 56 83 57 84
REMARK SMILES IDX 65 85 58 86 59 87 63 88 66 89 60 90 61 91 64 92 62 93 8 94
REMARK SMILES IDX 9 97 10 100 11 101 12 103 13 104 14 105 18 106 15 107 17 109
REMARK SMILES IDX 16 110 19 113 20 115 21 116 29 117 22 118 24 120 23 122
REMARK SMILES IDX 25 125 26 126 27 127 28 128
REMARK H PARENT 7 2 7 3 6 5 6 6 5 8 5 9 4 11 4 12 3 16 31 21 92 23 32 25 91 26
REMARK H PARENT 90 36 84 38 86 40 89 42 83 43 51 52 54 54 87 57 52 58 88 60
REMARK H PARENT 8 95 8 96 9 98 9 99 10 102 14 108 15 111 16 112 19 114 21 119
REMARK H PARENT 29 121 22 123 23 124
REMARK Flexibility Score: inf
ROOT
ATOM      1  C   UNL A   1      32.834  29.904  26.544  1.00  0.00    -0.052 C 
ATOM      2  H   UNL A   1      33.489  30.592  27.038  1.00  0.00     0.027 H 
ATOM      3  H   UNL A   1      33.145  29.653  25.552  1.00  0.00     0.027 H 
ENDROOT
BRANCH   1   4
ATOM      4  C   UNL A   1      31.463  30.572  26.403  1.00  0.00    -0.052 C 
ATOM      5  H   UNL A   1      31.046  30.278  25.463  1.00  0.00     0.027 H 
ATOM      6  H   UNL A   1      30.885  30.251  27.244  1.00  0.00     0.027 H 
BRANCH   4   7
ATOM      7  C   UNL A   1      31.480  32.099  26.455  1.00  0.00    -0.036 C 
ATOM      8  H   UNL A   1      31.587  32.468  25.456  1.00  0.00     0.028 H 
ATOM      9  H   UNL A   1      30.561  32.400  26.913  1.00  0.00     0.028 H 
BRANCH   7  10
ATOM     10  C   UNL A   1      32.600  32.685  27.301  1.00  0.00     0.018 C 
ATOM     11  H   UNL A   1      32.661  32.136  28.218  1.00  0.00     0.049 H 
ATOM     12  H   UNL A   1      33.509  32.612  26.741  1.00  0.00     0.049 H 
BRANCH  10  13
ATOM     13  N   UNL A   1      32.378  34.088  27.610  1.00  0.00    -0.352 N 
ATOM     14  O   UNL A   1      32.563  35.978  28.834  1.00  0.00    -0.269 OA
ATOM     15  C   UNL A   1      32.989  34.858  28.565  1.00  0.00     0.251 C 
ATOM     16  H   UNL A   1      31.701  34.545  27.060  1.00  0.00     0.163 HD
BRANCH  15  17
ATOM     17  C   UNL A   1      34.165  34.322  29.280  1.00  0.00     0.039 A 
ATOM     18  C   UNL A   1      33.995  33.551  30.433  1.00  0.00    -0.049 A 
ATOM     19  C   UNL A   1      35.445  34.580  28.783  1.00  0.00    -0.049 A 
ATOM     20  C   UNL A   1      35.106  33.124  31.148  1.00  0.00    -0.053 A 
ATOM     21  H   UNL A   1      33.047  33.298  30.751  1.00  0.00     0.063 H 
ATOM     22  C   UNL A   1      36.561  34.072  29.454  1.00  0.00    -0.053 A 
ATOM     23  H   UNL A   1      35.567  35.142  27.926  1.00  0.00     0.063 H 
ATOM     24  C   UNL A   1      36.397  33.342  30.642  1.00  0.00    -0.014 A 
ATOM     25  H   UNL A   1      34.982  32.646  32.055  1.00  0.00     0.063 H 
ATOM     26  H   UNL A   1      37.507  34.235  29.076  1.00  0.00     0.063 H 
BRANCH  24  27
ATOM     27  C   UNL A   1      37.546  32.662  31.288  1.00  0.00     0.031 A 
ATOM     28  C   UNL A   1      38.249  31.512  30.633  1.00  0.00     0.074 A 
ATOM     29  C   UNL A   1      37.935  33.108  32.499  1.00  0.00     0.049 A 
ATOM     30  N   UNL A   1      39.246  30.795  31.089  1.00  0.00    -0.248 NA
ATOM     31  C   UNL A   1      37.777  31.103  29.302  1.00  0.00    -0.034 C 
ATOM     32  C   UNL A   1      37.303  34.210  33.232  1.00  0.00    -0.036 A 
ATOM     33  N   UNL A   1      38.945  32.696  33.331  1.00  0.00    -0.354 N 
ATOM     34  C   UNL A   1      39.507  29.840  30.115  1.00  0.00     0.074 A 
ATOM     35  C   UNL A   1      38.557  30.059  29.045  1.00  0.00    -0.034 C 
ATOM     36  H   UNL A   1      37.032  31.518  28.719  1.00  0.00     0.065 H 
ATOM     37  C   UNL A   1      37.951  34.402  34.388  1.00  0.00    -0.036 A 
ATOM     38  H   UNL A   1      36.487  34.751  32.907  1.00  0.00     0.065 H 
ATOM     39  C   UNL A   1      38.993  33.390  34.515  1.00  0.00     0.049 A 
ATOM     40  H   UNL A   1      39.573  31.974  33.101  1.00  0.00     0.167 HD
ATOM     41  C   UNL A   1      40.456  28.875  30.125  1.00  0.00     0.037 A 
ATOM     42  H   UNL A   1      38.495  29.480  28.192  1.00  0.00     0.065 H 
ATOM     43  H   UNL A   1      37.747  35.144  35.076  1.00  0.00     0.065 H 
ATOM     44  C   UNL A   1      39.758  33.207  35.605  1.00  0.00     0.037 A 
ATOM     45  C   UNL A   1      41.406  28.684  31.194  1.00  0.00     0.049 A 
ATOM     46  C   UNL A   1      40.772  32.098  35.594  1.00  0.00     0.074 A 
ATOM     47  C   UNL A   1      42.457  27.785  31.258  1.00  0.00    -0.036 A 
ATOM     48  N   UNL A   1      41.409  29.389  32.388  1.00  0.00    -0.354 N 
ATOM     49  N   UNL A   1      41.063  31.255  34.633  1.00  0.00    -0.248 NA
ATOM     50  C   UNL A   1      41.557  31.908  36.820  1.00  0.00    -0.034 C 
ATOM     51  C   UNL A   1      43.051  27.897  32.519  1.00  0.00    -0.036 A 
ATOM     52  H   UNL A   1      42.751  27.143  30.506  1.00  0.00     0.065 H 
ATOM     53  C   UNL A   1      42.412  28.909  33.216  1.00  0.00     0.049 A 
ATOM     54  H   UNL A   1      40.792  30.122  32.614  1.00  0.00     0.167 HD
ATOM     55  C   UNL A   1      42.069  30.443  35.134  1.00  0.00     0.074 A 
ATOM     56  C   UNL A   1      42.364  30.918  36.469  1.00  0.00    -0.034 C 
ATOM     57  H   UNL A   1      41.496  32.413  37.718  1.00  0.00     0.065 H 
ATOM     58  H   UNL A   1      43.834  27.322  32.870  1.00  0.00     0.065 H 
ATOM     59  C   UNL A   1      42.686  29.390  34.545  1.00  0.00     0.037 A 
ATOM     60  H   UNL A   1      43.108  30.534  37.072  1.00  0.00     0.065 H 
BRANCH  41  61
ATOM     61  C   UNL A   1      40.522  27.922  28.968  1.00  0.00     0.064 A 
ATOM     62  C   UNL A   1      39.755  26.749  28.929  1.00  0.00     0.173 A 
ATOM     63  C   UNL A   1      41.277  28.251  27.830  1.00  0.00     0.173 A 
ATOM     64  F   UNL A   1      39.021  26.387  29.991  1.00  0.00    -0.203 F 
ATOM     65  C   UNL A   1      39.743  25.939  27.795  1.00  0.00     0.198 A 
ATOM     66  C   UNL A   1      41.244  27.453  26.689  1.00  0.00     0.198 A 
ATOM     67  F   UNL A   1      42.022  29.366  27.813  1.00  0.00    -0.203 F 
ATOM     68  F   UNL A   1      39.016  24.814  27.786  1.00  0.00    -0.200 F 
ATOM     69  C   UNL A   1      40.477  26.298  26.673  1.00  0.00     0.200 A 
ATOM     70  F   UNL A   1      41.940  27.809  25.602  1.00  0.00    -0.200 F 
ATOM     71  F   UNL A   1      40.442  25.531  25.575  1.00  0.00    -0.200 F 
ENDBRANCH  41  61
BRANCH  44  72
ATOM     72  C   UNL A   1      39.560  34.053  36.811  1.00  0.00     0.064 A 
ATOM     73  C   UNL A   1      40.179  35.303  36.932  1.00  0.00     0.173 A 
ATOM     74  C   UNL A   1      38.765  33.613  37.881  1.00  0.00     0.173 A 
ATOM     75  F   UNL A   1      40.962  35.761  35.944  1.00  0.00    -0.203 F 
ATOM     76  C   UNL A   1      40.043  36.063  38.091  1.00  0.00     0.198 A 
ATOM     77  C   UNL A   1      38.596  34.392  39.023  1.00  0.00     0.198 A 
ATOM     78  F   UNL A   1      38.142  32.427  37.815  1.00  0.00    -0.203 F 
ATOM     79  F   UNL A   1      40.701  37.225  38.209  1.00  0.00    -0.200 F 
ATOM     80  C   UNL A   1      39.248  35.610  39.134  1.00  0.00     0.200 A 
ATOM     81  F   UNL A   1      37.811  33.958  40.017  1.00  0.00    -0.200 F 
ATOM     82  F   UNL A   1      39.119  36.341  40.249  1.00  0.00    -0.200 F 
ENDBRANCH  44  72
BRANCH  59  83
ATOM     83  C   UNL A   1      43.746  28.690  35.343  1.00  0.00     0.064 A 
ATOM     84  C   UNL A   1      43.436  27.611  36.185  1.00  0.00     0.173 A 
ATOM     85  C   UNL A   1      45.091  29.077  35.239  1.00  0.00     0.173 A 
ATOM     86  F   UNL A   1      42.161  27.217  36.333  1.00  0.00    -0.203 F 
ATOM     87  C   UNL A   1      44.428  26.962  36.913  1.00  0.00     0.198 A 
ATOM     88  C   UNL A   1      46.086  28.403  35.942  1.00  0.00     0.198 A 
ATOM     89  F   UNL A   1      45.442  30.099  34.445  1.00  0.00    -0.203 F 
ATOM     90  F   UNL A   1      44.101  25.969  37.750  1.00  0.00    -0.200 F 
ATOM     91  C   UNL A   1      45.753  27.352  36.783  1.00  0.00     0.200 A 
ATOM     92  F   UNL A   1      47.367  28.771  35.805  1.00  0.00    -0.200 F 
ATOM     93  F   UNL A   1      46.709  26.719  37.477  1.00  0.00    -0.200 F 
ENDBRANCH  59  83
ENDBRANCH  24  27
ENDBRANCH  15  17
ENDBRANCH  10  13
ENDBRANCH   7  10
ENDBRANCH   4   7
ENDBRANCH   1   4
BRANCH   1  94
ATOM     94  C   UNL A   1      32.842  28.591  27.336  1.00  0.00    -0.036 C 
ATOM     95  H   UNL A   1      32.022  28.611  28.023  1.00  0.00     0.028 H 
ATOM     96  H   UNL A   1      33.794  28.535  27.820  1.00  0.00     0.028 H 
BRANCH  94  97
ATOM     97  C   UNL A   1      32.717  27.332  26.482  1.00  0.00     0.018 C 
ATOM     98  H   UNL A   1      33.625  26.772  26.552  1.00  0.00     0.049 H 
ATOM     99  H   UNL A   1      32.529  27.628  25.471  1.00  0.00     0.049 H 
BRANCH  97 100
ATOM    100  N   UNL A   1      31.614  26.498  26.926  1.00  0.00    -0.352 N 
ATOM    101  C   UNL A   1      31.094  25.383  26.323  1.00  0.00     0.255 C 
ATOM    102  H   UNL A   1      31.185  26.769  27.769  1.00  0.00     0.163 HD
ATOM    103  O   UNL A   1      29.984  24.966  26.645  1.00  0.00    -0.269 OA
BRANCH 101 104
ATOM    104  C   UNL A   1      31.857  24.689  25.271  1.00  0.00     0.082 A 
ATOM    105  C   UNL A   1      32.985  23.930  25.614  1.00  0.00    -0.044 A 
ATOM    106  C   UNL A   1      31.431  24.734  23.940  1.00  0.00     0.143 A 
ATOM    107  C   UNL A   1      33.716  23.306  24.613  1.00  0.00    -0.043 A 
ATOM    108  H   UNL A   1      33.270  23.837  26.602  1.00  0.00     0.063 H 
ATOM    109  N   UNL A   1      32.160  24.127  22.968  1.00  0.00    -0.238 NA
ATOM    110  C   UNL A   1      33.271  23.442  23.314  1.00  0.00     0.029 A 
ATOM    111  H   UNL A   1      34.564  22.760  24.833  1.00  0.00     0.064 H 
ATOM    112  H   UNL A   1      33.821  22.994  22.562  1.00  0.00     0.084 H 
BRANCH 106 113
ATOM    113  N   UNL A   1      30.302  25.495  23.563  1.00  0.00    -0.340 N 
ATOM    114  H   UNL A   1      29.449  25.011  23.479  1.00  0.00     0.168 HD
BRANCH 113 115
ATOM    115  C   UNL A   1      30.280  26.874  23.294  1.00  0.00     0.040 A 
ATOM    116  C   UNL A   1      31.480  27.568  23.125  1.00  0.00    -0.039 A 
ATOM    117  C   UNL A   1      29.079  27.594  23.293  1.00  0.00    -0.026 A 
ATOM    118  C   UNL A   1      31.476  28.943  22.880  1.00  0.00    -0.060 A 
ATOM    119  H   UNL A   1      32.377  27.061  23.182  1.00  0.00     0.064 H 
ATOM    120  C   UNL A   1      29.057  28.977  23.067  1.00  0.00     0.058 A 
ATOM    121  H   UNL A   1      28.191  27.095  23.462  1.00  0.00     0.065 H 
ATOM    122  C   UNL A   1      30.270  29.643  22.846  1.00  0.00    -0.050 A 
ATOM    123  H   UNL A   1      32.367  29.441  22.724  1.00  0.00     0.062 H 
ATOM    124  H   UNL A   1      30.271  30.658  22.657  1.00  0.00     0.063 H 
BRANCH 120 125
ATOM    125  C   UNL A   1      27.756  29.734  23.058  1.00  0.00     0.416 C 
ATOM    126  F   UNL A   1      27.801  30.856  23.830  1.00  0.00    -0.166 F 
ATOM    127  F   UNL A   1      27.406  30.158  21.811  1.00  0.00    -0.166 F 
ATOM    128  F   UNL A   1      26.693  29.015  23.518  1.00  0.00    -0.166 F 
ENDBRANCH 120 125
ENDBRANCH 113 115
ENDBRANCH 106 113
ENDBRANCH 101 104
ENDBRANCH  97 100
ENDBRANCH  94  97
ENDBRANCH   1  94
TORSDOF 16
ENDMDL
MODEL 5
REMARK VINA RESULT:     -12.4      1.130      7.403
REMARK SMILES O=C(NCCCCCCNC(=O)c1cccnc1Nc1cccc(C(F)(F)F)c1)c1ccc(-c2c3nc(c(-c4c(F)c(F)c(F)c(F)c4F)c4ccc([nH]4)c(-c4c(F)c(F)c(F)c(F)c4F)c4nc(c(-c5c(F)c(F)c(F)c(F)c5F)c5ccc2[nH]5)C=C4)C=C3)cc1
REMARK SMILES IDX 7 1 6 4 5 7 4 10 3 13 1 14 2 15 30 17 31 18 92 19 32 20
REMARK SMILES IDX 91 22 33 24 34 27 35 28 85 29 36 30 90 31 84 32 86 33 37 34
REMARK SMILES IDX 89 35 83 37 82 39 38 41 70 44 50 45 69 46 51 47 54 48 68 49
REMARK SMILES IDX 87 50 52 51 53 53 67 55 88 56 55 59 39 61 40 62 48 63 41 64
REMARK SMILES IDX 42 65 46 66 49 67 43 68 44 69 47 70 45 71 71 72 72 73 80 74
REMARK SMILES IDX 73 75 74 76 78 77 81 78 75 79 76 80 79 81 77 82 56 83 57 84
REMARK SMILES IDX 65 85 58 86 59 87 63 88 66 89 60 90 61 91 64 92 62 93 8 94
REMARK SMILES IDX 9 97 10 100 11 101 12 103 13 104 14 105 18 106 15 107 17 109
REMARK SMILES IDX 16 110 19 113 20 115 21 116 29 117 22 118 24 120 23 122
REMARK SMILES IDX 25 125 26 126 27 127 28 128
REMARK H PARENT 7 2 7 3 6 5 6 6 5 8 5 9 4 11 4 12 3 16 31 21 92 23 32 25 91 26
REMARK H PARENT 90 36 84 38 86 40 89 42 83 43 51 52 54 54 87 57 52 58 88 60
REMARK H PARENT 8 95 8 96 9 98 9 99 10 102 14 108 15 111 16 112 19 114 21 119
REMARK H PARENT 29 121 22 123 23 124
REMARK Flexibility Score: inf
ROOT
ATOM      1  C   UNL A   1      31.825  29.206  26.498  1.00  0.00    -0.052 C 
ATOM      2  H   UNL A   1      30.920  28.635  26.494  1.00  0.00     0.027 H 
ATOM      3  H   UNL A   1      32.147  29.493  27.476  1.00  0.00     0.027 H 
ENDROOT
BRANCH   1   4
ATOM      4  C   UNL A   1      31.565  30.512  25.738  1.00  0.00    -0.052 C 
ATOM      5  H   UNL A   1      32.409  30.703  25.109  1.00  0.00     0.027 H 
ATOM      6  H   UNL A   1      30.655  30.366  25.195  1.00  0.00     0.027 H 
BRANCH   4   7
ATOM      7  C   UNL A   1      31.344  31.739  26.620  1.00  0.00    -0.036 C 
ATOM      8  H   UNL A   1      30.786  32.459  26.060  1.00  0.00     0.028 H 
ATOM      9  H   UNL A   1      30.827  31.399  27.494  1.00  0.00     0.028 H 
BRANCH   7  10
ATOM     10  C   UNL A   1      32.625  32.401  27.105  1.00  0.00     0.018 C 
ATOM     11  H   UNL A   1      32.971  31.886  27.976  1.00  0.00     0.049 H 
ATOM     12  H   UNL A   1      33.342  32.351  26.312  1.00  0.00     0.049 H 
BRANCH  10  13
ATOM     13  N   UNL A   1      32.427  33.802  27.438  1.00  0.00    -0.352 N 
ATOM     14  O   UNL A   1      32.630  35.663  28.703  1.00  0.00    -0.269 OA
ATOM     15  C   UNL A   1      33.037  34.540  28.418  1.00  0.00     0.251 C 
ATOM     16  H   UNL A   1      31.767  34.283  26.887  1.00  0.00     0.163 HD
BRANCH  15  17
ATOM     17  C   UNL A   1      34.192  33.967  29.139  1.00  0.00     0.039 A 
ATOM     18  C   UNL A   1      33.987  33.069  30.191  1.00  0.00    -0.049 A 
ATOM     19  C   UNL A   1      35.487  34.317  28.750  1.00  0.00    -0.049 A 
ATOM     20  C   UNL A   1      35.071  32.602  30.921  1.00  0.00    -0.053 A 
ATOM     21  H   UNL A   1      33.032  32.754  30.423  1.00  0.00     0.063 H 
ATOM     22  C   UNL A   1      36.581  33.774  29.428  1.00  0.00    -0.053 A 
ATOM     23  H   UNL A   1      35.635  34.973  27.967  1.00  0.00     0.063 H 
ATOM     24  C   UNL A   1      36.379  32.914  30.519  1.00  0.00    -0.014 A 
ATOM     25  H   UNL A   1      34.915  32.024  31.762  1.00  0.00     0.063 H 
ATOM     26  H   UNL A   1      37.540  34.007  29.126  1.00  0.00     0.063 H 
BRANCH  24  27
ATOM     27  C   UNL A   1      37.515  32.204  31.155  1.00  0.00     0.031 A 
ATOM     28  C   UNL A   1      38.016  32.581  32.516  1.00  0.00     0.074 A 
ATOM     29  C   UNL A   1      38.098  31.208  30.459  1.00  0.00     0.049 A 
ATOM     30  N   UNL A   1      39.021  32.078  33.188  1.00  0.00    -0.248 NA
ATOM     31  C   UNL A   1      37.311  33.665  33.218  1.00  0.00    -0.034 C 
ATOM     32  C   UNL A   1      37.699  30.776  29.115  1.00  0.00    -0.036 A 
ATOM     33  N   UNL A   1      39.145  30.380  30.773  1.00  0.00    -0.354 N 
ATOM     34  C   UNL A   1      39.083  32.791  34.377  1.00  0.00     0.074 A 
ATOM     35  C   UNL A   1      38.020  33.774  34.335  1.00  0.00    -0.034 C 
ATOM     36  H   UNL A   1      36.480  34.201  32.919  1.00  0.00     0.065 H 
ATOM     37  C   UNL A   1      38.472  29.752  28.732  1.00  0.00    -0.036 A 
ATOM     38  H   UNL A   1      36.941  31.196  28.555  1.00  0.00     0.065 H 
ATOM     39  C   UNL A   1      39.469  29.505  29.765  1.00  0.00     0.049 A 
ATOM     40  H   UNL A   1      39.618  30.410  31.636  1.00  0.00     0.167 HD
ATOM     41  C   UNL A   1      39.951  32.631  35.403  1.00  0.00     0.037 A 
ATOM     42  H   UNL A   1      37.838  34.469  35.076  1.00  0.00     0.065 H 
ATOM     43  H   UNL A   1      38.376  29.224  27.849  1.00  0.00     0.065 H 
ATOM     44  C   UNL A   1      40.485  28.630  29.660  1.00  0.00     0.037 A 
ATOM     45  C   UNL A   1      40.992  31.633  35.436  1.00  0.00     0.049 A 
ATOM     46  C   UNL A   1      41.452  28.511  30.803  1.00  0.00     0.074 A 
ATOM     47  C   UNL A   1      41.869  31.339  36.466  1.00  0.00    -0.036 A 
ATOM     48  N   UNL A   1      41.307  30.781  34.388  1.00  0.00    -0.354 N 
ATOM     49  N   UNL A   1      41.450  29.135  31.956  1.00  0.00    -0.248 NA
ATOM     50  C   UNL A   1      42.570  27.574  30.629  1.00  0.00    -0.034 C 
ATOM     51  C   UNL A   1      42.760  30.361  36.015  1.00  0.00    -0.036 A 
ATOM     52  H   UNL A   1      41.867  31.770  37.404  1.00  0.00     0.065 H 
ATOM     53  C   UNL A   1      42.398  29.998  34.728  1.00  0.00     0.049 A 
ATOM     54  H   UNL A   1      40.826  30.737  33.529  1.00  0.00     0.167 HD
ATOM     55  C   UNL A   1      42.554  28.660  32.647  1.00  0.00     0.074 A 
ATOM     56  C   UNL A   1      43.183  27.669  31.799  1.00  0.00    -0.034 C 
ATOM     57  H   UNL A   1      42.812  26.994  29.810  1.00  0.00     0.065 H 
ATOM     58  H   UNL A   1      43.552  29.974  36.552  1.00  0.00     0.065 H 
ATOM     59  C   UNL A   1      43.014  29.020  33.869  1.00  0.00     0.037 A 
ATOM     60  H   UNL A   1      44.005  27.108  32.071  1.00  0.00     0.065 H 
BRANCH  41  61
ATOM     61  C   UNL A   1      39.849  33.557  36.580  1.00  0.00     0.064 A 
ATOM     62  C   UNL A   1      40.501  34.798  36.604  1.00  0.00     0.173 A 
ATOM     63  C   UNL A   1      38.992  33.245  37.647  1.00  0.00     0.173 A 
ATOM     64  F   UNL A   1      41.334  35.142  35.612  1.00  0.00    -0.203 F 
ATOM     65  C   UNL A   1      40.299  35.692  37.654  1.00  0.00     0.198 A 
ATOM     66  C   UNL A   1      38.773  34.150  38.683  1.00  0.00     0.198 A 
ATOM     67  F   UNL A   1      38.339  32.073  37.669  1.00  0.00    -0.203 F 
ATOM     68  F   UNL A   1      40.945  36.866  37.665  1.00  0.00    -0.200 F 
ATOM     69  C   UNL A   1      39.427  35.372  38.686  1.00  0.00     0.200 A 
ATOM     70  F   UNL A   1      37.918  33.846  39.669  1.00  0.00    -0.200 F 
ATOM     71  F   UNL A   1      39.215  36.245  39.680  1.00  0.00    -0.200 F 
ENDBRANCH  41  61
BRANCH  44  72
ATOM     72  C   UNL A   1      40.670  27.843  28.412  1.00  0.00     0.064 A 
ATOM     73  C   UNL A   1      40.130  26.558  28.277  1.00  0.00     0.173 A 
ATOM     74  C   UNL A   1      41.417  28.353  27.339  1.00  0.00     0.173 A 
ATOM     75  F   UNL A   1      39.422  26.020  29.281  1.00  0.00    -0.203 F 
ATOM     76  C   UNL A   1      40.361  25.798  27.132  1.00  0.00     0.198 A 
ATOM     77  C   UNL A   1      41.613  27.608  26.178  1.00  0.00     0.198 A 
ATOM     78  F   UNL A   1      41.950  29.581  27.412  1.00  0.00    -0.203 F 
ATOM     79  F   UNL A   1      39.890  24.546  27.056  1.00  0.00    -0.200 F 
ATOM     80  C   UNL A   1      41.098  26.326  26.082  1.00  0.00     0.200 A 
ATOM     81  F   UNL A   1      42.308  28.131  25.160  1.00  0.00    -0.200 F 
ATOM     82  F   UNL A   1      41.321  25.594  24.983  1.00  0.00    -0.200 F 
ENDBRANCH  44  72
BRANCH  59  83
ATOM     83  C   UNL A   1      44.252  28.330  34.361  1.00  0.00     0.064 A 
ATOM     84  C   UNL A   1      45.526  28.885  34.166  1.00  0.00     0.173 A 
ATOM     85  C   UNL A   1      44.164  27.120  35.064  1.00  0.00     0.173 A 
ATOM     86  F   UNL A   1      45.664  30.031  33.481  1.00  0.00    -0.203 F 
ATOM     87  C   UNL A   1      46.667  28.242  34.635  1.00  0.00     0.198 A 
ATOM     88  C   UNL A   1      45.304  26.497  35.563  1.00  0.00     0.198 A 
ATOM     89  F   UNL A   1      42.969  26.549  35.282  1.00  0.00    -0.203 F 
ATOM     90  F   UNL A   1      47.876  28.764  34.390  1.00  0.00    -0.200 F 
ATOM     91  C   UNL A   1      46.554  27.054  35.341  1.00  0.00     0.200 A 
ATOM     92  F   UNL A   1      45.193  25.356  36.257  1.00  0.00    -0.200 F 
ATOM     93  F   UNL A   1      47.653  26.440  35.801  1.00  0.00    -0.200 F 
ENDBRANCH  59  83
ENDBRANCH  24  27
ENDBRANCH  15  17
ENDBRANCH  10  13
ENDBRANCH   7  10
ENDBRANCH   4   7
ENDBRANCH   1   4
BRANCH   1  94
ATOM     94  C   UNL A   1      32.943  28.328  25.924  1.00  0.00    -0.036 C 
ATOM     95  H   UNL A   1      33.881  28.782  26.167  1.00  0.00     0.028 H 
ATOM     96  H   UNL A   1      32.768  28.265  24.870  1.00  0.00     0.028 H 
BRANCH  94  97
ATOM     97  C   UNL A   1      32.958  26.894  26.446  1.00  0.00     0.018 C 
ATOM     98  H   UNL A   1      33.646  26.828  27.261  1.00  0.00     0.049 H 
ATOM     99  H   UNL A   1      33.254  26.248  25.645  1.00  0.00     0.049 H 
BRANCH  97 100
ATOM    100  N   UNL A   1      31.643  26.482  26.903  1.00  0.00    -0.352 N 
ATOM    101  C   UNL A   1      30.817  25.526  26.371  1.00  0.00     0.255 C 
ATOM    102  H   UNL A   1      31.300  26.950  27.698  1.00  0.00     0.163 HD
ATOM    103  O   UNL A   1      29.627  25.500  26.672  1.00  0.00    -0.269 OA
BRANCH 101 104
ATOM    104  C   UNL A   1      31.352  24.535  25.421  1.00  0.00     0.082 A 
ATOM    105  C   UNL A   1      32.366  23.657  25.827  1.00  0.00    -0.044 A 
ATOM    106  C   UNL A   1      30.814  24.427  24.135  1.00  0.00     0.143 A 
ATOM    107  C   UNL A   1      32.885  22.749  24.915  1.00  0.00    -0.043 A 
ATOM    108  H   UNL A   1      32.724  23.685  26.795  1.00  0.00     0.063 H 
ATOM    109  N   UNL A   1      31.337  23.540  23.249  1.00  0.00    -0.238 NA
ATOM    110  C   UNL A   1      32.348  22.736  23.645  1.00  0.00     0.029 A 
ATOM    111  H   UNL A   1      33.648  22.105  25.179  1.00  0.00     0.064 H 
ATOM    112  H   UNL A   1      32.741  22.074  22.956  1.00  0.00     0.084 H 
BRANCH 106 113
ATOM    113  N   UNL A   1      29.797  25.302  23.695  1.00  0.00    -0.340 N 
ATOM    114  H   UNL A   1      28.880  24.944  23.681  1.00  0.00     0.168 HD
BRANCH 113 115
ATOM    115  C   UNL A   1      29.967  26.632  23.274  1.00  0.00     0.040 A 
ATOM    116  C   UNL A   1      31.229  27.077  22.872  1.00  0.00    -0.039 A 
ATOM    117  C   UNL A   1      28.917  27.555  23.343  1.00  0.00    -0.026 A 
ATOM    118  C   UNL A   1      31.420  28.401  22.473  1.00  0.00    -0.060 A 
ATOM    119  H   UNL A   1      32.027  26.423  22.872  1.00  0.00     0.064 H 
ATOM    120  C   UNL A   1      29.094  28.893  22.964  1.00  0.00     0.058 A 
ATOM    121  H   UNL A   1      27.993  27.244  23.681  1.00  0.00     0.065 H 
ATOM    122  C   UNL A   1      30.357  29.304  22.513  1.00  0.00    -0.050 A 
ATOM    123  H   UNL A   1      32.348  28.713  22.147  1.00  0.00     0.062 H 
ATOM    124  H   UNL A   1      30.500  30.280  22.209  1.00  0.00     0.063 H 
BRANCH 120 125
ATOM    125  C   UNL A   1      27.952  29.870  23.035  1.00  0.00     0.416 C 
ATOM    126  F   UNL A   1      26.811  29.301  23.518  1.00  0.00    -0.166 F 
ATOM    127  F   UNL A   1      28.215  30.925  23.856  1.00  0.00    -0.166 F 
ATOM    128  F   UNL A   1      27.610  30.412  21.831  1.00  0.00    -0.166 F 
ENDBRANCH 120 125
ENDBRANCH 113 115
ENDBRANCH 106 113
ENDBRANCH 101 104
ENDBRANCH  97 100
ENDBRANCH  94  97
ENDBRANCH   1  94
TORSDOF 16
ENDMDL
MODEL 6
REMARK VINA RESULT:     -12.3      6.220     11.682
REMARK SMILES O=C(NCCCCCCNC(=O)c1cccnc1Nc1cccc(C(F)(F)F)c1)c1ccc(-c2c3nc(c(-c4c(F)c(F)c(F)c(F)c4F)c4ccc([nH]4)c(-c4c(F)c(F)c(F)c(F)c4F)c4nc(c(-c5c(F)c(F)c(F)c(F)c5F)c5ccc2[nH]5)C=C4)C=C3)cc1
REMARK SMILES IDX 7 1 6 4 5 7 4 10 3 13 1 14 2 15 30 17 31 18 92 19 32 20
REMARK SMILES IDX 91 22 33 24 34 27 35 28 85 29 36 30 90 31 84 32 86 33 37 34
REMARK SMILES IDX 89 35 83 37 82 39 38 41 70 44 50 45 69 46 51 47 54 48 68 49
REMARK SMILES IDX 87 50 52 51 53 53 67 55 88 56 55 59 39 61 40 62 48 63 41 64
REMARK SMILES IDX 42 65 46 66 49 67 43 68 44 69 47 70 45 71 71 72 72 73 80 74
REMARK SMILES IDX 73 75 74 76 78 77 81 78 75 79 76 80 79 81 77 82 56 83 57 84
REMARK SMILES IDX 65 85 58 86 59 87 63 88 66 89 60 90 61 91 64 92 62 93 8 94
REMARK SMILES IDX 9 97 10 100 11 101 12 103 13 104 14 105 18 106 15 107 17 109
REMARK SMILES IDX 16 110 19 113 20 115 21 116 29 117 22 118 24 120 23 122
REMARK SMILES IDX 25 125 26 126 27 127 28 128
REMARK H PARENT 7 2 7 3 6 5 6 6 5 8 5 9 4 11 4 12 3 16 31 21 92 23 32 25 91 26
REMARK H PARENT 90 36 84 38 86 40 89 42 83 43 51 52 54 54 87 57 52 58 88 60
REMARK H PARENT 8 95 8 96 9 98 9 99 10 102 14 108 15 111 16 112 19 114 21 119
REMARK H PARENT 29 121 22 123 23 124
REMARK Flexibility Score: inf
ROOT
ATOM      1  C   UNL A   1      37.074  21.952  24.631  1.00  0.00    -0.052 C 
ATOM      2  H   UNL A   1      36.390  22.204  23.847  1.00  0.00     0.027 H 
ATOM      3  H   UNL A   1      38.101  22.054  24.351  1.00  0.00     0.027 H 
ENDROOT
BRANCH   1   4
ATOM      4  C   UNL A   1      36.874  20.474  24.979  1.00  0.00    -0.052 C 
ATOM      5  H   UNL A   1      36.514  20.416  25.985  1.00  0.00     0.027 H 
ATOM      6  H   UNL A   1      36.185  20.087  24.258  1.00  0.00     0.027 H 
BRANCH   4   7
ATOM      7  C   UNL A   1      38.130  19.610  24.877  1.00  0.00    -0.036 C 
ATOM      8  H   UNL A   1      37.867  18.604  25.124  1.00  0.00     0.028 H 
ATOM      9  H   UNL A   1      38.490  19.712  23.873  1.00  0.00     0.028 H 
BRANCH   7  10
ATOM     10  C   UNL A   1      39.266  20.044  25.792  1.00  0.00     0.018 C 
ATOM     11  H   UNL A   1      39.697  20.943  25.403  1.00  0.00     0.049 H 
ATOM     12  H   UNL A   1      38.860  20.198  26.770  1.00  0.00     0.049 H 
BRANCH  10  13
ATOM     13  N   UNL A   1      40.305  19.033  25.894  1.00  0.00    -0.352 N 
ATOM     14  O   UNL A   1      42.430  18.268  25.958  1.00  0.00    -0.269 OA
ATOM     15  C   UNL A   1      41.651  19.209  26.080  1.00  0.00     0.251 C 
ATOM     16  H   UNL A   1      40.001  18.099  25.821  1.00  0.00     0.163 HD
BRANCH  15  17
ATOM     17  C   UNL A   1      42.162  20.552  26.422  1.00  0.00     0.039 A 
ATOM     18  C   UNL A   1      42.581  21.422  25.412  1.00  0.00    -0.049 A 
ATOM     19  C   UNL A   1      42.207  20.949  27.761  1.00  0.00    -0.049 A 
ATOM     20  C   UNL A   1      43.141  22.648  25.745  1.00  0.00    -0.053 A 
ATOM     21  H   UNL A   1      42.473  21.155  24.421  1.00  0.00     0.063 H 
ATOM     22  C   UNL A   1      42.686  22.219  28.088  1.00  0.00    -0.053 A 
ATOM     23  H   UNL A   1      41.888  20.307  28.504  1.00  0.00     0.063 H 
ATOM     24  C   UNL A   1      43.158  23.077  27.081  1.00  0.00    -0.014 A 
ATOM     25  H   UNL A   1      43.547  23.246  25.007  1.00  0.00     0.063 H 
ATOM     26  H   UNL A   1      42.694  22.528  29.073  1.00  0.00     0.063 H 
BRANCH  24  27
ATOM     27  C   UNL A   1      43.525  24.481  27.381  1.00  0.00     0.031 A 
ATOM     28  C   UNL A   1      42.513  25.473  27.868  1.00  0.00     0.074 A 
ATOM     29  C   UNL A   1      44.809  24.846  27.190  1.00  0.00     0.049 A 
ATOM     30  N   UNL A   1      42.675  26.744  28.139  1.00  0.00    -0.248 NA
ATOM     31  C   UNL A   1      41.139  24.989  28.071  1.00  0.00    -0.034 C 
ATOM     32  C   UNL A   1      45.870  23.960  26.699  1.00  0.00    -0.036 A 
ATOM     33  N   UNL A   1      45.444  26.047  27.377  1.00  0.00    -0.354 N 
ATOM     34  C   UNL A   1      41.428  27.216  28.524  1.00  0.00     0.074 A 
ATOM     35  C   UNL A   1      40.511  26.099  28.442  1.00  0.00    -0.034 C 
ATOM     36  H   UNL A   1      40.761  24.034  27.956  1.00  0.00     0.065 H 
ATOM     37  C   UNL A   1      47.024  24.637  26.648  1.00  0.00    -0.036 A 
ATOM     38  H   UNL A   1      45.746  22.970  26.435  1.00  0.00     0.065 H 
ATOM     39  C   UNL A   1      46.772  26.022  27.026  1.00  0.00     0.049 A 
ATOM     40  H   UNL A   1      44.992  26.847  27.730  1.00  0.00     0.167 HD
ATOM     41  C   UNL A   1      41.092  28.469  28.909  1.00  0.00     0.037 A 
ATOM     42  H   UNL A   1      39.501  26.157  28.646  1.00  0.00     0.065 H 
ATOM     43  H   UNL A   1      47.941  24.243  26.384  1.00  0.00     0.065 H 
ATOM     44  C   UNL A   1      47.679  27.013  26.969  1.00  0.00     0.037 A 
ATOM     45  C   UNL A   1      42.024  29.566  29.002  1.00  0.00     0.049 A 
ATOM     46  C   UNL A   1      47.256  28.399  27.364  1.00  0.00     0.074 A 
ATOM     47  C   UNL A   1      41.795  30.852  29.460  1.00  0.00    -0.036 A 
ATOM     48  N   UNL A   1      43.354  29.511  28.615  1.00  0.00    -0.354 N 
ATOM     49  N   UNL A   1      46.093  28.814  27.805  1.00  0.00    -0.248 NA
ATOM     50  C   UNL A   1      48.267  29.457  27.246  1.00  0.00    -0.034 C 
ATOM     51  C   UNL A   1      42.966  31.594  29.283  1.00  0.00    -0.036 A 
ATOM     52  H   UNL A   1      40.911  31.203  29.863  1.00  0.00     0.065 H 
ATOM     53  C   UNL A   1      43.944  30.755  28.774  1.00  0.00     0.049 A 
ATOM     54  H   UNL A   1      43.813  28.708  28.277  1.00  0.00     0.167 HD
ATOM     55  C   UNL A   1      46.235  30.175  28.026  1.00  0.00     0.074 A 
ATOM     56  C   UNL A   1      47.607  30.510  27.706  1.00  0.00    -0.034 C 
ATOM     57  H   UNL A   1      49.237  29.397  26.898  1.00  0.00     0.065 H 
ATOM     58  H   UNL A   1      43.081  32.598  29.496  1.00  0.00     0.065 H 
ATOM     59  C   UNL A   1      45.310  31.071  28.445  1.00  0.00     0.037 A 
ATOM     60  H   UNL A   1      48.019  31.448  27.821  1.00  0.00     0.065 H 
BRANCH  41  61
ATOM     61  C   UNL A   1      39.657  28.756  29.244  1.00  0.00     0.064 A 
ATOM     62  C   UNL A   1      39.153  28.593  30.542  1.00  0.00     0.173 A 
ATOM     63  C   UNL A   1      38.808  29.314  28.275  1.00  0.00     0.173 A 
ATOM     64  F   UNL A   1      39.921  28.060  31.503  1.00  0.00    -0.203 F 
ATOM     65  C   UNL A   1      37.850  28.976  30.857  1.00  0.00     0.198 A 
ATOM     66  C   UNL A   1      37.515  29.719  28.598  1.00  0.00     0.198 A 
ATOM     67  F   UNL A   1      39.244  29.499  27.020  1.00  0.00    -0.203 F 
ATOM     68  F   UNL A   1      37.383  28.796  32.100  1.00  0.00    -0.200 F 
ATOM     69  C   UNL A   1      37.037  29.549  29.889  1.00  0.00     0.200 A 
ATOM     70  F   UNL A   1      36.738  30.287  27.666  1.00  0.00    -0.200 F 
ATOM     71  F   UNL A   1      35.795  29.941  30.201  1.00  0.00    -0.200 F 
ENDBRANCH  41  61
BRANCH  44  72
ATOM     72  C   UNL A   1      49.053  26.742  26.469  1.00  0.00     0.064 A 
ATOM     73  C   UNL A   1      49.387  26.932  25.122  1.00  0.00     0.173 A 
ATOM     74  C   UNL A   1      50.053  26.260  27.328  1.00  0.00     0.173 A 
ATOM     75  F   UNL A   1      48.461  27.375  24.259  1.00  0.00    -0.203 F 
ATOM     76  C   UNL A   1      50.657  26.615  24.646  1.00  0.00     0.198 A 
ATOM     77  C   UNL A   1      51.334  25.982  26.858  1.00  0.00     0.198 A 
ATOM     78  F   UNL A   1      49.790  26.067  28.628  1.00  0.00    -0.203 F 
ATOM     79  F   UNL A   1      50.930  26.742  23.340  1.00  0.00    -0.200 F 
ATOM     80  C   UNL A   1      51.631  26.146  25.514  1.00  0.00     0.200 A 
ATOM     81  F   UNL A   1      52.276  25.548  27.705  1.00  0.00    -0.200 F 
ATOM     82  F   UNL A   1      52.851  25.839  25.054  1.00  0.00    -0.200 F 
ENDBRANCH  44  72
BRANCH  59  83
ATOM     83  C   UNL A   1      45.758  32.496  28.588  1.00  0.00     0.064 A 
ATOM     84  C   UNL A   1      46.335  32.965  29.777  1.00  0.00     0.173 A 
ATOM     85  C   UNL A   1      45.641  33.393  27.516  1.00  0.00     0.173 A 
ATOM     86  F   UNL A   1      46.450  32.151  30.838  1.00  0.00    -0.203 F 
ATOM     87  C   UNL A   1      46.756  34.286  29.896  1.00  0.00     0.198 A 
ATOM     88  C   UNL A   1      46.095  34.703  27.626  1.00  0.00     0.198 A 
ATOM     89  F   UNL A   1      45.099  32.993  26.355  1.00  0.00    -0.203 F 
ATOM     90  F   UNL A   1      47.256  34.725  31.059  1.00  0.00    -0.200 F 
ATOM     91  C   UNL A   1      46.645  35.151  28.818  1.00  0.00     0.200 A 
ATOM     92  F   UNL A   1      46.000  35.534  26.579  1.00  0.00    -0.200 F 
ATOM     93  F   UNL A   1      47.060  36.420  28.931  1.00  0.00    -0.200 F 
ENDBRANCH  59  83
ENDBRANCH  24  27
ENDBRANCH  15  17
ENDBRANCH  10  13
ENDBRANCH   7  10
ENDBRANCH   4   7
ENDBRANCH   1   4
BRANCH   1  94
ATOM     94  C   UNL A   1      36.851  22.932  25.788  1.00  0.00    -0.036 C 
ATOM     95  H   UNL A   1      37.800  23.335  26.072  1.00  0.00     0.028 H 
ATOM     96  H   UNL A   1      36.380  22.375  26.571  1.00  0.00     0.028 H 
BRANCH  94  97
ATOM     97  C   UNL A   1      35.917  24.096  25.466  1.00  0.00     0.018 C 
ATOM     98  H   UNL A   1      36.442  25.016  25.615  1.00  0.00     0.049 H 
ATOM     99  H   UNL A   1      35.066  24.034  26.113  1.00  0.00     0.049 H 
BRANCH  97 100
ATOM    100  N   UNL A   1      35.450  24.037  24.092  1.00  0.00    -0.352 N 
ATOM    101  C   UNL A   1      34.197  23.729  23.631  1.00  0.00     0.255 C 
ATOM    102  H   UNL A   1      36.121  24.245  23.403  1.00  0.00     0.163 HD
ATOM    103  O   UNL A   1      34.028  23.423  22.454  1.00  0.00    -0.269 OA
BRANCH 101 104
ATOM    104  C   UNL A   1      33.047  23.747  24.553  1.00  0.00     0.082 A 
ATOM    105  C   UNL A   1      32.287  24.915  24.696  1.00  0.00    -0.044 A 
ATOM    106  C   UNL A   1      32.674  22.589  25.241  1.00  0.00     0.143 A 
ATOM    107  C   UNL A   1      31.225  24.932  25.590  1.00  0.00    -0.043 A 
ATOM    108  H   UNL A   1      32.514  25.756  24.142  1.00  0.00     0.063 H 
ATOM    109  N   UNL A   1      31.639  22.620  26.120  1.00  0.00    -0.238 NA
ATOM    110  C   UNL A   1      30.950  23.770  26.280  1.00  0.00     0.029 A 
ATOM    111  H   UNL A   1      30.661  25.785  25.732  1.00  0.00     0.064 H 
ATOM    112  H   UNL A   1      30.172  23.780  26.960  1.00  0.00     0.084 H 
BRANCH 106 113
ATOM    113  N   UNL A   1      33.425  21.398  25.123  1.00  0.00    -0.340 N 
ATOM    114  H   UNL A   1      34.214  21.311  25.706  1.00  0.00     0.168 HD
BRANCH 113 115
ATOM    115  C   UNL A   1      33.156  20.327  24.254  1.00  0.00     0.040 A 
ATOM    116  C   UNL A   1      32.264  20.500  23.193  1.00  0.00    -0.039 A 
ATOM    117  C   UNL A   1      33.688  19.052  24.487  1.00  0.00    -0.026 A 
ATOM    118  C   UNL A   1      31.969  19.440  22.334  1.00  0.00    -0.060 A 
ATOM    119  H   UNL A   1      31.818  21.419  23.044  1.00  0.00     0.064 H 
ATOM    120  C   UNL A   1      33.388  17.971  23.646  1.00  0.00     0.058 A 
ATOM    121  H   UNL A   1      34.313  18.906  25.295  1.00  0.00     0.065 H 
ATOM    122  C   UNL A   1      32.532  18.183  22.556  1.00  0.00    -0.050 A 
ATOM    123  H   UNL A   1      31.333  19.586  21.534  1.00  0.00     0.062 H 
ATOM    124  H   UNL A   1      32.318  17.403  21.914  1.00  0.00     0.063 H 
BRANCH 120 125
ATOM    125  C   UNL A   1      33.977  16.611  23.904  1.00  0.00     0.416 C 
ATOM    126  F   UNL A   1      35.029  16.655  24.769  1.00  0.00    -0.166 F 
ATOM    127  F   UNL A   1      33.079  15.749  24.460  1.00  0.00    -0.166 F 
ATOM    128  F   UNL A   1      34.447  15.988  22.786  1.00  0.00    -0.166 F 
ENDBRANCH 120 125
ENDBRANCH 113 115
ENDBRANCH 106 113
ENDBRANCH 101 104
ENDBRANCH  97 100
ENDBRANCH  94  97
ENDBRANCH   1  94
TORSDOF 16
ENDMDL
MODEL 7
REMARK VINA RESULT:     -12.2      5.841     11.015
REMARK SMILES O=C(NCCCCCCNC(=O)c1cccnc1Nc1cccc(C(F)(F)F)c1)c1ccc(-c2c3nc(c(-c4c(F)c(F)c(F)c(F)c4F)c4ccc([nH]4)c(-c4c(F)c(F)c(F)c(F)c4F)c4nc(c(-c5c(F)c(F)c(F)c(F)c5F)c5ccc2[nH]5)C=C4)C=C3)cc1
REMARK SMILES IDX 7 1 6 4 5 7 4 10 3 13 1 14 2 15 30 17 31 18 92 19 32 20
REMARK SMILES IDX 91 22 33 24 34 27 35 28 85 29 36 30 90 31 84 32 86 33 37 34
REMARK SMILES IDX 89 35 83 37 82 39 38 41 70 44 50 45 69 46 51 47 54 48 68 49
REMARK SMILES IDX 87 50 52 51 53 53 67 55 88 56 55 59 39 61 40 62 48 63 41 64
REMARK SMILES IDX 42 65 46 66 49 67 43 68 44 69 47 70 45 71 71 72 72 73 80 74
REMARK SMILES IDX 73 75 74 76 78 77 81 78 75 79 76 80 79 81 77 82 56 83 57 84
REMARK SMILES IDX 65 85 58 86 59 87 63 88 66 89 60 90 61 91 64 92 62 93 8 94
REMARK SMILES IDX 9 97 10 100 11 101 12 103 13 104 14 105 18 106 15 107 17 109
REMARK SMILES IDX 16 110 19 113 20 115 21 116 29 117 22 118 24 120 23 122
REMARK SMILES IDX 25 125 26 126 27 127 28 128
REMARK H PARENT 7 2 7 3 6 5 6 6 5 8 5 9 4 11 4 12 3 16 31 21 92 23 32 25 91 26
REMARK H PARENT 90 36 84 38 86 40 89 42 83 43 51 52 54 54 87 57 52 58 88 60
REMARK H PARENT 8 95 8 96 9 98 9 99 10 102 14 108 15 111 16 112 19 114 21 119
REMARK H PARENT 29 121 22 123 23 124
REMARK Flexibility Score: inf
ROOT
ATOM      1  C   UNL A   1      36.984  22.167  24.514  1.00  0.00    -0.052 C 
ATOM      2  H   UNL A   1      36.228  22.363  23.783  1.00  0.00     0.027 H 
ATOM      3  H   UNL A   1      37.980  22.227  24.128  1.00  0.00     0.027 H 
ENDROOT
BRANCH   1   4
ATOM      4  C   UNL A   1      36.807  20.727  25.005  1.00  0.00    -0.052 C 
ATOM      5  H   UNL A   1      36.519  20.761  26.035  1.00  0.00     0.027 H 
ATOM      6  H   UNL A   1      36.068  20.283  24.372  1.00  0.00     0.027 H 
BRANCH   4   7
ATOM      7  C   UNL A   1      38.051  19.847  24.891  1.00  0.00    -0.036 C 
ATOM      8  H   UNL A   1      37.766  18.836  25.092  1.00  0.00     0.028 H 
ATOM      9  H   UNL A   1      38.431  19.983  23.899  1.00  0.00     0.028 H 
BRANCH   7  10
ATOM     10  C   UNL A   1      39.175  20.224  25.843  1.00  0.00     0.018 C 
ATOM     11  H   UNL A   1      39.632  21.128  25.496  1.00  0.00     0.049 H 
ATOM     12  H   UNL A   1      38.752  20.350  26.818  1.00  0.00     0.049 H 
BRANCH  10  13
ATOM     13  N   UNL A   1      40.192  19.190  25.928  1.00  0.00    -0.352 N 
ATOM     14  O   UNL A   1      42.300  18.375  25.949  1.00  0.00    -0.269 OA
ATOM     15  C   UNL A   1      41.546  19.336  26.083  1.00  0.00     0.251 C 
ATOM     16  H   UNL A   1      39.866  18.263  25.868  1.00  0.00     0.163 HD
BRANCH  15  17
ATOM     17  C   UNL A   1      42.096  20.668  26.404  1.00  0.00     0.039 A 
ATOM     18  C   UNL A   1      42.417  21.562  25.378  1.00  0.00    -0.049 A 
ATOM     19  C   UNL A   1      42.277  21.031  27.741  1.00  0.00    -0.049 A 
ATOM     20  C   UNL A   1      43.014  22.777  25.684  1.00  0.00    -0.053 A 
ATOM     21  H   UNL A   1      42.209  21.319  24.397  1.00  0.00     0.063 H 
ATOM     22  C   UNL A   1      42.794  22.292  28.050  1.00  0.00    -0.053 A 
ATOM     23  H   UNL A   1      42.030  20.373  28.496  1.00  0.00     0.063 H 
ATOM     24  C   UNL A   1      43.167  23.173  27.022  1.00  0.00    -0.014 A 
ATOM     25  H   UNL A   1      43.347  23.392  24.924  1.00  0.00     0.063 H 
ATOM     26  H   UNL A   1      42.902  22.576  29.036  1.00  0.00     0.063 H 
BRANCH  24  27
ATOM     27  C   UNL A   1      43.570  24.568  27.317  1.00  0.00     0.031 A 
ATOM     28  C   UNL A   1      42.587  25.581  27.822  1.00  0.00     0.074 A 
ATOM     29  C   UNL A   1      44.858  24.905  27.105  1.00  0.00     0.049 A 
ATOM     30  N   UNL A   1      42.782  26.848  28.092  1.00  0.00    -0.248 NA
ATOM     31  C   UNL A   1      41.207  25.127  28.049  1.00  0.00    -0.034 C 
ATOM     32  C   UNL A   1      45.891  23.997  26.595  1.00  0.00    -0.036 A 
ATOM     33  N   UNL A   1      45.522  26.091  27.283  1.00  0.00    -0.354 N 
ATOM     34  C   UNL A   1      41.552  27.346  28.499  1.00  0.00     0.074 A 
ATOM     35  C   UNL A   1      40.610  26.249  28.432  1.00  0.00    -0.034 C 
ATOM     36  H   UNL A   1      40.807  24.181  27.938  1.00  0.00     0.065 H 
ATOM     37  C   UNL A   1      47.058  24.649  26.525  1.00  0.00    -0.036 A 
ATOM     38  H   UNL A   1      45.740  23.011  26.331  1.00  0.00     0.065 H 
ATOM     39  C   UNL A   1      46.843  26.038  26.909  1.00  0.00     0.049 A 
ATOM     40  H   UNL A   1      45.094  26.901  27.644  1.00  0.00     0.167 HD
ATOM     41  C   UNL A   1      41.250  28.606  28.892  1.00  0.00     0.037 A 
ATOM     42  H   UNL A   1      39.605  26.329  28.653  1.00  0.00     0.065 H 
ATOM     43  H   UNL A   1      47.962  24.236  26.245  1.00  0.00     0.065 H 
ATOM     44  C   UNL A   1      47.770  27.009  26.837  1.00  0.00     0.037 A 
ATOM     45  C   UNL A   1      42.208  29.681  28.971  1.00  0.00     0.049 A 
ATOM     46  C   UNL A   1      47.385  28.404  27.242  1.00  0.00     0.074 A 
ATOM     47  C   UNL A   1      42.015  30.972  29.435  1.00  0.00    -0.036 A 
ATOM     48  N   UNL A   1      43.530  29.599  28.561  1.00  0.00    -0.354 N 
ATOM     49  N   UNL A   1      46.239  28.843  27.703  1.00  0.00    -0.248 NA
ATOM     50  C   UNL A   1      48.416  29.440  27.108  1.00  0.00    -0.034 C 
ATOM     51  C   UNL A   1      43.198  31.688  29.238  1.00  0.00    -0.036 A 
ATOM     52  H   UNL A   1      41.146  31.341  29.853  1.00  0.00     0.065 H 
ATOM     53  C   UNL A   1      44.149  30.829  28.712  1.00  0.00     0.049 A 
ATOM     54  H   UNL A   1      43.965  28.786  28.214  1.00  0.00     0.167 HD
ATOM     55  C   UNL A   1      46.414  30.200  27.924  1.00  0.00     0.074 A 
ATOM     56  C   UNL A   1      47.787  30.506  27.581  1.00  0.00    -0.034 C 
ATOM     57  H   UNL A   1      49.378  29.359  26.743  1.00  0.00     0.065 H 
ATOM     58  H   UNL A   1      43.340  32.689  29.451  1.00  0.00     0.065 H 
ATOM     59  C   UNL A   1      45.516  31.116  28.360  1.00  0.00     0.037 A 
ATOM     60  H   UNL A   1      48.221  31.435  27.691  1.00  0.00     0.065 H 
BRANCH  41  61
ATOM     61  C   UNL A   1      39.828  28.923  29.252  1.00  0.00     0.064 A 
ATOM     62  C   UNL A   1      38.896  29.335  28.289  1.00  0.00     0.173 A 
ATOM     63  C   UNL A   1      39.367  28.698  30.559  1.00  0.00     0.173 A 
ATOM     64  F   UNL A   1      39.285  29.569  27.028  1.00  0.00    -0.203 F 
ATOM     65  C   UNL A   1      37.554  29.511  28.623  1.00  0.00     0.198 A 
ATOM     66  C   UNL A   1      38.022  28.851  30.883  1.00  0.00     0.198 A 
ATOM     67  F   UNL A   1      40.217  28.296  31.515  1.00  0.00    -0.203 F 
ATOM     68  F   UNL A   1      36.682  29.921  27.691  1.00  0.00    -0.200 F 
ATOM     69  C   UNL A   1      37.116  29.258  29.915  1.00  0.00     0.200 A 
ATOM     70  F   UNL A   1      37.599  28.591  32.128  1.00  0.00    -0.200 F 
ATOM     71  F   UNL A   1      35.821  29.403  30.226  1.00  0.00    -0.200 F 
ENDBRANCH  41  61
BRANCH  44  72
ATOM     72  C   UNL A   1      49.129  26.710  26.314  1.00  0.00     0.064 A 
ATOM     73  C   UNL A   1      49.463  26.955  24.976  1.00  0.00     0.173 A 
ATOM     74  C   UNL A   1      50.114  26.144  27.139  1.00  0.00     0.173 A 
ATOM     75  F   UNL A   1      48.551  27.479  24.144  1.00  0.00    -0.203 F 
ATOM     76  C   UNL A   1      50.716  26.612  24.474  1.00  0.00     0.198 A 
ATOM     77  C   UNL A   1      51.380  25.839  26.646  1.00  0.00     0.198 A 
ATOM     78  F   UNL A   1      49.850  25.895  28.430  1.00  0.00    -0.203 F 
ATOM     79  F   UNL A   1      50.987  26.795  23.175  1.00  0.00    -0.200 F 
ATOM     80  C   UNL A   1      51.676  26.060  25.310  1.00  0.00     0.200 A 
ATOM     81  F   UNL A   1      52.308  25.325  27.463  1.00  0.00    -0.200 F 
ATOM     82  F   UNL A   1      52.880  25.728  24.825  1.00  0.00    -0.200 F 
ENDBRANCH  44  72
BRANCH  59  83
ATOM     83  C   UNL A   1      45.997  32.530  28.498  1.00  0.00     0.064 A 
ATOM     84  C   UNL A   1      46.603  32.985  29.678  1.00  0.00     0.173 A 
ATOM     85  C   UNL A   1      45.884  33.431  27.428  1.00  0.00     0.173 A 
ATOM     86  F   UNL A   1      46.716  32.167  30.737  1.00  0.00    -0.203 F 
ATOM     87  C   UNL A   1      47.055  34.296  29.792  1.00  0.00     0.198 A 
ATOM     88  C   UNL A   1      46.368  34.731  27.533  1.00  0.00     0.198 A 
ATOM     89  F   UNL A   1      45.316  33.044  26.275  1.00  0.00    -0.203 F 
ATOM     90  F   UNL A   1      47.582  34.723  30.947  1.00  0.00    -0.200 F 
ATOM     91  C   UNL A   1      46.946  35.165  28.716  1.00  0.00     0.200 A 
ATOM     92  F   UNL A   1      46.276  35.565  26.488  1.00  0.00    -0.200 F 
ATOM     93  F   UNL A   1      47.391  36.424  28.824  1.00  0.00    -0.200 F 
ENDBRANCH  59  83
ENDBRANCH  24  27
ENDBRANCH  15  17
ENDBRANCH  10  13
ENDBRANCH   7  10
ENDBRANCH   4   7
ENDBRANCH   1   4
BRANCH   1  94
ATOM     94  C   UNL A   1      36.885  23.244  25.600  1.00  0.00    -0.036 C 
ATOM     95  H   UNL A   1      37.615  23.998  25.390  1.00  0.00     0.028 H 
ATOM     96  H   UNL A   1      37.049  22.749  26.534  1.00  0.00     0.028 H 
BRANCH  94  97
ATOM     97  C   UNL A   1      35.520  23.920  25.704  1.00  0.00     0.018 C 
ATOM     98  H   UNL A   1      35.010  23.820  24.769  1.00  0.00     0.049 H 
ATOM     99  H   UNL A   1      35.673  24.951  25.947  1.00  0.00     0.049 H 
BRANCH  97 100
ATOM    100  N   UNL A   1      34.710  23.320  26.750  1.00  0.00    -0.352 N 
ATOM    101  C   UNL A   1      33.450  22.790  26.652  1.00  0.00     0.255 C 
ATOM    102  H   UNL A   1      35.119  23.291  27.644  1.00  0.00     0.163 HD
ATOM    103  O   UNL A   1      32.778  22.601  27.662  1.00  0.00    -0.269 OA
BRANCH 101 104
ATOM    104  C   UNL A   1      32.889  22.460  25.330  1.00  0.00     0.082 A 
ATOM    105  C   UNL A   1      33.194  21.231  24.730  1.00  0.00    -0.044 A 
ATOM    106  C   UNL A   1      32.008  23.341  24.696  1.00  0.00     0.143 A 
ATOM    107  C   UNL A   1      32.686  20.943  23.471  1.00  0.00    -0.043 A 
ATOM    108  H   UNL A   1      33.790  20.546  25.220  1.00  0.00     0.063 H 
ATOM    109  N   UNL A   1      31.525  23.052  23.459  1.00  0.00    -0.238 NA
ATOM    110  C   UNL A   1      31.871  21.883  22.877  1.00  0.00     0.029 A 
ATOM    111  H   UNL A   1      32.912  20.054  22.995  1.00  0.00     0.064 H 
ATOM    112  H   UNL A   1      31.503  21.683  21.933  1.00  0.00     0.084 H 
BRANCH 106 113
ATOM    113  N   UNL A   1      31.687  24.590  25.271  1.00  0.00    -0.340 N 
ATOM    114  H   UNL A   1      30.915  24.612  25.883  1.00  0.00     0.168 HD
BRANCH 113 115
ATOM    115  C   UNL A   1      32.360  25.805  25.054  1.00  0.00     0.040 A 
ATOM    116  C   UNL A   1      33.058  26.009  23.862  1.00  0.00    -0.039 A 
ATOM    117  C   UNL A   1      32.432  26.783  26.053  1.00  0.00    -0.026 A 
ATOM    118  C   UNL A   1      33.750  27.200  23.640  1.00  0.00    -0.060 A 
ATOM    119  H   UNL A   1      33.063  25.272  23.139  1.00  0.00     0.064 H 
ATOM    120  C   UNL A   1      33.138  27.978  25.856  1.00  0.00     0.058 A 
ATOM    121  H   UNL A   1      31.956  26.620  26.954  1.00  0.00     0.065 H 
ATOM    122  C   UNL A   1      33.786  28.183  24.629  1.00  0.00    -0.050 A 
ATOM    123  H   UNL A   1      34.236  27.355  22.742  1.00  0.00     0.062 H 
ATOM    124  H   UNL A   1      34.292  29.066  24.459  1.00  0.00     0.063 H 
BRANCH 120 125
ATOM    125  C   UNL A   1      33.197  29.024  26.936  1.00  0.00     0.416 C 
ATOM    126  F   UNL A   1      34.129  28.736  27.889  1.00  0.00    -0.166 F 
ATOM    127  F   UNL A   1      33.529  30.255  26.455  1.00  0.00    -0.166 F 
ATOM    128  F   UNL A   1      32.024  29.192  27.610  1.00  0.00    -0.166 F 
ENDBRANCH 120 125
ENDBRANCH 113 115
ENDBRANCH 106 113
ENDBRANCH 101 104
ENDBRANCH  97 100
ENDBRANCH  94  97
ENDBRANCH   1  94
TORSDOF 16
ENDMDL
MODEL 8
REMARK VINA RESULT:     -12.2      5.570     10.428
REMARK SMILES O=C(NCCCCCCNC(=O)c1cccnc1Nc1cccc(C(F)(F)F)c1)c1ccc(-c2c3nc(c(-c4c(F)c(F)c(F)c(F)c4F)c4ccc([nH]4)c(-c4c(F)c(F)c(F)c(F)c4F)c4nc(c(-c5c(F)c(F)c(F)c(F)c5F)c5ccc2[nH]5)C=C4)C=C3)cc1
REMARK SMILES IDX 7 1 6 4 5 7 4 10 3 13 1 14 2 15 30 17 31 18 92 19 32 20
REMARK SMILES IDX 91 22 33 24 34 27 35 28 85 29 36 30 90 31 84 32 86 33 37 34
REMARK SMILES IDX 89 35 83 37 82 39 38 41 70 44 50 45 69 46 51 47 54 48 68 49
REMARK SMILES IDX 87 50 52 51 53 53 67 55 88 56 55 59 39 61 40 62 48 63 41 64
REMARK SMILES IDX 42 65 46 66 49 67 43 68 44 69 47 70 45 71 71 72 72 73 80 74
REMARK SMILES IDX 73 75 74 76 78 77 81 78 75 79 76 80 79 81 77 82 56 83 57 84
REMARK SMILES IDX 65 85 58 86 59 87 63 88 66 89 60 90 61 91 64 92 62 93 8 94
REMARK SMILES IDX 9 97 10 100 11 101 12 103 13 104 14 105 18 106 15 107 17 109
REMARK SMILES IDX 16 110 19 113 20 115 21 116 29 117 22 118 24 120 23 122
REMARK SMILES IDX 25 125 26 126 27 127 28 128
REMARK H PARENT 7 2 7 3 6 5 6 6 5 8 5 9 4 11 4 12 3 16 31 21 92 23 32 25 91 26
REMARK H PARENT 90 36 84 38 86 40 89 42 83 43 51 52 54 54 87 57 52 58 88 60
REMARK H PARENT 8 95 8 96 9 98 9 99 10 102 14 108 15 111 16 112 19 114 21 119
REMARK H PARENT 29 121 22 123 23 124
REMARK Flexibility Score: inf
ROOT
ATOM      1  C   UNL A   1      43.414  23.587  24.966  1.00  0.00    -0.052 C 
ATOM      2  H   UNL A   1      44.002  24.427  25.272  1.00  0.00     0.027 H 
ATOM      3  H   UNL A   1      42.617  23.842  24.300  1.00  0.00     0.027 H 
ENDROOT
BRANCH   1   4
ATOM      4  C   UNL A   1      42.751  22.993  26.213  1.00  0.00    -0.052 C 
ATOM      5  H   UNL A   1      43.509  22.847  26.954  1.00  0.00     0.027 H 
ATOM      6  H   UNL A   1      41.994  23.688  26.510  1.00  0.00     0.027 H 
BRANCH   4   7
ATOM      7  C   UNL A   1      42.042  21.658  25.993  1.00  0.00    -0.036 C 
ATOM      8  H   UNL A   1      41.818  21.564  24.952  1.00  0.00     0.028 H 
ATOM      9  H   UNL A   1      42.706  20.897  26.348  1.00  0.00     0.028 H 
BRANCH   7  10
ATOM     10  C   UNL A   1      40.746  21.501  26.775  1.00  0.00     0.018 C 
ATOM     11  H   UNL A   1      40.688  20.501  27.150  1.00  0.00     0.049 H 
ATOM     12  H   UNL A   1      40.753  22.217  27.570  1.00  0.00     0.049 H 
BRANCH  10  13
ATOM     13  N   UNL A   1      39.575  21.760  25.953  1.00  0.00    -0.352 N 
ATOM     14  O   UNL A   1      37.708  22.867  25.324  1.00  0.00    -0.269 OA
ATOM     15  C   UNL A   1      38.771  22.870  25.939  1.00  0.00     0.251 C 
ATOM     16  H   UNL A   1      39.328  21.044  25.323  1.00  0.00     0.163 HD
BRANCH  15  17
ATOM     17  C   UNL A   1      39.193  24.075  26.681  1.00  0.00     0.039 A 
ATOM     18  C   UNL A   1      38.885  24.207  28.038  1.00  0.00    -0.049 A 
ATOM     19  C   UNL A   1      39.914  25.071  26.019  1.00  0.00    -0.049 A 
ATOM     20  C   UNL A   1      39.208  25.379  28.708  1.00  0.00    -0.053 A 
ATOM     21  H   UNL A   1      38.421  23.434  28.541  1.00  0.00     0.063 H 
ATOM     22  C   UNL A   1      40.318  26.211  26.719  1.00  0.00    -0.053 A 
ATOM     23  H   UNL A   1      40.148  24.967  25.019  1.00  0.00     0.063 H 
ATOM     24  C   UNL A   1      39.965  26.372  28.069  1.00  0.00    -0.014 A 
ATOM     25  H   UNL A   1      38.888  25.521  29.680  1.00  0.00     0.063 H 
ATOM     26  H   UNL A   1      40.876  26.937  26.242  1.00  0.00     0.063 H 
BRANCH  24  27
ATOM     27  C   UNL A   1      40.509  27.492  28.874  1.00  0.00     0.031 A 
ATOM     28  C   UNL A   1      41.898  27.455  29.437  1.00  0.00     0.074 A 
ATOM     29  C   UNL A   1      39.704  28.550  29.097  1.00  0.00     0.049 A 
ATOM     30  N   UNL A   1      42.501  28.342  30.188  1.00  0.00    -0.248 NA
ATOM     31  C   UNL A   1      42.719  26.275  29.128  1.00  0.00    -0.034 C 
ATOM     32  C   UNL A   1      38.326  28.675  28.609  1.00  0.00    -0.036 A 
ATOM     33  N   UNL A   1      39.916  29.716  29.786  1.00  0.00    -0.354 N 
ATOM     34  C   UNL A   1      43.758  27.821  30.460  1.00  0.00     0.074 A 
ATOM     35  C   UNL A   1      43.833  26.534  29.802  1.00  0.00    -0.034 C 
ATOM     36  H   UNL A   1      42.488  25.457  28.541  1.00  0.00     0.065 H 
ATOM     37  C   UNL A   1      37.826  29.857  28.993  1.00  0.00    -0.036 A 
ATOM     38  H   UNL A   1      37.822  27.963  28.058  1.00  0.00     0.065 H 
ATOM     39  C   UNL A   1      38.816  30.539  29.816  1.00  0.00     0.049 A 
ATOM     40  H   UNL A   1      40.772  29.941  30.217  1.00  0.00     0.167 HD
ATOM     41  C   UNL A   1      44.752  28.378  31.192  1.00  0.00     0.037 A 
ATOM     42  H   UNL A   1      44.647  25.901  29.850  1.00  0.00     0.065 H 
ATOM     43  H   UNL A   1      36.894  30.224  28.746  1.00  0.00     0.065 H 
ATOM     44  C   UNL A   1      38.608  31.694  30.472  1.00  0.00     0.037 A 
ATOM     45  C   UNL A   1      44.666  29.671  31.824  1.00  0.00     0.049 A 
ATOM     46  C   UNL A   1      39.720  32.259  31.308  1.00  0.00     0.074 A 
ATOM     47  C   UNL A   1      45.649  30.355  32.520  1.00  0.00    -0.036 A 
ATOM     48  N   UNL A   1      43.530  30.465  31.855  1.00  0.00    -0.354 N 
ATOM     49  N   UNL A   1      40.933  31.796  31.489  1.00  0.00    -0.248 NA
ATOM     50  C   UNL A   1      39.435  33.499  32.039  1.00  0.00    -0.034 C 
ATOM     51  C   UNL A   1      45.087  31.528  33.031  1.00  0.00    -0.036 A 
ATOM     52  H   UNL A   1      46.628  30.050  32.640  1.00  0.00     0.065 H 
ATOM     53  C   UNL A   1      43.772  31.607  32.602  1.00  0.00     0.049 A 
ATOM     54  H   UNL A   1      42.677  30.250  31.412  1.00  0.00     0.167 HD
ATOM     55  C   UNL A   1      41.558  32.692  32.344  1.00  0.00     0.074 A 
ATOM     56  C   UNL A   1      40.601  33.745  32.616  1.00  0.00    -0.034 C 
ATOM     57  H   UNL A   1      38.556  34.039  32.089  1.00  0.00     0.065 H 
ATOM     58  H   UNL A   1      45.571  32.218  33.628  1.00  0.00     0.065 H 
ATOM     59  C   UNL A   1      42.806  32.642  32.867  1.00  0.00     0.037 A 
ATOM     60  H   UNL A   1      40.803  34.579  33.187  1.00  0.00     0.065 H 
BRANCH  41  61
ATOM     61  C   UNL A   1      46.023  27.602  31.383  1.00  0.00     0.064 A 
ATOM     62  C   UNL A   1      46.178  26.683  32.431  1.00  0.00     0.173 A 
ATOM     63  C   UNL A   1      47.053  27.695  30.433  1.00  0.00     0.173 A 
ATOM     64  F   UNL A   1      45.227  26.559  33.367  1.00  0.00    -0.203 F 
ATOM     65  C   UNL A   1      47.320  25.889  32.522  1.00  0.00     0.198 A 
ATOM     66  C   UNL A   1      48.181  26.883  30.513  1.00  0.00     0.198 A 
ATOM     67  F   UNL A   1      46.949  28.553  29.407  1.00  0.00    -0.203 F 
ATOM     68  F   UNL A   1      47.456  25.029  33.541  1.00  0.00    -0.200 F 
ATOM     69  C   UNL A   1      48.314  25.980  31.557  1.00  0.00     0.200 A 
ATOM     70  F   UNL A   1      49.131  26.962  29.571  1.00  0.00    -0.200 F 
ATOM     71  F   UNL A   1      49.397  25.196  31.633  1.00  0.00    -0.200 F 
ENDBRANCH  41  61
BRANCH  44  72
ATOM     72  C   UNL A   1      37.281  32.362  30.408  1.00  0.00     0.064 A 
ATOM     73  C   UNL A   1      36.979  33.285  29.399  1.00  0.00     0.173 A 
ATOM     74  C   UNL A   1      36.296  32.109  31.377  1.00  0.00     0.173 A 
ATOM     75  F   UNL A   1      37.892  33.573  28.460  1.00  0.00    -0.203 F 
ATOM     76  C   UNL A   1      35.759  33.957  29.381  1.00  0.00     0.198 A 
ATOM     77  C   UNL A   1      35.061  32.752  31.335  1.00  0.00     0.198 A 
ATOM     78  F   UNL A   1      36.530  31.229  32.362  1.00  0.00    -0.203 F 
ATOM     79  F   UNL A   1      35.521  34.884  28.443  1.00  0.00    -0.200 F 
ATOM     80  C   UNL A   1      34.799  33.686  30.345  1.00  0.00     0.200 A 
ATOM     81  F   UNL A   1      34.131  32.471  32.257  1.00  0.00    -0.200 F 
ATOM     82  F   UNL A   1      33.627  34.335  30.329  1.00  0.00    -0.200 F 
ENDBRANCH  44  72
BRANCH  59  83
ATOM     83  C   UNL A   1      43.208  33.764  33.778  1.00  0.00     0.064 A 
ATOM     84  C   UNL A   1      42.965  33.707  35.159  1.00  0.00     0.173 A 
ATOM     85  C   UNL A   1      43.873  34.891  33.273  1.00  0.00     0.173 A 
ATOM     86  F   UNL A   1      42.314  32.659  35.687  1.00  0.00    -0.203 F 
ATOM     87  C   UNL A   1      43.351  34.749  35.997  1.00  0.00     0.198 A 
ATOM     88  C   UNL A   1      44.288  35.915  34.119  1.00  0.00     0.198 A 
ATOM     89  F   UNL A   1      44.133  34.992  31.961  1.00  0.00    -0.203 F 
ATOM     90  F   UNL A   1      43.061  34.697  37.304  1.00  0.00    -0.200 F 
ATOM     91  C   UNL A   1      44.020  35.847  35.478  1.00  0.00     0.200 A 
ATOM     92  F   UNL A   1      44.948  36.969  33.619  1.00  0.00    -0.200 F 
ATOM     93  F   UNL A   1      44.400  36.845  36.287  1.00  0.00    -0.200 F 
ENDBRANCH  59  83
ENDBRANCH  24  27
ENDBRANCH  15  17
ENDBRANCH  10  13
ENDBRANCH   7  10
ENDBRANCH   4   7
ENDBRANCH   1   4
BRANCH   1  94
ATOM     94  C   UNL A   1      44.324  22.628  24.190  1.00  0.00    -0.036 C 
ATOM     95  H   UNL A   1      43.977  22.584  23.179  1.00  0.00     0.028 H 
ATOM     96  H   UNL A   1      44.271  21.686  24.694  1.00  0.00     0.028 H 
BRANCH  94  97
ATOM     97  C   UNL A   1      45.798  23.024  24.171  1.00  0.00     0.018 C 
ATOM     98  H   UNL A   1      45.919  23.885  23.548  1.00  0.00     0.049 H 
ATOM     99  H   UNL A   1      46.364  22.198  23.793  1.00  0.00     0.049 H 
BRANCH  97 100
ATOM    100  N   UNL A   1      46.281  23.335  25.505  1.00  0.00    -0.352 N 
ATOM    101  C   UNL A   1      47.061  24.389  25.904  1.00  0.00     0.255 C 
ATOM    102  H   UNL A   1      46.014  22.708  26.214  1.00  0.00     0.163 HD
ATOM    103  O   UNL A   1      47.638  24.357  26.988  1.00  0.00    -0.269 OA
BRANCH 101 104
ATOM    104  C   UNL A   1      47.225  25.560  25.024  1.00  0.00     0.082 A 
ATOM    105  C   UNL A   1      48.325  25.633  24.159  1.00  0.00    -0.044 A 
ATOM    106  C   UNL A   1      46.260  26.571  25.004  1.00  0.00     0.143 A 
ATOM    107  C   UNL A   1      48.488  26.754  23.357  1.00  0.00    -0.043 A 
ATOM    108  H   UNL A   1      49.009  24.860  24.119  1.00  0.00     0.063 H 
ATOM    109  N   UNL A   1      46.435  27.668  24.223  1.00  0.00    -0.238 NA
ATOM    110  C   UNL A   1      47.528  27.741  23.432  1.00  0.00     0.029 A 
ATOM    111  H   UNL A   1      49.300  26.846  22.727  1.00  0.00     0.064 H 
ATOM    112  H   UNL A   1      47.652  28.587  22.851  1.00  0.00     0.084 H 
BRANCH 106 113
ATOM    113  N   UNL A   1      45.144  26.529  25.869  1.00  0.00    -0.340 N 
ATOM    114  H   UNL A   1      45.016  25.703  26.390  1.00  0.00     0.168 HD
BRANCH 113 115
ATOM    115  C   UNL A   1      44.197  27.551  26.058  1.00  0.00     0.040 A 
ATOM    116  C   UNL A   1      43.002  27.532  25.335  1.00  0.00    -0.039 A 
ATOM    117  C   UNL A   1      44.468  28.648  26.884  1.00  0.00    -0.026 A 
ATOM    118  C   UNL A   1      42.061  28.551  25.493  1.00  0.00    -0.060 A 
ATOM    119  H   UNL A   1      42.814  26.759  24.677  1.00  0.00     0.064 H 
ATOM    120  C   UNL A   1      43.544  29.690  27.041  1.00  0.00     0.058 A 
ATOM    121  H   UNL A   1      45.368  28.691  27.387  1.00  0.00     0.065 H 
ATOM    122  C   UNL A   1      42.327  29.622  26.346  1.00  0.00    -0.050 A 
ATOM    123  H   UNL A   1      41.167  28.512  24.979  1.00  0.00     0.062 H 
ATOM    124  H   UNL A   1      41.626  30.370  26.467  1.00  0.00     0.063 H 
BRANCH 120 125
ATOM    125  C   UNL A   1      43.846  30.857  27.941  1.00  0.00     0.416 C 
ATOM    126  F   UNL A   1      44.953  30.648  28.709  1.00  0.00    -0.166 F 
ATOM    127  F   UNL A   1      44.091  32.004  27.247  1.00  0.00    -0.166 F 
ATOM    128  F   UNL A   1      42.845  31.158  28.816  1.00  0.00    -0.166 F 
ENDBRANCH 120 125
ENDBRANCH 113 115
ENDBRANCH 106 113
ENDBRANCH 101 104
ENDBRANCH  97 100
ENDBRANCH  94  97
ENDBRANCH   1  94
TORSDOF 16
ENDMDL
MODEL 9
REMARK VINA RESULT:     -12.2      0.859      7.275
REMARK SMILES O=C(NCCCCCCNC(=O)c1cccnc1Nc1cccc(C(F)(F)F)c1)c1ccc(-c2c3nc(c(-c4c(F)c(F)c(F)c(F)c4F)c4ccc([nH]4)c(-c4c(F)c(F)c(F)c(F)c4F)c4nc(c(-c5c(F)c(F)c(F)c(F)c5F)c5ccc2[nH]5)C=C4)C=C3)cc1
REMARK SMILES IDX 7 1 6 4 5 7 4 10 3 13 1 14 2 15 30 17 31 18 92 19 32 20
REMARK SMILES IDX 91 22 33 24 34 27 35 28 85 29 36 30 90 31 84 32 86 33 37 34
REMARK SMILES IDX 89 35 83 37 82 39 38 41 70 44 50 45 69 46 51 47 54 48 68 49
REMARK SMILES IDX 87 50 52 51 53 53 67 55 88 56 55 59 39 61 40 62 48 63 41 64
REMARK SMILES IDX 42 65 46 66 49 67 43 68 44 69 47 70 45 71 71 72 72 73 80 74
REMARK SMILES IDX 73 75 74 76 78 77 81 78 75 79 76 80 79 81 77 82 56 83 57 84
REMARK SMILES IDX 65 85 58 86 59 87 63 88 66 89 60 90 61 91 64 92 62 93 8 94
REMARK SMILES IDX 9 97 10 100 11 101 12 103 13 104 14 105 18 106 15 107 17 109
REMARK SMILES IDX 16 110 19 113 20 115 21 116 29 117 22 118 24 120 23 122
REMARK SMILES IDX 25 125 26 126 27 127 28 128
REMARK H PARENT 7 2 7 3 6 5 6 6 5 8 5 9 4 11 4 12 3 16 31 21 92 23 32 25 91 26
REMARK H PARENT 90 36 84 38 86 40 89 42 83 43 51 52 54 54 87 57 52 58 88 60
REMARK H PARENT 8 95 8 96 9 98 9 99 10 102 14 108 15 111 16 112 19 114 21 119
REMARK H PARENT 29 121 22 123 23 124
REMARK Flexibility Score: inf
ROOT
ATOM      1  C   UNL A   1      32.014  29.711  26.300  1.00  0.00    -0.052 C 
ATOM      2  H   UNL A   1      31.252  28.961  26.250  1.00  0.00     0.027 H 
ATOM      3  H   UNL A   1      32.370  29.895  27.292  1.00  0.00     0.027 H 
ENDROOT
BRANCH   1   4
ATOM      4  C   UNL A   1      31.411  31.033  25.815  1.00  0.00    -0.052 C 
ATOM      5  H   UNL A   1      32.033  31.414  25.032  1.00  0.00     0.027 H 
ATOM      6  H   UNL A   1      30.415  30.809  25.496  1.00  0.00     0.027 H 
BRANCH   4   7
ATOM      7  C   UNL A   1      31.282  32.116  26.885  1.00  0.00    -0.036 C 
ATOM      8  H   UNL A   1      30.594  32.856  26.533  1.00  0.00     0.028 H 
ATOM      9  H   UNL A   1      30.947  31.627  27.776  1.00  0.00     0.028 H 
BRANCH   7  10
ATOM     10  C   UNL A   1      32.590  32.809  27.235  1.00  0.00     0.018 C 
ATOM     11  H   UNL A   1      33.025  32.317  28.080  1.00  0.00     0.049 H 
ATOM     12  H   UNL A   1      33.230  32.756  26.380  1.00  0.00     0.049 H 
BRANCH  10  13
ATOM     13  N   UNL A   1      32.397  34.213  27.561  1.00  0.00    -0.352 N 
ATOM     14  O   UNL A   1      32.598  36.078  28.821  1.00  0.00    -0.269 OA
ATOM     15  C   UNL A   1      33.001  34.951  28.545  1.00  0.00     0.251 C 
ATOM     16  H   UNL A   1      31.747  34.696  27.001  1.00  0.00     0.163 HD
BRANCH  15  17
ATOM     17  C   UNL A   1      34.143  34.373  29.282  1.00  0.00     0.039 A 
ATOM     18  C   UNL A   1      33.928  33.669  30.471  1.00  0.00    -0.049 A 
ATOM     19  C   UNL A   1      35.435  34.522  28.773  1.00  0.00    -0.049 A 
ATOM     20  C   UNL A   1      35.011  33.204  31.203  1.00  0.00    -0.053 A 
ATOM     21  H   UNL A   1      32.966  33.494  30.802  1.00  0.00     0.063 H 
ATOM     22  C   UNL A   1      36.517  33.974  29.465  1.00  0.00    -0.053 A 
ATOM     23  H   UNL A   1      35.589  35.034  27.890  1.00  0.00     0.063 H 
ATOM     24  C   UNL A   1      36.311  33.312  30.686  1.00  0.00    -0.014 A 
ATOM     25  H   UNL A   1      34.860  32.777  32.131  1.00  0.00     0.063 H 
ATOM     26  H   UNL A   1      37.470  34.056  29.078  1.00  0.00     0.063 H 
BRANCH  24  27
ATOM     27  C   UNL A   1      37.416  32.589  31.361  1.00  0.00     0.031 A 
ATOM     28  C   UNL A   1      37.916  33.001  32.712  1.00  0.00     0.074 A 
ATOM     29  C   UNL A   1      37.971  31.547  30.710  1.00  0.00     0.049 A 
ATOM     30  N   UNL A   1      38.897  32.489  33.414  1.00  0.00    -0.248 NA
ATOM     31  C   UNL A   1      37.242  34.134  33.364  1.00  0.00    -0.034 C 
ATOM     32  C   UNL A   1      37.570  31.078  29.379  1.00  0.00    -0.036 A 
ATOM     33  N   UNL A   1      38.986  30.697  31.066  1.00  0.00    -0.354 N 
ATOM     34  C   UNL A   1      38.972  33.246  34.575  1.00  0.00     0.074 A 
ATOM     35  C   UNL A   1      37.944  34.261  34.484  1.00  0.00    -0.034 C 
ATOM     36  H   UNL A   1      36.433  34.686  33.036  1.00  0.00     0.065 H 
ATOM     37  C   UNL A   1      38.310  30.014  29.043  1.00  0.00    -0.036 A 
ATOM     38  H   UNL A   1      36.832  31.502  28.795  1.00  0.00     0.065 H 
ATOM     39  C   UNL A   1      39.289  29.773  30.096  1.00  0.00     0.049 A 
ATOM     40  H   UNL A   1      39.451  30.744  31.933  1.00  0.00     0.167 HD
ATOM     41  C   UNL A   1      39.824  33.095  35.616  1.00  0.00     0.037 A 
ATOM     42  H   UNL A   1      37.779  34.990  35.196  1.00  0.00     0.065 H 
ATOM     43  H   UNL A   1      38.205  29.457  28.181  1.00  0.00     0.065 H 
ATOM     44  C   UNL A   1      40.275  28.861  30.036  1.00  0.00     0.037 A 
ATOM     45  C   UNL A   1      40.829  32.064  35.698  1.00  0.00     0.049 A 
ATOM     46  C   UNL A   1      41.227  28.752  31.193  1.00  0.00     0.074 A 
ATOM     47  C   UNL A   1      41.687  31.781  36.748  1.00  0.00    -0.036 A 
ATOM     48  N   UNL A   1      41.125  31.163  34.687  1.00  0.00    -0.354 N 
ATOM     49  N   UNL A   1      41.235  29.420  32.321  1.00  0.00    -0.248 NA
ATOM     50  C   UNL A   1      42.312  27.772  31.066  1.00  0.00    -0.034 C 
ATOM     51  C   UNL A   1      42.547  30.756  36.345  1.00  0.00    -0.036 A 
ATOM     52  H   UNL A   1      41.690  32.247  37.669  1.00  0.00     0.065 H 
ATOM     53  C   UNL A   1      42.186  30.356  35.068  1.00  0.00     0.049 A 
ATOM     54  H   UNL A   1      40.651  31.102  33.825  1.00  0.00     0.167 HD
ATOM     55  C   UNL A   1      42.315  28.935  33.041  1.00  0.00     0.074 A 
ATOM     56  C   UNL A   1      42.918  27.891  32.239  1.00  0.00    -0.034 C 
ATOM     57  H   UNL A   1      42.543  27.153  30.274  1.00  0.00     0.065 H 
ATOM     58  H   UNL A   1      43.321  30.363  36.905  1.00  0.00     0.065 H 
ATOM     59  C   UNL A   1      42.776  29.326  34.254  1.00  0.00     0.037 A 
ATOM     60  H   UNL A   1      43.717  27.313  32.541  1.00  0.00     0.065 H 
BRANCH  41  61
ATOM     61  C   UNL A   1      39.743  34.069  36.756  1.00  0.00     0.064 A 
ATOM     62  C   UNL A   1      38.961  33.815  37.892  1.00  0.00     0.173 A 
ATOM     63  C   UNL A   1      40.553  35.215  36.759  1.00  0.00     0.173 A 
ATOM     64  F   UNL A   1      38.166  32.736  37.938  1.00  0.00    -0.203 F 
ATOM     65  C   UNL A   1      38.992  34.676  38.988  1.00  0.00     0.198 A 
ATOM     66  C   UNL A   1      40.600  36.060  37.865  1.00  0.00     0.198 A 
ATOM     67  F   UNL A   1      41.326  35.500  35.699  1.00  0.00    -0.203 F 
ATOM     68  F   UNL A   1      38.224  34.423  40.057  1.00  0.00    -0.200 F 
ATOM     69  C   UNL A   1      39.820  35.790  38.978  1.00  0.00     0.200 A 
ATOM     70  F   UNL A   1      41.412  37.126  37.860  1.00  0.00    -0.200 F 
ATOM     71  F   UNL A   1      39.867  36.600  40.044  1.00  0.00    -0.200 F 
ENDBRANCH  41  61
BRANCH  44  72
ATOM     72  C   UNL A   1      40.444  28.020  28.821  1.00  0.00     0.064 A 
ATOM     73  C   UNL A   1      41.224  28.453  27.741  1.00  0.00     0.173 A 
ATOM     74  C   UNL A   1      39.804  26.776  28.707  1.00  0.00     0.173 A 
ATOM     75  F   UNL A   1      41.841  29.642  27.795  1.00  0.00    -0.203 F 
ATOM     76  C   UNL A   1      41.326  27.692  26.579  1.00  0.00     0.198 A 
ATOM     77  C   UNL A   1      39.941  25.997  27.560  1.00  0.00     0.198 A 
ATOM     78  F   UNL A   1      39.052  26.310  29.714  1.00  0.00    -0.203 F 
ATOM     79  F   UNL A   1      42.023  28.160  25.534  1.00  0.00    -0.200 F 
ATOM     80  C   UNL A   1      40.690  26.462  26.491  1.00  0.00     0.200 A 
ATOM     81  F   UNL A   1      39.340  24.802  27.490  1.00  0.00    -0.200 F 
ATOM     82  F   UNL A   1      40.788  25.732  25.372  1.00  0.00    -0.200 F 
ENDBRANCH  44  72
BRANCH  59  83
ATOM     83  C   UNL A   1      43.984  28.614  34.785  1.00  0.00     0.064 A 
ATOM     84  C   UNL A   1      43.869  27.421  35.516  1.00  0.00     0.173 A 
ATOM     85  C   UNL A   1      45.273  29.107  34.532  1.00  0.00     0.173 A 
ATOM     86  F   UNL A   1      42.656  26.920  35.800  1.00  0.00    -0.203 F 
ATOM     87  C   UNL A   1      44.997  26.763  35.995  1.00  0.00     0.198 A 
ATOM     88  C   UNL A   1      46.401  28.427  34.983  1.00  0.00     0.198 A 
ATOM     89  F   UNL A   1      45.439  30.241  33.835  1.00  0.00    -0.203 F 
ATOM     90  F   UNL A   1      44.859  25.655  36.736  1.00  0.00    -0.200 F 
ATOM     91  C   UNL A   1      46.262  27.261  35.721  1.00  0.00     0.200 A 
ATOM     92  F   UNL A   1      47.623  28.902  34.705  1.00  0.00    -0.200 F 
ATOM     93  F   UNL A   1      47.347  26.621  36.175  1.00  0.00    -0.200 F 
ENDBRANCH  59  83
ENDBRANCH  24  27
ENDBRANCH  15  17
ENDBRANCH  10  13
ENDBRANCH   7  10
ENDBRANCH   4   7
ENDBRANCH   1   4
BRANCH   1  94
ATOM     94  C   UNL A   1      33.224  29.213  25.501  1.00  0.00    -0.036 C 
ATOM     95  H   UNL A   1      33.982  29.968  25.539  1.00  0.00     0.028 H 
ATOM     96  H   UNL A   1      32.873  29.020  24.509  1.00  0.00     0.028 H 
BRANCH  94  97
ATOM     97  C   UNL A   1      33.828  27.906  26.008  1.00  0.00     0.018 C 
ATOM     98  H   UNL A   1      34.611  28.130  26.701  1.00  0.00     0.049 H 
ATOM     99  H   UNL A   1      34.207  27.363  25.167  1.00  0.00     0.049 H 
BRANCH  97 100
ATOM    100  N   UNL A   1      32.831  27.084  26.672  1.00  0.00    -0.352 N 
ATOM    101  C   UNL A   1      32.219  25.948  26.208  1.00  0.00     0.255 C 
ATOM    102  H   UNL A   1      32.561  27.380  27.570  1.00  0.00     0.163 HD
ATOM    103  O   UNL A   1      31.191  25.539  26.740  1.00  0.00    -0.269 OA
BRANCH 101 104
ATOM    104  C   UNL A   1      32.784  25.223  25.057  1.00  0.00     0.082 A 
ATOM    105  C   UNL A   1      34.033  24.599  25.170  1.00  0.00    -0.044 A 
ATOM    106  C   UNL A   1      32.055  25.104  23.869  1.00  0.00     0.143 A 
ATOM    107  C   UNL A   1      34.570  23.946  24.070  1.00  0.00    -0.043 A 
ATOM    108  H   UNL A   1      34.549  24.625  26.064  1.00  0.00     0.063 H 
ATOM    109  N   UNL A   1      32.595  24.470  22.797  1.00  0.00    -0.238 NA
ATOM    110  C   UNL A   1      33.822  23.918  22.912  1.00  0.00     0.029 A 
ATOM    111  H   UNL A   1      35.499  23.496  24.118  1.00  0.00     0.064 H 
ATOM    112  H   UNL A   1      34.224  23.448  22.084  1.00  0.00     0.084 H 
BRANCH 106 113
ATOM    113  N   UNL A   1      30.796  25.728  23.722  1.00  0.00    -0.340 N 
ATOM    114  H   UNL A   1      30.006  25.199  23.980  1.00  0.00     0.168 HD
BRANCH 113 115
ATOM    115  C   UNL A   1      30.561  27.028  23.242  1.00  0.00     0.040 A 
ATOM    116  C   UNL A   1      31.625  27.791  22.754  1.00  0.00    -0.039 A 
ATOM    117  C   UNL A   1      29.295  27.618  23.334  1.00  0.00    -0.026 A 
ATOM    118  C   UNL A   1      31.413  29.091  22.295  1.00  0.00    -0.060 A 
ATOM    119  H   UNL A   1      32.576  27.389  22.735  1.00  0.00     0.064 H 
ATOM    120  C   UNL A   1      29.067  28.930  22.895  1.00  0.00     0.058 A 
ATOM    121  H   UNL A   1      28.513  27.076  23.735  1.00  0.00     0.065 H 
ATOM    122  C   UNL A   1      30.140  29.657  22.359  1.00  0.00    -0.050 A 
ATOM    123  H   UNL A   1      32.200  29.636  21.906  1.00  0.00     0.062 H 
ATOM    124  H   UNL A   1      29.985  30.616  22.011  1.00  0.00     0.063 H 
BRANCH 120 125
ATOM    125  C   UNL A   1      27.697  29.546  22.991  1.00  0.00     0.416 C 
ATOM    126  F   UNL A   1      27.268  30.048  21.799  1.00  0.00    -0.166 F 
ATOM    127  F   UNL A   1      26.747  28.649  23.378  1.00  0.00    -0.166 F 
ATOM    128  F   UNL A   1      27.615  30.579  23.876  1.00  0.00    -0.166 F 
ENDBRANCH 120 125
ENDBRANCH 113 115
ENDBRANCH 106 113
ENDBRANCH 101 104
ENDBRANCH  97 100
ENDBRANCH  94  97
ENDBRANCH   1  94
TORSDOF 16
ENDMDL
MODEL 10
REMARK VINA RESULT:     -12.2      2.680      3.880
REMARK SMILES O=C(NCCCCCCNC(=O)c1cccnc1Nc1cccc(C(F)(F)F)c1)c1ccc(-c2c3nc(c(-c4c(F)c(F)c(F)c(F)c4F)c4ccc([nH]4)c(-c4c(F)c(F)c(F)c(F)c4F)c4nc(c(-c5c(F)c(F)c(F)c(F)c5F)c5ccc2[nH]5)C=C4)C=C3)cc1
REMARK SMILES IDX 7 1 6 4 5 7 4 10 3 13 1 14 2 15 30 17 31 18 92 19 32 20
REMARK SMILES IDX 91 22 33 24 34 27 35 28 85 29 36 30 90 31 84 32 86 33 37 34
REMARK SMILES IDX 89 35 83 37 82 39 38 41 70 44 50 45 69 46 51 47 54 48 68 49
REMARK SMILES IDX 87 50 52 51 53 53 67 55 88 56 55 59 39 61 40 62 48 63 41 64
REMARK SMILES IDX 42 65 46 66 49 67 43 68 44 69 47 70 45 71 71 72 72 73 80 74
REMARK SMILES IDX 73 75 74 76 78 77 81 78 75 79 76 80 79 81 77 82 56 83 57 84
REMARK SMILES IDX 65 85 58 86 59 87 63 88 66 89 60 90 61 91 64 92 62 93 8 94
REMARK SMILES IDX 9 97 10 100 11 101 12 103 13 104 14 105 18 106 15 107 17 109
REMARK SMILES IDX 16 110 19 113 20 115 21 116 29 117 22 118 24 120 23 122
REMARK SMILES IDX 25 125 26 126 27 127 28 128
REMARK H PARENT 7 2 7 3 6 5 6 6 5 8 5 9 4 11 4 12 3 16 31 21 92 23 32 25 91 26
REMARK H PARENT 90 36 84 38 86 40 89 42 83 43 51 52 54 54 87 57 52 58 88 60
REMARK H PARENT 8 95 8 96 9 98 9 99 10 102 14 108 15 111 16 112 19 114 21 119
REMARK H PARENT 29 121 22 123 23 124
REMARK Flexibility Score: inf
ROOT
ATOM      1  C   UNL A   1      32.835  29.873  27.226  1.00  0.00    -0.052 C 
ATOM      2  H   UNL A   1      32.761  30.201  28.241  1.00  0.00     0.027 H 
ATOM      3  H   UNL A   1      33.766  30.121  26.762  1.00  0.00     0.027 H 
ENDROOT
BRANCH   1   4
ATOM      4  C   UNL A   1      31.753  30.592  26.414  1.00  0.00    -0.052 C 
ATOM      5  H   UNL A   1      32.038  30.565  25.384  1.00  0.00     0.027 H 
ATOM      6  H   UNL A   1      30.836  30.078  26.616  1.00  0.00     0.027 H 
BRANCH   4   7
ATOM      7  C   UNL A   1      31.518  32.052  26.802  1.00  0.00    -0.036 C 
ATOM      8  H   UNL A   1      31.071  32.552  25.969  1.00  0.00     0.028 H 
ATOM      9  H   UNL A   1      30.888  32.041  27.668  1.00  0.00     0.028 H 
BRANCH   7  10
ATOM     10  C   UNL A   1      32.779  32.807  27.191  1.00  0.00     0.018 C 
ATOM     11  H   UNL A   1      33.252  32.294  28.003  1.00  0.00     0.049 H 
ATOM     12  H   UNL A   1      33.416  32.849  26.332  1.00  0.00     0.049 H 
BRANCH  10  13
ATOM     13  N   UNL A   1      32.496  34.172  27.603  1.00  0.00    -0.352 N 
ATOM     14  O   UNL A   1      32.573  35.963  28.979  1.00  0.00    -0.269 OA
ATOM     15  C   UNL A   1      33.048  34.883  28.636  1.00  0.00     0.251 C 
ATOM     16  H   UNL A   1      31.820  34.648  27.069  1.00  0.00     0.163 HD
BRANCH  15  17
ATOM     17  C   UNL A   1      34.222  34.333  29.345  1.00  0.00     0.039 A 
ATOM     18  C   UNL A   1      34.046  33.549  30.489  1.00  0.00    -0.049 A 
ATOM     19  C   UNL A   1      35.503  34.588  28.852  1.00  0.00    -0.049 A 
ATOM     20  C   UNL A   1      35.154  33.108  31.200  1.00  0.00    -0.053 A 
ATOM     21  H   UNL A   1      33.096  33.299  30.804  1.00  0.00     0.063 H 
ATOM     22  C   UNL A   1      36.615  34.067  29.517  1.00  0.00    -0.053 A 
ATOM     23  H   UNL A   1      35.628  35.160  28.001  1.00  0.00     0.063 H 
ATOM     24  C   UNL A   1      36.447  33.324  30.697  1.00  0.00    -0.014 A 
ATOM     25  H   UNL A   1      35.027  32.620  32.101  1.00  0.00     0.063 H 
ATOM     26  H   UNL A   1      37.562  34.228  29.141  1.00  0.00     0.063 H 
BRANCH  24  27
ATOM     27  C   UNL A   1      37.592  32.631  31.335  1.00  0.00     0.031 A 
ATOM     28  C   UNL A   1      38.272  31.467  30.680  1.00  0.00     0.074 A 
ATOM     29  C   UNL A   1      37.999  33.076  32.541  1.00  0.00     0.049 A 
ATOM     30  N   UNL A   1      39.262  30.737  31.129  1.00  0.00    -0.248 NA
ATOM     31  C   UNL A   1      37.781  31.059  29.355  1.00  0.00    -0.034 C 
ATOM     32  C   UNL A   1      37.389  34.190  33.275  1.00  0.00    -0.036 A 
ATOM     33  N   UNL A   1      39.009  32.653  33.365  1.00  0.00    -0.354 N 
ATOM     34  C   UNL A   1      39.500  29.775  30.158  1.00  0.00     0.074 A 
ATOM     35  C   UNL A   1      38.544  30.003  29.095  1.00  0.00    -0.034 C 
ATOM     36  H   UNL A   1      37.037  31.483  28.777  1.00  0.00     0.065 H 
ATOM     37  C   UNL A   1      38.051  34.378  34.424  1.00  0.00    -0.036 A 
ATOM     38  H   UNL A   1      36.578  34.742  32.955  1.00  0.00     0.065 H 
ATOM     39  C   UNL A   1      39.078  33.352  34.546  1.00  0.00     0.049 A 
ATOM     40  H   UNL A   1      39.625  31.921  33.133  1.00  0.00     0.167 HD
ATOM     41  C   UNL A   1      40.435  28.796  30.164  1.00  0.00     0.037 A 
ATOM     42  H   UNL A   1      38.466  29.421  28.246  1.00  0.00     0.065 H 
ATOM     43  H   UNL A   1      37.863  35.126  35.110  1.00  0.00     0.065 H 
ATOM     44  C   UNL A   1      39.851  33.162  35.629  1.00  0.00     0.037 A 
ATOM     45  C   UNL A   1      41.392  28.596  31.224  1.00  0.00     0.049 A 
ATOM     46  C   UNL A   1      40.848  32.039  35.615  1.00  0.00     0.074 A 
ATOM     47  C   UNL A   1      42.431  27.682  31.284  1.00  0.00    -0.036 A 
ATOM     48  N   UNL A   1      41.417  29.306  32.415  1.00  0.00    -0.354 N 
ATOM     49  N   UNL A   1      41.118  31.187  34.655  1.00  0.00    -0.248 NA
ATOM     50  C   UNL A   1      41.641  31.842  36.834  1.00  0.00    -0.034 C 
ATOM     51  C   UNL A   1      43.037  27.791  32.538  1.00  0.00    -0.036 A 
ATOM     52  H   UNL A   1      42.708  27.032  30.531  1.00  0.00     0.065 H 
ATOM     53  C   UNL A   1      42.419  28.815  33.237  1.00  0.00     0.049 A 
ATOM     54  H   UNL A   1      40.812  30.049  32.644  1.00  0.00     0.167 HD
ATOM     55  C   UNL A   1      42.117  30.362  35.150  1.00  0.00     0.074 A 
ATOM     56  C   UNL A   1      42.431  30.839  36.481  1.00  0.00    -0.034 C 
ATOM     57  H   UNL A   1      41.597  32.352  37.730  1.00  0.00     0.065 H 
ATOM     58  H   UNL A   1      43.815  27.206  32.884  1.00  0.00     0.065 H 
ATOM     59  C   UNL A   1      42.713  29.298  34.561  1.00  0.00     0.037 A 
ATOM     60  H   UNL A   1      43.174  30.447  37.079  1.00  0.00     0.065 H 
BRANCH  41  61
ATOM     61  C   UNL A   1      40.477  27.837  29.010  1.00  0.00     0.064 A 
ATOM     62  C   UNL A   1      39.671  26.691  28.971  1.00  0.00     0.173 A 
ATOM     63  C   UNL A   1      41.249  28.136  27.876  1.00  0.00     0.173 A 
ATOM     64  F   UNL A   1      38.918  26.357  30.029  1.00  0.00    -0.203 F 
ATOM     65  C   UNL A   1      39.639  25.877  27.839  1.00  0.00     0.198 A 
ATOM     66  C   UNL A   1      41.197  27.335  26.738  1.00  0.00     0.198 A 
ATOM     67  F   UNL A   1      42.032  29.226  27.860  1.00  0.00    -0.203 F 
ATOM     68  F   UNL A   1      38.874  24.777  27.829  1.00  0.00    -0.200 F 
ATOM     69  C   UNL A   1      40.392  26.206  26.721  1.00  0.00     0.200 A 
ATOM     70  F   UNL A   1      41.912  27.664  25.654  1.00  0.00    -0.200 F 
ATOM     71  F   UNL A   1      40.338  25.437  25.625  1.00  0.00    -0.200 F 
ENDBRANCH  41  61
BRANCH  44  72
ATOM     72  C   UNL A   1      39.676  34.017  36.833  1.00  0.00     0.064 A 
ATOM     73  C   UNL A   1      38.882  33.602  37.910  1.00  0.00     0.173 A 
ATOM     74  C   UNL A   1      40.279  35.282  36.917  1.00  0.00     0.173 A 
ATOM     75  F   UNL A   1      38.271  32.408  37.870  1.00  0.00    -0.203 F 
ATOM     76  C   UNL A   1      38.668  34.433  39.007  1.00  0.00     0.198 A 
ATOM     77  C   UNL A   1      40.096  36.095  38.033  1.00  0.00     0.198 A 
ATOM     78  F   UNL A   1      41.055  35.726  35.918  1.00  0.00    -0.203 F 
ATOM     79  F   UNL A   1      37.850  34.039  39.993  1.00  0.00    -0.200 F 
ATOM     80  C   UNL A   1      39.279  35.676  39.071  1.00  0.00     0.200 A 
ATOM     81  F   UNL A   1      40.706  37.286  38.097  1.00  0.00    -0.200 F 
ATOM     82  F   UNL A   1      39.070  36.476  40.125  1.00  0.00    -0.200 F 
ENDBRANCH  44  72
BRANCH  59  83
ATOM     83  C   UNL A   1      43.770  28.586  35.352  1.00  0.00     0.064 A 
ATOM     84  C   UNL A   1      43.445  27.550  36.241  1.00  0.00     0.173 A 
ATOM     85  C   UNL A   1      45.125  28.917  35.195  1.00  0.00     0.173 A 
ATOM     86  F   UNL A   1      42.162  27.211  36.441  1.00  0.00    -0.203 F 
ATOM     87  C   UNL A   1      44.434  26.889  36.963  1.00  0.00     0.198 A 
ATOM     88  C   UNL A   1      46.114  28.230  35.892  1.00  0.00     0.198 A 
ATOM     89  F   UNL A   1      45.489  29.897  34.355  1.00  0.00    -0.203 F 
ATOM     90  F   UNL A   1      44.096  25.940  37.845  1.00  0.00    -0.200 F 
ATOM     91  C   UNL A   1      45.768  27.223  36.781  1.00  0.00     0.200 A 
ATOM     92  F   UNL A   1      47.403  28.544  35.705  1.00  0.00    -0.200 F 
ATOM     93  F   UNL A   1      46.720  26.579  37.468  1.00  0.00    -0.200 F 
ENDBRANCH  59  83
ENDBRANCH  24  27
ENDBRANCH  15  17
ENDBRANCH  10  13
ENDBRANCH   7  10
ENDBRANCH   4   7
ENDBRANCH   1   4
BRANCH   1  94
ATOM     94  C   UNL A   1      32.750  28.342  27.214  1.00  0.00    -0.036 C 
ATOM     95  H   UNL A   1      32.867  27.994  28.220  1.00  0.00     0.028 H 
ATOM     96  H   UNL A   1      33.524  28.001  26.559  1.00  0.00     0.028 H 
BRANCH  94  97
ATOM     97  C   UNL A   1      31.442  27.781  26.666  1.00  0.00     0.018 C 
ATOM     98  H   UNL A   1      31.371  28.016  25.625  1.00  0.00     0.049 H 
ATOM     99  H   UNL A   1      30.632  28.221  27.211  1.00  0.00     0.049 H 
BRANCH  97 100
ATOM    100  N   UNL A   1      31.372  26.339  26.830  1.00  0.00    -0.352 N 
ATOM    101  C   UNL A   1      31.438  25.369  25.865  1.00  0.00     0.255 C 
ATOM    102  H   UNL A   1      31.264  26.019  27.753  1.00  0.00     0.163 HD
ATOM    103  O   UNL A   1      31.064  24.225  26.111  1.00  0.00    -0.269 OA
BRANCH 101 104
ATOM    104  C   UNL A   1      31.944  25.698  24.520  1.00  0.00     0.082 A 
ATOM    105  C   UNL A   1      31.062  26.174  23.541  1.00  0.00    -0.044 A 
ATOM    106  C   UNL A   1      33.308  25.594  24.233  1.00  0.00     0.143 A 
ATOM    107  C   UNL A   1      31.542  26.451  22.269  1.00  0.00    -0.043 A 
ATOM    108  H   UNL A   1      30.064  26.316  23.764  1.00  0.00     0.063 H 
ATOM    109  N   UNL A   1      33.765  25.859  22.981  1.00  0.00    -0.238 NA
ATOM    110  C   UNL A   1      32.889  26.269  22.038  1.00  0.00     0.029 A 
ATOM    111  H   UNL A   1      30.911  26.781  21.521  1.00  0.00     0.064 H 
ATOM    112  H   UNL A   1      33.250  26.457  21.088  1.00  0.00     0.084 H 
BRANCH 106 113
ATOM    113  N   UNL A   1      34.221  25.111  25.196  1.00  0.00    -0.340 N 
ATOM    114  H   UNL A   1      34.402  25.695  25.968  1.00  0.00     0.168 HD
BRANCH 113 115
ATOM    115  C   UNL A   1      34.897  23.879  25.159  1.00  0.00     0.040 A 
ATOM    116  C   UNL A   1      36.294  23.854  25.155  1.00  0.00    -0.039 A 
ATOM    117  C   UNL A   1      34.201  22.673  25.024  1.00  0.00    -0.026 A 
ATOM    118  C   UNL A   1      36.981  22.641  25.096  1.00  0.00    -0.060 A 
ATOM    119  H   UNL A   1      36.822  24.740  25.194  1.00  0.00     0.064 H 
ATOM    120  C   UNL A   1      34.874  21.446  24.944  1.00  0.00     0.058 A 
ATOM    121  H   UNL A   1      33.170  22.687  24.982  1.00  0.00     0.065 H 
ATOM    122  C   UNL A   1      36.275  21.441  24.997  1.00  0.00    -0.050 A 
ATOM    123  H   UNL A   1      38.013  22.630  25.126  1.00  0.00     0.062 H 
ATOM    124  H   UNL A   1      36.787  20.546  24.961  1.00  0.00     0.063 H 
BRANCH 120 125
ATOM    125  C   UNL A   1      34.110  20.156  24.811  1.00  0.00     0.416 C 
ATOM    126  F   UNL A   1      33.407  19.850  25.938  1.00  0.00    -0.166 F 
ATOM    127  F   UNL A   1      33.193  20.194  23.802  1.00  0.00    -0.166 F 
ATOM    128  F   UNL A   1      34.894  19.070  24.560  1.00  0.00    -0.166 F 
ENDBRANCH 120 125
ENDBRANCH 113 115
ENDBRANCH 106 113
ENDBRANCH 101 104
ENDBRANCH  97 100
ENDBRANCH  94  97
ENDBRANCH   1  94
TORSDOF 16
ENDMDL
