MODEL 1
REMARK VINA RESULT:     -12.5      0.000      0.000
REMARK SMILES C[C@@H](C(=O)NCCCCCCNC(=O)c1ccc(-c2c3nc(c(-c4c(F)c(F)c(F)c(F)c4F)c4ccc([nH]4)c(-c4c(F)c(F)c(F)c(F)c4F)c4nc(c(-c5c(F)c(F)c(F)c(F)c5F)c5ccc2[nH]5)C=C4)C=C3)cc1)c1ccc(C[C@@H]2CCC[C@@H]2O)cc1Br
REMARK SMILES IDX 7 1 6 4 5 7 3 8 4 9 2 11 1 13 78 17 79 18 90 19 80 20 89 22
REMARK SMILES IDX 91 23 81 24 82 27 83 30 84 31 87 32 85 34 86 37 88 43 8 45
REMARK SMILES IDX 9 48 10 51 11 54 12 57 13 58 14 60 15 61 16 62 77 63 17 64
REMARK SMILES IDX 76 66 18 68 19 71 20 72 70 73 21 74 75 75 69 76 71 77 22 78
REMARK SMILES IDX 74 79 68 81 67 83 23 85 55 88 35 89 54 90 36 91 39 92 53 93
REMARK SMILES IDX 72 94 37 95 38 97 52 99 73 100 40 103 24 105 25 106 33 107
REMARK SMILES IDX 26 108 27 109 31 110 34 111 28 112 29 113 32 114 30 115
REMARK SMILES IDX 56 116 57 117 65 118 58 119 59 120 63 121 66 122 60 123
REMARK SMILES IDX 61 124 64 125 62 126 41 127 42 128 50 129 43 130 44 131
REMARK SMILES IDX 48 132 51 133 45 134 46 135 49 136 47 137
REMARK H PARENT 7 2 7 3 6 5 6 6 5 10 2 12 1 14 1 15 1 16 79 21 80 25 89 26
REMARK H PARENT 82 28 82 29 83 33 84 35 84 36 87 38 85 39 85 40 86 41 86 42
REMARK H PARENT 88 44 8 46 8 47 9 49 9 50 10 52 10 53 11 55 11 56 12 59 16 65
REMARK H PARENT 77 67 17 69 76 70 75 80 69 82 71 84 74 86 68 87 36 96 39 98
REMARK H PARENT 72 101 37 102 73 104
REMARK Flexibility Score: inf
ROOT
ATOM      1  C   UNL A   1      33.591  28.847  26.918  1.00  0.00    -0.036 C 
ATOM      2  H   UNL A   1      34.287  29.635  26.716  1.00  0.00     0.028 H 
ATOM      3  H   UNL A   1      33.816  28.325  27.824  1.00  0.00     0.028 H 
ENDROOT
BRANCH   1   4
ATOM      4  C   UNL A   1      33.676  27.824  25.782  1.00  0.00     0.017 C 
ATOM      5  H   UNL A   1      33.597  28.332  24.842  1.00  0.00     0.049 H 
ATOM      6  H   UNL A   1      34.613  27.312  25.840  1.00  0.00     0.049 H 
BRANCH   4   7
ATOM      7  N   UNL A   1      32.603  26.864  25.898  1.00  0.00    -0.356 N 
ATOM      8  C   UNL A   1      32.300  25.794  25.109  1.00  0.00     0.227 C 
ATOM      9  O   UNL A   1      31.204  25.261  25.300  1.00  0.00    -0.274 OA
ATOM     10  H   UNL A   1      31.999  27.002  26.663  1.00  0.00     0.163 HD
BRANCH   8  11
ATOM     11  C   UNL A   1      33.313  25.293  24.063  1.00  0.00     0.061 C 
ATOM     12  H   UNL A   1      34.291  25.570  24.398  1.00  0.00     0.045 H 
BRANCH  11  13
ATOM     13  C   UNL A   1      33.116  25.966  22.696  1.00  0.00    -0.049 C 
ATOM     14  H   UNL A   1      32.158  26.439  22.666  1.00  0.00     0.024 H 
ATOM     15  H   UNL A   1      33.175  25.228  21.924  1.00  0.00     0.024 H 
ATOM     16  H   UNL A   1      33.881  26.700  22.546  1.00  0.00     0.024 H 
ENDBRANCH  11  13
BRANCH  11  17
ATOM     17  C   UNL A   1      33.253  23.769  23.952  1.00  0.00    -0.022 A 
ATOM     18  C   UNL A   1      32.386  23.184  23.009  1.00  0.00    -0.057 A 
ATOM     19  C   UNL A   1      33.948  22.907  24.817  1.00  0.00     0.022 A 
ATOM     20  C   UNL A   1      32.224  21.804  22.923  1.00  0.00    -0.059 A 
ATOM     21  H   UNL A   1      31.858  23.794  22.365  1.00  0.00     0.063 H 
ATOM     22  C   UNL A   1      33.759  21.519  24.748  1.00  0.00    -0.044 A 
ATOM     23  Br  UNL A   1      35.150  23.538  26.151  1.00  0.00    -0.051 Br
ATOM     24  C   UNL A   1      32.873  20.956  23.819  1.00  0.00    -0.047 A 
ATOM     25  H   UNL A   1      31.617  21.404  22.189  1.00  0.00     0.063 H 
ATOM     26  H   UNL A   1      34.281  20.903  25.391  1.00  0.00     0.064 H 
BRANCH  24  27
ATOM     27  C   UNL A   1      32.593  19.475  23.819  1.00  0.00    -0.023 C 
ATOM     28  H   UNL A   1      32.415  19.185  22.805  1.00  0.00     0.032 H 
ATOM     29  H   UNL A   1      31.765  19.362  24.488  1.00  0.00     0.032 H 
BRANCH  27  30
ATOM     30  C   UNL A   1      33.679  18.528  24.386  1.00  0.00    -0.011 C 
ATOM     31  C   UNL A   1      34.101  17.380  23.461  1.00  0.00    -0.048 C 
ATOM     32  C   UNL A   1      33.358  17.794  25.692  1.00  0.00     0.057 C 
ATOM     33  H   UNL A   1      34.441  19.267  24.526  1.00  0.00     0.033 H 
ATOM     34  C   UNL A   1      33.363  16.127  23.947  1.00  0.00    -0.050 C 
ATOM     35  H   UNL A   1      35.158  17.230  23.518  1.00  0.00     0.027 H 
ATOM     36  H   UNL A   1      33.857  17.597  22.442  1.00  0.00     0.027 H 
ATOM     37  C   UNL A   1      32.679  16.504  25.258  1.00  0.00    -0.027 C 
ATOM     38  H   UNL A   1      34.250  17.615  26.254  1.00  0.00     0.060 H 
ATOM     39  H   UNL A   1      34.058  15.330  24.109  1.00  0.00     0.027 H 
ATOM     40  H   UNL A   1      32.650  15.794  23.222  1.00  0.00     0.027 H 
ATOM     41  H   UNL A   1      32.820  15.737  25.991  1.00  0.00     0.029 H 
ATOM     42  H   UNL A   1      31.621  16.622  25.143  1.00  0.00     0.029 H 
BRANCH  32  43
ATOM     43  O   UNL A   1      32.563  18.543  26.589  1.00  0.00    -0.393 OA
ATOM     44  H   UNL A   1      32.118  19.257  26.107  1.00  0.00     0.210 HD
ENDBRANCH  32  43
ENDBRANCH  27  30
ENDBRANCH  24  27
ENDBRANCH  11  17
ENDBRANCH   8  11
ENDBRANCH   4   7
ENDBRANCH   1   4
BRANCH   1  45
ATOM     45  C   UNL A   1      32.196  29.464  27.090  1.00  0.00    -0.052 C 
ATOM     46  H   UNL A   1      32.144  29.902  28.066  1.00  0.00     0.027 H 
ATOM     47  H   UNL A   1      31.496  28.668  26.946  1.00  0.00     0.027 H 
BRANCH  45  48
ATOM     48  C   UNL A   1      31.837  30.544  26.065  1.00  0.00    -0.052 C 
ATOM     49  H   UNL A   1      30.985  30.207  25.510  1.00  0.00     0.027 H 
ATOM     50  H   UNL A   1      32.706  30.685  25.456  1.00  0.00     0.027 H 
BRANCH  48  51
ATOM     51  C   UNL A   1      31.504  31.911  26.665  1.00  0.00    -0.036 C 
ATOM     52  H   UNL A   1      30.720  31.781  27.382  1.00  0.00     0.028 H 
ATOM     53  H   UNL A   1      31.221  32.544  25.850  1.00  0.00     0.028 H 
BRANCH  51  54
ATOM     54  C   UNL A   1      32.677  32.593  27.360  1.00  0.00     0.018 C 
ATOM     55  H   UNL A   1      33.544  32.509  26.738  1.00  0.00     0.049 H 
ATOM     56  H   UNL A   1      32.830  32.110  28.303  1.00  0.00     0.049 H 
BRANCH  54  57
ATOM     57  N   UNL A   1      32.416  34.002  27.614  1.00  0.00    -0.352 N 
ATOM     58  C   UNL A   1      32.989  34.837  28.538  1.00  0.00     0.251 C 
ATOM     59  H   UNL A   1      31.728  34.413  27.042  1.00  0.00     0.163 HD
ATOM     60  O   UNL A   1      32.506  35.944  28.763  1.00  0.00    -0.269 OA
BRANCH  58  61
ATOM     61  C   UNL A   1      34.184  34.391  29.282  1.00  0.00     0.039 A 
ATOM     62  C   UNL A   1      34.026  33.851  30.560  1.00  0.00    -0.049 A 
ATOM     63  C   UNL A   1      35.457  34.494  28.712  1.00  0.00    -0.049 A 
ATOM     64  C   UNL A   1      35.136  33.348  31.240  1.00  0.00    -0.053 A 
ATOM     65  H   UNL A   1      33.093  33.825  31.000  1.00  0.00     0.063 H 
ATOM     66  C   UNL A   1      36.550  33.927  29.359  1.00  0.00    -0.053 A 
ATOM     67  H   UNL A   1      35.585  34.989  27.816  1.00  0.00     0.063 H 
ATOM     68  C   UNL A   1      36.401  33.343  30.627  1.00  0.00    -0.014 A 
ATOM     69  H   UNL A   1      35.029  32.977  32.197  1.00  0.00     0.063 H 
ATOM     70  H   UNL A   1      37.477  33.936  28.904  1.00  0.00     0.063 H 
BRANCH  68  71
ATOM     71  C   UNL A   1      37.573  32.710  31.281  1.00  0.00     0.031 A 
ATOM     72  C   UNL A   1      38.280  31.562  30.617  1.00  0.00     0.074 A 
ATOM     73  C   UNL A   1      37.946  33.114  32.511  1.00  0.00     0.049 A 
ATOM     74  N   UNL A   1      39.256  30.816  31.072  1.00  0.00    -0.248 NA
ATOM     75  C   UNL A   1      37.812  31.183  29.275  1.00  0.00    -0.034 C 
ATOM     76  C   UNL A   1      37.309  34.187  33.276  1.00  0.00    -0.036 A 
ATOM     77  N   UNL A   1      38.939  32.659  33.343  1.00  0.00    -0.354 N 
ATOM     78  C   UNL A   1      39.503  29.873  30.084  1.00  0.00     0.074 A 
ATOM     79  C   UNL A   1      38.549  30.109  29.023  1.00  0.00    -0.034 C 
ATOM     80  H   UNL A   1      37.097  31.634  28.684  1.00  0.00     0.065 H 
ATOM     81  C   UNL A   1      37.931  34.315  34.459  1.00  0.00    -0.036 A 
ATOM     82  H   UNL A   1      36.508  34.756  32.957  1.00  0.00     0.065 H 
ATOM     83  C   UNL A   1      38.980  33.304  34.556  1.00  0.00     0.049 A 
ATOM     84  H   UNL A   1      39.562  31.939  33.095  1.00  0.00     0.167 HD
ATOM     85  C   UNL A   1      40.453  28.908  30.059  1.00  0.00     0.037 A 
ATOM     86  H   UNL A   1      38.454  29.521  28.181  1.00  0.00     0.065 H 
ATOM     87  H   UNL A   1      37.706  35.016  35.182  1.00  0.00     0.065 H 
ATOM     88  C   UNL A   1      39.758  33.090  35.633  1.00  0.00     0.037 A 
ATOM     89  C   UNL A   1      41.419  28.697  31.106  1.00  0.00     0.049 A 
ATOM     90  C   UNL A   1      40.794  31.998  35.585  1.00  0.00     0.074 A 
ATOM     91  C   UNL A   1      42.475  27.803  31.136  1.00  0.00    -0.036 A 
ATOM     92  N   UNL A   1      41.438  29.379  32.314  1.00  0.00    -0.354 N 
ATOM     93  N   UNL A   1      41.078  31.170  34.608  1.00  0.00    -0.248 NA
ATOM     94  C   UNL A   1      41.618  31.809  36.787  1.00  0.00    -0.034 C 
ATOM     95  C   UNL A   1      43.093  27.898  32.386  1.00  0.00    -0.036 A 
ATOM     96  H   UNL A   1      42.757  27.174  30.368  1.00  0.00     0.065 H 
ATOM     97  C   UNL A   1      42.463  28.897  33.111  1.00  0.00     0.049 A 
ATOM     98  H   UNL A   1      40.817  30.100  32.566  1.00  0.00     0.167 HD
ATOM     99  C   UNL A   1      42.126  30.384  35.066  1.00  0.00     0.074 A 
ATOM    100  C   UNL A   1      42.442  30.845  36.402  1.00  0.00    -0.034 C 
ATOM    101  H   UNL A   1      41.568  32.299  37.694  1.00  0.00     0.065 H 
ATOM    102  H   UNL A   1      43.885  27.323  32.713  1.00  0.00     0.065 H 
ATOM    103  C   UNL A   1      42.768  29.369  34.437  1.00  0.00     0.037 A 
ATOM    104  H   UNL A   1      43.209  30.469  36.981  1.00  0.00     0.065 H 
BRANCH  85 105
ATOM    105  C   UNL A   1      40.500  27.997  28.866  1.00  0.00     0.064 A 
ATOM    106  C   UNL A   1      39.764  26.805  28.816  1.00  0.00     0.173 A 
ATOM    107  C   UNL A   1      41.244  28.357  27.732  1.00  0.00     0.173 A 
ATOM    108  F   UNL A   1      39.043  26.410  29.876  1.00  0.00    -0.203 F 
ATOM    109  C   UNL A   1      39.792  25.993  27.684  1.00  0.00     0.198 A 
ATOM    110  C   UNL A   1      41.244  27.559  26.591  1.00  0.00     0.198 A 
ATOM    111  F   UNL A   1      41.961  29.491  27.723  1.00  0.00    -0.203 F 
ATOM    112  F   UNL A   1      39.114  24.836  27.675  1.00  0.00    -0.200 F 
ATOM    113  C   UNL A   1      40.523  26.374  26.570  1.00  0.00     0.200 A 
ATOM    114  F   UNL A   1      41.939  27.939  25.509  1.00  0.00    -0.200 F 
ATOM    115  F   UNL A   1      40.537  25.600  25.477  1.00  0.00    -0.200 F 
ENDBRANCH  85 105
BRANCH  88 116
ATOM    116  C   UNL A   1      39.588  33.920  36.856  1.00  0.00     0.064 A 
ATOM    117  C   UNL A   1      38.792  33.483  37.923  1.00  0.00     0.173 A 
ATOM    118  C   UNL A   1      40.201  35.177  36.975  1.00  0.00     0.173 A 
ATOM    119  F   UNL A   1      38.168  32.297  37.850  1.00  0.00    -0.203 F 
ATOM    120  C   UNL A   1      38.591  34.280  39.047  1.00  0.00     0.198 A 
ATOM    121  C   UNL A   1      40.026  35.960  38.114  1.00  0.00     0.198 A 
ATOM    122  F   UNL A   1      40.977  35.643  35.985  1.00  0.00    -0.203 F 
ATOM    123  F   UNL A   1      37.778  33.861  40.027  1.00  0.00    -0.200 F 
ATOM    124  C   UNL A   1      39.213  35.516  39.145  1.00  0.00     0.200 A 
ATOM    125  F   UNL A   1      40.643  37.146  38.210  1.00  0.00    -0.200 F 
ATOM    126  F   UNL A   1      39.020  36.282  40.227  1.00  0.00    -0.200 F 
ENDBRANCH  88 116
BRANCH 103 127
ATOM    127  C   UNL A   1      43.894  28.702  35.173  1.00  0.00     0.064 A 
ATOM    128  C   UNL A   1      45.212  29.177  35.093  1.00  0.00     0.173 A 
ATOM    129  C   UNL A   1      43.642  27.608  36.015  1.00  0.00     0.173 A 
ATOM    130  F   UNL A   1      45.508  30.209  34.289  1.00  0.00    -0.203 F 
ATOM    131  C   UNL A   1      46.237  28.569  35.811  1.00  0.00     0.198 A 
ATOM    132  C   UNL A   1      44.664  27.024  36.758  1.00  0.00     0.198 A 
ATOM    133  F   UNL A   1      42.399  27.118  36.134  1.00  0.00    -0.203 F 
ATOM    134  F   UNL A   1      47.496  29.013  35.685  1.00  0.00    -0.200 F 
ATOM    135  C   UNL A   1      45.961  27.501  36.651  1.00  0.00     0.200 A 
ATOM    136  F   UNL A   1      44.391  26.002  37.583  1.00  0.00    -0.200 F 
ATOM    137  F   UNL A   1      46.947  26.927  37.355  1.00  0.00    -0.200 F 
ENDBRANCH 103 127
ENDBRANCH  68  71
ENDBRANCH  58  61
ENDBRANCH  54  57
ENDBRANCH  51  54
ENDBRANCH  48  51
ENDBRANCH  45  48
ENDBRANCH   1  45
TORSDOF 18
ENDMDL
MODEL 2
REMARK VINA RESULT:     -12.4      2.351      4.777
REMARK SMILES C[C@@H](C(=O)NCCCCCCNC(=O)c1ccc(-c2c3nc(c(-c4c(F)c(F)c(F)c(F)c4F)c4ccc([nH]4)c(-c4c(F)c(F)c(F)c(F)c4F)c4nc(c(-c5c(F)c(F)c(F)c(F)c5F)c5ccc2[nH]5)C=C4)C=C3)cc1)c1ccc(C[C@@H]2CCC[C@@H]2O)cc1Br
REMARK SMILES IDX 7 1 6 4 5 7 3 8 4 9 2 11 1 13 78 17 79 18 90 19 80 20 89 22
REMARK SMILES IDX 91 23 81 24 82 27 83 30 84 31 87 32 85 34 86 37 88 43 8 45
REMARK SMILES IDX 9 48 10 51 11 54 12 57 13 58 14 60 15 61 16 62 77 63 17 64
REMARK SMILES IDX 76 66 18 68 19 71 20 72 70 73 21 74 75 75 69 76 71 77 22 78
REMARK SMILES IDX 74 79 68 81 67 83 23 85 55 88 35 89 54 90 36 91 39 92 53 93
REMARK SMILES IDX 72 94 37 95 38 97 52 99 73 100 40 103 24 105 25 106 33 107
REMARK SMILES IDX 26 108 27 109 31 110 34 111 28 112 29 113 32 114 30 115
REMARK SMILES IDX 56 116 57 117 65 118 58 119 59 120 63 121 66 122 60 123
REMARK SMILES IDX 61 124 64 125 62 126 41 127 42 128 50 129 43 130 44 131
REMARK SMILES IDX 48 132 51 133 45 134 46 135 49 136 47 137
REMARK H PARENT 7 2 7 3 6 5 6 6 5 10 2 12 1 14 1 15 1 16 79 21 80 25 89 26
REMARK H PARENT 82 28 82 29 83 33 84 35 84 36 87 38 85 39 85 40 86 41 86 42
REMARK H PARENT 88 44 8 46 8 47 9 49 9 50 10 52 10 53 11 55 11 56 12 59 16 65
REMARK H PARENT 77 67 17 69 76 70 75 80 69 82 71 84 74 86 68 87 36 96 39 98
REMARK H PARENT 72 101 37 102 73 104
REMARK Flexibility Score: inf
ROOT
ATOM      1  C   UNL A   1      34.340  26.038  25.750  1.00  0.00    -0.036 C 
ATOM      2  H   UNL A   1      35.317  26.465  25.843  1.00  0.00     0.028 H 
ATOM      3  H   UNL A   1      33.764  26.136  26.646  1.00  0.00     0.028 H 
ENDROOT
BRANCH   1   4
ATOM      4  C   UNL A   1      34.491  24.539  25.478  1.00  0.00     0.017 C 
ATOM      5  H   UNL A   1      35.344  24.168  26.009  1.00  0.00     0.049 H 
ATOM      6  H   UNL A   1      33.609  24.032  25.808  1.00  0.00     0.049 H 
BRANCH   4   7
ATOM      7  N   UNL A   1      34.671  24.307  24.063  1.00  0.00    -0.356 N 
ATOM      8  C   UNL A   1      33.948  23.529  23.208  1.00  0.00     0.227 C 
ATOM      9  O   UNL A   1      34.438  23.332  22.094  1.00  0.00    -0.274 OA
ATOM     10  H   UNL A   1      35.429  24.782  23.655  1.00  0.00     0.163 HD
BRANCH   8  11
ATOM     11  C   UNL A   1      32.581  22.967  23.642  1.00  0.00     0.061 C 
ATOM     12  H   UNL A   1      32.702  22.528  24.610  1.00  0.00     0.045 H 
BRANCH  11  13
ATOM     13  C   UNL A   1      32.093  21.845  22.714  1.00  0.00    -0.049 C 
ATOM     14  H   UNL A   1      31.917  20.959  23.287  1.00  0.00     0.024 H 
ATOM     15  H   UNL A   1      32.837  21.648  21.971  1.00  0.00     0.024 H 
ATOM     16  H   UNL A   1      31.184  22.146  22.236  1.00  0.00     0.024 H 
ENDBRANCH  11  13
BRANCH  11  17
ATOM     17  C   UNL A   1      31.552  24.094  23.748  1.00  0.00    -0.022 A 
ATOM     18  C   UNL A   1      31.395  24.981  22.666  1.00  0.00    -0.057 A 
ATOM     19  C   UNL A   1      30.818  24.358  24.917  1.00  0.00     0.022 A 
ATOM     20  C   UNL A   1      30.538  26.077  22.739  1.00  0.00    -0.059 A 
ATOM     21  H   UNL A   1      31.926  24.815  21.797  1.00  0.00     0.063 H 
ATOM     22  C   UNL A   1      29.980  25.479  24.997  1.00  0.00    -0.044 A 
ATOM     23  Br  UNL A   1      30.925  23.261  26.468  1.00  0.00    -0.051 Br
ATOM     24  C   UNL A   1      29.854  26.366  23.918  1.00  0.00    -0.047 A 
ATOM     25  H   UNL A   1      30.408  26.681  21.912  1.00  0.00     0.063 H 
ATOM     26  H   UNL A   1      29.447  25.655  25.864  1.00  0.00     0.064 H 
BRANCH  24  27
ATOM     27  C   UNL A   1      29.037  27.626  24.046  1.00  0.00    -0.023 C 
ATOM     28  H   UNL A   1      29.473  28.211  24.828  1.00  0.00     0.032 H 
ATOM     29  H   UNL A   1      28.041  27.278  24.225  1.00  0.00     0.032 H 
BRANCH  27  30
ATOM     30  C   UNL A   1      28.908  28.541  22.804  1.00  0.00    -0.011 C 
ATOM     31  C   UNL A   1      29.916  29.695  22.727  1.00  0.00    -0.048 C 
ATOM     32  C   UNL A   1      27.571  29.259  22.596  1.00  0.00     0.057 C 
ATOM     33  H   UNL A   1      29.068  27.784  22.063  1.00  0.00     0.033 H 
ATOM     34  C   UNL A   1      29.180  30.955  23.199  1.00  0.00    -0.050 C 
ATOM     35  H   UNL A   1      30.256  29.822  21.722  1.00  0.00     0.027 H 
ATOM     36  H   UNL A   1      30.772  29.499  23.339  1.00  0.00     0.027 H 
ATOM     37  C   UNL A   1      27.711  30.571  23.355  1.00  0.00    -0.027 C 
ATOM     38  H   UNL A   1      27.381  29.411  21.554  1.00  0.00     0.060 H 
ATOM     39  H   UNL A   1      29.283  31.734  22.474  1.00  0.00     0.027 H 
ATOM     40  H   UNL A   1      29.585  31.314  24.122  1.00  0.00     0.027 H 
ATOM     41  H   UNL A   1      27.078  31.322  22.931  1.00  0.00     0.029 H 
ATOM     42  H   UNL A   1      27.425  30.477  24.382  1.00  0.00     0.029 H 
BRANCH  32  43
ATOM     43  O   UNL A   1      26.449  28.513  23.018  1.00  0.00    -0.393 OA
ATOM     44  H   UNL A   1      26.669  27.569  23.017  1.00  0.00     0.210 HD
ENDBRANCH  32  43
ENDBRANCH  27  30
ENDBRANCH  24  27
ENDBRANCH  11  17
ENDBRANCH   8  11
ENDBRANCH   4   7
ENDBRANCH   1   4
BRANCH   1  45
ATOM     45  C   UNL A   1      33.585  26.793  24.647  1.00  0.00    -0.052 C 
ATOM     46  H   UNL A   1      32.545  26.798  24.899  1.00  0.00     0.027 H 
ATOM     47  H   UNL A   1      33.796  26.278  23.732  1.00  0.00     0.027 H 
BRANCH  45  48
ATOM     48  C   UNL A   1      34.030  28.243  24.436  1.00  0.00    -0.052 C 
ATOM     49  H   UNL A   1      34.358  28.347  23.422  1.00  0.00     0.027 H 
ATOM     50  H   UNL A   1      34.804  28.429  25.150  1.00  0.00     0.027 H 
BRANCH  48  51
ATOM     51  C   UNL A   1      32.944  29.290  24.695  1.00  0.00    -0.036 C 
ATOM     52  H   UNL A   1      32.030  28.938  24.263  1.00  0.00     0.028 H 
ATOM     53  H   UNL A   1      33.287  30.203  24.254  1.00  0.00     0.028 H 
BRANCH  51  54
ATOM     54  C   UNL A   1      32.695  29.582  26.170  1.00  0.00     0.018 C 
ATOM     55  H   UNL A   1      33.552  29.276  26.733  1.00  0.00     0.049 H 
ATOM     56  H   UNL A   1      31.821  29.044  26.472  1.00  0.00     0.049 H 
BRANCH  54  57
ATOM     57  N   UNL A   1      32.457  30.998  26.411  1.00  0.00    -0.352 N 
ATOM     58  C   UNL A   1      33.153  31.870  27.208  1.00  0.00     0.251 C 
ATOM     59  H   UNL A   1      31.687  31.384  25.935  1.00  0.00     0.163 HD
ATOM     60  O   UNL A   1      32.695  32.981  27.465  1.00  0.00    -0.269 OA
BRANCH  58  61
ATOM     61  C   UNL A   1      34.451  31.460  27.779  1.00  0.00     0.039 A 
ATOM     62  C   UNL A   1      35.454  32.419  27.941  1.00  0.00    -0.049 A 
ATOM     63  C   UNL A   1      34.672  30.135  28.165  1.00  0.00    -0.049 A 
ATOM     64  C   UNL A   1      36.655  32.064  28.558  1.00  0.00    -0.053 A 
ATOM     65  H   UNL A   1      35.308  33.384  27.607  1.00  0.00     0.063 H 
ATOM     66  C   UNL A   1      35.840  29.800  28.844  1.00  0.00    -0.053 A 
ATOM     67  H   UNL A   1      33.974  29.408  27.947  1.00  0.00     0.063 H 
ATOM     68  C   UNL A   1      36.841  30.761  29.052  1.00  0.00    -0.014 A 
ATOM     69  H   UNL A   1      37.410  32.761  28.652  1.00  0.00     0.063 H 
ATOM     70  H   UNL A   1      35.971  28.838  29.196  1.00  0.00     0.063 H 
BRANCH  68  71
ATOM     71  C   UNL A   1      38.060  30.391  29.814  1.00  0.00     0.031 A 
ATOM     72  C   UNL A   1      39.040  29.407  29.240  1.00  0.00     0.074 A 
ATOM     73  C   UNL A   1      38.240  30.879  31.057  1.00  0.00     0.049 A 
ATOM     74  N   UNL A   1      40.107  28.884  29.791  1.00  0.00    -0.248 NA
ATOM     75  C   UNL A   1      38.771  28.924  27.877  1.00  0.00    -0.034 C 
ATOM     76  C   UNL A   1      37.336  31.806  31.740  1.00  0.00    -0.036 A 
ATOM     77  N   UNL A   1      39.233  30.648  31.977  1.00  0.00    -0.354 N 
ATOM     78  C   UNL A   1      40.623  28.001  28.853  1.00  0.00     0.074 A 
ATOM     79  C   UNL A   1      39.731  28.023  27.714  1.00  0.00    -0.034 C 
ATOM     80  H   UNL A   1      38.030  29.210  27.219  1.00  0.00     0.065 H 
ATOM     81  C   UNL A   1      37.819  32.073  32.963  1.00  0.00    -0.036 A 
ATOM     82  H   UNL A   1      36.464  32.193  31.343  1.00  0.00     0.065 H 
ATOM     83  C   UNL A   1      39.041  31.301  33.171  1.00  0.00     0.049 A 
ATOM     84  H   UNL A   1      40.009  30.069  31.799  1.00  0.00     0.167 HD
ATOM     85  C   UNL A   1      41.749  27.253  28.929  1.00  0.00     0.037 A 
ATOM     86  H   UNL A   1      39.829  27.418  26.884  1.00  0.00     0.065 H 
ATOM     87  H   UNL A   1      37.396  32.720  33.646  1.00  0.00     0.065 H 
ATOM     88  C   UNL A   1      39.755  31.266  34.311  1.00  0.00     0.037 A 
ATOM     89  C   UNL A   1      42.648  27.258  30.054  1.00  0.00     0.049 A 
ATOM     90  C   UNL A   1      40.993  30.410  34.375  1.00  0.00     0.074 A 
ATOM     91  C   UNL A   1      43.859  26.602  30.192  1.00  0.00    -0.036 A 
ATOM     92  N   UNL A   1      42.428  27.944  31.240  1.00  0.00    -0.354 N 
ATOM     93  N   UNL A   1      41.520  29.648  33.447  1.00  0.00    -0.248 NA
ATOM     94  C   UNL A   1      41.736  30.410  35.642  1.00  0.00    -0.034 C 
ATOM     95  C   UNL A   1      44.340  26.838  31.483  1.00  0.00    -0.036 A 
ATOM     96  H   UNL A   1      44.326  26.037  29.466  1.00  0.00     0.065 H 
ATOM     97  C   UNL A   1      43.460  27.693  32.128  1.00  0.00     0.049 A 
ATOM     98  H   UNL A   1      41.653  28.523  31.422  1.00  0.00     0.167 HD
ATOM     99  C   UNL A   1      42.666  29.101  34.008  1.00  0.00     0.074 A 
ATOM    100  C   UNL A   1      42.769  29.632  35.350  1.00  0.00    -0.034 C 
ATOM    101  H   UNL A   1      41.513  30.890  36.529  1.00  0.00     0.065 H 
ATOM    102  H   UNL A   1      45.203  26.443  31.887  1.00  0.00     0.065 H 
ATOM    103  C   UNL A   1      43.552  28.234  33.460  1.00  0.00     0.037 A 
ATOM    104  H   UNL A   1      43.547  29.430  35.998  1.00  0.00     0.065 H 
BRANCH  85 105
ATOM    105  C   UNL A   1      42.079  26.358  27.770  1.00  0.00     0.064 A 
ATOM    106  C   UNL A   1      43.030  26.718  26.804  1.00  0.00     0.173 A 
ATOM    107  C   UNL A   1      41.479  25.094  27.659  1.00  0.00     0.173 A 
ATOM    108  F   UNL A   1      43.627  27.918  26.858  1.00  0.00    -0.203 F 
ATOM    109  C   UNL A   1      43.350  25.857  25.757  1.00  0.00     0.198 A 
ATOM    110  C   UNL A   1      41.824  24.223  26.629  1.00  0.00     0.198 A 
ATOM    111  F   UNL A   1      40.568  24.696  28.560  1.00  0.00    -0.203 F 
ATOM    112  F   UNL A   1      44.231  26.240  24.822  1.00  0.00    -0.200 F 
ATOM    113  C   UNL A   1      42.755  24.608  25.675  1.00  0.00     0.200 A 
ATOM    114  F   UNL A   1      41.260  23.010  26.562  1.00  0.00    -0.200 F 
ATOM    115  F   UNL A   1      43.074  23.774  24.676  1.00  0.00    -0.200 F 
ENDBRANCH  85 105
BRANCH  88 116
ATOM    116  C   UNL A   1      39.318  32.057  35.493  1.00  0.00     0.064 A 
ATOM    117  C   UNL A   1      38.486  31.497  36.472  1.00  0.00     0.173 A 
ATOM    118  C   UNL A   1      39.707  33.395  35.658  1.00  0.00     0.173 A 
ATOM    119  F   UNL A   1      38.070  30.228  36.349  1.00  0.00    -0.203 F 
ATOM    120  C   UNL A   1      38.035  32.251  37.553  1.00  0.00     0.198 A 
ATOM    121  C   UNL A   1      39.283  34.139  36.757  1.00  0.00     0.198 A 
ATOM    122  F   UNL A   1      40.506  33.980  34.754  1.00  0.00    -0.203 F 
ATOM    123  F   UNL A   1      37.193  31.707  38.442  1.00  0.00    -0.200 F 
ATOM    124  C   UNL A   1      38.438  33.570  37.698  1.00  0.00     0.200 A 
ATOM    125  F   UNL A   1      39.689  35.408  36.902  1.00  0.00    -0.200 F 
ATOM    126  F   UNL A   1      38.005  34.295  38.738  1.00  0.00    -0.200 F 
ENDBRANCH  88 116
BRANCH 103 127
ATOM    127  C   UNL A   1      44.727  27.822  34.300  1.00  0.00     0.064 A 
ATOM    128  C   UNL A   1      44.694  26.670  35.098  1.00  0.00     0.173 A 
ATOM    129  C   UNL A   1      45.921  28.559  34.260  1.00  0.00     0.173 A 
ATOM    130  F   UNL A   1      43.572  25.940  35.184  1.00  0.00    -0.203 F 
ATOM    131  C   UNL A   1      45.806  26.282  35.842  1.00  0.00     0.198 A 
ATOM    132  C   UNL A   1      47.041  28.150  34.978  1.00  0.00     0.198 A 
ATOM    133  F   UNL A   1      46.008  29.666  33.508  1.00  0.00    -0.203 F 
ATOM    134  F   UNL A   1      45.737  25.201  36.632  1.00  0.00    -0.200 F 
ATOM    135  C   UNL A   1      46.981  27.015  35.773  1.00  0.00     0.200 A 
ATOM    136  F   UNL A   1      48.180  28.851  34.897  1.00  0.00    -0.200 F 
ATOM    137  F   UNL A   1      48.054  26.631  36.476  1.00  0.00    -0.200 F 
ENDBRANCH 103 127
ENDBRANCH  68  71
ENDBRANCH  58  61
ENDBRANCH  54  57
ENDBRANCH  51  54
ENDBRANCH  48  51
ENDBRANCH  45  48
ENDBRANCH   1  45
TORSDOF 18
ENDMDL
MODEL 3
REMARK VINA RESULT:     -12.4      5.736     11.547
REMARK SMILES C[C@@H](C(=O)NCCCCCCNC(=O)c1ccc(-c2c3nc(c(-c4c(F)c(F)c(F)c(F)c4F)c4ccc([nH]4)c(-c4c(F)c(F)c(F)c(F)c4F)c4nc(c(-c5c(F)c(F)c(F)c(F)c5F)c5ccc2[nH]5)C=C4)C=C3)cc1)c1ccc(C[C@@H]2CCC[C@@H]2O)cc1Br
REMARK SMILES IDX 7 1 6 4 5 7 3 8 4 9 2 11 1 13 78 17 79 18 90 19 80 20 89 22
REMARK SMILES IDX 91 23 81 24 82 27 83 30 84 31 87 32 85 34 86 37 88 43 8 45
REMARK SMILES IDX 9 48 10 51 11 54 12 57 13 58 14 60 15 61 16 62 77 63 17 64
REMARK SMILES IDX 76 66 18 68 19 71 20 72 70 73 21 74 75 75 69 76 71 77 22 78
REMARK SMILES IDX 74 79 68 81 67 83 23 85 55 88 35 89 54 90 36 91 39 92 53 93
REMARK SMILES IDX 72 94 37 95 38 97 52 99 73 100 40 103 24 105 25 106 33 107
REMARK SMILES IDX 26 108 27 109 31 110 34 111 28 112 29 113 32 114 30 115
REMARK SMILES IDX 56 116 57 117 65 118 58 119 59 120 63 121 66 122 60 123
REMARK SMILES IDX 61 124 64 125 62 126 41 127 42 128 50 129 43 130 44 131
REMARK SMILES IDX 48 132 51 133 45 134 46 135 49 136 47 137
REMARK H PARENT 7 2 7 3 6 5 6 6 5 10 2 12 1 14 1 15 1 16 79 21 80 25 89 26
REMARK H PARENT 82 28 82 29 83 33 84 35 84 36 87 38 85 39 85 40 86 41 86 42
REMARK H PARENT 88 44 8 46 8 47 9 49 9 50 10 52 10 53 11 55 11 56 12 59 16 65
REMARK H PARENT 77 67 17 69 76 70 75 80 69 82 71 84 74 86 68 87 36 96 39 98
REMARK H PARENT 72 101 37 102 73 104
REMARK Flexibility Score: inf
ROOT
ATOM      1  C   UNL A   1      36.952  23.451  25.141  1.00  0.00    -0.036 C 
ATOM      2  H   UNL A   1      37.426  23.183  26.062  1.00  0.00     0.028 H 
ATOM      3  H   UNL A   1      37.535  24.140  24.567  1.00  0.00     0.028 H 
ENDROOT
BRANCH   1   4
ATOM      4  C   UNL A   1      35.628  24.148  25.465  1.00  0.00     0.017 C 
ATOM      5  H   UNL A   1      35.278  23.816  26.421  1.00  0.00     0.049 H 
ATOM      6  H   UNL A   1      35.783  25.206  25.482  1.00  0.00     0.049 H 
BRANCH   4   7
ATOM      7  N   UNL A   1      34.641  23.829  24.458  1.00  0.00    -0.356 N 
ATOM      8  C   UNL A   1      33.281  23.906  24.515  1.00  0.00     0.227 C 
ATOM      9  O   UNL A   1      32.660  23.370  23.594  1.00  0.00    -0.274 OA
ATOM     10  H   UNL A   1      35.005  23.508  23.603  1.00  0.00     0.163 HD
BRANCH   8  11
ATOM     11  C   UNL A   1      32.596  24.657  25.672  1.00  0.00     0.061 C 
ATOM     12  H   UNL A   1      33.357  25.171  26.223  1.00  0.00     0.045 H 
BRANCH  11  13
ATOM     13  C   UNL A   1      31.915  23.700  26.662  1.00  0.00    -0.049 C 
ATOM     14  H   UNL A   1      32.638  23.014  27.049  1.00  0.00     0.024 H 
ATOM     15  H   UNL A   1      31.142  23.159  26.161  1.00  0.00     0.024 H 
ATOM     16  H   UNL A   1      31.492  24.263  27.469  1.00  0.00     0.024 H 
ENDBRANCH  11  13
BRANCH  11  17
ATOM     17  C   UNL A   1      31.612  25.692  25.126  1.00  0.00    -0.022 A 
ATOM     18  C   UNL A   1      30.299  25.291  24.813  1.00  0.00    -0.057 A 
ATOM     19  C   UNL A   1      31.978  27.014  24.819  1.00  0.00     0.022 A 
ATOM     20  C   UNL A   1      29.386  26.168  24.232  1.00  0.00    -0.059 A 
ATOM     21  H   UNL A   1      30.005  24.324  25.022  1.00  0.00     0.063 H 
ATOM     22  C   UNL A   1      31.066  27.885  24.206  1.00  0.00    -0.044 A 
ATOM     23  Br  UNL A   1      33.715  27.708  25.170  1.00  0.00    -0.051 Br
ATOM     24  C   UNL A   1      29.770  27.461  23.879  1.00  0.00    -0.047 A 
ATOM     25  H   UNL A   1      28.417  25.858  24.059  1.00  0.00     0.063 H 
ATOM     26  H   UNL A   1      31.353  28.853  23.991  1.00  0.00     0.064 H 
BRANCH  24  27
ATOM     27  C   UNL A   1      28.829  28.365  23.124  1.00  0.00    -0.023 C 
ATOM     28  H   UNL A   1      27.842  28.172  23.489  1.00  0.00     0.032 H 
ATOM     29  H   UNL A   1      29.001  28.126  22.096  1.00  0.00     0.032 H 
BRANCH  27  30
ATOM     30  C   UNL A   1      29.062  29.893  23.210  1.00  0.00    -0.011 C 
ATOM     31  C   UNL A   1      27.813  30.736  23.498  1.00  0.00    -0.048 C 
ATOM     32  C   UNL A   1      29.645  30.585  21.973  1.00  0.00     0.057 C 
ATOM     33  H   UNL A   1      29.763  29.877  24.019  1.00  0.00     0.033 H 
ATOM     34  C   UNL A   1      27.350  31.313  22.155  1.00  0.00    -0.050 C 
ATOM     35  H   UNL A   1      28.050  31.526  24.177  1.00  0.00     0.027 H 
ATOM     36  H   UNL A   1      27.044  30.142  23.945  1.00  0.00     0.027 H 
ATOM     37  C   UNL A   1      28.434  30.972  21.136  1.00  0.00    -0.027 C 
ATOM     38  H   UNL A   1      30.232  31.433  22.255  1.00  0.00     0.060 H 
ATOM     39  H   UNL A   1      27.236  32.374  22.231  1.00  0.00     0.027 H 
ATOM     40  H   UNL A   1      26.406  30.904  21.865  1.00  0.00     0.027 H 
ATOM     41  H   UNL A   1      28.655  31.820  20.522  1.00  0.00     0.029 H 
ATOM     42  H   UNL A   1      28.133  30.188  20.473  1.00  0.00     0.029 H 
BRANCH  32  43
ATOM     43  O   UNL A   1      30.563  29.790  21.252  1.00  0.00    -0.393 OA
ATOM     44  H   UNL A   1      30.241  29.666  20.346  1.00  0.00     0.210 HD
ENDBRANCH  32  43
ENDBRANCH  27  30
ENDBRANCH  24  27
ENDBRANCH  11  17
ENDBRANCH   8  11
ENDBRANCH   4   7
ENDBRANCH   1   4
BRANCH   1  45
ATOM     45  C   UNL A   1      36.791  22.183  24.291  1.00  0.00    -0.052 C 
ATOM     46  H   UNL A   1      37.618  22.128  23.614  1.00  0.00     0.027 H 
ATOM     47  H   UNL A   1      35.846  22.271  23.797  1.00  0.00     0.027 H 
BRANCH  45  48
ATOM     48  C   UNL A   1      36.740  20.875  25.087  1.00  0.00    -0.052 C 
ATOM     49  H   UNL A   1      35.875  20.327  24.773  1.00  0.00     0.027 H 
ATOM     50  H   UNL A   1      36.711  21.150  26.120  1.00  0.00     0.027 H 
BRANCH  48  51
ATOM     51  C   UNL A   1      37.964  19.973  24.914  1.00  0.00    -0.036 C 
ATOM     52  H   UNL A   1      38.257  19.998  23.885  1.00  0.00     0.028 H 
ATOM     53  H   UNL A   1      37.673  18.996  25.239  1.00  0.00     0.028 H 
BRANCH  51  54
ATOM     54  C   UNL A   1      39.164  20.377  25.763  1.00  0.00     0.018 C 
ATOM     55  H   UNL A   1      38.818  20.682  26.728  1.00  0.00     0.049 H 
ATOM     56  H   UNL A   1      39.670  21.176  25.262  1.00  0.00     0.049 H 
BRANCH  54  57
ATOM     57  N   UNL A   1      40.108  19.281  25.928  1.00  0.00    -0.352 N 
ATOM     58  C   UNL A   1      41.464  19.327  26.121  1.00  0.00     0.251 C 
ATOM     59  H   UNL A   1      39.716  18.378  25.894  1.00  0.00     0.163 HD
ATOM     60  O   UNL A   1      42.142  18.306  26.031  1.00  0.00    -0.269 OA
BRANCH  58  61
ATOM     61  C   UNL A   1      42.115  20.618  26.419  1.00  0.00     0.039 A 
ATOM     62  C   UNL A   1      42.572  21.408  25.361  1.00  0.00    -0.049 A 
ATOM     63  C   UNL A   1      42.261  21.053  27.740  1.00  0.00    -0.049 A 
ATOM     64  C   UNL A   1      43.112  22.668  25.624  1.00  0.00    -0.053 A 
ATOM     65  H   UNL A   1      42.511  21.061  24.392  1.00  0.00     0.063 H 
ATOM     66  C   UNL A   1      42.732  22.338  27.994  1.00  0.00    -0.053 A 
ATOM     67  H   UNL A   1      42.022  20.425  28.522  1.00  0.00     0.063 H 
ATOM     68  C   UNL A   1      43.157  23.160  26.940  1.00  0.00    -0.014 A 
ATOM     69  H   UNL A   1      43.480  23.241  24.849  1.00  0.00     0.063 H 
ATOM     70  H   UNL A   1      42.769  22.688  28.965  1.00  0.00     0.063 H 
BRANCH  68  71
ATOM     71  C   UNL A   1      43.619  24.541  27.232  1.00  0.00     0.031 A 
ATOM     72  C   UNL A   1      42.646  25.575  27.723  1.00  0.00     0.074 A 
ATOM     73  C   UNL A   1      44.896  24.882  26.972  1.00  0.00     0.049 A 
ATOM     74  N   UNL A   1      42.834  26.853  27.938  1.00  0.00    -0.248 NA
ATOM     75  C   UNL A   1      41.271  25.120  27.983  1.00  0.00    -0.034 C 
ATOM     76  C   UNL A   1      45.922  23.979  26.449  1.00  0.00    -0.036 A 
ATOM     77  N   UNL A   1      45.545  26.086  27.093  1.00  0.00    -0.354 N 
ATOM     78  C   UNL A   1      41.604  27.355  28.338  1.00  0.00     0.074 A 
ATOM     79  C   UNL A   1      40.663  26.257  28.295  1.00  0.00    -0.034 C 
ATOM     80  H   UNL A   1      40.881  24.166  27.935  1.00  0.00     0.065 H 
ATOM     81  C   UNL A   1      47.073  24.654  26.305  1.00  0.00    -0.036 A 
ATOM     82  H   UNL A   1      45.783  22.980  26.227  1.00  0.00     0.065 H 
ATOM     83  C   UNL A   1      46.856  26.049  26.679  1.00  0.00     0.049 A 
ATOM     84  H   UNL A   1      45.114  26.898  27.443  1.00  0.00     0.167 HD
ATOM     85  C   UNL A   1      41.292  28.615  28.723  1.00  0.00     0.037 A 
ATOM     86  H   UNL A   1      39.652  26.345  28.483  1.00  0.00     0.065 H 
ATOM     87  H   UNL A   1      47.967  24.254  25.983  1.00  0.00     0.065 H 
ATOM     88  C   UNL A   1      47.772  27.032  26.589  1.00  0.00     0.037 A 
ATOM     89  C   UNL A   1      42.240  29.697  28.791  1.00  0.00     0.049 A 
ATOM     90  C   UNL A   1      47.392  28.428  27.005  1.00  0.00     0.074 A 
ATOM     91  C   UNL A   1      42.042  30.988  29.250  1.00  0.00    -0.036 A 
ATOM     92  N   UNL A   1      43.562  29.619  28.377  1.00  0.00    -0.354 N 
ATOM     93  N   UNL A   1      46.248  28.871  27.468  1.00  0.00    -0.248 NA
ATOM     94  C   UNL A   1      48.431  29.462  26.889  1.00  0.00    -0.034 C 
ATOM     95  C   UNL A   1      43.224  31.708  29.054  1.00  0.00    -0.036 A 
ATOM     96  H   UNL A   1      41.172  31.355  29.665  1.00  0.00     0.065 H 
ATOM     97  C   UNL A   1      44.178  30.849  28.532  1.00  0.00     0.049 A 
ATOM     98  H   UNL A   1      43.997  28.808  28.026  1.00  0.00     0.167 HD
ATOM     99  C   UNL A   1      46.436  30.223  27.721  1.00  0.00     0.074 A 
ATOM    100  C   UNL A   1      47.810  30.525  27.379  1.00  0.00    -0.034 C 
ATOM    101  H   UNL A   1      49.392  29.381  26.522  1.00  0.00     0.065 H 
ATOM    102  H   UNL A   1      43.363  32.708  29.263  1.00  0.00     0.065 H 
ATOM    103  C   UNL A   1      45.549  31.133  28.192  1.00  0.00     0.037 A 
ATOM    104  H   UNL A   1      48.250  31.451  27.501  1.00  0.00     0.065 H 
BRANCH  85 105
ATOM    105  C   UNL A   1      39.867  28.905  29.097  1.00  0.00     0.064 A 
ATOM    106  C   UNL A   1      38.918  29.304  28.145  1.00  0.00     0.173 A 
ATOM    107  C   UNL A   1      39.433  28.719  30.419  1.00  0.00     0.173 A 
ATOM    108  F   UNL A   1      39.283  29.504  26.870  1.00  0.00    -0.203 F 
ATOM    109  C   UNL A   1      37.592  29.532  28.507  1.00  0.00     0.198 A 
ATOM    110  C   UNL A   1      38.100  28.917  30.771  1.00  0.00     0.198 A 
ATOM    111  F   UNL A   1      40.298  28.331  31.369  1.00  0.00    -0.203 F 
ATOM    112  F   UNL A   1      36.712  29.954  27.588  1.00  0.00    -0.200 F 
ATOM    113  C   UNL A   1      37.182  29.329  29.815  1.00  0.00     0.200 A 
ATOM    114  F   UNL A   1      37.703  28.704  32.033  1.00  0.00    -0.200 F 
ATOM    115  F   UNL A   1      35.903  29.533  30.159  1.00  0.00    -0.200 F 
ENDBRANCH  85 105
BRANCH  88 116
ATOM    116  C   UNL A   1      49.137  26.737  26.076  1.00  0.00     0.064 A 
ATOM    117  C   UNL A   1      49.475  26.975  24.737  1.00  0.00     0.173 A 
ATOM    118  C   UNL A   1      50.126  26.192  26.909  1.00  0.00     0.173 A 
ATOM    119  F   UNL A   1      48.558  27.477  23.896  1.00  0.00    -0.203 F 
ATOM    120  C   UNL A   1      50.737  26.654  24.244  1.00  0.00     0.198 A 
ATOM    121  C   UNL A   1      51.399  25.902  26.423  1.00  0.00     0.198 A 
ATOM    122  F   UNL A   1      49.858  25.948  28.201  1.00  0.00    -0.203 F 
ATOM    123  F   UNL A   1      51.013  26.839  22.945  1.00  0.00    -0.200 F 
ATOM    124  C   UNL A   1      51.701  26.123  25.088  1.00  0.00     0.200 A 
ATOM    125  F   UNL A   1      52.331  25.404  27.246  1.00  0.00    -0.200 F 
ATOM    126  F   UNL A   1      52.914  25.814  24.612  1.00  0.00    -0.200 F 
ENDBRANCH  88 116
BRANCH 103 127
ATOM    127  C   UNL A   1      46.040  32.538  28.392  1.00  0.00     0.064 A 
ATOM    128  C   UNL A   1      45.931  33.508  27.385  1.00  0.00     0.173 A 
ATOM    129  C   UNL A   1      46.573  32.935  29.629  1.00  0.00     0.173 A 
ATOM    130  F   UNL A   1      45.444  33.175  26.180  1.00  0.00    -0.203 F 
ATOM    131  C   UNL A   1      46.357  34.816  27.600  1.00  0.00     0.198 A 
ATOM    132  C   UNL A   1      46.966  34.251  29.852  1.00  0.00     0.198 A 
ATOM    133  F   UNL A   1      46.693  32.049  30.629  1.00  0.00    -0.203 F 
ATOM    134  F   UNL A   1      46.283  35.714  26.608  1.00  0.00    -0.200 F 
ATOM    135  C   UNL A   1      46.863  35.189  28.836  1.00  0.00     0.200 A 
ATOM    136  F   UNL A   1      47.440  34.613  31.053  1.00  0.00    -0.200 F 
ATOM    137  F   UNL A   1      47.256  36.452  29.046  1.00  0.00    -0.200 F 
ENDBRANCH 103 127
ENDBRANCH  68  71
ENDBRANCH  58  61
ENDBRANCH  54  57
ENDBRANCH  51  54
ENDBRANCH  48  51
ENDBRANCH  45  48
ENDBRANCH   1  45
TORSDOF 18
ENDMDL
MODEL 4
REMARK VINA RESULT:     -12.4      5.293     11.965
REMARK SMILES C[C@@H](C(=O)NCCCCCCNC(=O)c1ccc(-c2c3nc(c(-c4c(F)c(F)c(F)c(F)c4F)c4ccc([nH]4)c(-c4c(F)c(F)c(F)c(F)c4F)c4nc(c(-c5c(F)c(F)c(F)c(F)c5F)c5ccc2[nH]5)C=C4)C=C3)cc1)c1ccc(C[C@@H]2CCC[C@@H]2O)cc1Br
REMARK SMILES IDX 7 1 6 4 5 7 3 8 4 9 2 11 1 13 78 17 79 18 90 19 80 20 89 22
REMARK SMILES IDX 91 23 81 24 82 27 83 30 84 31 87 32 85 34 86 37 88 43 8 45
REMARK SMILES IDX 9 48 10 51 11 54 12 57 13 58 14 60 15 61 16 62 77 63 17 64
REMARK SMILES IDX 76 66 18 68 19 71 20 72 70 73 21 74 75 75 69 76 71 77 22 78
REMARK SMILES IDX 74 79 68 81 67 83 23 85 55 88 35 89 54 90 36 91 39 92 53 93
REMARK SMILES IDX 72 94 37 95 38 97 52 99 73 100 40 103 24 105 25 106 33 107
REMARK SMILES IDX 26 108 27 109 31 110 34 111 28 112 29 113 32 114 30 115
REMARK SMILES IDX 56 116 57 117 65 118 58 119 59 120 63 121 66 122 60 123
REMARK SMILES IDX 61 124 64 125 62 126 41 127 42 128 50 129 43 130 44 131
REMARK SMILES IDX 48 132 51 133 45 134 46 135 49 136 47 137
REMARK H PARENT 7 2 7 3 6 5 6 6 5 10 2 12 1 14 1 15 1 16 79 21 80 25 89 26
REMARK H PARENT 82 28 82 29 83 33 84 35 84 36 87 38 85 39 85 40 86 41 86 42
REMARK H PARENT 88 44 8 46 8 47 9 49 9 50 10 52 10 53 11 55 11 56 12 59 16 65
REMARK H PARENT 77 67 17 69 76 70 75 80 69 82 71 84 74 86 68 87 36 96 39 98
REMARK H PARENT 72 101 37 102 73 104
REMARK Flexibility Score: inf
ROOT
ATOM      1  C   UNL A   1      38.183  30.205  33.137  1.00  0.00    -0.036 C 
ATOM      2  H   UNL A   1      37.893  29.175  33.123  1.00  0.00     0.028 H 
ATOM      3  H   UNL A   1      38.813  30.463  32.312  1.00  0.00     0.028 H 
ENDROOT
BRANCH   1   4
ATOM      4  C   UNL A   1      38.988  30.464  34.412  1.00  0.00     0.017 C 
ATOM      5  H   UNL A   1      39.797  29.764  34.468  1.00  0.00     0.049 H 
ATOM      6  H   UNL A   1      39.372  31.462  34.389  1.00  0.00     0.049 H 
BRANCH   4   7
ATOM      7  N   UNL A   1      38.141  30.309  35.573  1.00  0.00    -0.356 N 
ATOM      8  C   UNL A   1      38.002  31.114  36.665  1.00  0.00     0.227 C 
ATOM      9  O   UNL A   1      37.374  30.647  37.617  1.00  0.00    -0.274 OA
ATOM     10  H   UNL A   1      37.581  29.501  35.577  1.00  0.00     0.163 HD
BRANCH   8  11
ATOM     11  C   UNL A   1      38.592  32.537  36.657  1.00  0.00     0.061 C 
ATOM     12  H   UNL A   1      39.616  32.464  36.352  1.00  0.00     0.045 H 
BRANCH  11  13
ATOM     13  C   UNL A   1      38.600  33.169  38.056  1.00  0.00    -0.049 C 
ATOM     14  H   UNL A   1      38.115  34.122  38.020  1.00  0.00     0.024 H 
ATOM     15  H   UNL A   1      39.610  33.296  38.385  1.00  0.00     0.024 H 
ATOM     16  H   UNL A   1      38.080  32.531  38.740  1.00  0.00     0.024 H 
ENDBRANCH  11  13
BRANCH  11  17
ATOM     17  C   UNL A   1      37.849  33.415  35.649  1.00  0.00    -0.022 A 
ATOM     18  C   UNL A   1      36.447  33.518  35.733  1.00  0.00    -0.057 A 
ATOM     19  C   UNL A   1      38.484  34.051  34.569  1.00  0.00     0.022 A 
ATOM     20  C   UNL A   1      35.710  34.232  34.791  1.00  0.00    -0.059 A 
ATOM     21  H   UNL A   1      35.955  33.056  36.513  1.00  0.00     0.063 H 
ATOM     22  C   UNL A   1      37.735  34.742  33.606  1.00  0.00    -0.044 A 
ATOM     23  Br  UNL A   1      40.368  33.999  34.307  1.00  0.00    -0.051 Br
ATOM     24  C   UNL A   1      36.337  34.814  33.692  1.00  0.00    -0.047 A 
ATOM     25  H   UNL A   1      34.689  34.329  34.908  1.00  0.00     0.063 H 
ATOM     26  H   UNL A   1      38.220  35.205  32.821  1.00  0.00     0.064 H 
BRANCH  24  27
ATOM     27  C   UNL A   1      35.529  35.466  32.599  1.00  0.00    -0.023 C 
ATOM     28  H   UNL A   1      35.468  34.769  31.790  1.00  0.00     0.032 H 
ATOM     29  H   UNL A   1      36.051  36.377  32.391  1.00  0.00     0.032 H 
BRANCH  27  30
ATOM     30  C   UNL A   1      34.085  35.916  32.930  1.00  0.00    -0.011 C 
ATOM     31  C   UNL A   1      32.971  35.036  32.349  1.00  0.00    -0.048 C 
ATOM     32  C   UNL A   1      33.665  37.317  32.477  1.00  0.00     0.057 C 
ATOM     33  H   UNL A   1      34.166  35.854  33.996  1.00  0.00     0.033 H 
ATOM     34  C   UNL A   1      32.450  35.752  31.098  1.00  0.00    -0.050 C 
ATOM     35  H   UNL A   1      32.183  34.920  33.062  1.00  0.00     0.027 H 
ATOM     36  H   UNL A   1      33.338  34.060  32.107  1.00  0.00     0.027 H 
ATOM     37  C   UNL A   1      33.118  37.125  31.070  1.00  0.00    -0.027 C 
ATOM     38  H   UNL A   1      32.936  37.728  33.144  1.00  0.00     0.060 H 
ATOM     39  H   UNL A   1      31.387  35.860  31.151  1.00  0.00     0.027 H 
ATOM     40  H   UNL A   1      32.676  35.196  30.213  1.00  0.00     0.027 H 
ATOM     41  H   UNL A   1      32.404  37.887  30.835  1.00  0.00     0.029 H 
ATOM     42  H   UNL A   1      33.884  37.187  30.325  1.00  0.00     0.029 H 
BRANCH  32  43
ATOM     43  O   UNL A   1      34.708  38.269  32.520  1.00  0.00    -0.393 OA
ATOM     44  H   UNL A   1      34.939  38.536  31.617  1.00  0.00     0.210 HD
ENDBRANCH  32  43
ENDBRANCH  27  30
ENDBRANCH  24  27
ENDBRANCH  11  17
ENDBRANCH   8  11
ENDBRANCH   4   7
ENDBRANCH   1   4
BRANCH   1  45
ATOM     45  C   UNL A   1      36.917  31.066  33.020  1.00  0.00    -0.052 C 
ATOM     46  H   UNL A   1      36.903  31.751  33.842  1.00  0.00     0.027 H 
ATOM     47  H   UNL A   1      36.091  30.387  33.020  1.00  0.00     0.027 H 
BRANCH  45  48
ATOM     48  C   UNL A   1      36.806  31.877  31.725  1.00  0.00    -0.052 C 
ATOM     49  H   UNL A   1      37.340  31.355  30.958  1.00  0.00     0.027 H 
ATOM     50  H   UNL A   1      37.213  32.844  31.937  1.00  0.00     0.027 H 
BRANCH  48  51
ATOM     51  C   UNL A   1      35.375  32.109  31.236  1.00  0.00    -0.036 C 
ATOM     52  H   UNL A   1      34.925  32.857  31.856  1.00  0.00     0.028 H 
ATOM     53  H   UNL A   1      34.874  31.165  31.295  1.00  0.00     0.028 H 
BRANCH  51  54
ATOM     54  C   UNL A   1      35.275  32.568  29.786  1.00  0.00     0.018 C 
ATOM     55  H   UNL A   1      36.259  32.608  29.367  1.00  0.00     0.049 H 
ATOM     56  H   UNL A   1      34.810  33.531  29.774  1.00  0.00     0.049 H 
BRANCH  54  57
ATOM     57  N   UNL A   1      34.461  31.666  28.984  1.00  0.00    -0.352 N 
ATOM     58  C   UNL A   1      34.837  30.544  28.292  1.00  0.00     0.251 C 
ATOM     59  H   UNL A   1      33.505  31.894  28.932  1.00  0.00     0.163 HD
ATOM     60  O   UNL A   1      34.066  30.015  27.495  1.00  0.00    -0.269 OA
BRANCH  58  61
ATOM     61  C   UNL A   1      36.188  29.982  28.490  1.00  0.00     0.039 A 
ATOM     62  C   UNL A   1      37.177  30.240  27.538  1.00  0.00    -0.049 A 
ATOM     63  C   UNL A   1      36.480  29.214  29.622  1.00  0.00    -0.049 A 
ATOM     64  C   UNL A   1      38.480  29.787  27.756  1.00  0.00    -0.053 A 
ATOM     65  H   UNL A   1      36.946  30.762  26.679  1.00  0.00     0.063 H 
ATOM     66  C   UNL A   1      37.793  28.826  29.872  1.00  0.00    -0.053 A 
ATOM     67  H   UNL A   1      35.725  28.935  30.267  1.00  0.00     0.063 H 
ATOM     68  C   UNL A   1      38.807  29.113  28.945  1.00  0.00    -0.014 A 
ATOM     69  H   UNL A   1      39.206  29.948  27.041  1.00  0.00     0.063 H 
ATOM     70  H   UNL A   1      38.021  28.324  30.745  1.00  0.00     0.063 H 
BRANCH  68  71
ATOM     71  C   UNL A   1      40.206  28.724  29.252  1.00  0.00     0.031 A 
ATOM     72  C   UNL A   1      41.116  29.680  29.970  1.00  0.00     0.074 A 
ATOM     73  C   UNL A   1      40.680  27.543  28.808  1.00  0.00     0.049 A 
ATOM     74  N   UNL A   1      42.393  29.564  30.239  1.00  0.00    -0.248 NA
ATOM     75  C   UNL A   1      40.522  30.947  30.422  1.00  0.00    -0.034 C 
ATOM     76  C   UNL A   1      39.906  26.551  28.059  1.00  0.00    -0.036 A 
ATOM     77  N   UNL A   1      41.930  26.985  28.902  1.00  0.00    -0.354 N 
ATOM     78  C   UNL A   1      42.755  30.745  30.872  1.00  0.00     0.074 A 
ATOM     79  C   UNL A   1      41.577  31.584  30.910  1.00  0.00    -0.034 C 
ATOM     80  H   UNL A   1      39.539  31.259  30.374  1.00  0.00     0.065 H 
ATOM     81  C   UNL A   1      40.693  25.503  27.773  1.00  0.00    -0.036 A 
ATOM     82  H   UNL A   1      38.912  26.643  27.794  1.00  0.00     0.065 H 
ATOM     83  C   UNL A   1      42.039  25.767  28.274  1.00  0.00     0.049 A 
ATOM     84  H   UNL A   1      42.678  27.415  29.375  1.00  0.00     0.167 HD
ATOM     85  C   UNL A   1      43.958  31.089  31.390  1.00  0.00     0.037 A 
ATOM     86  H   UNL A   1      41.561  32.552  31.270  1.00  0.00     0.065 H 
ATOM     87  H   UNL A   1      40.396  24.647  27.279  1.00  0.00     0.065 H 
ATOM     88  C   UNL A   1      43.106  24.965  28.102  1.00  0.00     0.037 A 
ATOM     89  C   UNL A   1      45.118  30.236  31.375  1.00  0.00     0.049 A 
ATOM     90  C   UNL A   1      44.436  25.381  28.672  1.00  0.00     0.074 A 
ATOM     91  C   UNL A   1      46.357  30.459  31.950  1.00  0.00    -0.036 A 
ATOM     92  N   UNL A   1      45.186  29.004  30.742  1.00  0.00    -0.354 N 
ATOM     93  N   UNL A   1      44.744  26.462  29.348  1.00  0.00    -0.248 NA
ATOM     94  C   UNL A   1      45.567  24.468  28.457  1.00  0.00    -0.034 C 
ATOM     95  C   UNL A   1      47.194  29.392  31.610  1.00  0.00    -0.036 A 
ATOM     96  H   UNL A   1      46.618  31.272  32.529  1.00  0.00     0.065 H 
ATOM     97  C   UNL A   1      46.459  28.474  30.878  1.00  0.00     0.049 A 
ATOM     98  H   UNL A   1      44.440  28.570  30.268  1.00  0.00     0.167 HD
ATOM     99  C   UNL A   1      46.092  26.346  29.660  1.00  0.00     0.074 A 
ATOM    100  C   UNL A   1      46.540  25.081  29.117  1.00  0.00    -0.034 C 
ATOM    101  H   UNL A   1      45.596  23.581  27.930  1.00  0.00     0.065 H 
ATOM    102  H   UNL A   1      48.191  29.303  31.862  1.00  0.00     0.065 H 
ATOM    103  C   UNL A   1      46.888  27.210  30.335  1.00  0.00     0.037 A 
ATOM    104  H   UNL A   1      47.494  24.705  29.227  1.00  0.00     0.065 H 
BRANCH  85 105
ATOM    105  C   UNL A   1      44.092  32.447  32.017  1.00  0.00     0.064 A 
ATOM    106  C   UNL A   1      44.324  33.596  31.248  1.00  0.00     0.173 A 
ATOM    107  C   UNL A   1      43.922  32.607  33.401  1.00  0.00     0.173 A 
ATOM    108  F   UNL A   1      44.502  33.499  29.922  1.00  0.00    -0.203 F 
ATOM    109  C   UNL A   1      44.408  34.853  31.845  1.00  0.00     0.198 A 
ATOM    110  C   UNL A   1      43.975  33.868  33.990  1.00  0.00     0.198 A 
ATOM    111  F   UNL A   1      43.691  31.541  34.183  1.00  0.00    -0.203 F 
ATOM    112  F   UNL A   1      44.674  35.932  31.095  1.00  0.00    -0.200 F 
ATOM    113  C   UNL A   1      44.224  34.989  33.212  1.00  0.00     0.200 A 
ATOM    114  F   UNL A   1      43.780  33.998  35.309  1.00  0.00    -0.200 F 
ATOM    115  F   UNL A   1      44.290  36.199  33.783  1.00  0.00    -0.200 F 
ENDBRANCH  85 105
BRANCH  88 116
ATOM    116  C   UNL A   1      42.969  23.688  27.349  1.00  0.00     0.064 A 
ATOM    117  C   UNL A   1      42.484  22.530  27.972  1.00  0.00     0.173 A 
ATOM    118  C   UNL A   1      43.338  23.595  25.999  1.00  0.00     0.173 A 
ATOM    119  F   UNL A   1      42.137  22.562  29.267  1.00  0.00    -0.203 F 
ATOM    120  C   UNL A   1      42.402  21.322  27.284  1.00  0.00     0.198 A 
ATOM    121  C   UNL A   1      43.224  22.394  25.302  1.00  0.00     0.198 A 
ATOM    122  F   UNL A   1      43.804  24.674  25.353  1.00  0.00    -0.203 F 
ATOM    123  F   UNL A   1      41.990  20.217  27.920  1.00  0.00    -0.200 F 
ATOM    124  C   UNL A   1      42.766  21.256  25.947  1.00  0.00     0.200 A 
ATOM    125  F   UNL A   1      43.562  22.340  24.006  1.00  0.00    -0.200 F 
ATOM    126  F   UNL A   1      42.686  20.094  25.285  1.00  0.00    -0.200 F 
ENDBRANCH  88 116
BRANCH 103 127
ATOM    127  C   UNL A   1      48.320  26.811  30.548  1.00  0.00     0.064 A 
ATOM    128  C   UNL A   1      48.701  25.967  31.602  1.00  0.00     0.173 A 
ATOM    129  C   UNL A   1      49.314  27.231  29.652  1.00  0.00     0.173 A 
ATOM    130  F   UNL A   1      47.791  25.552  32.496  1.00  0.00    -0.203 F 
ATOM    131  C   UNL A   1      50.027  25.576  31.763  1.00  0.00     0.198 A 
ATOM    132  C   UNL A   1      50.633  26.811  29.795  1.00  0.00     0.198 A 
ATOM    133  F   UNL A   1      49.003  28.033  28.622  1.00  0.00    -0.203 F 
ATOM    134  F   UNL A   1      50.376  24.806  32.802  1.00  0.00    -0.200 F 
ATOM    135  C   UNL A   1      50.990  25.989  30.853  1.00  0.00     0.200 A 
ATOM    136  F   UNL A   1      51.559  27.197  28.906  1.00  0.00    -0.200 F 
ATOM    137  F   UNL A   1      52.263  25.598  31.000  1.00  0.00    -0.200 F 
ENDBRANCH 103 127
ENDBRANCH  68  71
ENDBRANCH  58  61
ENDBRANCH  54  57
ENDBRANCH  51  54
ENDBRANCH  48  51
ENDBRANCH  45  48
ENDBRANCH   1  45
TORSDOF 18
ENDMDL
MODEL 5
REMARK VINA RESULT:     -12.3      0.997      2.255
REMARK SMILES C[C@@H](C(=O)NCCCCCCNC(=O)c1ccc(-c2c3nc(c(-c4c(F)c(F)c(F)c(F)c4F)c4ccc([nH]4)c(-c4c(F)c(F)c(F)c(F)c4F)c4nc(c(-c5c(F)c(F)c(F)c(F)c5F)c5ccc2[nH]5)C=C4)C=C3)cc1)c1ccc(C[C@@H]2CCC[C@@H]2O)cc1Br
REMARK SMILES IDX 7 1 6 4 5 7 3 8 4 9 2 11 1 13 78 17 79 18 90 19 80 20 89 22
REMARK SMILES IDX 91 23 81 24 82 27 83 30 84 31 87 32 85 34 86 37 88 43 8 45
REMARK SMILES IDX 9 48 10 51 11 54 12 57 13 58 14 60 15 61 16 62 77 63 17 64
REMARK SMILES IDX 76 66 18 68 19 71 20 72 70 73 21 74 75 75 69 76 71 77 22 78
REMARK SMILES IDX 74 79 68 81 67 83 23 85 55 88 35 89 54 90 36 91 39 92 53 93
REMARK SMILES IDX 72 94 37 95 38 97 52 99 73 100 40 103 24 105 25 106 33 107
REMARK SMILES IDX 26 108 27 109 31 110 34 111 28 112 29 113 32 114 30 115
REMARK SMILES IDX 56 116 57 117 65 118 58 119 59 120 63 121 66 122 60 123
REMARK SMILES IDX 61 124 64 125 62 126 41 127 42 128 50 129 43 130 44 131
REMARK SMILES IDX 48 132 51 133 45 134 46 135 49 136 47 137
REMARK H PARENT 7 2 7 3 6 5 6 6 5 10 2 12 1 14 1 15 1 16 79 21 80 25 89 26
REMARK H PARENT 82 28 82 29 83 33 84 35 84 36 87 38 85 39 85 40 86 41 86 42
REMARK H PARENT 88 44 8 46 8 47 9 49 9 50 10 52 10 53 11 55 11 56 12 59 16 65
REMARK H PARENT 77 67 17 69 76 70 75 80 69 82 71 84 74 86 68 87 36 96 39 98
REMARK H PARENT 72 101 37 102 73 104
REMARK Flexibility Score: inf
ROOT
ATOM      1  C   UNL A   1      32.185  29.095  26.987  1.00  0.00    -0.036 C 
ATOM      2  H   UNL A   1      33.221  28.858  27.107  1.00  0.00     0.028 H 
ATOM      3  H   UNL A   1      31.821  29.740  27.760  1.00  0.00     0.028 H 
ENDROOT
BRANCH   1   4
ATOM      4  C   UNL A   1      31.379  27.797  27.073  1.00  0.00     0.017 C 
ATOM      5  H   UNL A   1      31.931  27.075  27.639  1.00  0.00     0.049 H 
ATOM      6  H   UNL A   1      30.443  27.996  27.552  1.00  0.00     0.049 H 
BRANCH   4   7
ATOM      7  N   UNL A   1      31.131  27.278  25.747  1.00  0.00    -0.356 N 
ATOM      8  C   UNL A   1      31.808  26.328  25.042  1.00  0.00     0.227 C 
ATOM      9  O   UNL A   1      31.524  26.222  23.847  1.00  0.00    -0.274 OA
ATOM     10  H   UNL A   1      30.358  27.670  25.283  1.00  0.00     0.163 HD
BRANCH   8  11
ATOM     11  C   UNL A   1      32.847  25.436  25.746  1.00  0.00     0.061 C 
ATOM     12  H   UNL A   1      32.592  25.396  26.785  1.00  0.00     0.045 H 
BRANCH  11  13
ATOM     13  C   UNL A   1      34.264  26.023  25.670  1.00  0.00    -0.049 C 
ATOM     14  H   UNL A   1      34.729  25.716  24.758  1.00  0.00     0.024 H 
ATOM     15  H   UNL A   1      34.841  25.673  26.500  1.00  0.00     0.024 H 
ATOM     16  H   UNL A   1      34.209  27.092  25.700  1.00  0.00     0.024 H 
ENDBRANCH  11  13
BRANCH  11  17
ATOM     17  C   UNL A   1      32.798  24.015  25.182  1.00  0.00    -0.022 A 
ATOM     18  C   UNL A   1      33.751  23.627  24.221  1.00  0.00    -0.057 A 
ATOM     19  C   UNL A   1      31.782  23.097  25.498  1.00  0.00     0.022 A 
ATOM     20  C   UNL A   1      33.703  22.377  23.608  1.00  0.00    -0.059 A 
ATOM     21  H   UNL A   1      34.504  24.284  23.965  1.00  0.00     0.063 H 
ATOM     22  C   UNL A   1      31.719  21.852  24.856  1.00  0.00    -0.044 A 
ATOM     23  Br  UNL A   1      30.416  23.471  26.767  1.00  0.00    -0.051 Br
ATOM     24  C   UNL A   1      32.662  21.491  23.883  1.00  0.00    -0.047 A 
ATOM     25  H   UNL A   1      34.443  22.104  22.943  1.00  0.00     0.063 H 
ATOM     26  H   UNL A   1      30.967  21.190  25.103  1.00  0.00     0.064 H 
BRANCH  24  27
ATOM     27  C   UNL A   1      32.529  20.198  23.120  1.00  0.00    -0.023 C 
ATOM     28  H   UNL A   1      33.377  20.122  22.472  1.00  0.00     0.032 H 
ATOM     29  H   UNL A   1      31.578  20.273  22.636  1.00  0.00     0.032 H 
BRANCH  27  30
ATOM     30  C   UNL A   1      32.448  18.880  23.929  1.00  0.00    -0.011 C 
ATOM     31  C   UNL A   1      33.582  18.654  24.937  1.00  0.00    -0.048 C 
ATOM     32  C   UNL A   1      32.447  17.569  23.136  1.00  0.00     0.057 C 
ATOM     33  H   UNL A   1      31.498  19.063  24.388  1.00  0.00     0.033 H 
ATOM     34  C   UNL A   1      34.572  17.687  24.277  1.00  0.00    -0.050 C 
ATOM     35  H   UNL A   1      33.195  18.227  25.837  1.00  0.00     0.027 H 
ATOM     36  H   UNL A   1      34.059  19.576  25.192  1.00  0.00     0.027 H 
ATOM     37  C   UNL A   1      33.917  17.205  22.985  1.00  0.00    -0.027 C 
ATOM     38  H   UNL A   1      31.893  16.815  23.653  1.00  0.00     0.060 H 
ATOM     39  H   UNL A   1      34.763  16.857  24.925  1.00  0.00     0.027 H 
ATOM     40  H   UNL A   1      35.506  18.168  24.079  1.00  0.00     0.027 H 
ATOM     41  H   UNL A   1      34.034  16.147  22.874  1.00  0.00     0.029 H 
ATOM     42  H   UNL A   1      34.358  17.651  22.117  1.00  0.00     0.029 H 
BRANCH  32  43
ATOM     43  O   UNL A   1      31.785  17.653  21.891  1.00  0.00    -0.393 OA
ATOM     44  H   UNL A   1      30.950  18.134  22.001  1.00  0.00     0.210 HD
ENDBRANCH  32  43
ENDBRANCH  27  30
ENDBRANCH  24  27
ENDBRANCH  11  17
ENDBRANCH   8  11
ENDBRANCH   4   7
ENDBRANCH   1   4
BRANCH   1  45
ATOM     45  C   UNL A   1      32.009  29.845  25.659  1.00  0.00    -0.052 C 
ATOM     46  H   UNL A   1      31.467  29.211  24.988  1.00  0.00     0.027 H 
ATOM     47  H   UNL A   1      32.995  30.081  25.315  1.00  0.00     0.027 H 
BRANCH  45  48
ATOM     48  C   UNL A   1      31.260  31.177  25.764  1.00  0.00    -0.052 C 
ATOM     49  H   UNL A   1      30.217  30.985  25.618  1.00  0.00     0.027 H 
ATOM     50  H   UNL A   1      31.678  31.819  25.018  1.00  0.00     0.027 H 
BRANCH  48  51
ATOM     51  C   UNL A   1      31.428  31.902  27.101  1.00  0.00    -0.036 C 
ATOM     52  H   UNL A   1      31.451  31.168  27.880  1.00  0.00     0.028 H 
ATOM     53  H   UNL A   1      30.603  32.576  27.190  1.00  0.00     0.028 H 
BRANCH  51  54
ATOM     54  C   UNL A   1      32.695  32.744  27.201  1.00  0.00     0.018 C 
ATOM     55  H   UNL A   1      33.209  32.709  26.264  1.00  0.00     0.049 H 
ATOM     56  H   UNL A   1      33.298  32.344  27.990  1.00  0.00     0.049 H 
BRANCH  54  57
ATOM     57  N   UNL A   1      32.400  34.133  27.522  1.00  0.00    -0.352 N 
ATOM     58  C   UNL A   1      32.936  34.929  28.501  1.00  0.00     0.251 C 
ATOM     59  H   UNL A   1      31.718  34.562  26.956  1.00  0.00     0.163 HD
ATOM     60  O   UNL A   1      32.426  36.013  28.773  1.00  0.00    -0.269 OA
BRANCH  58  61
ATOM     61  C   UNL A   1      34.122  34.466  29.249  1.00  0.00     0.039 A 
ATOM     62  C   UNL A   1      33.947  33.883  30.507  1.00  0.00    -0.049 A 
ATOM     63  C   UNL A   1      35.403  34.596  28.704  1.00  0.00    -0.049 A 
ATOM     64  C   UNL A   1      35.050  33.365  31.187  1.00  0.00    -0.053 A 
ATOM     65  H   UNL A   1      33.007  33.837  30.930  1.00  0.00     0.063 H 
ATOM     66  C   UNL A   1      36.490  34.015  29.350  1.00  0.00    -0.053 A 
ATOM     67  H   UNL A   1      35.542  35.121  27.827  1.00  0.00     0.063 H 
ATOM     68  C   UNL A   1      36.324  33.388  30.595  1.00  0.00    -0.014 A 
ATOM     69  H   UNL A   1      34.930  32.962  32.129  1.00  0.00     0.063 H 
ATOM     70  H   UNL A   1      37.424  34.045  28.910  1.00  0.00     0.063 H 
BRANCH  68  71
ATOM     71  C   UNL A   1      37.490  32.741  31.246  1.00  0.00     0.031 A 
ATOM     72  C   UNL A   1      38.159  31.561  30.599  1.00  0.00     0.074 A 
ATOM     73  C   UNL A   1      37.891  33.164  32.461  1.00  0.00     0.049 A 
ATOM     74  N   UNL A   1      39.123  30.802  31.057  1.00  0.00    -0.248 NA
ATOM     75  C   UNL A   1      37.662  31.164  29.272  1.00  0.00    -0.034 C 
ATOM     76  C   UNL A   1      37.292  34.269  33.211  1.00  0.00    -0.036 A 
ATOM     77  N   UNL A   1      38.884  32.702  33.289  1.00  0.00    -0.354 N 
ATOM     78  C   UNL A   1      39.333  29.831  30.087  1.00  0.00     0.074 A 
ATOM     79  C   UNL A   1      38.369  30.068  29.035  1.00  0.00    -0.034 C 
ATOM     80  H   UNL A   1      36.950  31.619  28.681  1.00  0.00     0.065 H 
ATOM     81  C   UNL A   1      37.934  34.408  34.381  1.00  0.00    -0.036 A 
ATOM     82  H   UNL A   1      36.500  34.849  32.891  1.00  0.00     0.065 H 
ATOM     83  C   UNL A   1      38.959  33.373  34.487  1.00  0.00     0.049 A 
ATOM     84  H   UNL A   1      39.486  31.962  33.049  1.00  0.00     0.167 HD
ATOM     85  C   UNL A   1      40.259  28.843  30.070  1.00  0.00     0.037 A 
ATOM     86  H   UNL A   1      38.248  29.463  28.207  1.00  0.00     0.065 H 
ATOM     87  H   UNL A   1      37.737  35.129  35.092  1.00  0.00     0.065 H 
ATOM     88  C   UNL A   1      39.748  33.164  35.558  1.00  0.00     0.037 A 
ATOM     89  C   UNL A   1      41.234  28.632  31.108  1.00  0.00     0.049 A 
ATOM     90  C   UNL A   1      40.756  32.046  35.519  1.00  0.00     0.074 A 
ATOM     91  C   UNL A   1      42.268  27.713  31.143  1.00  0.00    -0.036 A 
ATOM     92  N   UNL A   1      41.288  29.340  32.300  1.00  0.00    -0.354 N 
ATOM     93  N   UNL A   1      41.005  31.190  34.557  1.00  0.00    -0.248 NA
ATOM     94  C   UNL A   1      41.593  31.864  36.713  1.00  0.00    -0.034 C 
ATOM     95  C   UNL A   1      42.908  27.821  32.382  1.00  0.00    -0.036 A 
ATOM     96  H   UNL A   1      42.524  27.061  30.385  1.00  0.00     0.065 H 
ATOM     97  C   UNL A   1      42.313  28.850  33.093  1.00  0.00     0.049 A 
ATOM     98  H   UNL A   1      40.688  30.081  32.544  1.00  0.00     0.167 HD
ATOM     99  C   UNL A   1      42.041  30.388  35.018  1.00  0.00     0.074 A 
ATOM    100  C   UNL A   1      42.387  30.871  36.338  1.00  0.00    -0.034 C 
ATOM    101  H   UNL A   1      41.569  32.375  37.609  1.00  0.00     0.065 H 
ATOM    102  H   UNL A   1      43.690  27.234  32.710  1.00  0.00     0.065 H 
ATOM    103  C   UNL A   1      42.649  29.345  34.404  1.00  0.00     0.037 A 
ATOM    104  H   UNL A   1      43.154  30.490  36.915  1.00  0.00     0.065 H 
BRANCH  85 105
ATOM    105  C   UNL A   1      40.266  27.905  28.897  1.00  0.00     0.064 A 
ATOM    106  C   UNL A   1      41.004  28.177  27.737  1.00  0.00     0.173 A 
ATOM    107  C   UNL A   1      39.571  26.687  28.963  1.00  0.00     0.173 A 
ATOM    108  F   UNL A   1      41.679  29.330  27.620  1.00  0.00    -0.203 F 
ATOM    109  C   UNL A   1      41.028  27.275  26.675  1.00  0.00     0.198 A 
ATOM    110  C   UNL A   1      39.622  25.775  27.912  1.00  0.00     0.198 A 
ATOM    111  F   UNL A   1      38.853  26.374  30.053  1.00  0.00    -0.203 F 
ATOM    112  F   UNL A   1      41.707  27.576  25.559  1.00  0.00    -0.200 F 
ATOM    113  C   UNL A   1      40.346  26.072  26.767  1.00  0.00     0.200 A 
ATOM    114  F   UNL A   1      38.975  24.605  28.011  1.00  0.00    -0.200 F 
ATOM    115  F   UNL A   1      40.381  25.199  25.751  1.00  0.00    -0.200 F 
ENDBRANCH  85 105
BRANCH  88 116
ATOM    116  C   UNL A   1      39.616  34.026  36.764  1.00  0.00     0.064 A 
ATOM    117  C   UNL A   1      40.303  35.244  36.862  1.00  0.00     0.173 A 
ATOM    118  C   UNL A   1      38.817  33.640  37.851  1.00  0.00     0.173 A 
ATOM    119  F   UNL A   1      41.095  35.647  35.857  1.00  0.00    -0.203 F 
ATOM    120  C   UNL A   1      40.219  36.028  38.010  1.00  0.00     0.198 A 
ATOM    121  C   UNL A   1      38.708  34.441  38.985  1.00  0.00     0.198 A 
ATOM    122  F   UNL A   1      38.135  32.486  37.808  1.00  0.00    -0.203 F 
ATOM    123  F   UNL A   1      40.933  37.159  38.099  1.00  0.00    -0.200 F 
ATOM    124  C   UNL A   1      39.418  35.629  39.069  1.00  0.00     0.200 A 
ATOM    125  F   UNL A   1      37.920  34.059  39.999  1.00  0.00    -0.200 F 
ATOM    126  F   UNL A   1      39.338  36.384  40.173  1.00  0.00    -0.200 F 
ENDBRANCH  88 116
BRANCH 103 127
ATOM    127  C   UNL A   1      43.769  28.667  35.138  1.00  0.00     0.064 A 
ATOM    128  C   UNL A   1      43.542  27.563  35.973  1.00  0.00     0.173 A 
ATOM    129  C   UNL A   1      45.095  29.090  34.958  1.00  0.00     0.173 A 
ATOM    130  F   UNL A   1      42.291  27.129  36.192  1.00  0.00    -0.203 F 
ATOM    131  C   UNL A   1      44.597  26.922  36.617  1.00  0.00     0.198 A 
ATOM    132  C   UNL A   1      46.151  28.427  35.576  1.00  0.00     0.198 A 
ATOM    133  F   UNL A   1      45.369  30.137  34.164  1.00  0.00    -0.203 F 
ATOM    134  F   UNL A   1      44.351  25.897  37.445  1.00  0.00    -0.200 F 
ATOM    135  C   UNL A   1      45.901  27.348  36.409  1.00  0.00     0.200 A 
ATOM    136  F   UNL A   1      47.412  28.829  35.361  1.00  0.00    -0.200 F 
ATOM    137  F   UNL A   1      46.916  26.719  37.017  1.00  0.00    -0.200 F 
ENDBRANCH 103 127
ENDBRANCH  68  71
ENDBRANCH  58  61
ENDBRANCH  54  57
ENDBRANCH  51  54
ENDBRANCH  48  51
ENDBRANCH  45  48
ENDBRANCH   1  45
TORSDOF 18
ENDMDL
MODEL 6
REMARK VINA RESULT:     -12.2      2.407      8.465
REMARK SMILES C[C@@H](C(=O)NCCCCCCNC(=O)c1ccc(-c2c3nc(c(-c4c(F)c(F)c(F)c(F)c4F)c4ccc([nH]4)c(-c4c(F)c(F)c(F)c(F)c4F)c4nc(c(-c5c(F)c(F)c(F)c(F)c5F)c5ccc2[nH]5)C=C4)C=C3)cc1)c1ccc(C[C@@H]2CCC[C@@H]2O)cc1Br
REMARK SMILES IDX 7 1 6 4 5 7 3 8 4 9 2 11 1 13 78 17 79 18 90 19 80 20 89 22
REMARK SMILES IDX 91 23 81 24 82 27 83 30 84 31 87 32 85 34 86 37 88 43 8 45
REMARK SMILES IDX 9 48 10 51 11 54 12 57 13 58 14 60 15 61 16 62 77 63 17 64
REMARK SMILES IDX 76 66 18 68 19 71 20 72 70 73 21 74 75 75 69 76 71 77 22 78
REMARK SMILES IDX 74 79 68 81 67 83 23 85 55 88 35 89 54 90 36 91 39 92 53 93
REMARK SMILES IDX 72 94 37 95 38 97 52 99 73 100 40 103 24 105 25 106 33 107
REMARK SMILES IDX 26 108 27 109 31 110 34 111 28 112 29 113 32 114 30 115
REMARK SMILES IDX 56 116 57 117 65 118 58 119 59 120 63 121 66 122 60 123
REMARK SMILES IDX 61 124 64 125 62 126 41 127 42 128 50 129 43 130 44 131
REMARK SMILES IDX 48 132 51 133 45 134 46 135 49 136 47 137
REMARK H PARENT 7 2 7 3 6 5 6 6 5 10 2 12 1 14 1 15 1 16 79 21 80 25 89 26
REMARK H PARENT 82 28 82 29 83 33 84 35 84 36 87 38 85 39 85 40 86 41 86 42
REMARK H PARENT 88 44 8 46 8 47 9 49 9 50 10 52 10 53 11 55 11 56 12 59 16 65
REMARK H PARENT 77 67 17 69 76 70 75 80 69 82 71 84 74 86 68 87 36 96 39 98
REMARK H PARENT 72 101 37 102 73 104
REMARK Flexibility Score: inf
ROOT
ATOM      1  C   UNL A   1      34.402  26.394  25.773  1.00  0.00    -0.036 C 
ATOM      2  H   UNL A   1      35.036  26.776  25.001  1.00  0.00     0.028 H 
ATOM      3  H   UNL A   1      34.798  26.570  26.752  1.00  0.00     0.028 H 
ENDROOT
BRANCH   1   4
ATOM      4  C   UNL A   1      34.292  24.877  25.603  1.00  0.00     0.017 C 
ATOM      5  H   UNL A   1      34.974  24.395  26.274  1.00  0.00     0.049 H 
ATOM      6  H   UNL A   1      33.291  24.571  25.821  1.00  0.00     0.049 H 
BRANCH   4   7
ATOM      7  N   UNL A   1      34.616  24.506  24.244  1.00  0.00    -0.356 N 
ATOM      8  C   UNL A   1      33.994  23.626  23.409  1.00  0.00     0.227 C 
ATOM      9  O   UNL A   1      34.597  23.328  22.375  1.00  0.00    -0.274 OA
ATOM     10  H   UNL A   1      35.404  24.955  23.865  1.00  0.00     0.163 HD
BRANCH   8  11
ATOM     11  C   UNL A   1      32.599  23.077  23.762  1.00  0.00     0.061 C 
ATOM     12  H   UNL A   1      32.660  22.635  24.735  1.00  0.00     0.045 H 
BRANCH  11  13
ATOM     13  C   UNL A   1      32.155  21.961  22.805  1.00  0.00    -0.049 C 
ATOM     14  H   UNL A   1      31.905  22.385  21.855  1.00  0.00     0.024 H 
ATOM     15  H   UNL A   1      31.300  21.463  23.210  1.00  0.00     0.024 H 
ATOM     16  H   UNL A   1      32.952  21.258  22.682  1.00  0.00     0.024 H 
ENDBRANCH  11  13
BRANCH  11  17
ATOM     17  C   UNL A   1      31.577  24.214  23.811  1.00  0.00    -0.022 A 
ATOM     18  C   UNL A   1      31.538  25.146  22.757  1.00  0.00    -0.057 A 
ATOM     19  C   UNL A   1      30.733  24.442  24.911  1.00  0.00     0.022 A 
ATOM     20  C   UNL A   1      30.690  26.250  22.788  1.00  0.00    -0.059 A 
ATOM     21  H   UNL A   1      32.152  25.006  21.939  1.00  0.00     0.063 H 
ATOM     22  C   UNL A   1      29.903  25.571  24.954  1.00  0.00    -0.044 A 
ATOM     23  Br  UNL A   1      30.673  23.283  26.419  1.00  0.00    -0.051 Br
ATOM     24  C   UNL A   1      29.895  26.502  23.905  1.00  0.00    -0.047 A 
ATOM     25  H   UNL A   1      30.650  26.888  21.978  1.00  0.00     0.063 H 
ATOM     26  H   UNL A   1      29.288  25.720  25.770  1.00  0.00     0.064 H 
BRANCH  24  27
ATOM     27  C   UNL A   1      29.082  27.768  24.003  1.00  0.00    -0.023 C 
ATOM     28  H   UNL A   1      29.577  28.411  24.700  1.00  0.00     0.032 H 
ATOM     29  H   UNL A   1      28.107  27.435  24.288  1.00  0.00     0.032 H 
BRANCH  27  30
ATOM     30  C   UNL A   1      28.848  28.585  22.709  1.00  0.00    -0.011 C 
ATOM     31  C   UNL A   1      29.841  29.729  22.462  1.00  0.00    -0.048 C 
ATOM     32  C   UNL A   1      27.496  29.288  22.557  1.00  0.00     0.057 C 
ATOM     33  H   UNL A   1      28.951  27.774  22.018  1.00  0.00     0.033 H 
ATOM     34  C   UNL A   1      29.141  31.022  22.896  1.00  0.00    -0.050 C 
ATOM     35  H   UNL A   1      30.097  29.778  21.426  1.00  0.00     0.027 H 
ATOM     36  H   UNL A   1      30.745  29.579  23.015  1.00  0.00     0.027 H 
ATOM     37  C   UNL A   1      27.691  30.653  23.200  1.00  0.00    -0.027 C 
ATOM     38  H   UNL A   1      27.220  29.360  21.526  1.00  0.00     0.060 H 
ATOM     39  H   UNL A   1      29.180  31.744  22.107  1.00  0.00     0.027 H 
ATOM     40  H   UNL A   1      29.617  31.450  23.752  1.00  0.00     0.027 H 
ATOM     41  H   UNL A   1      27.022  31.371  22.774  1.00  0.00     0.029 H 
ATOM     42  H   UNL A   1      27.490  30.638  24.251  1.00  0.00     0.029 H 
BRANCH  32  43
ATOM     43  O   UNL A   1      26.415  28.577  23.126  1.00  0.00    -0.393 OA
ATOM     44  H   UNL A   1      25.588  28.852  22.700  1.00  0.00     0.210 HD
ENDBRANCH  32  43
ENDBRANCH  27  30
ENDBRANCH  24  27
ENDBRANCH  11  17
ENDBRANCH   8  11
ENDBRANCH   4   7
ENDBRANCH   1   4
BRANCH   1  45
ATOM     45  C   UNL A   1      33.053  27.123  25.698  1.00  0.00    -0.052 C 
ATOM     46  H   UNL A   1      32.780  27.421  26.689  1.00  0.00     0.027 H 
ATOM     47  H   UNL A   1      32.363  26.434  25.258  1.00  0.00     0.027 H 
BRANCH  45  48
ATOM     48  C   UNL A   1      33.042  28.370  24.808  1.00  0.00    -0.052 C 
ATOM     49  H   UNL A   1      32.725  28.077  23.828  1.00  0.00     0.027 H 
ATOM     50  H   UNL A   1      34.036  28.764  24.827  1.00  0.00     0.027 H 
BRANCH  48  51
ATOM     51  C   UNL A   1      32.123  29.493  25.291  1.00  0.00    -0.036 C 
ATOM     52  H   UNL A   1      31.112  29.142  25.247  1.00  0.00     0.028 H 
ATOM     53  H   UNL A   1      32.299  30.331  24.649  1.00  0.00     0.028 H 
BRANCH  51  54
ATOM     54  C   UNL A   1      32.403  29.964  26.713  1.00  0.00     0.018 C 
ATOM     55  H   UNL A   1      33.346  29.569  27.029  1.00  0.00     0.049 H 
ATOM     56  H   UNL A   1      31.608  29.618  27.340  1.00  0.00     0.049 H 
BRANCH  54  57
ATOM     57  N   UNL A   1      32.449  31.417  26.806  1.00  0.00    -0.352 N 
ATOM     58  C   UNL A   1      33.340  32.214  27.476  1.00  0.00     0.251 C 
ATOM     59  H   UNL A   1      31.739  31.893  26.318  1.00  0.00     0.163 HD
ATOM     60  O   UNL A   1      33.114  33.412  27.626  1.00  0.00    -0.269 OA
BRANCH  58  61
ATOM     61  C   UNL A   1      34.569  31.621  28.041  1.00  0.00     0.039 A 
ATOM     62  C   UNL A   1      35.681  32.440  28.254  1.00  0.00    -0.049 A 
ATOM     63  C   UNL A   1      34.617  30.264  28.372  1.00  0.00    -0.049 A 
ATOM     64  C   UNL A   1      36.819  31.911  28.865  1.00  0.00    -0.053 A 
ATOM     65  H   UNL A   1      35.661  33.428  27.959  1.00  0.00     0.063 H 
ATOM     66  C   UNL A   1      35.724  29.758  29.047  1.00  0.00    -0.053 A 
ATOM     67  H   UNL A   1      33.837  29.640  28.117  1.00  0.00     0.063 H 
ATOM     68  C   UNL A   1      36.834  30.577  29.305  1.00  0.00    -0.014 A 
ATOM     69  H   UNL A   1      37.654  32.504  28.996  1.00  0.00     0.063 H 
ATOM     70  H   UNL A   1      35.728  28.773  29.359  1.00  0.00     0.063 H 
BRANCH  68  71
ATOM     71  C   UNL A   1      37.987  30.026  30.061  1.00  0.00     0.031 A 
ATOM     72  C   UNL A   1      38.256  30.482  31.467  1.00  0.00     0.074 A 
ATOM     73  C   UNL A   1      38.838  29.179  29.449  1.00  0.00     0.049 A 
ATOM     74  N   UNL A   1      39.265  30.194  32.252  1.00  0.00    -0.248 NA
ATOM     75  C   UNL A   1      37.279  31.406  32.062  1.00  0.00    -0.034 C 
ATOM     76  C   UNL A   1      38.707  28.699  28.072  1.00  0.00    -0.036 A 
ATOM     77  N   UNL A   1      39.992  28.587  29.898  1.00  0.00    -0.354 N 
ATOM     78  C   UNL A   1      39.052  30.912  33.420  1.00  0.00     0.074 A 
ATOM     79  C   UNL A   1      37.844  31.685  33.229  1.00  0.00    -0.034 C 
ATOM     80  H   UNL A   1      36.386  31.748  31.674  1.00  0.00     0.065 H 
ATOM     81  C   UNL A   1      39.732  27.880  27.792  1.00  0.00    -0.036 A 
ATOM     82  H   UNL A   1      37.948  28.952  27.420  1.00  0.00     0.065 H 
ATOM     83  C   UNL A   1      40.618  27.812  28.950  1.00  0.00     0.049 A 
ATOM     84  H   UNL A   1      40.339  28.705  30.811  1.00  0.00     0.167 HD
ATOM     85  C   UNL A   1      39.790  30.913  34.555  1.00  0.00     0.037 A 
ATOM     86  H   UNL A   1      37.471  32.364  33.911  1.00  0.00     0.065 H 
ATOM     87  H   UNL A   1      39.872  27.377  26.901  1.00  0.00     0.065 H 
ATOM     88  C   UNL A   1      41.784  27.141  29.002  1.00  0.00     0.037 A 
ATOM     89  C   UNL A   1      40.976  30.119  34.749  1.00  0.00     0.049 A 
ATOM     90  C   UNL A   1      42.594  27.175  30.271  1.00  0.00     0.074 A 
ATOM     91  C   UNL A   1      41.744  29.984  35.892  1.00  0.00    -0.036 A 
ATOM     92  N   UNL A   1      41.572  29.335  33.772  1.00  0.00    -0.354 N 
ATOM     93  N   UNL A   1      42.336  27.787  31.401  1.00  0.00    -0.248 NA
ATOM     94  C   UNL A   1      43.857  26.424  30.273  1.00  0.00    -0.034 C 
ATOM     95  C   UNL A   1      42.840  29.171  35.589  1.00  0.00    -0.036 A 
ATOM     96  H   UNL A   1      41.543  30.410  36.810  1.00  0.00     0.065 H 
ATOM     97  C   UNL A   1      42.720  28.748  34.275  1.00  0.00     0.049 A 
ATOM     98  H   UNL A   1      41.228  29.214  32.857  1.00  0.00     0.167 HD
ATOM     99  C   UNL A   1      43.386  27.475  32.254  1.00  0.00     0.074 A 
ATOM    100  C   UNL A   1      44.277  26.603  31.517  1.00  0.00    -0.034 C 
ATOM    101  H   UNL A   1      44.302  25.894  29.506  1.00  0.00     0.065 H 
ATOM    102  H   UNL A   1      43.608  28.928  36.234  1.00  0.00     0.065 H 
ATOM    103  C   UNL A   1      43.595  27.877  33.531  1.00  0.00     0.037 A 
ATOM    104  H   UNL A   1      45.131  26.178  31.911  1.00  0.00     0.065 H 
BRANCH  85 105
ATOM    105  C   UNL A   1      39.347  31.802  35.682  1.00  0.00     0.064 A 
ATOM    106  C   UNL A   1      39.791  33.126  35.798  1.00  0.00     0.173 A 
ATOM    107  C   UNL A   1      38.416  31.337  36.624  1.00  0.00     0.173 A 
ATOM    108  F   UNL A   1      40.687  33.618  34.929  1.00  0.00    -0.203 F 
ATOM    109  C   UNL A   1      39.339  33.946  36.830  1.00  0.00     0.198 A 
ATOM    110  C   UNL A   1      37.942  32.168  37.635  1.00  0.00     0.198 A 
ATOM    111  F   UNL A   1      37.953  30.079  36.556  1.00  0.00    -0.203 F 
ATOM    112  F   UNL A   1      39.809  35.196  36.946  1.00  0.00    -0.200 F 
ATOM    113  C   UNL A   1      38.409  33.470  37.741  1.00  0.00     0.200 A 
ATOM    114  F   UNL A   1      37.031  31.711  38.505  1.00  0.00    -0.200 F 
ATOM    115  F   UNL A   1      37.963  34.264  38.724  1.00  0.00    -0.200 F 
ENDBRANCH  85 105
BRANCH  88 116
ATOM    116  C   UNL A   1      42.265  26.385  27.814  1.00  0.00     0.064 A 
ATOM    117  C   UNL A   1      41.809  25.086  27.550  1.00  0.00     0.173 A 
ATOM    118  C   UNL A   1      43.206  26.937  26.931  1.00  0.00     0.173 A 
ATOM    119  F   UNL A   1      40.925  24.507  28.376  1.00  0.00    -0.203 F 
ATOM    120  C   UNL A   1      42.295  24.358  26.466  1.00  0.00     0.198 A 
ATOM    121  C   UNL A   1      43.666  26.220  25.828  1.00  0.00     0.198 A 
ATOM    122  F   UNL A   1      43.673  28.177  27.134  1.00  0.00    -0.203 F 
ATOM    123  F   UNL A   1      41.884  23.097  26.271  1.00  0.00    -0.200 F 
ATOM    124  C   UNL A   1      43.219  24.927  25.603  1.00  0.00     0.200 A 
ATOM    125  F   UNL A   1      44.547  26.780  24.988  1.00  0.00    -0.200 F 
ATOM    126  F   UNL A   1      43.686  24.226  24.561  1.00  0.00    -0.200 F 
ENDBRANCH  88 116
BRANCH 103 127
ATOM    127  C   UNL A   1      44.820  27.360  34.228  1.00  0.00     0.064 A 
ATOM    128  C   UNL A   1      46.025  28.078  34.230  1.00  0.00     0.173 A 
ATOM    129  C   UNL A   1      44.772  26.158  34.951  1.00  0.00     0.173 A 
ATOM    130  F   UNL A   1      46.129  29.224  33.540  1.00  0.00    -0.203 F 
ATOM    131  C   UNL A   1      47.141  27.602  34.913  1.00  0.00     0.198 A 
ATOM    132  C   UNL A   1      45.879  25.702  35.660  1.00  0.00     0.198 A 
ATOM    133  F   UNL A   1      43.642  25.435  34.987  1.00  0.00    -0.203 F 
ATOM    134  F   UNL A   1      48.294  28.283  34.865  1.00  0.00    -0.200 F 
ATOM    135  C   UNL A   1      47.064  26.421  35.636  1.00  0.00     0.200 A 
ATOM    136  F   UNL A   1      45.797  24.568  36.372  1.00  0.00    -0.200 F 
ATOM    137  F   UNL A   1      48.134  25.973  36.306  1.00  0.00    -0.200 F 
ENDBRANCH 103 127
ENDBRANCH  68  71
ENDBRANCH  58  61
ENDBRANCH  54  57
ENDBRANCH  51  54
ENDBRANCH  48  51
ENDBRANCH  45  48
ENDBRANCH   1  45
TORSDOF 18
ENDMDL
MODEL 7
REMARK VINA RESULT:     -12.1      0.609      7.421
REMARK SMILES C[C@@H](C(=O)NCCCCCCNC(=O)c1ccc(-c2c3nc(c(-c4c(F)c(F)c(F)c(F)c4F)c4ccc([nH]4)c(-c4c(F)c(F)c(F)c(F)c4F)c4nc(c(-c5c(F)c(F)c(F)c(F)c5F)c5ccc2[nH]5)C=C4)C=C3)cc1)c1ccc(C[C@@H]2CCC[C@@H]2O)cc1Br
REMARK SMILES IDX 7 1 6 4 5 7 3 8 4 9 2 11 1 13 78 17 79 18 90 19 80 20 89 22
REMARK SMILES IDX 91 23 81 24 82 27 83 30 84 31 87 32 85 34 86 37 88 43 8 45
REMARK SMILES IDX 9 48 10 51 11 54 12 57 13 58 14 60 15 61 16 62 77 63 17 64
REMARK SMILES IDX 76 66 18 68 19 71 20 72 70 73 21 74 75 75 69 76 71 77 22 78
REMARK SMILES IDX 74 79 68 81 67 83 23 85 55 88 35 89 54 90 36 91 39 92 53 93
REMARK SMILES IDX 72 94 37 95 38 97 52 99 73 100 40 103 24 105 25 106 33 107
REMARK SMILES IDX 26 108 27 109 31 110 34 111 28 112 29 113 32 114 30 115
REMARK SMILES IDX 56 116 57 117 65 118 58 119 59 120 63 121 66 122 60 123
REMARK SMILES IDX 61 124 64 125 62 126 41 127 42 128 50 129 43 130 44 131
REMARK SMILES IDX 48 132 51 133 45 134 46 135 49 136 47 137
REMARK H PARENT 7 2 7 3 6 5 6 6 5 10 2 12 1 14 1 15 1 16 79 21 80 25 89 26
REMARK H PARENT 82 28 82 29 83 33 84 35 84 36 87 38 85 39 85 40 86 41 86 42
REMARK H PARENT 88 44 8 46 8 47 9 49 9 50 10 52 10 53 11 55 11 56 12 59 16 65
REMARK H PARENT 77 67 17 69 76 70 75 80 69 82 71 84 74 86 68 87 36 96 39 98
REMARK H PARENT 72 101 37 102 73 104
REMARK Flexibility Score: inf
ROOT
ATOM      1  C   UNL A   1      32.259  28.704  27.109  1.00  0.00    -0.036 C 
ATOM      2  H   UNL A   1      32.581  28.801  28.125  1.00  0.00     0.028 H 
ATOM      3  H   UNL A   1      31.195  28.633  27.022  1.00  0.00     0.028 H 
ENDROOT
BRANCH   1   4
ATOM      4  C   UNL A   1      32.841  27.408  26.539  1.00  0.00     0.017 C 
ATOM      5  H   UNL A   1      33.199  27.587  25.547  1.00  0.00     0.049 H 
ATOM      6  H   UNL A   1      33.646  27.081  27.163  1.00  0.00     0.049 H 
BRANCH   4   7
ATOM      7  N   UNL A   1      31.824  26.382  26.502  1.00  0.00    -0.356 N 
ATOM      8  C   UNL A   1      31.591  25.417  25.567  1.00  0.00     0.227 C 
ATOM      9  O   UNL A   1      30.527  24.803  25.663  1.00  0.00    -0.274 OA
ATOM     10  H   UNL A   1      31.205  26.380  27.267  1.00  0.00     0.163 HD
BRANCH   8  11
ATOM     11  C   UNL A   1      32.643  25.123  24.481  1.00  0.00     0.061 C 
ATOM     12  H   UNL A   1      33.587  25.485  24.836  1.00  0.00     0.045 H 
BRANCH  11  13
ATOM     13  C   UNL A   1      32.353  25.875  23.174  1.00  0.00    -0.049 C 
ATOM     14  H   UNL A   1      31.716  25.280  22.554  1.00  0.00     0.024 H 
ATOM     15  H   UNL A   1      33.272  26.066  22.661  1.00  0.00     0.024 H 
ATOM     16  H   UNL A   1      31.869  26.803  23.396  1.00  0.00     0.024 H 
ENDBRANCH  11  13
BRANCH  11  17
ATOM     17  C   UNL A   1      32.760  23.616  24.248  1.00  0.00    -0.022 A 
ATOM     18  C   UNL A   1      32.049  23.031  23.183  1.00  0.00    -0.057 A 
ATOM     19  C   UNL A   1      33.464  22.757  25.109  1.00  0.00     0.022 A 
ATOM     20  C   UNL A   1      32.047  21.654  22.975  1.00  0.00    -0.059 A 
ATOM     21  H   UNL A   1      31.518  23.638  22.539  1.00  0.00     0.063 H 
ATOM     22  C   UNL A   1      33.435  21.369  24.915  1.00  0.00    -0.044 A 
ATOM     23  Br  UNL A   1      34.466  23.388  26.598  1.00  0.00    -0.051 Br
ATOM     24  C   UNL A   1      32.701  20.801  23.863  1.00  0.00    -0.047 A 
ATOM     25  H   UNL A   1      31.556  21.260  22.157  1.00  0.00     0.063 H 
ATOM     26  H   UNL A   1      33.961  20.754  25.556  1.00  0.00     0.064 H 
BRANCH  24  27
ATOM     27  C   UNL A   1      32.586  19.305  23.722  1.00  0.00    -0.023 C 
ATOM     28  H   UNL A   1      32.555  19.086  22.675  1.00  0.00     0.032 H 
ATOM     29  H   UNL A   1      31.706  19.054  24.276  1.00  0.00     0.032 H 
BRANCH  27  30
ATOM     30  C   UNL A   1      33.697  18.426  24.344  1.00  0.00    -0.011 C 
ATOM     31  C   UNL A   1      34.202  17.278  23.461  1.00  0.00    -0.048 C 
ATOM     32  C   UNL A   1      33.372  17.710  25.659  1.00  0.00     0.057 C 
ATOM     33  H   UNL A   1      34.419  19.204  24.488  1.00  0.00     0.033 H 
ATOM     34  C   UNL A   1      33.510  16.003  23.957  1.00  0.00    -0.050 C 
ATOM     35  H   UNL A   1      35.263  17.181  23.553  1.00  0.00     0.027 H 
ATOM     36  H   UNL A   1      33.979  17.459  22.431  1.00  0.00     0.027 H 
ATOM     37  C   UNL A   1      32.769  16.377  25.238  1.00  0.00    -0.027 C 
ATOM     38  H   UNL A   1      34.255  17.587  26.251  1.00  0.00     0.060 H 
ATOM     39  H   UNL A   1      34.238  15.245  24.160  1.00  0.00     0.027 H 
ATOM     40  H   UNL A   1      32.837  15.618  23.221  1.00  0.00     0.027 H 
ATOM     41  H   UNL A   1      32.925  15.637  25.994  1.00  0.00     0.029 H 
ATOM     42  H   UNL A   1      31.711  16.441  25.089  1.00  0.00     0.029 H 
BRANCH  32  43
ATOM     43  O   UNL A   1      32.516  18.440  26.512  1.00  0.00    -0.393 OA
ATOM     44  H   UNL A   1      32.634  19.389  26.353  1.00  0.00     0.210 HD
ENDBRANCH  32  43
ENDBRANCH  27  30
ENDBRANCH  24  27
ENDBRANCH  11  17
ENDBRANCH   8  11
ENDBRANCH   4   7
ENDBRANCH   1   4
BRANCH   1  45
ATOM     45  C   UNL A   1      32.688  29.963  26.342  1.00  0.00    -0.052 C 
ATOM     46  H   UNL A   1      33.222  29.655  25.467  1.00  0.00     0.027 H 
ATOM     47  H   UNL A   1      33.282  30.540  27.019  1.00  0.00     0.027 H 
BRANCH  45  48
ATOM     48  C   UNL A   1      31.536  30.873  25.900  1.00  0.00    -0.052 C 
ATOM     49  H   UNL A   1      30.629  30.305  25.939  1.00  0.00     0.027 H 
ATOM     50  H   UNL A   1      31.778  31.210  24.914  1.00  0.00     0.027 H 
BRANCH  48  51
ATOM     51  C   UNL A   1      31.350  32.128  26.753  1.00  0.00    -0.036 C 
ATOM     52  H   UNL A   1      30.798  31.859  27.630  1.00  0.00     0.028 H 
ATOM     53  H   UNL A   1      30.836  32.841  26.142  1.00  0.00     0.028 H 
BRANCH  51  54
ATOM     54  C   UNL A   1      32.653  32.787  27.193  1.00  0.00     0.018 C 
ATOM     55  H   UNL A   1      33.350  32.747  26.382  1.00  0.00     0.049 H 
ATOM     56  H   UNL A   1      33.020  32.257  28.047  1.00  0.00     0.049 H 
BRANCH  54  57
ATOM     57  N   UNL A   1      32.457  34.177  27.577  1.00  0.00    -0.352 N 
ATOM     58  C   UNL A   1      33.034  34.882  28.601  1.00  0.00     0.251 C 
ATOM     59  H   UNL A   1      31.820  34.683  27.023  1.00  0.00     0.163 HD
ATOM     60  O   UNL A   1      32.603  35.988  28.918  1.00  0.00    -0.269 OA
BRANCH  58  61
ATOM     61  C   UNL A   1      34.169  34.296  29.342  1.00  0.00     0.039 A 
ATOM     62  C   UNL A   1      33.913  33.530  30.482  1.00  0.00    -0.049 A 
ATOM     63  C   UNL A   1      35.482  34.491  28.904  1.00  0.00    -0.049 A 
ATOM     64  C   UNL A   1      34.969  32.900  31.142  1.00  0.00    -0.053 A 
ATOM     65  H   UNL A   1      32.948  33.432  30.833  1.00  0.00     0.063 H 
ATOM     66  C   UNL A   1      36.524  33.805  29.519  1.00  0.00    -0.053 A 
ATOM     67  H   UNL A   1      35.678  35.142  28.128  1.00  0.00     0.063 H 
ATOM     68  C   UNL A   1      36.278  32.998  30.641  1.00  0.00    -0.014 A 
ATOM     69  H   UNL A   1      34.787  32.360  32.002  1.00  0.00     0.063 H 
ATOM     70  H   UNL A   1      37.484  33.890  29.149  1.00  0.00     0.063 H 
BRANCH  68  71
ATOM     71  C   UNL A   1      37.399  32.244  31.257  1.00  0.00     0.031 A 
ATOM     72  C   UNL A   1      37.909  32.626  32.617  1.00  0.00     0.074 A 
ATOM     73  C   UNL A   1      38.010  31.270  30.553  1.00  0.00     0.049 A 
ATOM     74  N   UNL A   1      38.938  32.155  33.278  1.00  0.00    -0.248 NA
ATOM     75  C   UNL A   1      37.186  33.697  33.319  1.00  0.00    -0.034 C 
ATOM     76  C   UNL A   1      37.635  30.841  29.205  1.00  0.00    -0.036 A 
ATOM     77  N   UNL A   1      39.088  30.480  30.865  1.00  0.00    -0.354 N 
ATOM     78  C   UNL A   1      38.994  32.883  34.458  1.00  0.00     0.074 A 
ATOM     79  C   UNL A   1      37.926  33.857  34.408  1.00  0.00    -0.034 C 
ATOM     80  H   UNL A   1      36.327  34.195  33.038  1.00  0.00     0.065 H 
ATOM     81  C   UNL A   1      38.460  29.859  28.810  1.00  0.00    -0.036 A 
ATOM     82  H   UNL A   1      36.859  31.230  28.647  1.00  0.00     0.065 H 
ATOM     83  C   UNL A   1      39.452  29.622  29.854  1.00  0.00     0.049 A 
ATOM     84  H   UNL A   1      39.557  30.524  31.729  1.00  0.00     0.167 HD
ATOM     85  C   UNL A   1      39.851  32.739  35.497  1.00  0.00     0.037 A 
ATOM     86  H   UNL A   1      37.760  34.581  35.125  1.00  0.00     0.065 H 
ATOM     87  H   UNL A   1      38.403  29.352  27.913  1.00  0.00     0.065 H 
ATOM     88  C   UNL A   1      40.481  28.758  29.770  1.00  0.00     0.037 A 
ATOM     89  C   UNL A   1      40.894  31.748  35.553  1.00  0.00     0.049 A 
ATOM     90  C   UNL A   1      41.430  28.631  30.933  1.00  0.00     0.074 A 
ATOM     91  C   UNL A   1      41.758  31.466  36.597  1.00  0.00    -0.036 A 
ATOM     92  N   UNL A   1      41.224  30.887  34.517  1.00  0.00    -0.354 N 
ATOM     93  N   UNL A   1      41.418  29.263  32.082  1.00  0.00    -0.248 NA
ATOM     94  C   UNL A   1      42.534  27.672  30.789  1.00  0.00    -0.034 C 
ATOM     95  C   UNL A   1      42.651  30.479  36.170  1.00  0.00    -0.036 A 
ATOM     96  H   UNL A   1      41.745  31.907  37.529  1.00  0.00     0.065 H 
ATOM     97  C   UNL A   1      42.304  30.101  34.882  1.00  0.00     0.049 A 
ATOM     98  H   UNL A   1      40.758  30.840  33.651  1.00  0.00     0.167 HD
ATOM     99  C   UNL A   1      42.492  28.762  32.805  1.00  0.00     0.074 A 
ATOM    100  C   UNL A   1      43.123  27.758  31.973  1.00  0.00    -0.034 C 
ATOM    101  H   UNL A   1      42.784  27.085  29.979  1.00  0.00     0.065 H 
ATOM    102  H   UNL A   1      43.436  30.096  36.720  1.00  0.00     0.065 H 
ATOM    103  C   UNL A   1      42.918  29.102  34.045  1.00  0.00     0.037 A 
ATOM    104  H   UNL A   1      43.930  27.185  32.265  1.00  0.00     0.065 H 
BRANCH  85 105
ATOM    105  C   UNL A   1      39.707  33.675  36.663  1.00  0.00     0.064 A 
ATOM    106  C   UNL A   1      40.331  34.930  36.685  1.00  0.00     0.173 A 
ATOM    107  C   UNL A   1      38.882  33.333  37.745  1.00  0.00     0.173 A 
ATOM    108  F   UNL A   1      41.137  35.303  35.680  1.00  0.00    -0.203 F 
ATOM    109  C   UNL A   1      40.154  35.800  37.760  1.00  0.00     0.198 A 
ATOM    110  C   UNL A   1      38.683  34.217  38.803  1.00  0.00     0.198 A 
ATOM    111  F   UNL A   1      38.256  32.147  37.772  1.00  0.00    -0.203 F 
ATOM    112  F   UNL A   1      40.795  36.977  37.779  1.00  0.00    -0.200 F 
ATOM    113  C   UNL A   1      39.324  35.447  38.812  1.00  0.00     0.200 A 
ATOM    114  F   UNL A   1      37.866  33.880  39.810  1.00  0.00    -0.200 F 
ATOM    115  F   UNL A   1      39.143  36.289  39.838  1.00  0.00    -0.200 F 
ENDBRANCH  85 105
BRANCH  88 116
ATOM    116  C   UNL A   1      40.678  27.946  28.539  1.00  0.00     0.064 A 
ATOM    117  C   UNL A   1      41.453  28.424  27.473  1.00  0.00     0.173 A 
ATOM    118  C   UNL A   1      40.079  26.685  28.393  1.00  0.00     0.173 A 
ATOM    119  F   UNL A   1      42.029  29.632  27.555  1.00  0.00    -0.203 F 
ATOM    120  C   UNL A   1      41.597  27.688  26.300  1.00  0.00     0.198 A 
ATOM    121  C   UNL A   1      40.252  25.935  27.232  1.00  0.00     0.198 A 
ATOM    122  F   UNL A   1      39.330  26.178  29.384  1.00  0.00    -0.203 F 
ATOM    123  F   UNL A   1      42.296  28.195  25.275  1.00  0.00    -0.200 F 
ATOM    124  C   UNL A   1      41.002  26.441  26.182  1.00  0.00     0.200 A 
ATOM    125  F   UNL A   1      39.687  24.724  27.130  1.00  0.00    -0.200 F 
ATOM    126  F   UNL A   1      41.141  25.733  25.053  1.00  0.00    -0.200 F 
ENDBRANCH  88 116
BRANCH 103 127
ATOM    127  C   UNL A   1      44.109  28.370  34.594  1.00  0.00     0.064 A 
ATOM    128  C   UNL A   1      43.975  27.153  35.278  1.00  0.00     0.173 A 
ATOM    129  C   UNL A   1      45.406  28.863  34.380  1.00  0.00     0.173 A 
ATOM    130  F   UNL A   1      42.757  26.647  35.522  1.00  0.00    -0.203 F 
ATOM    131  C   UNL A   1      45.093  26.468  35.747  1.00  0.00     0.198 A 
ATOM    132  C   UNL A   1      46.523  28.159  34.821  1.00  0.00     0.198 A 
ATOM    133  F   UNL A   1      45.591  30.019  33.725  1.00  0.00    -0.203 F 
ATOM    134  F   UNL A   1      44.938  25.330  36.436  1.00  0.00    -0.200 F 
ATOM    135  C   UNL A   1      46.365  26.966  35.508  1.00  0.00     0.200 A 
ATOM    136  F   UNL A   1      47.752  28.634  34.574  1.00  0.00    -0.200 F 
ATOM    137  F   UNL A   1      47.441  26.297  35.946  1.00  0.00    -0.200 F 
ENDBRANCH 103 127
ENDBRANCH  68  71
ENDBRANCH  58  61
ENDBRANCH  54  57
ENDBRANCH  51  54
ENDBRANCH  48  51
ENDBRANCH  45  48
ENDBRANCH   1  45
TORSDOF 18
ENDMDL
MODEL 8
REMARK VINA RESULT:     -12.1      5.173     10.778
REMARK SMILES C[C@@H](C(=O)NCCCCCCNC(=O)c1ccc(-c2c3nc(c(-c4c(F)c(F)c(F)c(F)c4F)c4ccc([nH]4)c(-c4c(F)c(F)c(F)c(F)c4F)c4nc(c(-c5c(F)c(F)c(F)c(F)c5F)c5ccc2[nH]5)C=C4)C=C3)cc1)c1ccc(C[C@@H]2CCC[C@@H]2O)cc1Br
REMARK SMILES IDX 7 1 6 4 5 7 3 8 4 9 2 11 1 13 78 17 79 18 90 19 80 20 89 22
REMARK SMILES IDX 91 23 81 24 82 27 83 30 84 31 87 32 85 34 86 37 88 43 8 45
REMARK SMILES IDX 9 48 10 51 11 54 12 57 13 58 14 60 15 61 16 62 77 63 17 64
REMARK SMILES IDX 76 66 18 68 19 71 20 72 70 73 21 74 75 75 69 76 71 77 22 78
REMARK SMILES IDX 74 79 68 81 67 83 23 85 55 88 35 89 54 90 36 91 39 92 53 93
REMARK SMILES IDX 72 94 37 95 38 97 52 99 73 100 40 103 24 105 25 106 33 107
REMARK SMILES IDX 26 108 27 109 31 110 34 111 28 112 29 113 32 114 30 115
REMARK SMILES IDX 56 116 57 117 65 118 58 119 59 120 63 121 66 122 60 123
REMARK SMILES IDX 61 124 64 125 62 126 41 127 42 128 50 129 43 130 44 131
REMARK SMILES IDX 48 132 51 133 45 134 46 135 49 136 47 137
REMARK H PARENT 7 2 7 3 6 5 6 6 5 10 2 12 1 14 1 15 1 16 79 21 80 25 89 26
REMARK H PARENT 82 28 82 29 83 33 84 35 84 36 87 38 85 39 85 40 86 41 86 42
REMARK H PARENT 88 44 8 46 8 47 9 49 9 50 10 52 10 53 11 55 11 56 12 59 16 65
REMARK H PARENT 77 67 17 69 76 70 75 80 69 82 71 84 74 86 68 87 36 96 39 98
REMARK H PARENT 72 101 37 102 73 104
REMARK Flexibility Score: inf
ROOT
ATOM      1  C   UNL A   1      44.356  23.363  28.972  1.00  0.00    -0.036 C 
ATOM      2  H   UNL A   1      44.705  24.074  29.691  1.00  0.00     0.028 H 
ATOM      3  H   UNL A   1      44.515  22.353  29.286  1.00  0.00     0.028 H 
ENDROOT
BRANCH   1   4
ATOM      4  C   UNL A   1      45.148  23.558  27.677  1.00  0.00     0.017 C 
ATOM      5  H   UNL A   1      45.247  22.616  27.177  1.00  0.00     0.049 H 
ATOM      6  H   UNL A   1      44.628  24.250  27.048  1.00  0.00     0.049 H 
BRANCH   4   7
ATOM      7  N   UNL A   1      46.462  24.082  27.973  1.00  0.00    -0.356 N 
ATOM      8  C   UNL A   1      47.333  24.758  27.171  1.00  0.00     0.227 C 
ATOM      9  O   UNL A   1      48.479  24.904  27.602  1.00  0.00    -0.274 OA
ATOM     10  H   UNL A   1      46.776  23.927  28.892  1.00  0.00     0.163 HD
BRANCH   8  11
ATOM     11  C   UNL A   1      46.862  25.317  25.815  1.00  0.00     0.061 C 
ATOM     12  H   UNL A   1      46.141  24.635  25.415  1.00  0.00     0.045 H 
BRANCH  11  13
ATOM     13  C   UNL A   1      48.003  25.392  24.790  1.00  0.00    -0.049 C 
ATOM     14  H   UNL A   1      48.188  26.415  24.538  1.00  0.00     0.024 H 
ATOM     15  H   UNL A   1      47.728  24.852  23.910  1.00  0.00     0.024 H 
ATOM     16  H   UNL A   1      48.890  24.963  25.210  1.00  0.00     0.024 H 
ENDBRANCH  11  13
BRANCH  11  17
ATOM     17  C   UNL A   1      46.188  26.676  26.006  1.00  0.00    -0.022 A 
ATOM     18  C   UNL A   1      46.951  27.757  26.487  1.00  0.00    -0.057 A 
ATOM     19  C   UNL A   1      44.810  26.884  25.822  1.00  0.00     0.022 A 
ATOM     20  C   UNL A   1      46.373  28.994  26.763  1.00  0.00    -0.059 A 
ATOM     21  H   UNL A   1      47.964  27.631  26.637  1.00  0.00     0.063 H 
ATOM     22  C   UNL A   1      44.227  28.121  26.130  1.00  0.00    -0.044 A 
ATOM     23  Br  UNL A   1      43.641  25.524  25.188  1.00  0.00    -0.051 Br
ATOM     24  C   UNL A   1      44.997  29.179  26.632  1.00  0.00    -0.047 A 
ATOM     25  H   UNL A   1      46.967  29.781  27.068  1.00  0.00     0.063 H 
ATOM     26  H   UNL A   1      43.213  28.255  25.986  1.00  0.00     0.064 H 
BRANCH  24  27
ATOM     27  C   UNL A   1      44.349  30.471  27.062  1.00  0.00    -0.023 C 
ATOM     28  H   UNL A   1      43.886  30.294  28.010  1.00  0.00     0.032 H 
ATOM     29  H   UNL A   1      43.687  30.715  26.258  1.00  0.00     0.032 H 
BRANCH  27  30
ATOM     30  C   UNL A   1      45.248  31.722  27.214  1.00  0.00    -0.011 C 
ATOM     31  C   UNL A   1      45.271  32.352  28.613  1.00  0.00    -0.048 C 
ATOM     32  C   UNL A   1      44.935  32.924  26.319  1.00  0.00     0.057 C 
ATOM     33  H   UNL A   1      46.173  31.257  26.940  1.00  0.00     0.033 H 
ATOM     34  C   UNL A   1      44.330  33.561  28.567  1.00  0.00    -0.050 C 
ATOM     35  H   UNL A   1      46.262  32.665  28.860  1.00  0.00     0.027 H 
ATOM     36  H   UNL A   1      44.956  31.649  29.356  1.00  0.00     0.027 H 
ATOM     37  C   UNL A   1      43.924  33.745  27.107  1.00  0.00    -0.027 C 
ATOM     38  H   UNL A   1      45.825  33.476  26.101  1.00  0.00     0.060 H 
ATOM     39  H   UNL A   1      44.835  34.434  28.923  1.00  0.00     0.027 H 
ATOM     40  H   UNL A   1      43.473  33.406  29.188  1.00  0.00     0.027 H 
ATOM     41  H   UNL A   1      43.976  34.777  26.828  1.00  0.00     0.029 H 
ATOM     42  H   UNL A   1      42.918  33.432  26.924  1.00  0.00     0.029 H 
BRANCH  32  43
ATOM     43  O   UNL A   1      44.457  32.574  25.036  1.00  0.00    -0.393 OA
ATOM     44  H   UNL A   1      43.576  32.179  25.117  1.00  0.00     0.210 HD
ENDBRANCH  32  43
ENDBRANCH  27  30
ENDBRANCH  24  27
ENDBRANCH  11  17
ENDBRANCH   8  11
ENDBRANCH   4   7
ENDBRANCH   1   4
BRANCH   1  45
ATOM     45  C   UNL A   1      42.841  23.548  28.804  1.00  0.00    -0.052 C 
ATOM     46  H   UNL A   1      42.671  24.106  27.907  1.00  0.00     0.027 H 
ATOM     47  H   UNL A   1      42.500  24.049  29.685  1.00  0.00     0.027 H 
BRANCH  45  48
ATOM     48  C   UNL A   1      42.039  22.245  28.712  1.00  0.00    -0.052 C 
ATOM     49  H   UNL A   1      41.011  22.474  28.904  1.00  0.00     0.027 H 
ATOM     50  H   UNL A   1      42.463  21.577  29.431  1.00  0.00     0.027 H 
BRANCH  48  51
ATOM     51  C   UNL A   1      42.125  21.535  27.360  1.00  0.00    -0.036 C 
ATOM     52  H   UNL A   1      41.468  20.690  27.382  1.00  0.00     0.028 H 
ATOM     53  H   UNL A   1      43.150  21.261  27.222  1.00  0.00     0.028 H 
BRANCH  51  54
ATOM     54  C   UNL A   1      41.742  22.407  26.169  1.00  0.00     0.018 C 
ATOM     55  H   UNL A   1      42.329  22.115  25.324  1.00  0.00     0.049 H 
ATOM     56  H   UNL A   1      41.923  23.428  26.433  1.00  0.00     0.049 H 
BRANCH  54  57
ATOM     57  N   UNL A   1      40.332  22.275  25.829  1.00  0.00    -0.352 N 
ATOM     58  C   UNL A   1      39.276  23.071  26.188  1.00  0.00     0.251 C 
ATOM     59  H   UNL A   1      40.106  21.503  25.262  1.00  0.00     0.163 HD
ATOM     60  O   UNL A   1      38.121  22.702  25.992  1.00  0.00    -0.269 OA
BRANCH  58  61
ATOM     61  C   UNL A   1      39.531  24.374  26.836  1.00  0.00     0.039 A 
ATOM     62  C   UNL A   1      39.193  24.540  28.181  1.00  0.00    -0.049 A 
ATOM     63  C   UNL A   1      40.116  25.422  26.120  1.00  0.00    -0.049 A 
ATOM     64  C   UNL A   1      39.507  25.737  28.829  1.00  0.00    -0.053 A 
ATOM     65  H   UNL A   1      38.714  23.783  28.693  1.00  0.00     0.063 H 
ATOM     66  C   UNL A   1      40.492  26.585  26.784  1.00  0.00    -0.053 A 
ATOM     67  H   UNL A   1      40.266  25.335  25.103  1.00  0.00     0.063 H 
ATOM     68  C   UNL A   1      40.197  26.753  28.146  1.00  0.00    -0.014 A 
ATOM     69  H   UNL A   1      39.231  25.875  29.813  1.00  0.00     0.063 H 
ATOM     70  H   UNL A   1      40.992  27.330  26.272  1.00  0.00     0.063 H 
BRANCH  68  71
ATOM     71  C   UNL A   1      40.644  27.985  28.843  1.00  0.00     0.031 A 
ATOM     72  C   UNL A   1      42.044  28.086  29.378  1.00  0.00     0.074 A 
ATOM     73  C   UNL A   1      39.760  28.977  29.068  1.00  0.00     0.049 A 
ATOM     74  N   UNL A   1      42.590  29.034  30.098  1.00  0.00    -0.248 NA
ATOM     75  C   UNL A   1      42.946  26.960  29.088  1.00  0.00    -0.034 C 
ATOM     76  C   UNL A   1      38.361  28.976  28.639  1.00  0.00    -0.036 A 
ATOM     77  N   UNL A   1      39.902  30.171  29.731  1.00  0.00    -0.354 N 
ATOM     78  C   UNL A   1      43.885  28.612  30.362  1.00  0.00     0.074 A 
ATOM     79  C   UNL A   1      44.034  27.303  29.763  1.00  0.00    -0.034 C 
ATOM     80  H   UNL A   1      42.777  26.122  28.510  1.00  0.00     0.065 H 
ATOM     81  C   UNL A   1      37.776  30.115  29.038  1.00  0.00    -0.036 A 
ATOM     82  H   UNL A   1      37.898  28.218  28.112  1.00  0.00     0.065 H 
ATOM     83  C   UNL A   1      38.743  30.908  29.792  1.00  0.00     0.049 A 
ATOM     84  H   UNL A   1      40.752  30.472  30.125  1.00  0.00     0.167 HD
ATOM     85  C   UNL A   1      44.865  29.265  31.029  1.00  0.00     0.037 A 
ATOM     86  H   UNL A   1      44.878  26.714  29.850  1.00  0.00     0.065 H 
ATOM     87  H   UNL A   1      36.800  30.389  28.843  1.00  0.00     0.065 H 
ATOM     88  C   UNL A   1      38.482  32.078  30.405  1.00  0.00     0.037 A 
ATOM     89  C   UNL A   1      44.718  30.580  31.597  1.00  0.00     0.049 A 
ATOM     90  C   UNL A   1      39.587  32.774  31.156  1.00  0.00     0.074 A 
ATOM     91  C   UNL A   1      45.678  31.363  32.215  1.00  0.00    -0.036 A 
ATOM     92  N   UNL A   1      43.534  31.301  31.626  1.00  0.00    -0.354 N 
ATOM     93  N   UNL A   1      40.834  32.406  31.321  1.00  0.00    -0.248 NA
ATOM     94  C   UNL A   1      39.249  34.049  31.804  1.00  0.00    -0.034 C 
ATOM     95  C   UNL A   1      45.059  32.529  32.677  1.00  0.00    -0.036 A 
ATOM     96  H   UNL A   1      46.677  31.126  32.318  1.00  0.00     0.065 H 
ATOM     97  C   UNL A   1      43.729  32.502  32.290  1.00  0.00     0.049 A 
ATOM     98  H   UNL A   1      42.681  31.004  31.234  1.00  0.00     0.167 HD
ATOM     99  C   UNL A   1      41.434  33.411  32.068  1.00  0.00     0.074 A 
ATOM    100  C   UNL A   1      40.419  34.416  32.307  1.00  0.00    -0.034 C 
ATOM    101  H   UNL A   1      38.338  34.532  31.855  1.00  0.00     0.065 H 
ATOM    102  H   UNL A   1      45.516  33.282  33.214  1.00  0.00     0.065 H 
ATOM    103  C   UNL A   1      42.710  33.495  32.515  1.00  0.00     0.037 A 
ATOM    104  H   UNL A   1      40.585  35.304  32.806  1.00  0.00     0.065 H 
BRANCH  85 105
ATOM    105  C   UNL A   1      46.189  28.574  31.190  1.00  0.00     0.064 A 
ATOM    106  C   UNL A   1      47.297  28.903  30.398  1.00  0.00     0.173 A 
ATOM    107  C   UNL A   1      46.364  27.611  32.196  1.00  0.00     0.173 A 
ATOM    108  F   UNL A   1      47.182  29.811  29.417  1.00  0.00    -0.203 F 
ATOM    109  C   UNL A   1      48.527  28.276  30.589  1.00  0.00     0.198 A 
ATOM    110  C   UNL A   1      47.603  27.009  32.405  1.00  0.00     0.198 A 
ATOM    111  F   UNL A   1      45.338  27.263  32.988  1.00  0.00    -0.203 F 
ATOM    112  F   UNL A   1      49.561  28.577  29.791  1.00  0.00    -0.200 F 
ATOM    113  C   UNL A   1      48.681  27.338  31.597  1.00  0.00     0.200 A 
ATOM    114  F   UNL A   1      47.753  26.114  33.391  1.00  0.00    -0.200 F 
ATOM    115  F   UNL A   1      49.868  26.746  31.790  1.00  0.00    -0.200 F 
ENDBRANCH  85 105
BRANCH  88 116
ATOM    116  C   UNL A   1      37.117  32.667  30.345  1.00  0.00     0.064 A 
ATOM    117  C   UNL A   1      36.736  33.505  29.288  1.00  0.00     0.173 A 
ATOM    118  C   UNL A   1      36.172  32.420  31.352  1.00  0.00     0.173 A 
ATOM    119  F   UNL A   1      37.611  33.788  28.311  1.00  0.00    -0.203 F 
ATOM    120  C   UNL A   1      35.476  34.096  29.256  1.00  0.00     0.198 A 
ATOM    121  C   UNL A   1      34.900  32.985  31.302  1.00  0.00     0.198 A 
ATOM    122  F   UNL A   1      36.482  31.621  32.385  1.00  0.00    -0.203 F 
ATOM    123  F   UNL A   1      35.159  34.940  28.263  1.00  0.00    -0.200 F 
ATOM    124  C   UNL A   1      34.556  33.832  30.259  1.00  0.00     0.200 A 
ATOM    125  F   UNL A   1      34.009  32.713  32.266  1.00  0.00    -0.200 F 
ATOM    126  F   UNL A   1      33.344  34.401  30.227  1.00  0.00    -0.200 F 
ENDBRANCH  88 116
BRANCH 103 127
ATOM    127  C   UNL A   1      43.093  34.723  33.289  1.00  0.00     0.064 A 
ATOM    128  C   UNL A   1      43.514  35.897  32.648  1.00  0.00     0.173 A 
ATOM    129  C   UNL A   1      42.982  34.743  34.688  1.00  0.00     0.173 A 
ATOM    130  F   UNL A   1      43.652  35.924  31.314  1.00  0.00    -0.203 F 
ATOM    131  C   UNL A   1      43.829  37.039  33.379  1.00  0.00     0.198 A 
ATOM    132  C   UNL A   1      43.266  35.897  35.414  1.00  0.00     0.198 A 
ATOM    133  F   UNL A   1      42.578  33.649  35.352  1.00  0.00    -0.203 F 
ATOM    134  F   UNL A   1      44.271  38.136  32.748  1.00  0.00    -0.200 F 
ATOM    135  C   UNL A   1      43.694  37.041  34.760  1.00  0.00     0.200 A 
ATOM    136  F   UNL A   1      43.119  35.902  36.747  1.00  0.00    -0.200 F 
ATOM    137  F   UNL A   1      43.982  38.147  35.460  1.00  0.00    -0.200 F 
ENDBRANCH 103 127
ENDBRANCH  68  71
ENDBRANCH  58  61
ENDBRANCH  54  57
ENDBRANCH  51  54
ENDBRANCH  48  51
ENDBRANCH  45  48
ENDBRANCH   1  45
TORSDOF 18
ENDMDL
MODEL 9
REMARK VINA RESULT:     -12.1      3.561      7.535
REMARK SMILES C[C@@H](C(=O)NCCCCCCNC(=O)c1ccc(-c2c3nc(c(-c4c(F)c(F)c(F)c(F)c4F)c4ccc([nH]4)c(-c4c(F)c(F)c(F)c(F)c4F)c4nc(c(-c5c(F)c(F)c(F)c(F)c5F)c5ccc2[nH]5)C=C4)C=C3)cc1)c1ccc(C[C@@H]2CCC[C@@H]2O)cc1Br
REMARK SMILES IDX 7 1 6 4 5 7 3 8 4 9 2 11 1 13 78 17 79 18 90 19 80 20 89 22
REMARK SMILES IDX 91 23 81 24 82 27 83 30 84 31 87 32 85 34 86 37 88 43 8 45
REMARK SMILES IDX 9 48 10 51 11 54 12 57 13 58 14 60 15 61 16 62 77 63 17 64
REMARK SMILES IDX 76 66 18 68 19 71 20 72 70 73 21 74 75 75 69 76 71 77 22 78
REMARK SMILES IDX 74 79 68 81 67 83 23 85 55 88 35 89 54 90 36 91 39 92 53 93
REMARK SMILES IDX 72 94 37 95 38 97 52 99 73 100 40 103 24 105 25 106 33 107
REMARK SMILES IDX 26 108 27 109 31 110 34 111 28 112 29 113 32 114 30 115
REMARK SMILES IDX 56 116 57 117 65 118 58 119 59 120 63 121 66 122 60 123
REMARK SMILES IDX 61 124 64 125 62 126 41 127 42 128 50 129 43 130 44 131
REMARK SMILES IDX 48 132 51 133 45 134 46 135 49 136 47 137
REMARK H PARENT 7 2 7 3 6 5 6 6 5 10 2 12 1 14 1 15 1 16 79 21 80 25 89 26
REMARK H PARENT 82 28 82 29 83 33 84 35 84 36 87 38 85 39 85 40 86 41 86 42
REMARK H PARENT 88 44 8 46 8 47 9 49 9 50 10 52 10 53 11 55 11 56 12 59 16 65
REMARK H PARENT 77 67 17 69 76 70 75 80 69 82 71 84 74 86 68 87 36 96 39 98
REMARK H PARENT 72 101 37 102 73 104
REMARK Flexibility Score: inf
ROOT
ATOM      1  C   UNL A   1      34.317  26.274  24.920  1.00  0.00    -0.036 C 
ATOM      2  H   UNL A   1      35.255  26.757  25.100  1.00  0.00     0.028 H 
ATOM      3  H   UNL A   1      34.267  25.827  23.949  1.00  0.00     0.028 H 
ENDROOT
BRANCH   1   4
ATOM      4  C   UNL A   1      33.211  27.330  24.983  1.00  0.00     0.017 C 
ATOM      5  H   UNL A   1      33.632  28.266  25.291  1.00  0.00     0.049 H 
ATOM      6  H   UNL A   1      32.768  27.433  24.015  1.00  0.00     0.049 H 
BRANCH   4   7
ATOM      7  N   UNL A   1      32.195  26.929  25.928  1.00  0.00    -0.356 N 
ATOM      8  C   UNL A   1      30.953  26.412  25.708  1.00  0.00     0.227 C 
ATOM      9  O   UNL A   1      30.198  26.356  26.681  1.00  0.00    -0.274 OA
ATOM     10  H   UNL A   1      32.435  27.046  26.875  1.00  0.00     0.163 HD
BRANCH   8  11
ATOM     11  C   UNL A   1      30.562  25.909  24.305  1.00  0.00     0.061 C 
ATOM     12  H   UNL A   1      30.979  26.587  23.589  1.00  0.00     0.045 H 
BRANCH  11  13
ATOM     13  C   UNL A   1      29.043  25.925  24.085  1.00  0.00    -0.049 C 
ATOM     14  H   UNL A   1      28.745  25.024  23.591  1.00  0.00     0.024 H 
ATOM     15  H   UNL A   1      28.779  26.767  23.481  1.00  0.00     0.024 H 
ATOM     16  H   UNL A   1      28.545  25.994  25.030  1.00  0.00     0.024 H 
ENDBRANCH  11  13
BRANCH  11  17
ATOM     17  C   UNL A   1      31.151  24.520  24.055  1.00  0.00    -0.022 A 
ATOM     18  C   UNL A   1      30.926  23.501  25.000  1.00  0.00    -0.057 A 
ATOM     19  C   UNL A   1      31.998  24.226  22.973  1.00  0.00     0.022 A 
ATOM     20  C   UNL A   1      31.509  22.242  24.870  1.00  0.00    -0.059 A 
ATOM     21  H   UNL A   1      30.314  23.690  25.809  1.00  0.00     0.063 H 
ATOM     22  C   UNL A   1      32.607  22.968  22.862  1.00  0.00    -0.044 A 
ATOM     23  Br  UNL A   1      32.409  25.495  21.616  1.00  0.00    -0.051 Br
ATOM     24  C   UNL A   1      32.391  21.973  23.826  1.00  0.00    -0.047 A 
ATOM     25  H   UNL A   1      31.286  21.502  25.554  1.00  0.00     0.063 H 
ATOM     26  H   UNL A   1      33.224  22.771  22.058  1.00  0.00     0.064 H 
BRANCH  24  27
ATOM     27  C   UNL A   1      33.131  20.661  23.760  1.00  0.00    -0.023 C 
ATOM     28  H   UNL A   1      33.947  20.722  24.448  1.00  0.00     0.032 H 
ATOM     29  H   UNL A   1      33.398  20.559  22.729  1.00  0.00     0.032 H 
BRANCH  27  30
ATOM     30  C   UNL A   1      32.347  19.366  24.085  1.00  0.00    -0.011 C 
ATOM     31  C   UNL A   1      32.905  18.532  25.245  1.00  0.00    -0.048 C 
ATOM     32  C   UNL A   1      32.215  18.326  22.968  1.00  0.00     0.057 C 
ATOM     33  H   UNL A   1      31.408  19.830  24.305  1.00  0.00     0.033 H 
ATOM     34  C   UNL A   1      33.703  17.382  24.619  1.00  0.00    -0.050 C 
ATOM     35  H   UNL A   1      32.105  18.145  25.839  1.00  0.00     0.027 H 
ATOM     36  H   UNL A   1      33.526  19.126  25.883  1.00  0.00     0.027 H 
ATOM     37  C   UNL A   1      33.442  17.438  23.116  1.00  0.00    -0.027 C 
ATOM     38  H   UNL A   1      31.302  17.778  23.067  1.00  0.00     0.060 H 
ATOM     39  H   UNL A   1      33.372  16.446  25.016  1.00  0.00     0.027 H 
ATOM     40  H   UNL A   1      34.746  17.476  24.832  1.00  0.00     0.027 H 
ATOM     41  H   UNL A   1      33.247  16.459  22.730  1.00  0.00     0.029 H 
ATOM     42  H   UNL A   1      34.283  17.815  22.573  1.00  0.00     0.029 H 
BRANCH  32  43
ATOM     43  O   UNL A   1      32.111  18.885  21.675  1.00  0.00    -0.393 OA
ATOM     44  H   UNL A   1      31.681  18.250  21.082  1.00  0.00     0.210 HD
ENDBRANCH  32  43
ENDBRANCH  27  30
ENDBRANCH  24  27
ENDBRANCH  11  17
ENDBRANCH   8  11
ENDBRANCH   4   7
ENDBRANCH   1   4
BRANCH   1  45
ATOM     45  C   UNL A   1      34.150  25.143  25.944  1.00  0.00    -0.052 C 
ATOM     46  H   UNL A   1      33.105  24.937  26.046  1.00  0.00     0.027 H 
ATOM     47  H   UNL A   1      34.603  25.488  26.850  1.00  0.00     0.027 H 
BRANCH  45  48
ATOM     48  C   UNL A   1      34.858  23.834  25.581  1.00  0.00    -0.052 C 
ATOM     49  H   UNL A   1      34.957  23.793  24.515  1.00  0.00     0.027 H 
ATOM     50  H   UNL A   1      34.257  23.044  25.977  1.00  0.00     0.027 H 
BRANCH  48  51
ATOM     51  C   UNL A   1      36.249  23.668  26.195  1.00  0.00    -0.036 C 
ATOM     52  H   UNL A   1      36.278  22.731  26.713  1.00  0.00     0.028 H 
ATOM     53  H   UNL A   1      36.400  24.505  26.844  1.00  0.00     0.028 H 
BRANCH  51  54
ATOM     54  C   UNL A   1      37.388  23.688  25.182  1.00  0.00     0.018 C 
ATOM     55  H   UNL A   1      37.781  24.682  25.124  1.00  0.00     0.049 H 
ATOM     56  H   UNL A   1      36.998  23.370  24.238  1.00  0.00     0.049 H 
BRANCH  54  57
ATOM     57  N   UNL A   1      38.463  22.779  25.553  1.00  0.00    -0.352 N 
ATOM     58  C   UNL A   1      39.637  23.048  26.207  1.00  0.00     0.251 C 
ATOM     59  H   UNL A   1      38.328  21.838  25.297  1.00  0.00     0.163 HD
ATOM     60  O   UNL A   1      40.531  22.206  26.256  1.00  0.00    -0.269 OA
BRANCH  58  61
ATOM     61  C   UNL A   1      39.836  24.368  26.839  1.00  0.00     0.039 A 
ATOM     62  C   UNL A   1      39.385  24.570  28.146  1.00  0.00    -0.049 A 
ATOM     63  C   UNL A   1      40.479  25.398  26.146  1.00  0.00    -0.049 A 
ATOM     64  C   UNL A   1      39.643  25.784  28.784  1.00  0.00    -0.053 A 
ATOM     65  H   UNL A   1      38.864  23.826  28.635  1.00  0.00     0.063 H 
ATOM     66  C   UNL A   1      40.798  26.580  26.809  1.00  0.00    -0.053 A 
ATOM     67  H   UNL A   1      40.715  25.284  25.149  1.00  0.00     0.063 H 
ATOM     68  C   UNL A   1      40.388  26.783  28.136  1.00  0.00    -0.014 A 
ATOM     69  H   UNL A   1      39.284  25.949  29.738  1.00  0.00     0.063 H 
ATOM     70  H   UNL A   1      41.339  27.311  26.321  1.00  0.00     0.063 H 
BRANCH  68  71
ATOM     71  C   UNL A   1      40.774  28.034  28.834  1.00  0.00     0.031 A 
ATOM     72  C   UNL A   1      42.153  28.184  29.412  1.00  0.00     0.074 A 
ATOM     73  C   UNL A   1      39.853  29.001  29.022  1.00  0.00     0.049 A 
ATOM     74  N   UNL A   1      42.645  29.155  30.140  1.00  0.00    -0.248 NA
ATOM     75  C   UNL A   1      43.098  27.085  29.162  1.00  0.00    -0.034 C 
ATOM     76  C   UNL A   1      38.469  28.951  28.549  1.00  0.00    -0.036 A 
ATOM     77  N   UNL A   1      39.936  30.204  29.677  1.00  0.00    -0.354 N 
ATOM     78  C   UNL A   1      43.944  28.776  30.448  1.00  0.00     0.074 A 
ATOM     79  C   UNL A   1      44.153  27.467  29.868  1.00  0.00    -0.034 C 
ATOM     80  H   UNL A   1      42.973  26.237  28.587  1.00  0.00     0.065 H 
ATOM     81  C   UNL A   1      37.836  30.076  28.918  1.00  0.00    -0.036 A 
ATOM     82  H   UNL A   1      38.046  28.175  28.015  1.00  0.00     0.065 H 
ATOM     83  C   UNL A   1      38.753  30.905  29.694  1.00  0.00     0.049 A 
ATOM     84  H   UNL A   1      40.764  30.535  30.095  1.00  0.00     0.167 HD
ATOM     85  C   UNL A   1      44.882  29.466  31.139  1.00  0.00     0.037 A 
ATOM     86  H   UNL A   1      45.011  26.906  29.986  1.00  0.00     0.065 H 
ATOM     87  H   UNL A   1      36.859  30.317  28.690  1.00  0.00     0.065 H 
ATOM     88  C   UNL A   1      38.437  32.071  30.288  1.00  0.00     0.037 A 
ATOM     89  C   UNL A   1      44.676  30.781  31.690  1.00  0.00     0.049 A 
ATOM     90  C   UNL A   1      39.495  32.808  31.066  1.00  0.00     0.074 A 
ATOM     91  C   UNL A   1      45.590  31.598  32.331  1.00  0.00    -0.036 A 
ATOM     92  N   UNL A   1      43.469  31.464  31.675  1.00  0.00    -0.354 N 
ATOM     93  N   UNL A   1      40.748  32.481  31.274  1.00  0.00    -0.248 NA
ATOM     94  C   UNL A   1      39.097  34.077  31.691  1.00  0.00    -0.034 C 
ATOM     95  C   UNL A   1      44.922  32.748  32.761  1.00  0.00    -0.036 A 
ATOM     96  H   UNL A   1      46.592  31.394  32.467  1.00  0.00     0.065 H 
ATOM     97  C   UNL A   1      43.606  32.676  32.332  1.00  0.00     0.049 A 
ATOM     98  H   UNL A   1      42.639  31.137  31.258  1.00  0.00     0.167 HD
ATOM     99  C   UNL A   1      41.292  33.511  32.029  1.00  0.00     0.074 A 
ATOM    100  C   UNL A   1      40.239  34.485  32.226  1.00  0.00    -0.034 C 
ATOM    101  H   UNL A   1      38.171  34.533  31.708  1.00  0.00     0.065 H 
ATOM    102  H   UNL A   1      45.338  33.520  33.305  1.00  0.00     0.065 H 
ATOM    103  C   UNL A   1      42.550  33.638  32.516  1.00  0.00     0.037 A 
ATOM    104  H   UNL A   1      40.362  35.382  32.722  1.00  0.00     0.065 H 
BRANCH  85 105
ATOM    105  C   UNL A   1      46.220  28.818  31.349  1.00  0.00     0.064 A 
ATOM    106  C   UNL A   1      47.273  28.982  30.438  1.00  0.00     0.173 A 
ATOM    107  C   UNL A   1      46.469  28.072  32.512  1.00  0.00     0.173 A 
ATOM    108  F   UNL A   1      47.086  29.678  29.307  1.00  0.00    -0.203 F 
ATOM    109  C   UNL A   1      48.519  28.403  30.670  1.00  0.00     0.198 A 
ATOM    110  C   UNL A   1      47.725  27.521  32.756  1.00  0.00     0.198 A 
ATOM    111  F   UNL A   1      45.499  27.889  33.421  1.00  0.00    -0.203 F 
ATOM    112  F   UNL A   1      49.498  28.538  29.765  1.00  0.00    -0.200 F 
ATOM    113  C   UNL A   1      48.747  27.682  31.832  1.00  0.00     0.200 A 
ATOM    114  F   UNL A   1      47.947  26.839  33.888  1.00  0.00    -0.200 F 
ATOM    115  F   UNL A   1      49.950  27.139  32.062  1.00  0.00    -0.200 F 
ENDBRANCH  85 105
BRANCH  88 116
ATOM    116  C   UNL A   1      37.057  32.616  30.178  1.00  0.00     0.064 A 
ATOM    117  C   UNL A   1      36.670  33.391  29.077  1.00  0.00     0.173 A 
ATOM    118  C   UNL A   1      36.103  32.391  31.183  1.00  0.00     0.173 A 
ATOM    119  F   UNL A   1      37.551  33.652  28.100  1.00  0.00    -0.203 F 
ATOM    120  C   UNL A   1      35.394  33.943  28.997  1.00  0.00     0.198 A 
ATOM    121  C   UNL A   1      34.817  32.916  31.086  1.00  0.00     0.198 A 
ATOM    122  F   UNL A   1      36.419  31.653  32.257  1.00  0.00    -0.203 F 
ATOM    123  F   UNL A   1      35.070  34.728  27.959  1.00  0.00    -0.200 F 
ATOM    124  C   UNL A   1      34.466  33.701  29.998  1.00  0.00     0.200 A 
ATOM    125  F   UNL A   1      33.919  32.665  32.048  1.00  0.00    -0.200 F 
ATOM    126  F   UNL A   1      33.238  34.232  29.920  1.00  0.00    -0.200 F 
ENDBRANCH  88 116
BRANCH 103 127
ATOM    127  C   UNL A   1      42.870  34.885  33.290  1.00  0.00     0.064 A 
ATOM    128  C   UNL A   1      43.278  36.065  32.651  1.00  0.00     0.173 A 
ATOM    129  C   UNL A   1      42.710  34.915  34.684  1.00  0.00     0.173 A 
ATOM    130  F   UNL A   1      43.462  36.083  31.322  1.00  0.00    -0.203 F 
ATOM    131  C   UNL A   1      43.534  37.222  33.381  1.00  0.00     0.198 A 
ATOM    132  C   UNL A   1      42.934  36.083  35.406  1.00  0.00     0.198 A 
ATOM    133  F   UNL A   1      42.315  33.816  35.344  1.00  0.00    -0.203 F 
ATOM    134  F   UNL A   1      43.965  38.325  32.753  1.00  0.00    -0.200 F 
ATOM    135  C   UNL A   1      43.351  37.234  34.755  1.00  0.00     0.200 A 
ATOM    136  F   UNL A   1      42.741  36.097  36.733  1.00  0.00    -0.200 F 
ATOM    137  F   UNL A   1      43.583  38.354  35.454  1.00  0.00    -0.200 F 
ENDBRANCH 103 127
ENDBRANCH  68  71
ENDBRANCH  58  61
ENDBRANCH  54  57
ENDBRANCH  51  54
ENDBRANCH  48  51
ENDBRANCH  45  48
ENDBRANCH   1  45
TORSDOF 18
ENDMDL
MODEL 10
REMARK VINA RESULT:     -11.9      5.295      9.871
REMARK SMILES C[C@@H](C(=O)NCCCCCCNC(=O)c1ccc(-c2c3nc(c(-c4c(F)c(F)c(F)c(F)c4F)c4ccc([nH]4)c(-c4c(F)c(F)c(F)c(F)c4F)c4nc(c(-c5c(F)c(F)c(F)c(F)c5F)c5ccc2[nH]5)C=C4)C=C3)cc1)c1ccc(C[C@@H]2CCC[C@@H]2O)cc1Br
REMARK SMILES IDX 7 1 6 4 5 7 3 8 4 9 2 11 1 13 78 17 79 18 90 19 80 20 89 22
REMARK SMILES IDX 91 23 81 24 82 27 83 30 84 31 87 32 85 34 86 37 88 43 8 45
REMARK SMILES IDX 9 48 10 51 11 54 12 57 13 58 14 60 15 61 16 62 77 63 17 64
REMARK SMILES IDX 76 66 18 68 19 71 20 72 70 73 21 74 75 75 69 76 71 77 22 78
REMARK SMILES IDX 74 79 68 81 67 83 23 85 55 88 35 89 54 90 36 91 39 92 53 93
REMARK SMILES IDX 72 94 37 95 38 97 52 99 73 100 40 103 24 105 25 106 33 107
REMARK SMILES IDX 26 108 27 109 31 110 34 111 28 112 29 113 32 114 30 115
REMARK SMILES IDX 56 116 57 117 65 118 58 119 59 120 63 121 66 122 60 123
REMARK SMILES IDX 61 124 64 125 62 126 41 127 42 128 50 129 43 130 44 131
REMARK SMILES IDX 48 132 51 133 45 134 46 135 49 136 47 137
REMARK H PARENT 7 2 7 3 6 5 6 6 5 10 2 12 1 14 1 15 1 16 79 21 80 25 89 26
REMARK H PARENT 82 28 82 29 83 33 84 35 84 36 87 38 85 39 85 40 86 41 86 42
REMARK H PARENT 88 44 8 46 8 47 9 49 9 50 10 52 10 53 11 55 11 56 12 59 16 65
REMARK H PARENT 77 67 17 69 76 70 75 80 69 82 71 84 74 86 68 87 36 96 39 98
REMARK H PARENT 72 101 37 102 73 104
REMARK Flexibility Score: inf
ROOT
ATOM      1  C   UNL A   1      38.486  30.148  33.094  1.00  0.00    -0.036 C 
ATOM      2  H   UNL A   1      38.311  29.096  33.005  1.00  0.00     0.028 H 
ATOM      3  H   UNL A   1      39.113  30.525  32.313  1.00  0.00     0.028 H 
ENDROOT
BRANCH   1   4
ATOM      4  C   UNL A   1      39.213  30.407  34.416  1.00  0.00     0.017 C 
ATOM      5  H   UNL A   1      40.005  29.696  34.528  1.00  0.00     0.049 H 
ATOM      6  H   UNL A   1      39.612  31.398  34.408  1.00  0.00     0.049 H 
BRANCH   4   7
ATOM      7  N   UNL A   1      38.292  30.275  35.522  1.00  0.00    -0.356 N 
ATOM      8  C   UNL A   1      38.072  31.109  36.578  1.00  0.00     0.227 C 
ATOM      9  O   UNL A   1      37.387  30.662  37.500  1.00  0.00    -0.274 OA
ATOM     10  H   UNL A   1      37.740  29.461  35.512  1.00  0.00     0.163 HD
BRANCH   8  11
ATOM     11  C   UNL A   1      38.647  32.538  36.568  1.00  0.00     0.061 C 
ATOM     12  H   UNL A   1      39.677  32.472  36.282  1.00  0.00     0.045 H 
BRANCH  11  13
ATOM     13  C   UNL A   1      38.624  33.183  37.961  1.00  0.00    -0.049 C 
ATOM     14  H   UNL A   1      39.183  32.577  38.644  1.00  0.00     0.024 H 
ATOM     15  H   UNL A   1      37.614  33.262  38.301  1.00  0.00     0.024 H 
ATOM     16  H   UNL A   1      39.062  34.158  37.911  1.00  0.00     0.024 H 
ENDBRANCH  11  13
BRANCH  11  17
ATOM     17  C   UNL A   1      37.914  33.399  35.539  1.00  0.00    -0.022 A 
ATOM     18  C   UNL A   1      36.510  33.494  35.602  1.00  0.00    -0.057 A 
ATOM     19  C   UNL A   1      38.560  34.027  34.460  1.00  0.00     0.022 A 
ATOM     20  C   UNL A   1      35.782  34.192  34.641  1.00  0.00    -0.059 A 
ATOM     21  H   UNL A   1      36.009  33.038  36.379  1.00  0.00     0.063 H 
ATOM     22  C   UNL A   1      37.821  34.702  33.479  1.00  0.00    -0.044 A 
ATOM     23  Br  UNL A   1      40.448  33.984  34.227  1.00  0.00    -0.051 Br
ATOM     24  C   UNL A   1      36.422  34.766  33.544  1.00  0.00    -0.047 A 
ATOM     25  H   UNL A   1      34.759  34.284  34.742  1.00  0.00     0.063 H 
ATOM     26  H   UNL A   1      38.314  35.159  32.695  1.00  0.00     0.064 H 
BRANCH  24  27
ATOM     27  C   UNL A   1      35.625  35.400  32.432  1.00  0.00    -0.023 C 
ATOM     28  H   UNL A   1      35.923  34.928  31.519  1.00  0.00     0.032 H 
ATOM     29  H   UNL A   1      35.845  36.444  32.511  1.00  0.00     0.032 H 
BRANCH  27  30
ATOM     30  C   UNL A   1      34.081  35.324  32.507  1.00  0.00    -0.011 C 
ATOM     31  C   UNL A   1      33.374  34.950  31.198  1.00  0.00    -0.048 C 
ATOM     32  C   UNL A   1      33.336  36.594  32.930  1.00  0.00     0.057 C 
ATOM     33  H   UNL A   1      34.020  34.564  33.258  1.00  0.00     0.033 H 
ATOM     34  C   UNL A   1      32.853  36.257  30.589  1.00  0.00    -0.050 C 
ATOM     35  H   UNL A   1      32.561  34.285  31.395  1.00  0.00     0.027 H 
ATOM     36  H   UNL A   1      34.044  34.455  30.527  1.00  0.00     0.027 H 
ATOM     37  C   UNL A   1      33.081  37.347  31.632  1.00  0.00    -0.027 C 
ATOM     38  H   UNL A   1      32.429  36.348  33.442  1.00  0.00     0.060 H 
ATOM     39  H   UNL A   1      31.810  36.169  30.368  1.00  0.00     0.027 H 
ATOM     40  H   UNL A   1      33.360  36.485  29.675  1.00  0.00     0.027 H 
ATOM     41  H   UNL A   1      32.216  37.971  31.721  1.00  0.00     0.029 H 
ATOM     42  H   UNL A   1      33.895  37.992  31.372  1.00  0.00     0.029 H 
BRANCH  32  43
ATOM     43  O   UNL A   1      34.032  37.378  33.877  1.00  0.00    -0.393 OA
ATOM     44  H   UNL A   1      33.691  38.285  33.857  1.00  0.00     0.210 HD
ENDBRANCH  32  43
ENDBRANCH  27  30
ENDBRANCH  24  27
ENDBRANCH  11  17
ENDBRANCH   8  11
ENDBRANCH   4   7
ENDBRANCH   1   4
BRANCH   1  45
ATOM     45  C   UNL A   1      37.139  30.875  32.976  1.00  0.00    -0.052 C 
ATOM     46  H   UNL A   1      37.024  31.504  33.834  1.00  0.00     0.027 H 
ATOM     47  H   UNL A   1      36.391  30.112  32.908  1.00  0.00     0.027 H 
BRANCH  45  48
ATOM     48  C   UNL A   1      36.982  31.744  31.725  1.00  0.00    -0.052 C 
ATOM     49  H   UNL A   1      37.540  31.291  30.932  1.00  0.00     0.027 H 
ATOM     50  H   UNL A   1      37.338  32.718  31.986  1.00  0.00     0.027 H 
BRANCH  48  51
ATOM     51  C   UNL A   1      35.539  31.925  31.248  1.00  0.00    -0.036 C 
ATOM     52  H   UNL A   1      35.092  32.711  31.822  1.00  0.00     0.028 H 
ATOM     53  H   UNL A   1      35.051  30.983  31.385  1.00  0.00     0.028 H 
BRANCH  51  54
ATOM     54  C   UNL A   1      35.407  32.277  29.771  1.00  0.00     0.018 C 
ATOM     55  H   UNL A   1      36.385  32.335  29.341  1.00  0.00     0.049 H 
ATOM     56  H   UNL A   1      34.895  33.214  29.698  1.00  0.00     0.049 H 
BRANCH  54  57
ATOM     57  N   UNL A   1      34.631  31.284  29.043  1.00  0.00    -0.352 N 
ATOM     58  C   UNL A   1      35.065  30.178  28.358  1.00  0.00     0.251 C 
ATOM     59  H   UNL A   1      33.657  31.427  29.041  1.00  0.00     0.163 HD
ATOM     60  O   UNL A   1      34.299  29.561  27.621  1.00  0.00    -0.269 OA
BRANCH  58  61
ATOM     61  C   UNL A   1      36.469  29.741  28.490  1.00  0.00     0.039 A 
ATOM     62  C   UNL A   1      37.380  30.069  27.483  1.00  0.00    -0.049 A 
ATOM     63  C   UNL A   1      36.887  29.022  29.614  1.00  0.00    -0.049 A 
ATOM     64  C   UNL A   1      38.727  29.737  27.636  1.00  0.00    -0.053 A 
ATOM     65  H   UNL A   1      37.058  30.553  26.631  1.00  0.00     0.063 H 
ATOM     66  C   UNL A   1      38.241  28.756  29.798  1.00  0.00    -0.053 A 
ATOM     67  H   UNL A   1      36.196  28.689  30.302  1.00  0.00     0.063 H 
ATOM     68  C   UNL A   1      39.175  29.116  28.814  1.00  0.00    -0.014 A 
ATOM     69  H   UNL A   1      39.397  29.949  26.881  1.00  0.00     0.063 H 
ATOM     70  H   UNL A   1      38.559  28.292  30.663  1.00  0.00     0.063 H 
BRANCH  68  71
ATOM     71  C   UNL A   1      40.618  28.858  29.050  1.00  0.00     0.031 A 
ATOM     72  C   UNL A   1      41.254  27.597  28.537  1.00  0.00     0.074 A 
ATOM     73  C   UNL A   1      41.333  29.720  29.800  1.00  0.00     0.049 A 
ATOM     74  N   UNL A   1      42.470  27.147  28.725  1.00  0.00    -0.248 NA
ATOM     75  C   UNL A   1      40.406  26.710  27.726  1.00  0.00    -0.034 C 
ATOM     76  C   UNL A   1      40.814  30.954  30.392  1.00  0.00    -0.036 A 
ATOM     77  N   UNL A   1      42.642  29.680  30.210  1.00  0.00    -0.354 N 
ATOM     78  C   UNL A   1      42.524  25.922  28.075  1.00  0.00     0.074 A 
ATOM     79  C   UNL A   1      41.210  25.675  27.524  1.00  0.00    -0.034 C 
ATOM     80  H   UNL A   1      39.438  26.855  27.399  1.00  0.00     0.065 H 
ATOM     81  C   UNL A   1      41.796  31.560  31.079  1.00  0.00    -0.036 A 
ATOM     82  H   UNL A   1      39.847  31.304  30.297  1.00  0.00     0.065 H 
ATOM     83  C   UNL A   1      42.999  30.735  31.016  1.00  0.00     0.049 A 
ATOM     84  H   UNL A   1      43.267  28.965  29.951  1.00  0.00     0.167 HD
ATOM     85  C   UNL A   1      43.581  25.087  27.938  1.00  0.00     0.037 A 
ATOM     86  H   UNL A   1      40.934  24.808  27.036  1.00  0.00     0.065 H 
ATOM     87  H   UNL A   1      41.714  32.463  31.570  1.00  0.00     0.065 H 
ATOM     88  C   UNL A   1      44.157  30.997  31.651  1.00  0.00     0.037 A 
ATOM     89  C   UNL A   1      44.895  25.353  28.465  1.00  0.00     0.049 A 
ATOM     90  C   UNL A   1      45.311  30.041  31.496  1.00  0.00     0.074 A 
ATOM     91  C   UNL A   1      46.053  24.611  28.306  1.00  0.00    -0.036 A 
ATOM     92  N   UNL A   1      45.222  26.438  29.265  1.00  0.00    -0.354 N 
ATOM     93  N   UNL A   1      45.376  28.930  30.804  1.00  0.00    -0.248 NA
ATOM     94  C   UNL A   1      46.551  30.376  32.209  1.00  0.00    -0.034 C 
ATOM     95  C   UNL A   1      47.064  25.212  29.061  1.00  0.00    -0.036 A 
ATOM     96  H   UNL A   1      46.152  23.762  27.729  1.00  0.00     0.065 H 
ATOM     97  C   UNL A   1      46.553  26.363  29.639  1.00  0.00     0.049 A 
ATOM     98  H   UNL A   1      44.600  27.155  29.526  1.00  0.00     0.167 HD
ATOM     99  C   UNL A   1      46.667  28.448  30.976  1.00  0.00     0.074 A 
ATOM    100  C   UNL A   1      47.358  29.398  31.823  1.00  0.00    -0.034 C 
ATOM    101  H   UNL A   1      46.744  31.166  32.844  1.00  0.00     0.065 H 
ATOM    102  H   UNL A   1      48.027  24.859  29.169  1.00  0.00     0.065 H 
ATOM    103  C   UNL A   1      47.229  27.320  30.479  1.00  0.00     0.037 A 
ATOM    104  H   UNL A   1      48.351  29.322  32.092  1.00  0.00     0.065 H 
BRANCH  85 105
ATOM    105  C   UNL A   1      43.370  23.800  27.193  1.00  0.00     0.064 A 
ATOM    106  C   UNL A   1      43.769  23.645  25.858  1.00  0.00     0.173 A 
ATOM    107  C   UNL A   1      42.817  22.688  27.846  1.00  0.00     0.173 A 
ATOM    108  F   UNL A   1      44.296  24.679  25.185  1.00  0.00    -0.203 F 
ATOM    109  C   UNL A   1      43.598  22.431  25.195  1.00  0.00     0.198 A 
ATOM    110  C   UNL A   1      42.677  21.467  27.191  1.00  0.00     0.198 A 
ATOM    111  F   UNL A   1      42.425  22.780  29.126  1.00  0.00    -0.203 F 
ATOM    112  F   UNL A   1      43.948  22.318  23.906  1.00  0.00    -0.200 F 
ATOM    113  C   UNL A   1      43.062  21.342  25.864  1.00  0.00     0.200 A 
ATOM    114  F   UNL A   1      42.174  20.412  27.845  1.00  0.00    -0.200 F 
ATOM    115  F   UNL A   1      42.912  20.170  25.231  1.00  0.00    -0.200 F 
ENDBRANCH  85 105
BRANCH  88 116
ATOM    116  C   UNL A   1      44.286  32.212  32.501  1.00  0.00     0.064 A 
ATOM    117  C   UNL A   1      43.979  32.175  33.868  1.00  0.00     0.173 A 
ATOM    118  C   UNL A   1      44.700  33.438  31.960  1.00  0.00     0.173 A 
ATOM    119  F   UNL A   1      43.559  31.031  34.428  1.00  0.00    -0.203 F 
ATOM    120  C   UNL A   1      44.052  33.322  34.654  1.00  0.00     0.198 A 
ATOM    121  C   UNL A   1      44.805  34.578  32.754  1.00  0.00     0.198 A 
ATOM    122  F   UNL A   1      45.011  33.529  30.658  1.00  0.00    -0.203 F 
ATOM    123  F   UNL A   1      43.696  33.271  35.945  1.00  0.00    -0.200 F 
ATOM    124  C   UNL A   1      44.470  34.522  34.098  1.00  0.00     0.200 A 
ATOM    125  F   UNL A   1      45.225  35.731  32.215  1.00  0.00    -0.200 F 
ATOM    126  F   UNL A   1      44.540  35.625  34.855  1.00  0.00    -0.200 F 
ENDBRANCH  88 116
BRANCH 103 127
ATOM    127  C   UNL A   1      48.669  27.058  30.814  1.00  0.00     0.064 A 
ATOM    128  C   UNL A   1      49.038  26.251  31.900  1.00  0.00     0.173 A 
ATOM    129  C   UNL A   1      49.692  27.574  30.003  1.00  0.00     0.173 A 
ATOM    130  F   UNL A   1      48.099  25.747  32.716  1.00  0.00    -0.203 F 
ATOM    131  C   UNL A   1      50.377  25.988  32.175  1.00  0.00     0.198 A 
ATOM    132  C   UNL A   1      51.028  27.281  30.260  1.00  0.00     0.198 A 
ATOM    133  F   UNL A   1      49.394  28.346  28.947  1.00  0.00    -0.203 F 
ATOM    134  F   UNL A   1      50.708  25.250  33.244  1.00  0.00    -0.200 F 
ATOM    135  C   UNL A   1      51.370  26.493  31.349  1.00  0.00     0.200 A 
ATOM    136  F   UNL A   1      51.985  27.757  29.451  1.00  0.00    -0.200 F 
ATOM    137  F   UNL A   1      52.657  26.225  31.605  1.00  0.00    -0.200 F 
ENDBRANCH 103 127
ENDBRANCH  68  71
ENDBRANCH  58  61
ENDBRANCH  54  57
ENDBRANCH  51  54
ENDBRANCH  48  51
ENDBRANCH  45  48
ENDBRANCH   1  45
TORSDOF 18
ENDMDL
