MODEL 1
REMARK VINA RESULT:     -12.9      0.000      0.000
REMARK SMILES O=C(NCCCCCCNC(=O)[C@@H]1CCn2c(C(=O)c3ccccc3)ccc21)c1ccc(-c2c3nc(c(-c4c(F)c(F)c(F)c(F)c4F)c4ccc([nH]4)c(-c4c(F)c(F)c(F)c(F)c4F)c4nc(c(-c5c(F)c(F)c(F)c(F)c5F)c5ccc2[nH]5)C=C4)C=C3)cc1
REMARK SMILES IDX 6 1 5 4 4 7 3 10 1 11 2 12 29 14 30 15 91 16 31 17 90 19
REMARK SMILES IDX 32 21 33 24 34 25 84 26 35 27 89 28 83 29 85 30 36 31 88 32
REMARK SMILES IDX 82 34 81 36 37 38 69 41 49 42 68 43 50 44 53 45 67 46 86 47
REMARK SMILES IDX 51 48 52 50 66 52 87 53 54 56 38 58 39 59 47 60 40 61 41 62
REMARK SMILES IDX 45 63 48 64 42 65 43 66 46 67 44 68 70 69 71 70 79 71 72 72
REMARK SMILES IDX 73 73 77 74 80 75 74 76 75 77 78 78 76 79 55 80 56 81 64 82
REMARK SMILES IDX 57 83 58 84 62 85 65 86 59 87 60 88 63 89 61 90 7 91 8 94
REMARK SMILES IDX 9 97 10 100 11 101 12 103 13 104 14 105 28 106 15 108 16 111
REMARK SMILES IDX 27 112 17 115 26 116 18 119 19 120 20 121 21 122 25 123
REMARK SMILES IDX 22 124 24 126 23 128
REMARK H PARENT 6 2 6 3 5 5 5 6 4 8 4 9 3 13 30 18 91 20 31 22 90 23 89 33
REMARK H PARENT 83 35 85 37 88 39 82 40 50 49 53 51 86 54 51 55 87 57 7 92
REMARK H PARENT 7 93 8 95 8 96 9 98 9 99 10 102 13 107 14 109 14 110 15 113
REMARK H PARENT 15 114 27 117 26 118 21 125 25 127 22 129 24 130 23 131
REMARK Flexibility Score: inf
ROOT
ATOM      1  C   UNL A   1      31.468  30.876  26.106  1.00  0.00    -0.052 C 
ATOM      2  H   UNL A   1      31.948  30.847  25.150  1.00  0.00     0.027 H 
ATOM      3  H   UNL A   1      30.473  30.481  26.091  1.00  0.00     0.027 H 
ENDROOT
BRANCH   1   4
ATOM      4  C   UNL A   1      31.341  32.340  26.528  1.00  0.00    -0.036 C 
ATOM      5  H   UNL A   1      31.196  32.932  25.649  1.00  0.00     0.028 H 
ATOM      6  H   UNL A   1      30.515  32.395  27.206  1.00  0.00     0.028 H 
BRANCH   4   7
ATOM      7  C   UNL A   1      32.554  32.879  27.272  1.00  0.00     0.018 C 
ATOM      8  H   UNL A   1      32.706  32.294  28.155  1.00  0.00     0.049 H 
ATOM      9  H   UNL A   1      33.398  32.817  26.616  1.00  0.00     0.049 H 
BRANCH   7  10
ATOM     10  N   UNL A   1      32.386  34.271  27.655  1.00  0.00    -0.352 N 
ATOM     11  O   UNL A   1      32.644  36.089  28.972  1.00  0.00    -0.269 OA
ATOM     12  C   UNL A   1      33.035  34.975  28.635  1.00  0.00     0.251 C 
ATOM     13  H   UNL A   1      31.715  34.776  27.141  1.00  0.00     0.163 HD
BRANCH  12  14
ATOM     14  C   UNL A   1      34.209  34.373  29.298  1.00  0.00     0.039 A 
ATOM     15  C   UNL A   1      34.039  33.526  30.398  1.00  0.00    -0.049 A 
ATOM     16  C   UNL A   1      35.489  34.648  28.810  1.00  0.00    -0.049 A 
ATOM     17  C   UNL A   1      35.150  33.051  31.082  1.00  0.00    -0.053 A 
ATOM     18  H   UNL A   1      33.090  33.257  30.701  1.00  0.00     0.063 H 
ATOM     19  C   UNL A   1      36.603  34.094  29.443  1.00  0.00    -0.053 A 
ATOM     20  H   UNL A   1      35.609  35.257  27.986  1.00  0.00     0.063 H 
ATOM     21  C   UNL A   1      36.441  33.301  30.592  1.00  0.00    -0.014 A 
ATOM     22  H   UNL A   1      35.025  32.512  31.953  1.00  0.00     0.063 H 
ATOM     23  H   UNL A   1      37.547  34.269  29.068  1.00  0.00     0.063 H 
BRANCH  21  24
ATOM     24  C   UNL A   1      37.600  32.627  31.224  1.00  0.00     0.031 A 
ATOM     25  C   UNL A   1      38.318  31.501  30.541  1.00  0.00     0.074 A 
ATOM     26  C   UNL A   1      37.989  33.047  32.444  1.00  0.00     0.049 A 
ATOM     27  N   UNL A   1      39.321  30.782  30.977  1.00  0.00    -0.248 NA
ATOM     28  C   UNL A   1      37.847  31.123  29.201  1.00  0.00    -0.034 C 
ATOM     29  C   UNL A   1      37.352  34.127  33.204  1.00  0.00    -0.036 A 
ATOM     30  N   UNL A   1      39.005  32.624  33.261  1.00  0.00    -0.354 N 
ATOM     31  C   UNL A   1      39.588  29.855  29.979  1.00  0.00     0.074 A 
ATOM     32  C   UNL A   1      38.631  30.090  28.919  1.00  0.00    -0.034 C 
ATOM     33  H   UNL A   1      37.102  31.551  28.628  1.00  0.00     0.065 H 
ATOM     34  C   UNL A   1      38.004  34.297  34.362  1.00  0.00    -0.036 A 
ATOM     35  H   UNL A   1      36.531  34.670  32.895  1.00  0.00     0.065 H 
ATOM     36  C   UNL A   1      39.055  33.292  34.461  1.00  0.00     0.049 A 
ATOM     37  H   UNL A   1      39.637  31.911  33.014  1.00  0.00     0.167 HD
ATOM     38  C   UNL A   1      40.549  28.900  29.957  1.00  0.00     0.037 A 
ATOM     39  H   UNL A   1      38.565  29.527  28.057  1.00  0.00     0.065 H 
ATOM     40  H   UNL A   1      37.797  35.020  35.068  1.00  0.00     0.065 H 
ATOM     41  C   UNL A   1      39.834  33.093  35.539  1.00  0.00     0.037 A 
ATOM     42  C   UNL A   1      41.504  28.688  31.018  1.00  0.00     0.049 A 
ATOM     43  C   UNL A   1      40.858  31.996  35.500  1.00  0.00     0.074 A 
ATOM     44  C   UNL A   1      42.557  27.792  31.060  1.00  0.00    -0.036 A 
ATOM     45  N   UNL A   1      41.509  29.368  32.227  1.00  0.00    -0.354 N 
ATOM     46  N   UNL A   1      41.146  31.171  34.523  1.00  0.00    -0.248 NA
ATOM     47  C   UNL A   1      41.663  31.798  36.712  1.00  0.00    -0.034 C 
ATOM     48  C   UNL A   1      43.157  27.881  32.320  1.00  0.00    -0.036 A 
ATOM     49  H   UNL A   1      42.850  27.166  30.294  1.00  0.00     0.065 H 
ATOM     50  C   UNL A   1      42.521  28.879  33.040  1.00  0.00     0.049 A 
ATOM     51  H   UNL A   1      40.887  30.092  32.472  1.00  0.00     0.167 HD
ATOM     52  C   UNL A   1      42.174  30.368  34.994  1.00  0.00     0.074 A 
ATOM     53  C   UNL A   1      42.477  30.822  36.335  1.00  0.00    -0.034 C 
ATOM     54  H   UNL A   1      41.608  32.289  37.617  1.00  0.00     0.065 H 
ATOM     55  H   UNL A   1      43.941  27.300  32.657  1.00  0.00     0.065 H 
ATOM     56  C   UNL A   1      42.808  29.343  34.374  1.00  0.00     0.037 A 
ATOM     57  H   UNL A   1      43.230  30.436  36.925  1.00  0.00     0.065 H 
BRANCH  38  58
ATOM     58  C   UNL A   1      40.611  27.984  28.768  1.00  0.00     0.064 A 
ATOM     59  C   UNL A   1      39.883  26.787  28.713  1.00  0.00     0.173 A 
ATOM     60  C   UNL A   1      41.353  28.351  27.634  1.00  0.00     0.173 A 
ATOM     61  F   UNL A   1      39.163  26.386  29.772  1.00  0.00    -0.203 F 
ATOM     62  C   UNL A   1      39.909  25.983  27.575  1.00  0.00     0.198 A 
ATOM     63  C   UNL A   1      41.353  27.561  26.487  1.00  0.00     0.198 A 
ATOM     64  F   UNL A   1      42.062  29.491  27.629  1.00  0.00    -0.203 F 
ATOM     65  F   UNL A   1      39.231  24.826  27.559  1.00  0.00    -0.200 F 
ATOM     66  C   UNL A   1      40.635  26.375  26.461  1.00  0.00     0.200 A 
ATOM     67  F   UNL A   1      42.043  27.950  25.406  1.00  0.00    -0.200 F 
ATOM     68  F   UNL A   1      40.645  25.609  25.361  1.00  0.00    -0.200 F 
ENDBRANCH  38  58
BRANCH  41  69
ATOM     69  C   UNL A   1      39.644  33.927  36.754  1.00  0.00     0.064 A 
ATOM     70  C   UNL A   1      38.841  33.490  37.816  1.00  0.00     0.173 A 
ATOM     71  C   UNL A   1      40.262  35.182  36.879  1.00  0.00     0.173 A 
ATOM     72  F   UNL A   1      38.216  32.305  37.738  1.00  0.00    -0.203 F 
ATOM     73  C   UNL A   1      38.640  34.287  38.941  1.00  0.00     0.198 A 
ATOM     74  C   UNL A   1      40.090  35.961  38.019  1.00  0.00     0.198 A 
ATOM     75  F   UNL A   1      41.048  35.645  35.895  1.00  0.00    -0.203 F 
ATOM     76  F   UNL A   1      37.823  33.867  39.916  1.00  0.00    -0.200 F 
ATOM     77  C   UNL A   1      39.270  35.517  39.044  1.00  0.00     0.200 A 
ATOM     78  F   UNL A   1      40.719  37.140  38.124  1.00  0.00    -0.200 F 
ATOM     79  F   UNL A   1      39.079  36.280  40.130  1.00  0.00    -0.200 F 
ENDBRANCH  41  69
BRANCH  56  80
ATOM     80  C   UNL A   1      43.908  28.658  35.131  1.00  0.00     0.064 A 
ATOM     81  C   UNL A   1      43.662  27.528  35.923  1.00  0.00     0.173 A 
ATOM     82  C   UNL A   1      45.231  29.113  35.027  1.00  0.00     0.173 A 
ATOM     83  F   UNL A   1      42.411  27.065  36.070  1.00  0.00    -0.203 F 
ATOM     84  C   UNL A   1      44.697  26.890  36.600  1.00  0.00     0.198 A 
ATOM     85  C   UNL A   1      46.268  28.453  35.678  1.00  0.00     0.198 A 
ATOM     86  F   UNL A   1      45.520  30.189  34.279  1.00  0.00    -0.203 F 
ATOM     87  F   UNL A   1      44.432  25.840  37.390  1.00  0.00    -0.200 F 
ATOM     88  C   UNL A   1      46.001  27.346  36.470  1.00  0.00     0.200 A 
ATOM     89  F   UNL A   1      47.529  28.887  35.539  1.00  0.00    -0.200 F 
ATOM     90  F   UNL A   1      46.998  26.723  37.112  1.00  0.00    -0.200 F 
ENDBRANCH  56  80
ENDBRANCH  21  24
ENDBRANCH  12  14
ENDBRANCH   7  10
ENDBRANCH   4   7
ENDBRANCH   1   4
BRANCH   1  91
ATOM     91  C   UNL A   1      32.269  29.995  27.070  1.00  0.00    -0.052 C 
ATOM     92  H   UNL A   1      32.407  30.540  27.981  1.00  0.00     0.027 H 
ATOM     93  H   UNL A   1      33.186  29.763  26.570  1.00  0.00     0.027 H 
BRANCH  91  94
ATOM     94  C   UNL A   1      31.616  28.651  27.414  1.00  0.00    -0.036 C 
ATOM     95  H   UNL A   1      30.633  28.637  26.990  1.00  0.00     0.028 H 
ATOM     96  H   UNL A   1      31.606  28.577  28.481  1.00  0.00     0.028 H 
BRANCH  94  97
ATOM     97  C   UNL A   1      32.380  27.435  26.896  1.00  0.00     0.017 C 
ATOM     98  H   UNL A   1      33.173  27.205  27.575  1.00  0.00     0.049 H 
ATOM     99  H   UNL A   1      32.771  27.664  25.927  1.00  0.00     0.049 H 
BRANCH  97 100
ATOM    100  N   UNL A   1      31.504  26.286  26.782  1.00  0.00    -0.356 N 
ATOM    101  C   UNL A   1      31.724  25.065  26.218  1.00  0.00     0.229 C 
ATOM    102  H   UNL A   1      30.609  26.407  27.172  1.00  0.00     0.163 HD
ATOM    103  O   UNL A   1      30.761  24.306  26.108  1.00  0.00    -0.274 OA
BRANCH 101 104
ATOM    104  C   UNL A   1      33.123  24.703  25.743  1.00  0.00     0.080 C 
ATOM    105  C   UNL A   1      33.150  24.451  24.219  1.00  0.00    -0.018 C 
ATOM    106  C   UNL A   1      33.568  23.394  26.285  1.00  0.00     0.031 A 
ATOM    107  H   UNL A   1      33.735  25.524  26.055  1.00  0.00     0.047 H 
ATOM    108  C   UNL A   1      34.109  23.268  24.013  1.00  0.00     0.024 C 
ATOM    109  H   UNL A   1      33.510  25.318  23.703  1.00  0.00     0.030 H 
ATOM    110  H   UNL A   1      32.174  24.241  23.834  1.00  0.00     0.030 H 
ATOM    111  N   UNL A   1      34.134  22.619  25.313  1.00  0.00    -0.341 N 
ATOM    112  C   UNL A   1      33.589  22.706  27.465  1.00  0.00    -0.040 A 
ATOM    113  H   UNL A   1      35.084  23.610  23.737  1.00  0.00     0.050 H 
ATOM    114  H   UNL A   1      33.798  22.612  23.227  1.00  0.00     0.050 H 
ATOM    115  C   UNL A   1      34.571  21.431  25.816  1.00  0.00     0.090 A 
ATOM    116  C   UNL A   1      34.215  21.467  27.168  1.00  0.00    -0.033 A 
ATOM    117  H   UNL A   1      33.225  23.020  28.378  1.00  0.00     0.064 H 
ATOM    118  H   UNL A   1      34.381  20.707  27.847  1.00  0.00     0.065 H 
BRANCH 115 119
ATOM    119  C   UNL A   1      35.218  20.311  25.151  1.00  0.00     0.209 C 
ATOM    120  O   UNL A   1      36.441  20.205  25.059  1.00  0.00    -0.287 OA
BRANCH 119 121
ATOM    121  C   UNL A   1      34.425  19.214  24.560  1.00  0.00     0.024 A 
ATOM    122  C   UNL A   1      35.038  17.968  24.394  1.00  0.00    -0.051 A 
ATOM    123  C   UNL A   1      33.113  19.419  24.122  1.00  0.00    -0.051 A 
ATOM    124  C   UNL A   1      34.319  16.911  23.838  1.00  0.00    -0.062 A 
ATOM    125  H   UNL A   1      36.019  17.831  24.683  1.00  0.00     0.063 H 
ATOM    126  C   UNL A   1      32.392  18.354  23.579  1.00  0.00    -0.062 A 
ATOM    127  H   UNL A   1      32.679  20.353  24.201  1.00  0.00     0.063 H 
ATOM    128  C   UNL A   1      32.995  17.102  23.442  1.00  0.00    -0.062 A 
ATOM    129  H   UNL A   1      34.766  15.988  23.719  1.00  0.00     0.062 H 
ATOM    130  H   UNL A   1      31.415  18.492  23.279  1.00  0.00     0.062 H 
ATOM    131  H   UNL A   1      32.457  16.314  23.047  1.00  0.00     0.062 H 
ENDBRANCH 119 121
ENDBRANCH 115 119
ENDBRANCH 101 104
ENDBRANCH  97 100
ENDBRANCH  94  97
ENDBRANCH  91  94
ENDBRANCH   1  91
TORSDOF 15
ENDMDL
MODEL 2
REMARK VINA RESULT:     -12.9      2.681      4.779
REMARK SMILES O=C(NCCCCCCNC(=O)[C@@H]1CCn2c(C(=O)c3ccccc3)ccc21)c1ccc(-c2c3nc(c(-c4c(F)c(F)c(F)c(F)c4F)c4ccc([nH]4)c(-c4c(F)c(F)c(F)c(F)c4F)c4nc(c(-c5c(F)c(F)c(F)c(F)c5F)c5ccc2[nH]5)C=C4)C=C3)cc1
REMARK SMILES IDX 6 1 5 4 4 7 3 10 1 11 2 12 29 14 30 15 91 16 31 17 90 19
REMARK SMILES IDX 32 21 33 24 34 25 84 26 35 27 89 28 83 29 85 30 36 31 88 32
REMARK SMILES IDX 82 34 81 36 37 38 69 41 49 42 68 43 50 44 53 45 67 46 86 47
REMARK SMILES IDX 51 48 52 50 66 52 87 53 54 56 38 58 39 59 47 60 40 61 41 62
REMARK SMILES IDX 45 63 48 64 42 65 43 66 46 67 44 68 70 69 71 70 79 71 72 72
REMARK SMILES IDX 73 73 77 74 80 75 74 76 75 77 78 78 76 79 55 80 56 81 64 82
REMARK SMILES IDX 57 83 58 84 62 85 65 86 59 87 60 88 63 89 61 90 7 91 8 94
REMARK SMILES IDX 9 97 10 100 11 101 12 103 13 104 14 105 28 106 15 108 16 111
REMARK SMILES IDX 27 112 17 115 26 116 18 119 19 120 20 121 21 122 25 123
REMARK SMILES IDX 22 124 24 126 23 128
REMARK H PARENT 6 2 6 3 5 5 5 6 4 8 4 9 3 13 30 18 91 20 31 22 90 23 89 33
REMARK H PARENT 83 35 85 37 88 39 82 40 50 49 53 51 86 54 51 55 87 57 7 92
REMARK H PARENT 7 93 8 95 8 96 9 98 9 99 10 102 13 107 14 109 14 110 15 113
REMARK H PARENT 15 114 27 117 26 118 21 125 25 127 22 129 24 130 23 131
REMARK Flexibility Score: inf
ROOT
ATOM      1  C   UNL A   1      31.440  30.839  26.066  1.00  0.00    -0.052 C 
ATOM      2  H   UNL A   1      31.565  30.820  25.003  1.00  0.00     0.027 H 
ATOM      3  H   UNL A   1      30.548  30.348  26.394  1.00  0.00     0.027 H 
ENDROOT
BRANCH   1   4
ATOM      4  C   UNL A   1      31.313  32.299  26.501  1.00  0.00    -0.036 C 
ATOM      5  H   UNL A   1      31.168  32.899  25.627  1.00  0.00     0.028 H 
ATOM      6  H   UNL A   1      30.486  32.347  27.179  1.00  0.00     0.028 H 
BRANCH   4   7
ATOM      7  C   UNL A   1      32.525  32.832  27.251  1.00  0.00     0.018 C 
ATOM      8  H   UNL A   1      32.668  32.247  28.135  1.00  0.00     0.049 H 
ATOM      9  H   UNL A   1      33.372  32.764  26.600  1.00  0.00     0.049 H 
BRANCH   7  10
ATOM     10  N   UNL A   1      32.363  34.225  27.631  1.00  0.00    -0.352 N 
ATOM     11  O   UNL A   1      32.628  36.044  28.945  1.00  0.00    -0.269 OA
ATOM     12  C   UNL A   1      33.014  34.927  28.611  1.00  0.00     0.251 C 
ATOM     13  H   UNL A   1      31.695  34.733  27.115  1.00  0.00     0.163 HD
BRANCH  12  14
ATOM     14  C   UNL A   1      34.184  34.321  29.277  1.00  0.00     0.039 A 
ATOM     15  C   UNL A   1      34.008  33.485  30.384  1.00  0.00    -0.049 A 
ATOM     16  C   UNL A   1      35.465  34.581  28.784  1.00  0.00    -0.049 A 
ATOM     17  C   UNL A   1      35.117  33.006  31.070  1.00  0.00    -0.053 A 
ATOM     18  H   UNL A   1      33.058  33.226  30.691  1.00  0.00     0.063 H 
ATOM     19  C   UNL A   1      36.575  34.022  29.420  1.00  0.00    -0.053 A 
ATOM     20  H   UNL A   1      35.589  35.182  27.955  1.00  0.00     0.063 H 
ATOM     21  C   UNL A   1      36.409  33.240  30.575  1.00  0.00    -0.014 A 
ATOM     22  H   UNL A   1      34.989  32.474  31.946  1.00  0.00     0.063 H 
ATOM     23  H   UNL A   1      37.521  34.186  29.041  1.00  0.00     0.063 H 
BRANCH  21  24
ATOM     24  C   UNL A   1      37.564  32.562  31.211  1.00  0.00     0.031 A 
ATOM     25  C   UNL A   1      38.275  31.429  30.532  1.00  0.00     0.074 A 
ATOM     26  C   UNL A   1      37.954  32.984  32.430  1.00  0.00     0.049 A 
ATOM     27  N   UNL A   1      39.274  30.705  30.972  1.00  0.00    -0.248 NA
ATOM     28  C   UNL A   1      37.804  31.050  29.193  1.00  0.00    -0.034 C 
ATOM     29  C   UNL A   1      37.322  34.070  33.186  1.00  0.00    -0.036 A 
ATOM     30  N   UNL A   1      38.966  32.557  33.250  1.00  0.00    -0.354 N 
ATOM     31  C   UNL A   1      39.536  29.773  29.977  1.00  0.00     0.074 A 
ATOM     32  C   UNL A   1      38.582  30.011  28.916  1.00  0.00    -0.034 C 
ATOM     33  H   UNL A   1      37.062  31.480  28.618  1.00  0.00     0.065 H 
ATOM     34  C   UNL A   1      37.974  34.240  34.343  1.00  0.00    -0.036 A 
ATOM     35  H   UNL A   1      36.505  34.617  32.874  1.00  0.00     0.065 H 
ATOM     36  C   UNL A   1      39.019  33.228  34.447  1.00  0.00     0.049 A 
ATOM     37  H   UNL A   1      39.594  31.839  33.005  1.00  0.00     0.167 HD
ATOM     38  C   UNL A   1      40.492  28.813  29.960  1.00  0.00     0.037 A 
ATOM     39  H   UNL A   1      38.514  29.445  28.055  1.00  0.00     0.065 H 
ATOM     40  H   UNL A   1      37.770  34.966  35.047  1.00  0.00     0.065 H 
ATOM     41  C   UNL A   1      39.795  33.029  35.527  1.00  0.00     0.037 A 
ATOM     42  C   UNL A   1      41.444  28.599  31.022  1.00  0.00     0.049 A 
ATOM     43  C   UNL A   1      40.813  31.926  35.492  1.00  0.00     0.074 A 
ATOM     44  C   UNL A   1      42.492  27.697  31.068  1.00  0.00    -0.036 A 
ATOM     45  N   UNL A   1      41.452  29.283  32.228  1.00  0.00    -0.354 N 
ATOM     46  N   UNL A   1      41.097  31.096  34.518  1.00  0.00    -0.248 NA
ATOM     47  C   UNL A   1      41.615  31.726  36.705  1.00  0.00    -0.034 C 
ATOM     48  C   UNL A   1      43.091  27.787  32.328  1.00  0.00    -0.036 A 
ATOM     49  H   UNL A   1      42.782  27.066  30.304  1.00  0.00     0.065 H 
ATOM     50  C   UNL A   1      42.460  28.790  33.044  1.00  0.00     0.049 A 
ATOM     51  H   UNL A   1      40.834  30.011  32.470  1.00  0.00     0.167 HD
ATOM     52  C   UNL A   1      42.120  30.288  34.993  1.00  0.00     0.074 A 
ATOM     53  C   UNL A   1      42.424  30.745  36.333  1.00  0.00    -0.034 C 
ATOM     54  H   UNL A   1      41.562  32.221  37.610  1.00  0.00     0.065 H 
ATOM     55  H   UNL A   1      43.871  27.202  32.668  1.00  0.00     0.065 H 
ATOM     56  C   UNL A   1      42.749  29.257  34.377  1.00  0.00     0.037 A 
ATOM     57  H   UNL A   1      43.175  30.356  36.924  1.00  0.00     0.065 H 
BRANCH  38  58
ATOM     58  C   UNL A   1      40.549  27.893  28.773  1.00  0.00     0.064 A 
ATOM     59  C   UNL A   1      39.810  26.703  28.719  1.00  0.00     0.173 A 
ATOM     60  C   UNL A   1      41.299  28.249  27.641  1.00  0.00     0.173 A 
ATOM     61  F   UNL A   1      39.082  26.312  29.776  1.00  0.00    -0.203 F 
ATOM     62  C   UNL A   1      39.833  25.896  27.584  1.00  0.00     0.198 A 
ATOM     63  C   UNL A   1      41.296  27.455  26.497  1.00  0.00     0.198 A 
ATOM     64  F   UNL A   1      42.019  29.382  27.635  1.00  0.00    -0.203 F 
ATOM     65  F   UNL A   1      39.144  24.745  27.568  1.00  0.00    -0.200 F 
ATOM     66  C   UNL A   1      40.567  26.277  26.471  1.00  0.00     0.200 A 
ATOM     67  F   UNL A   1      41.994  27.835  25.417  1.00  0.00    -0.200 F 
ATOM     68  F   UNL A   1      40.573  25.508  25.374  1.00  0.00    -0.200 F 
ENDBRANCH  38  58
BRANCH  41  69
ATOM     69  C   UNL A   1      39.609  33.867  36.739  1.00  0.00     0.064 A 
ATOM     70  C   UNL A   1      38.807  33.436  37.804  1.00  0.00     0.173 A 
ATOM     71  C   UNL A   1      40.229  35.122  36.857  1.00  0.00     0.173 A 
ATOM     72  F   UNL A   1      38.181  32.252  37.732  1.00  0.00    -0.203 F 
ATOM     73  C   UNL A   1      38.610  34.238  38.926  1.00  0.00     0.198 A 
ATOM     74  C   UNL A   1      40.061  35.905  37.995  1.00  0.00     0.198 A 
ATOM     75  F   UNL A   1      41.015  35.580  35.871  1.00  0.00    -0.203 F 
ATOM     76  F   UNL A   1      37.794  33.823  39.904  1.00  0.00    -0.200 F 
ATOM     77  C   UNL A   1      39.242  35.468  39.024  1.00  0.00     0.200 A 
ATOM     78  F   UNL A   1      40.692  37.084  38.094  1.00  0.00    -0.200 F 
ATOM     79  F   UNL A   1      39.055  36.235  40.106  1.00  0.00    -0.200 F 
ENDBRANCH  41  69
BRANCH  56  80
ATOM     80  C   UNL A   1      43.844  28.569  35.137  1.00  0.00     0.064 A 
ATOM     81  C   UNL A   1      45.172  29.013  35.077  1.00  0.00     0.173 A 
ATOM     82  C   UNL A   1      43.552  27.479  35.972  1.00  0.00     0.173 A 
ATOM     83  F   UNL A   1      45.506  30.038  34.278  1.00  0.00    -0.203 F 
ATOM     84  C   UNL A   1      46.172  28.377  35.807  1.00  0.00     0.198 A 
ATOM     85  C   UNL A   1      44.548  26.868  36.726  1.00  0.00     0.198 A 
ATOM     86  F   UNL A   1      42.296  27.018  36.068  1.00  0.00    -0.203 F 
ATOM     87  F   UNL A   1      47.444  28.788  35.696  1.00  0.00    -0.200 F 
ATOM     88  C   UNL A   1      45.859  27.312  36.639  1.00  0.00     0.200 A 
ATOM     89  F   UNL A   1      44.240  25.849  37.541  1.00  0.00    -0.200 F 
ATOM     90  F   UNL A   1      46.821  26.710  37.352  1.00  0.00    -0.200 F 
ENDBRANCH  56  80
ENDBRANCH  21  24
ENDBRANCH  12  14
ENDBRANCH   7  10
ENDBRANCH   4   7
ENDBRANCH   1   4
BRANCH   1  91
ATOM     91  C   UNL A   1      32.610  30.079  26.698  1.00  0.00    -0.052 C 
ATOM     92  H   UNL A   1      33.004  30.677  27.493  1.00  0.00     0.027 H 
ATOM     93  H   UNL A   1      33.312  29.902  25.910  1.00  0.00     0.027 H 
BRANCH  91  94
ATOM     94  C   UNL A   1      32.253  28.702  27.271  1.00  0.00    -0.036 C 
ATOM     95  H   UNL A   1      31.538  28.840  28.056  1.00  0.00     0.028 H 
ATOM     96  H   UNL A   1      33.167  28.266  27.617  1.00  0.00     0.028 H 
BRANCH  94  97
ATOM     97  C   UNL A   1      31.663  27.733  26.249  1.00  0.00     0.017 C 
ATOM     98  H   UNL A   1      31.273  28.289  25.424  1.00  0.00     0.049 H 
ATOM     99  H   UNL A   1      30.886  27.169  26.721  1.00  0.00     0.049 H 
BRANCH  97 100
ATOM    100  N   UNL A   1      32.673  26.813  25.767  1.00  0.00    -0.356 N 
ATOM    101  C   UNL A   1      32.907  26.343  24.510  1.00  0.00     0.229 C 
ATOM    102  H   UNL A   1      33.288  26.474  26.457  1.00  0.00     0.163 HD
ATOM    103  O   UNL A   1      33.736  25.440  24.383  1.00  0.00    -0.274 OA
BRANCH 101 104
ATOM    104  C   UNL A   1      32.135  26.930  23.338  1.00  0.00     0.080 C 
ATOM    105  C   UNL A   1      32.313  28.463  23.260  1.00  0.00    -0.018 C 
ATOM    106  C   UNL A   1      30.668  26.794  23.520  1.00  0.00     0.031 A 
ATOM    107  H   UNL A   1      32.508  26.409  22.481  1.00  0.00     0.047 H 
ATOM    108  C   UNL A   1      30.941  29.018  22.848  1.00  0.00     0.024 C 
ATOM    109  H   UNL A   1      33.053  28.716  22.529  1.00  0.00     0.030 H 
ATOM    110  H   UNL A   1      32.643  28.872  24.193  1.00  0.00     0.030 H 
ATOM    111  N   UNL A   1      30.018  27.958  23.222  1.00  0.00    -0.341 N 
ATOM    112  C   UNL A   1      29.745  25.861  23.902  1.00  0.00    -0.040 A 
ATOM    113  H   UNL A   1      30.904  29.204  21.796  1.00  0.00     0.050 H 
ATOM    114  H   UNL A   1      30.712  29.952  23.317  1.00  0.00     0.050 H 
ATOM    115  C   UNL A   1      28.670  27.826  23.358  1.00  0.00     0.090 A 
ATOM    116  C   UNL A   1      28.488  26.513  23.805  1.00  0.00    -0.033 A 
ATOM    117  H   UNL A   1      29.925  24.889  24.197  1.00  0.00     0.064 H 
ATOM    118  H   UNL A   1      27.577  26.083  24.032  1.00  0.00     0.065 H 
BRANCH 115 119
ATOM    119  C   UNL A   1      27.606  28.796  23.158  1.00  0.00     0.209 C 
ATOM    120  O   UNL A   1      26.428  28.559  23.425  1.00  0.00    -0.287 OA
BRANCH 119 121
ATOM    121  C   UNL A   1      27.894  30.147  22.634  1.00  0.00     0.024 A 
ATOM    122  C   UNL A   1      28.077  31.188  23.551  1.00  0.00    -0.051 A 
ATOM    123  C   UNL A   1      27.930  30.402  21.260  1.00  0.00    -0.051 A 
ATOM    124  C   UNL A   1      28.350  32.475  23.091  1.00  0.00    -0.062 A 
ATOM    125  H   UNL A   1      28.012  31.003  24.564  1.00  0.00     0.063 H 
ATOM    126  C   UNL A   1      28.216  31.690  20.804  1.00  0.00    -0.062 A 
ATOM    127  H   UNL A   1      27.746  29.641  20.586  1.00  0.00     0.063 H 
ATOM    128  C   UNL A   1      28.430  32.722  21.720  1.00  0.00    -0.062 A 
ATOM    129  H   UNL A   1      28.491  33.245  23.764  1.00  0.00     0.062 H 
ATOM    130  H   UNL A   1      28.270  31.879  19.792  1.00  0.00     0.062 H 
ATOM    131  H   UNL A   1      28.648  33.673  21.380  1.00  0.00     0.062 H 
ENDBRANCH 119 121
ENDBRANCH 115 119
ENDBRANCH 101 104
ENDBRANCH  97 100
ENDBRANCH  94  97
ENDBRANCH  91  94
ENDBRANCH   1  91
TORSDOF 15
ENDMDL
MODEL 3
REMARK VINA RESULT:     -12.9      0.263      1.676
REMARK SMILES O=C(NCCCCCCNC(=O)[C@@H]1CCn2c(C(=O)c3ccccc3)ccc21)c1ccc(-c2c3nc(c(-c4c(F)c(F)c(F)c(F)c4F)c4ccc([nH]4)c(-c4c(F)c(F)c(F)c(F)c4F)c4nc(c(-c5c(F)c(F)c(F)c(F)c5F)c5ccc2[nH]5)C=C4)C=C3)cc1
REMARK SMILES IDX 6 1 5 4 4 7 3 10 1 11 2 12 29 14 30 15 91 16 31 17 90 19
REMARK SMILES IDX 32 21 33 24 34 25 84 26 35 27 89 28 83 29 85 30 36 31 88 32
REMARK SMILES IDX 82 34 81 36 37 38 69 41 49 42 68 43 50 44 53 45 67 46 86 47
REMARK SMILES IDX 51 48 52 50 66 52 87 53 54 56 38 58 39 59 47 60 40 61 41 62
REMARK SMILES IDX 45 63 48 64 42 65 43 66 46 67 44 68 70 69 71 70 79 71 72 72
REMARK SMILES IDX 73 73 77 74 80 75 74 76 75 77 78 78 76 79 55 80 56 81 64 82
REMARK SMILES IDX 57 83 58 84 62 85 65 86 59 87 60 88 63 89 61 90 7 91 8 94
REMARK SMILES IDX 9 97 10 100 11 101 12 103 13 104 14 105 28 106 15 108 16 111
REMARK SMILES IDX 27 112 17 115 26 116 18 119 19 120 20 121 21 122 25 123
REMARK SMILES IDX 22 124 24 126 23 128
REMARK H PARENT 6 2 6 3 5 5 5 6 4 8 4 9 3 13 30 18 91 20 31 22 90 23 89 33
REMARK H PARENT 83 35 85 37 88 39 82 40 50 49 53 51 86 54 51 55 87 57 7 92
REMARK H PARENT 7 93 8 95 8 96 9 98 9 99 10 102 13 107 14 109 14 110 15 113
REMARK H PARENT 15 114 27 117 26 118 21 125 25 127 22 129 24 130 23 131
REMARK Flexibility Score: inf
ROOT
ATOM      1  C   UNL A   1      31.454  30.602  26.246  1.00  0.00    -0.052 C 
ATOM      2  H   UNL A   1      31.763  30.456  25.232  1.00  0.00     0.027 H 
ATOM      3  H   UNL A   1      30.480  30.208  26.451  1.00  0.00     0.027 H 
ENDROOT
BRANCH   1   4
ATOM      4  C   UNL A   1      31.372  32.106  26.505  1.00  0.00    -0.036 C 
ATOM      5  H   UNL A   1      31.247  32.602  25.565  1.00  0.00     0.028 H 
ATOM      6  H   UNL A   1      30.545  32.261  27.167  1.00  0.00     0.028 H 
BRANCH   4   7
ATOM      7  C   UNL A   1      32.598  32.687  27.193  1.00  0.00     0.018 C 
ATOM      8  H   UNL A   1      32.811  32.106  28.066  1.00  0.00     0.049 H 
ATOM      9  H   UNL A   1      33.412  32.656  26.499  1.00  0.00     0.049 H 
BRANCH   7  10
ATOM     10  N   UNL A   1      32.398  34.071  27.588  1.00  0.00    -0.352 N 
ATOM     11  O   UNL A   1      32.615  35.882  28.922  1.00  0.00    -0.269 OA
ATOM     12  C   UNL A   1      33.031  34.780  28.577  1.00  0.00     0.251 C 
ATOM     13  H   UNL A   1      31.718  34.566  27.078  1.00  0.00     0.163 HD
BRANCH  12  14
ATOM     14  C   UNL A   1      34.216  34.197  29.236  1.00  0.00     0.039 A 
ATOM     15  C   UNL A   1      34.062  33.335  30.326  1.00  0.00    -0.049 A 
ATOM     16  C   UNL A   1      35.490  34.507  28.755  1.00  0.00    -0.049 A 
ATOM     17  C   UNL A   1      35.182  32.878  31.008  1.00  0.00    -0.053 A 
ATOM     18  H   UNL A   1      33.118  33.040  30.623  1.00  0.00     0.063 H 
ATOM     19  C   UNL A   1      36.615  33.972  29.386  1.00  0.00    -0.053 A 
ATOM     20  H   UNL A   1      35.599  35.128  27.938  1.00  0.00     0.063 H 
ATOM     21  C   UNL A   1      36.468  33.162  30.524  1.00  0.00    -0.014 A 
ATOM     22  H   UNL A   1      35.067  32.326  31.873  1.00  0.00     0.063 H 
ATOM     23  H   UNL A   1      37.557  34.172  29.015  1.00  0.00     0.063 H 
BRANCH  21  24
ATOM     24  C   UNL A   1      37.641  32.509  31.153  1.00  0.00     0.031 A 
ATOM     25  C   UNL A   1      38.363  31.381  30.477  1.00  0.00     0.074 A 
ATOM     26  C   UNL A   1      38.038  32.948  32.364  1.00  0.00     0.049 A 
ATOM     27  N   UNL A   1      39.378  30.677  30.911  1.00  0.00    -0.248 NA
ATOM     28  C   UNL A   1      37.882  30.982  29.146  1.00  0.00    -0.034 C 
ATOM     29  C   UNL A   1      37.398  34.030  33.117  1.00  0.00    -0.036 A 
ATOM     30  N   UNL A   1      39.066  32.544  33.175  1.00  0.00    -0.354 N 
ATOM     31  C   UNL A   1      39.644  29.741  29.921  1.00  0.00     0.074 A 
ATOM     32  C   UNL A   1      38.674  29.953  28.869  1.00  0.00    -0.034 C 
ATOM     33  H   UNL A   1      37.127  31.395  28.576  1.00  0.00     0.065 H 
ATOM     34  C   UNL A   1      38.060  34.221  34.265  1.00  0.00    -0.036 A 
ATOM     35  H   UNL A   1      36.568  34.561  32.810  1.00  0.00     0.065 H 
ATOM     36  C   UNL A   1      39.122  33.228  34.366  1.00  0.00     0.049 A 
ATOM     37  H   UNL A   1      39.703  31.835  32.930  1.00  0.00     0.167 HD
ATOM     38  C   UNL A   1      40.614  28.795  29.901  1.00  0.00     0.037 A 
ATOM     39  H   UNL A   1      38.605  29.379  28.014  1.00  0.00     0.065 H 
ATOM     40  H   UNL A   1      37.853  34.951  34.964  1.00  0.00     0.065 H 
ATOM     41  C   UNL A   1      39.914  33.050  35.438  1.00  0.00     0.037 A 
ATOM     42  C   UNL A   1      41.582  28.606  30.954  1.00  0.00     0.049 A 
ATOM     43  C   UNL A   1      40.949  31.963  35.402  1.00  0.00     0.074 A 
ATOM     44  C   UNL A   1      42.645  27.722  30.997  1.00  0.00    -0.036 A 
ATOM     45  N   UNL A   1      41.592  29.302  32.154  1.00  0.00    -0.354 N 
ATOM     46  N   UNL A   1      41.235  31.129  34.432  1.00  0.00    -0.248 NA
ATOM     47  C   UNL A   1      41.768  31.788  36.607  1.00  0.00    -0.034 C 
ATOM     48  C   UNL A   1      43.257  27.832  32.249  1.00  0.00    -0.036 A 
ATOM     49  H   UNL A   1      42.936  27.089  30.235  1.00  0.00     0.065 H 
ATOM     50  C   UNL A   1      42.618  28.833  32.963  1.00  0.00     0.049 A 
ATOM     51  H   UNL A   1      40.966  30.022  32.397  1.00  0.00     0.167 HD
ATOM     52  C   UNL A   1      42.276  30.342  34.902  1.00  0.00     0.074 A 
ATOM     53  C   UNL A   1      42.588  30.816  36.235  1.00  0.00    -0.034 C 
ATOM     54  H   UNL A   1      41.717  32.290  37.508  1.00  0.00     0.065 H 
ATOM     55  H   UNL A   1      44.050  27.264  32.585  1.00  0.00     0.065 H 
ATOM     56  C   UNL A   1      42.914  29.316  34.288  1.00  0.00     0.037 A 
ATOM     57  H   UNL A   1      43.352  30.444  36.821  1.00  0.00     0.065 H 
BRANCH  38  58
ATOM     58  C   UNL A   1      40.673  27.866  28.723  1.00  0.00     0.064 A 
ATOM     59  C   UNL A   1      39.921  26.683  28.671  1.00  0.00     0.173 A 
ATOM     60  C   UNL A   1      41.438  28.205  27.595  1.00  0.00     0.173 A 
ATOM     61  F   UNL A   1      39.179  26.309  29.723  1.00  0.00    -0.203 F 
ATOM     62  C   UNL A   1      39.946  25.867  27.542  1.00  0.00     0.198 A 
ATOM     63  C   UNL A   1      41.437  27.402  26.457  1.00  0.00     0.198 A 
ATOM     64  F   UNL A   1      42.170  29.330  27.588  1.00  0.00    -0.203 F 
ATOM     65  F   UNL A   1      39.245  24.724  27.529  1.00  0.00    -0.200 F 
ATOM     66  C   UNL A   1      40.695  26.232  26.433  1.00  0.00     0.200 A 
ATOM     67  F   UNL A   1      42.149  27.766  25.382  1.00  0.00    -0.200 F 
ATOM     68  F   UNL A   1      40.703  25.454  25.342  1.00  0.00    -0.200 F 
ENDBRANCH  38  58
BRANCH  41  69
ATOM     69  C   UNL A   1      39.728  33.897  36.645  1.00  0.00     0.064 A 
ATOM     70  C   UNL A   1      40.364  35.140  36.764  1.00  0.00     0.173 A 
ATOM     71  C   UNL A   1      38.911  33.479  37.708  1.00  0.00     0.173 A 
ATOM     72  F   UNL A   1      41.167  35.577  35.783  1.00  0.00    -0.203 F 
ATOM     73  C   UNL A   1      40.212  35.919  37.909  1.00  0.00     0.198 A 
ATOM     74  C   UNL A   1      38.731  34.274  38.836  1.00  0.00     0.198 A 
ATOM     75  F   UNL A   1      38.272  32.301  37.642  1.00  0.00    -0.203 F 
ATOM     76  F   UNL A   1      40.875  37.077  38.019  1.00  0.00    -0.200 F 
ATOM     77  C   UNL A   1      39.392  35.488  38.941  1.00  0.00     0.200 A 
ATOM     78  F   UNL A   1      37.920  33.864  39.820  1.00  0.00    -0.200 F 
ATOM     79  F   UNL A   1      39.243  36.241  40.039  1.00  0.00    -0.200 F 
ENDBRANCH  41  69
BRANCH  56  80
ATOM     80  C   UNL A   1      44.029  28.652  35.042  1.00  0.00     0.064 A 
ATOM     81  C   UNL A   1      45.347  29.124  34.971  1.00  0.00     0.173 A 
ATOM     82  C   UNL A   1      43.766  27.559  35.881  1.00  0.00     0.173 A 
ATOM     83  F   UNL A   1      45.654  30.154  34.168  1.00  0.00    -0.203 F 
ATOM     84  C   UNL A   1      46.366  28.511  35.695  1.00  0.00     0.198 A 
ATOM     85  C   UNL A   1      44.780  26.970  36.629  1.00  0.00     0.198 A 
ATOM     86  F   UNL A   1      42.520  27.071  35.987  1.00  0.00    -0.203 F 
ATOM     87  F   UNL A   1      47.628  28.948  35.575  1.00  0.00    -0.200 F 
ATOM     88  C   UNL A   1      46.080  27.441  36.531  1.00  0.00     0.200 A 
ATOM     89  F   UNL A   1      44.499  25.946  37.447  1.00  0.00    -0.200 F 
ATOM     90  F   UNL A   1      47.060  26.861  37.238  1.00  0.00    -0.200 F 
ENDBRANCH  56  80
ENDBRANCH  21  24
ENDBRANCH  12  14
ENDBRANCH   7  10
ENDBRANCH   4   7
ENDBRANCH   1   4
BRANCH   1  91
ATOM     91  C   UNL A   1      32.426  29.846  27.156  1.00  0.00    -0.052 C 
ATOM     92  H   UNL A   1      32.474  30.361  28.093  1.00  0.00     0.027 H 
ATOM     93  H   UNL A   1      33.361  29.819  26.637  1.00  0.00     0.027 H 
BRANCH  91  94
ATOM     94  C   UNL A   1      32.049  28.386  27.436  1.00  0.00    -0.036 C 
ATOM     95  H   UNL A   1      31.240  28.376  28.136  1.00  0.00     0.028 H 
ATOM     96  H   UNL A   1      32.928  27.907  27.814  1.00  0.00     0.028 H 
BRANCH  94  97
ATOM     97  C   UNL A   1      31.621  27.602  26.197  1.00  0.00     0.017 C 
ATOM     98  H   UNL A   1      32.487  27.366  25.616  1.00  0.00     0.049 H 
ATOM     99  H   UNL A   1      30.942  28.204  25.629  1.00  0.00     0.049 H 
BRANCH  97 100
ATOM    100  N   UNL A   1      30.950  26.374  26.570  1.00  0.00    -0.356 N 
ATOM    101  C   UNL A   1      31.379  25.082  26.504  1.00  0.00     0.229 C 
ATOM    102  H   UNL A   1      30.039  26.491  26.925  1.00  0.00     0.163 HD
ATOM    103  O   UNL A   1      30.556  24.196  26.737  1.00  0.00    -0.274 OA
BRANCH 101 104
ATOM    104  C   UNL A   1      32.827  24.794  26.138  1.00  0.00     0.080 C 
ATOM    105  C   UNL A   1      33.016  24.729  24.607  1.00  0.00    -0.018 C 
ATOM    106  C   UNL A   1      33.242  23.433  26.564  1.00  0.00     0.031 A 
ATOM    107  H   UNL A   1      33.385  25.576  26.610  1.00  0.00     0.047 H 
ATOM    108  C   UNL A   1      34.017  23.589  24.362  1.00  0.00     0.024 C 
ATOM    109  H   UNL A   1      33.408  25.655  24.240  1.00  0.00     0.030 H 
ATOM    110  H   UNL A   1      32.090  24.559  24.099  1.00  0.00     0.030 H 
ATOM    111  N   UNL A   1      33.922  22.786  25.570  1.00  0.00    -0.341 N 
ATOM    112  C   UNL A   1      33.155  22.606  27.648  1.00  0.00    -0.040 A 
ATOM    113  H   UNL A   1      35.007  23.970  24.233  1.00  0.00     0.050 H 
ATOM    114  H   UNL A   1      33.803  23.030  23.475  1.00  0.00     0.050 H 
ATOM    115  C   UNL A   1      34.330  21.550  25.970  1.00  0.00     0.090 A 
ATOM    116  C   UNL A   1      33.835  21.418  27.271  1.00  0.00    -0.033 A 
ATOM    117  H   UNL A   1      32.693  22.804  28.549  1.00  0.00     0.064 H 
ATOM    118  H   UNL A   1      33.947  20.583  27.868  1.00  0.00     0.065 H 
BRANCH 115 119
ATOM    119  C   UNL A   1      35.066  20.526  25.246  1.00  0.00     0.209 C 
ATOM    120  O   UNL A   1      36.295  20.512  25.176  1.00  0.00    -0.287 OA
BRANCH 119 121
ATOM    121  C   UNL A   1      34.364  19.418  24.567  1.00  0.00     0.024 A 
ATOM    122  C   UNL A   1      33.069  19.648  24.090  1.00  0.00    -0.051 A 
ATOM    123  C   UNL A   1      34.946  18.153  24.447  1.00  0.00    -0.051 A 
ATOM    124  C   UNL A   1      32.377  18.625  23.444  1.00  0.00    -0.062 A 
ATOM    125  H   UNL A   1      32.628  20.572  24.214  1.00  0.00     0.063 H 
ATOM    126  C   UNL A   1      34.255  17.135  23.788  1.00  0.00    -0.062 A 
ATOM    127  H   UNL A   1      35.882  17.973  24.844  1.00  0.00     0.063 H 
ATOM    128  C   UNL A   1      32.975  17.374  23.284  1.00  0.00    -0.062 A 
ATOM    129  H   UNL A   1      31.424  18.792  23.085  1.00  0.00     0.062 H 
ATOM    130  H   UNL A   1      34.689  16.206  23.673  1.00  0.00     0.062 H 
ATOM    131  H   UNL A   1      32.468  16.621  22.791  1.00  0.00     0.062 H 
ENDBRANCH 119 121
ENDBRANCH 115 119
ENDBRANCH 101 104
ENDBRANCH  97 100
ENDBRANCH  94  97
ENDBRANCH  91  94
ENDBRANCH   1  91
TORSDOF 15
ENDMDL
MODEL 4
REMARK VINA RESULT:     -12.6      2.740      8.755
REMARK SMILES O=C(NCCCCCCNC(=O)[C@@H]1CCn2c(C(=O)c3ccccc3)ccc21)c1ccc(-c2c3nc(c(-c4c(F)c(F)c(F)c(F)c4F)c4ccc([nH]4)c(-c4c(F)c(F)c(F)c(F)c4F)c4nc(c(-c5c(F)c(F)c(F)c(F)c5F)c5ccc2[nH]5)C=C4)C=C3)cc1
REMARK SMILES IDX 6 1 5 4 4 7 3 10 1 11 2 12 29 14 30 15 91 16 31 17 90 19
REMARK SMILES IDX 32 21 33 24 34 25 84 26 35 27 89 28 83 29 85 30 36 31 88 32
REMARK SMILES IDX 82 34 81 36 37 38 69 41 49 42 68 43 50 44 53 45 67 46 86 47
REMARK SMILES IDX 51 48 52 50 66 52 87 53 54 56 38 58 39 59 47 60 40 61 41 62
REMARK SMILES IDX 45 63 48 64 42 65 43 66 46 67 44 68 70 69 71 70 79 71 72 72
REMARK SMILES IDX 73 73 77 74 80 75 74 76 75 77 78 78 76 79 55 80 56 81 64 82
REMARK SMILES IDX 57 83 58 84 62 85 65 86 59 87 60 88 63 89 61 90 7 91 8 94
REMARK SMILES IDX 9 97 10 100 11 101 12 103 13 104 14 105 28 106 15 108 16 111
REMARK SMILES IDX 27 112 17 115 26 116 18 119 19 120 20 121 21 122 25 123
REMARK SMILES IDX 22 124 24 126 23 128
REMARK H PARENT 6 2 6 3 5 5 5 6 4 8 4 9 3 13 30 18 91 20 31 22 90 23 89 33
REMARK H PARENT 83 35 85 37 88 39 82 40 50 49 53 51 86 54 51 55 87 57 7 92
REMARK H PARENT 7 93 8 95 8 96 9 98 9 99 10 102 13 107 14 109 14 110 15 113
REMARK H PARENT 15 114 27 117 26 118 21 125 25 127 22 129 24 130 23 131
REMARK Flexibility Score: inf
ROOT
ATOM      1  C   UNL A   1      31.428  30.820  26.013  1.00  0.00    -0.052 C 
ATOM      2  H   UNL A   1      32.164  30.788  25.237  1.00  0.00     0.027 H 
ATOM      3  H   UNL A   1      30.451  30.540  25.680  1.00  0.00     0.027 H 
ENDROOT
BRANCH   1   4
ATOM      4  C   UNL A   1      31.318  32.264  26.502  1.00  0.00    -0.036 C 
ATOM      5  H   UNL A   1      31.132  32.892  25.655  1.00  0.00     0.028 H 
ATOM      6  H   UNL A   1      30.522  32.287  27.217  1.00  0.00     0.028 H 
BRANCH   4   7
ATOM      7  C   UNL A   1      32.561  32.777  27.214  1.00  0.00     0.018 C 
ATOM      8  H   UNL A   1      32.732  32.177  28.084  1.00  0.00     0.049 H 
ATOM      9  H   UNL A   1      33.382  32.712  26.531  1.00  0.00     0.049 H 
BRANCH   7  10
ATOM     10  N   UNL A   1      32.424  34.165  27.620  1.00  0.00    -0.352 N 
ATOM     11  O   UNL A   1      32.709  35.950  28.976  1.00  0.00    -0.269 OA
ATOM     12  C   UNL A   1      33.075  34.832  28.625  1.00  0.00     0.251 C 
ATOM     13  H   UNL A   1      31.777  34.699  27.104  1.00  0.00     0.163 HD
BRANCH  12  14
ATOM     14  C   UNL A   1      34.219  34.185  29.297  1.00  0.00     0.039 A 
ATOM     15  C   UNL A   1      34.003  33.290  30.350  1.00  0.00    -0.049 A 
ATOM     16  C   UNL A   1      35.517  34.467  28.865  1.00  0.00    -0.049 A 
ATOM     17  C   UNL A   1      35.085  32.770  31.047  1.00  0.00    -0.053 A 
ATOM     18  H   UNL A   1      33.041  33.018  30.608  1.00  0.00     0.063 H 
ATOM     19  C   UNL A   1      36.603  33.870  29.508  1.00  0.00    -0.053 A 
ATOM     20  H   UNL A   1      35.672  35.113  28.075  1.00  0.00     0.063 H 
ATOM     21  C   UNL A   1      36.395  33.026  30.611  1.00  0.00    -0.014 A 
ATOM     22  H   UNL A   1      34.926  32.191  31.887  1.00  0.00     0.063 H 
ATOM     23  H   UNL A   1      37.562  34.051  29.172  1.00  0.00     0.063 H 
BRANCH  21  24
ATOM     24  C   UNL A   1      37.525  32.309  31.249  1.00  0.00     0.031 A 
ATOM     25  C   UNL A   1      38.019  32.687  32.614  1.00  0.00     0.074 A 
ATOM     26  C   UNL A   1      38.111  31.310  30.561  1.00  0.00     0.049 A 
ATOM     27  N   UNL A   1      39.021  32.188  33.292  1.00  0.00    -0.248 NA
ATOM     28  C   UNL A   1      37.307  33.770  33.307  1.00  0.00    -0.034 C 
ATOM     29  C   UNL A   1      37.717  30.869  29.220  1.00  0.00    -0.036 A 
ATOM     30  N   UNL A   1      39.156  30.485  30.886  1.00  0.00    -0.354 N 
ATOM     31  C   UNL A   1      39.075  32.906  34.479  1.00  0.00     0.074 A 
ATOM     32  C   UNL A   1      38.015  33.889  34.423  1.00  0.00    -0.034 C 
ATOM     33  H   UNL A   1      36.474  34.299  33.004  1.00  0.00     0.065 H 
ATOM     34  C   UNL A   1      38.492  29.842  28.846  1.00  0.00    -0.036 A 
ATOM     35  H   UNL A   1      36.962  31.284  28.653  1.00  0.00     0.065 H 
ATOM     36  C   UNL A   1      39.484  29.601  29.886  1.00  0.00     0.049 A 
ATOM     37  H   UNL A   1      39.626  30.522  31.749  1.00  0.00     0.167 HD
ATOM     38  C   UNL A   1      39.933  32.750  35.515  1.00  0.00     0.037 A 
ATOM     39  H   UNL A   1      37.832  34.593  35.156  1.00  0.00     0.065 H 
ATOM     40  H   UNL A   1      38.402  29.310  27.968  1.00  0.00     0.065 H 
ATOM     41  C   UNL A   1      40.496  28.720  29.798  1.00  0.00     0.037 A 
ATOM     42  C   UNL A   1      40.977  31.755  35.559  1.00  0.00     0.049 A 
ATOM     43  C   UNL A   1      41.457  28.604  30.945  1.00  0.00     0.074 A 
ATOM     44  C   UNL A   1      41.853  31.472  36.592  1.00  0.00    -0.036 A 
ATOM     45  N   UNL A   1      41.293  30.893  34.519  1.00  0.00    -0.354 N 
ATOM     46  N   UNL A   1      41.456  29.241  32.090  1.00  0.00    -0.248 NA
ATOM     47  C   UNL A   1      42.563  27.651  30.789  1.00  0.00    -0.034 C 
ATOM     48  C   UNL A   1      42.744  30.489  36.153  1.00  0.00    -0.036 A 
ATOM     49  H   UNL A   1      41.850  31.913  37.525  1.00  0.00     0.065 H 
ATOM     50  C   UNL A   1      42.383  30.109  34.871  1.00  0.00     0.049 A 
ATOM     51  H   UNL A   1      40.816  30.844  33.659  1.00  0.00     0.167 HD
ATOM     52  C   UNL A   1      42.547  28.757  32.797  1.00  0.00     0.074 A 
ATOM     53  C   UNL A   1      43.172  27.752  31.962  1.00  0.00    -0.034 C 
ATOM     54  H   UNL A   1      42.803  27.058  29.979  1.00  0.00     0.065 H 
ATOM     55  H   UNL A   1      43.539  30.110  36.693  1.00  0.00     0.065 H 
ATOM     56  C   UNL A   1      42.993  29.114  34.026  1.00  0.00     0.037 A 
ATOM     57  H   UNL A   1      43.988  27.188  32.243  1.00  0.00     0.065 H 
BRANCH  38  58
ATOM     58  C   UNL A   1      39.812  33.687  36.683  1.00  0.00     0.064 A 
ATOM     59  C   UNL A   1      40.465  34.928  36.712  1.00  0.00     0.173 A 
ATOM     60  C   UNL A   1      38.965  33.368  37.758  1.00  0.00     0.173 A 
ATOM     61  F   UNL A   1      41.290  35.279  35.714  1.00  0.00    -0.203 F 
ATOM     62  C   UNL A   1      40.289  35.806  37.779  1.00  0.00     0.198 A 
ATOM     63  C   UNL A   1      38.769  34.261  38.808  1.00  0.00     0.198 A 
ATOM     64  F   UNL A   1      38.309  32.198  37.778  1.00  0.00    -0.203 F 
ATOM     65  F   UNL A   1      40.951  36.972  37.800  1.00  0.00    -0.200 F 
ATOM     66  C   UNL A   1      39.435  35.477  38.820  1.00  0.00     0.200 A 
ATOM     67  F   UNL A   1      37.930  33.947  39.805  1.00  0.00    -0.200 F 
ATOM     68  F   UNL A   1      39.254  36.331  39.837  1.00  0.00    -0.200 F 
ENDBRANCH  38  58
BRANCH  41  69
ATOM     69  C   UNL A   1      40.669  27.911  28.563  1.00  0.00     0.064 A 
ATOM     70  C   UNL A   1      41.428  28.387  27.485  1.00  0.00     0.173 A 
ATOM     71  C   UNL A   1      40.076  26.645  28.434  1.00  0.00     0.173 A 
ATOM     72  F   UNL A   1      42.001  29.597  27.553  1.00  0.00    -0.203 F 
ATOM     73  C   UNL A   1      41.564  27.640  26.317  1.00  0.00     0.198 A 
ATOM     74  C   UNL A   1      40.244  25.884  27.281  1.00  0.00     0.198 A 
ATOM     75  F   UNL A   1      39.347  26.138  29.440  1.00  0.00    -0.203 F 
ATOM     76  F   UNL A   1      42.249  28.143  25.281  1.00  0.00    -0.200 F 
ATOM     77  C   UNL A   1      40.977  26.387  26.218  1.00  0.00     0.200 A 
ATOM     78  F   UNL A   1      39.693  24.665  27.199  1.00  0.00    -0.200 F 
ATOM     79  F   UNL A   1      41.113  25.669  25.096  1.00  0.00    -0.200 F 
ENDBRANCH  41  69
BRANCH  56  80
ATOM     80  C   UNL A   1      44.203  28.397  34.550  1.00  0.00     0.064 A 
ATOM     81  C   UNL A   1      45.495  28.913  34.377  1.00  0.00     0.173 A 
ATOM     82  C   UNL A   1      44.063  27.204  35.274  1.00  0.00     0.173 A 
ATOM     83  F   UNL A   1      45.684  30.042  33.676  1.00  0.00    -0.203 F 
ATOM     84  C   UNL A   1      46.605  28.248  34.891  1.00  0.00     0.198 A 
ATOM     85  C   UNL A   1      45.171  26.559  35.814  1.00  0.00     0.198 A 
ATOM     86  F   UNL A   1      42.848  26.670  35.471  1.00  0.00    -0.203 F 
ATOM     87  F   UNL A   1      47.836  28.734  34.672  1.00  0.00    -0.200 F 
ATOM     88  C   UNL A   1      46.443  27.078  35.617  1.00  0.00     0.200 A 
ATOM     89  F   UNL A   1      45.010  25.437  36.528  1.00  0.00    -0.200 F 
ATOM     90  F   UNL A   1      47.511  26.446  36.122  1.00  0.00    -0.200 F 
ENDBRANCH  56  80
ENDBRANCH  21  24
ENDBRANCH  12  14
ENDBRANCH   7  10
ENDBRANCH   4   7
ENDBRANCH   1   4
BRANCH   1  91
ATOM     91  C   UNL A   1      31.826  29.806  27.090  1.00  0.00    -0.052 C 
ATOM     92  H   UNL A   1      30.993  29.678  27.750  1.00  0.00     0.027 H 
ATOM     93  H   UNL A   1      32.693  30.206  27.572  1.00  0.00     0.027 H 
BRANCH  91  94
ATOM     94  C   UNL A   1      32.230  28.424  26.561  1.00  0.00    -0.036 C 
ATOM     95  H   UNL A   1      31.338  27.863  26.372  1.00  0.00     0.028 H 
ATOM     96  H   UNL A   1      32.849  27.976  27.310  1.00  0.00     0.028 H 
BRANCH  94  97
ATOM     97  C   UNL A   1      33.053  28.463  25.276  1.00  0.00     0.017 C 
ATOM     98  H   UNL A   1      33.897  29.103  25.420  1.00  0.00     0.049 H 
ATOM     99  H   UNL A   1      32.435  28.833  24.484  1.00  0.00     0.049 H 
BRANCH  97 100
ATOM    100  N   UNL A   1      33.517  27.138  24.919  1.00  0.00    -0.356 N 
ATOM    101  C   UNL A   1      33.152  26.326  23.889  1.00  0.00     0.229 C 
ATOM    102  H   UNL A   1      34.205  26.765  25.517  1.00  0.00     0.163 HD
ATOM    103  O   UNL A   1      33.583  25.172  23.892  1.00  0.00    -0.274 OA
BRANCH 101 104
ATOM    104  C   UNL A   1      32.230  26.864  22.804  1.00  0.00     0.080 C 
ATOM    105  C   UNL A   1      32.415  28.385  22.614  1.00  0.00    -0.018 C 
ATOM    106  C   UNL A   1      30.801  26.768  23.199  1.00  0.00     0.031 A 
ATOM    107  H   UNL A   1      32.472  26.288  21.936  1.00  0.00     0.047 H 
ATOM    108  C   UNL A   1      31.006  28.946  22.368  1.00  0.00     0.024 C 
ATOM    109  H   UNL A   1      33.048  28.582  21.773  1.00  0.00     0.030 H 
ATOM    110  H   UNL A   1      32.878  28.838  23.466  1.00  0.00     0.030 H 
ATOM    111  N   UNL A   1      30.132  27.928  22.928  1.00  0.00    -0.341 N 
ATOM    112  C   UNL A   1      29.930  25.877  23.759  1.00  0.00    -0.040 A 
ATOM    113  H   UNL A   1      30.822  29.074  21.323  1.00  0.00     0.050 H 
ATOM    114  H   UNL A   1      30.858  29.909  22.810  1.00  0.00     0.050 H 
ATOM    115  C   UNL A   1      28.814  27.831  23.260  1.00  0.00     0.090 A 
ATOM    116  C   UNL A   1      28.681  26.549  23.803  1.00  0.00    -0.033 A 
ATOM    117  H   UNL A   1      30.138  24.920  24.082  1.00  0.00     0.064 H 
ATOM    118  H   UNL A   1      27.805  26.152  24.180  1.00  0.00     0.065 H 
BRANCH 115 119
ATOM    119  C   UNL A   1      27.746  28.811  23.156  1.00  0.00     0.209 C 
ATOM    120  O   UNL A   1      26.586  28.571  23.490  1.00  0.00    -0.287 OA
BRANCH 119 121
ATOM    121  C   UNL A   1      28.008  30.176  22.654  1.00  0.00     0.024 A 
ATOM    122  C   UNL A   1      28.277  31.183  23.585  1.00  0.00    -0.051 A 
ATOM    123  C   UNL A   1      27.936  30.475  21.290  1.00  0.00    -0.051 A 
ATOM    124  C   UNL A   1      28.528  32.483  23.147  1.00  0.00    -0.062 A 
ATOM    125  H   UNL A   1      28.292  30.967  24.594  1.00  0.00     0.063 H 
ATOM    126  C   UNL A   1      28.200  31.774  20.854  1.00  0.00    -0.062 A 
ATOM    127  H   UNL A   1      27.688  29.739  20.609  1.00  0.00     0.063 H 
ATOM    128  C   UNL A   1      28.501  32.774  21.782  1.00  0.00    -0.062 A 
ATOM    129  H   UNL A   1      28.733  33.229  23.830  1.00  0.00     0.062 H 
ATOM    130  H   UNL A   1      28.175  31.996  19.847  1.00  0.00     0.062 H 
ATOM    131  H   UNL A   1      28.703  33.733  21.456  1.00  0.00     0.062 H 
ENDBRANCH 119 121
ENDBRANCH 115 119
ENDBRANCH 101 104
ENDBRANCH  97 100
ENDBRANCH  94  97
ENDBRANCH  91  94
ENDBRANCH   1  91
TORSDOF 15
ENDMDL
MODEL 5
REMARK VINA RESULT:     -12.5      0.511      7.355
REMARK SMILES O=C(NCCCCCCNC(=O)[C@@H]1CCn2c(C(=O)c3ccccc3)ccc21)c1ccc(-c2c3nc(c(-c4c(F)c(F)c(F)c(F)c4F)c4ccc([nH]4)c(-c4c(F)c(F)c(F)c(F)c4F)c4nc(c(-c5c(F)c(F)c(F)c(F)c5F)c5ccc2[nH]5)C=C4)C=C3)cc1
REMARK SMILES IDX 6 1 5 4 4 7 3 10 1 11 2 12 29 14 30 15 91 16 31 17 90 19
REMARK SMILES IDX 32 21 33 24 34 25 84 26 35 27 89 28 83 29 85 30 36 31 88 32
REMARK SMILES IDX 82 34 81 36 37 38 69 41 49 42 68 43 50 44 53 45 67 46 86 47
REMARK SMILES IDX 51 48 52 50 66 52 87 53 54 56 38 58 39 59 47 60 40 61 41 62
REMARK SMILES IDX 45 63 48 64 42 65 43 66 46 67 44 68 70 69 71 70 79 71 72 72
REMARK SMILES IDX 73 73 77 74 80 75 74 76 75 77 78 78 76 79 55 80 56 81 64 82
REMARK SMILES IDX 57 83 58 84 62 85 65 86 59 87 60 88 63 89 61 90 7 91 8 94
REMARK SMILES IDX 9 97 10 100 11 101 12 103 13 104 14 105 28 106 15 108 16 111
REMARK SMILES IDX 27 112 17 115 26 116 18 119 19 120 20 121 21 122 25 123
REMARK SMILES IDX 22 124 24 126 23 128
REMARK H PARENT 6 2 6 3 5 5 5 6 4 8 4 9 3 13 30 18 91 20 31 22 90 23 89 33
REMARK H PARENT 83 35 85 37 88 39 82 40 50 49 53 51 86 54 51 55 87 57 7 92
REMARK H PARENT 7 93 8 95 8 96 9 98 9 99 10 102 13 107 14 109 14 110 15 113
REMARK H PARENT 15 114 27 117 26 118 21 125 25 127 22 129 24 130 23 131
REMARK Flexibility Score: inf
ROOT
ATOM      1  C   UNL A   1      31.154  31.259  25.803  1.00  0.00    -0.052 C 
ATOM      2  H   UNL A   1      31.498  31.851  24.980  1.00  0.00     0.027 H 
ATOM      3  H   UNL A   1      30.106  31.051  25.764  1.00  0.00     0.027 H 
ENDROOT
BRANCH   1   4
ATOM      4  C   UNL A   1      31.387  32.054  27.088  1.00  0.00    -0.036 C 
ATOM      5  H   UNL A   1      30.579  32.745  27.206  1.00  0.00     0.028 H 
ATOM      6  H   UNL A   1      31.442  31.341  27.885  1.00  0.00     0.028 H 
BRANCH   4   7
ATOM      7  C   UNL A   1      32.692  32.835  27.109  1.00  0.00     0.018 C 
ATOM      8  H   UNL A   1      33.383  32.334  27.753  1.00  0.00     0.049 H 
ATOM      9  H   UNL A   1      33.063  32.885  26.106  1.00  0.00     0.049 H 
BRANCH   7  10
ATOM     10  N   UNL A   1      32.507  34.195  27.586  1.00  0.00    -0.352 N 
ATOM     11  O   UNL A   1      32.709  35.910  29.043  1.00  0.00    -0.269 OA
ATOM     12  C   UNL A   1      33.114  34.823  28.642  1.00  0.00     0.251 C 
ATOM     13  H   UNL A   1      31.858  34.738  27.083  1.00  0.00     0.163 HD
BRANCH  12  14
ATOM     14  C   UNL A   1      34.260  34.171  29.307  1.00  0.00     0.039 A 
ATOM     15  C   UNL A   1      34.046  33.277  30.361  1.00  0.00    -0.049 A 
ATOM     16  C   UNL A   1      35.556  34.447  28.866  1.00  0.00    -0.049 A 
ATOM     17  C   UNL A   1      35.130  32.752  31.051  1.00  0.00    -0.053 A 
ATOM     18  H   UNL A   1      33.085  33.010  30.625  1.00  0.00     0.063 H 
ATOM     19  C   UNL A   1      36.644  33.845  29.503  1.00  0.00    -0.053 A 
ATOM     20  H   UNL A   1      35.709  35.091  28.076  1.00  0.00     0.063 H 
ATOM     21  C   UNL A   1      36.438  33.002  30.608  1.00  0.00    -0.014 A 
ATOM     22  H   UNL A   1      34.973  32.175  31.893  1.00  0.00     0.063 H 
ATOM     23  H   UNL A   1      37.601  34.021  29.162  1.00  0.00     0.063 H 
BRANCH  21  24
ATOM     24  C   UNL A   1      37.569  32.281  31.239  1.00  0.00     0.031 A 
ATOM     25  C   UNL A   1      38.066  32.650  32.605  1.00  0.00     0.074 A 
ATOM     26  C   UNL A   1      38.152  31.285  30.544  1.00  0.00     0.049 A 
ATOM     27  N   UNL A   1      39.069  32.145  33.278  1.00  0.00    -0.248 NA
ATOM     28  C   UNL A   1      37.357  33.729  33.306  1.00  0.00    -0.034 C 
ATOM     29  C   UNL A   1      37.755  30.853  29.200  1.00  0.00    -0.036 A 
ATOM     30  N   UNL A   1      39.197  30.457  30.861  1.00  0.00    -0.354 N 
ATOM     31  C   UNL A   1      39.126  32.856  34.469  1.00  0.00     0.074 A 
ATOM     32  C   UNL A   1      38.067  33.841  34.422  1.00  0.00    -0.034 C 
ATOM     33  H   UNL A   1      36.524  34.261  33.008  1.00  0.00     0.065 H 
ATOM     34  C   UNL A   1      38.528  29.827  28.819  1.00  0.00    -0.036 A 
ATOM     35  H   UNL A   1      36.999  31.272  28.638  1.00  0.00     0.065 H 
ATOM     36  C   UNL A   1      39.523  29.578  29.856  1.00  0.00     0.049 A 
ATOM     37  H   UNL A   1      39.670  30.488  31.724  1.00  0.00     0.167 HD
ATOM     38  C   UNL A   1      39.987  32.693  35.503  1.00  0.00     0.037 A 
ATOM     39  H   UNL A   1      37.887  34.540  35.159  1.00  0.00     0.065 H 
ATOM     40  H   UNL A   1      38.435  29.300  27.937  1.00  0.00     0.065 H 
ATOM     41  C   UNL A   1      40.533  28.697  29.760  1.00  0.00     0.037 A 
ATOM     42  C   UNL A   1      41.029  31.697  35.538  1.00  0.00     0.049 A 
ATOM     43  C   UNL A   1      41.497  28.573  30.904  1.00  0.00     0.074 A 
ATOM     44  C   UNL A   1      41.908  31.407  36.567  1.00  0.00    -0.036 A 
ATOM     45  N   UNL A   1      41.343  30.841  34.492  1.00  0.00    -0.354 N 
ATOM     46  N   UNL A   1      41.498  29.203  32.053  1.00  0.00    -0.248 NA
ATOM     47  C   UNL A   1      42.601  27.620  30.740  1.00  0.00    -0.034 C 
ATOM     48  C   UNL A   1      42.797  30.425  36.120  1.00  0.00    -0.036 A 
ATOM     49  H   UNL A   1      41.907  31.841  37.503  1.00  0.00     0.065 H 
ATOM     50  C   UNL A   1      42.432  30.054  34.837  1.00  0.00     0.049 A 
ATOM     51  H   UNL A   1      40.863  30.797  33.633  1.00  0.00     0.167 HD
ATOM     52  C   UNL A   1      42.590  28.713  32.755  1.00  0.00     0.074 A 
ATOM     53  C   UNL A   1      43.212  27.714  31.912  1.00  0.00    -0.034 C 
ATOM     54  H   UNL A   1      42.838  27.032  29.925  1.00  0.00     0.065 H 
ATOM     55  H   UNL A   1      43.592  30.042  36.656  1.00  0.00     0.065 H 
ATOM     56  C   UNL A   1      43.040  29.063  33.985  1.00  0.00     0.037 A 
ATOM     57  H   UNL A   1      44.029  27.147  32.188  1.00  0.00     0.065 H 
BRANCH  38  58
ATOM     58  C   UNL A   1      39.869  33.623  36.676  1.00  0.00     0.064 A 
ATOM     59  C   UNL A   1      40.567  34.837  36.736  1.00  0.00     0.173 A 
ATOM     60  C   UNL A   1      38.981  33.327  37.724  1.00  0.00     0.173 A 
ATOM     61  F   UNL A   1      41.433  35.166  35.765  1.00  0.00    -0.203 F 
ATOM     62  C   UNL A   1      40.396  35.712  37.807  1.00  0.00     0.198 A 
ATOM     63  C   UNL A   1      38.790  34.217  38.778  1.00  0.00     0.198 A 
ATOM     64  F   UNL A   1      38.281  32.182  37.714  1.00  0.00    -0.203 F 
ATOM     65  F   UNL A   1      41.101  36.851  37.858  1.00  0.00    -0.200 F 
ATOM     66  C   UNL A   1      39.501  35.406  38.821  1.00  0.00     0.200 A 
ATOM     67  F   UNL A   1      37.913  33.925  39.748  1.00  0.00    -0.200 F 
ATOM     68  F   UNL A   1      39.325  36.256  39.841  1.00  0.00    -0.200 F 
ENDBRANCH  38  58
BRANCH  41  69
ATOM     69  C   UNL A   1      40.703  27.896  28.520  1.00  0.00     0.064 A 
ATOM     70  C   UNL A   1      40.104  26.637  28.382  1.00  0.00     0.173 A 
ATOM     71  C   UNL A   1      41.471  28.373  27.445  1.00  0.00     0.173 A 
ATOM     72  F   UNL A   1      39.374  26.130  29.386  1.00  0.00    -0.203 F 
ATOM     73  C   UNL A   1      40.289  25.874  27.230  1.00  0.00     0.198 A 
ATOM     74  C   UNL A   1      41.625  27.627  26.281  1.00  0.00     0.198 A 
ATOM     75  F   UNL A   1      42.059  29.576  27.521  1.00  0.00    -0.203 F 
ATOM     76  F   UNL A   1      39.751  24.651  27.148  1.00  0.00    -0.200 F 
ATOM     77  C   UNL A   1      41.043  26.373  26.179  1.00  0.00     0.200 A 
ATOM     78  F   UNL A   1      42.336  28.122  25.258  1.00  0.00    -0.200 F 
ATOM     79  F   UNL A   1      41.217  25.640  25.070  1.00  0.00    -0.200 F 
ENDBRANCH  41  69
BRANCH  56  80
ATOM     80  C   UNL A   1      44.250  28.342  34.502  1.00  0.00     0.064 A 
ATOM     81  C   UNL A   1      45.542  28.859  34.332  1.00  0.00     0.173 A 
ATOM     82  C   UNL A   1      44.111  27.142  35.216  1.00  0.00     0.173 A 
ATOM     83  F   UNL A   1      45.730  29.993  33.640  1.00  0.00    -0.203 F 
ATOM     84  C   UNL A   1      46.653  28.190  34.839  1.00  0.00     0.198 A 
ATOM     85  C   UNL A   1      45.219  26.494  35.750  1.00  0.00     0.198 A 
ATOM     86  F   UNL A   1      42.896  26.607  35.410  1.00  0.00    -0.203 F 
ATOM     87  F   UNL A   1      47.883  28.677  34.622  1.00  0.00    -0.200 F 
ATOM     88  C   UNL A   1      46.490  27.014  35.556  1.00  0.00     0.200 A 
ATOM     89  F   UNL A   1      45.059  25.366  36.455  1.00  0.00    -0.200 F 
ATOM     90  F   UNL A   1      47.559  26.378  36.055  1.00  0.00    -0.200 F 
ENDBRANCH  56  80
ENDBRANCH  21  24
ENDBRANCH  12  14
ENDBRANCH   7  10
ENDBRANCH   4   7
ENDBRANCH   1   4
BRANCH   1  91
ATOM     91  C   UNL A   1      31.867  29.904  25.747  1.00  0.00    -0.052 C 
ATOM     92  H   UNL A   1      32.913  30.085  25.606  1.00  0.00     0.027 H 
ATOM     93  H   UNL A   1      31.417  29.363  24.941  1.00  0.00     0.027 H 
BRANCH  91  94
ATOM     94  C   UNL A   1      31.699  29.031  26.996  1.00  0.00    -0.036 C 
ATOM     95  H   UNL A   1      30.661  28.793  27.102  1.00  0.00     0.028 H 
ATOM     96  H   UNL A   1      32.078  29.597  27.821  1.00  0.00     0.028 H 
BRANCH  94  97
ATOM     97  C   UNL A   1      32.490  27.726  26.958  1.00  0.00     0.017 C 
ATOM     98  H   UNL A   1      33.038  27.622  27.870  1.00  0.00     0.049 H 
ATOM     99  H   UNL A   1      33.157  27.754  26.122  1.00  0.00     0.049 H 
BRANCH  97 100
ATOM    100  N   UNL A   1      31.604  26.590  26.805  1.00  0.00    -0.356 N 
ATOM    101  C   UNL A   1      31.859  25.330  26.353  1.00  0.00     0.229 C 
ATOM    102  H   UNL A   1      30.669  26.754  27.068  1.00  0.00     0.163 HD
ATOM    103  O   UNL A   1      30.896  24.585  26.168  1.00  0.00    -0.274 OA
BRANCH 101 104
ATOM    104  C   UNL A   1      33.296  24.909  26.086  1.00  0.00     0.080 C 
ATOM    105  C   UNL A   1      33.597  24.869  24.572  1.00  0.00    -0.018 C 
ATOM    106  C   UNL A   1      33.543  23.502  26.492  1.00  0.00     0.031 A 
ATOM    107  H   UNL A   1      33.889  25.619  26.625  1.00  0.00     0.047 H 
ATOM    108  C   UNL A   1      34.498  23.642  24.361  1.00  0.00     0.024 C 
ATOM    109  H   UNL A   1      34.104  25.762  24.268  1.00  0.00     0.030 H 
ATOM    110  H   UNL A   1      32.701  24.807  23.990  1.00  0.00     0.030 H 
ATOM    111  N   UNL A   1      34.232  22.820  25.530  1.00  0.00    -0.341 N 
ATOM    112  C   UNL A   1      33.292  22.658  27.537  1.00  0.00    -0.040 A 
ATOM    113  H   UNL A   1      35.528  23.927  24.321  1.00  0.00     0.050 H 
ATOM    114  H   UNL A   1      34.300  23.133  23.441  1.00  0.00     0.050 H 
ATOM    115  C   UNL A   1      34.486  21.538  25.914  1.00  0.00     0.090 A 
ATOM    116  C   UNL A   1      33.881  21.420  27.170  1.00  0.00    -0.033 A 
ATOM    117  H   UNL A   1      32.783  22.875  28.407  1.00  0.00     0.064 H 
ATOM    118  H   UNL A   1      33.865  20.561  27.743  1.00  0.00     0.065 H 
BRANCH 115 119
ATOM    119  C   UNL A   1      35.173  20.466  25.212  1.00  0.00     0.209 C 
ATOM    120  O   UNL A   1      36.400  20.384  25.157  1.00  0.00    -0.287 OA
BRANCH 119 121
ATOM    121  C   UNL A   1      34.419  19.391  24.536  1.00  0.00     0.024 A 
ATOM    122  C   UNL A   1      33.151  19.690  24.027  1.00  0.00    -0.051 A 
ATOM    123  C   UNL A   1      34.926  18.091  24.451  1.00  0.00    -0.051 A 
ATOM    124  C   UNL A   1      32.412  18.698  23.384  1.00  0.00    -0.062 A 
ATOM    125  H   UNL A   1      32.764  20.641  24.126  1.00  0.00     0.063 H 
ATOM    126  C   UNL A   1      34.188  17.104  23.795  1.00  0.00    -0.062 A 
ATOM    127  H   UNL A   1      35.841  17.862  24.870  1.00  0.00     0.063 H 
ATOM    128  C   UNL A   1      32.935  17.411  23.259  1.00  0.00    -0.062 A 
ATOM    129  H   UNL A   1      31.478  18.916  23.002  1.00  0.00     0.062 H 
ATOM    130  H   UNL A   1      34.567  16.150  23.705  1.00  0.00     0.062 H 
ATOM    131  H   UNL A   1      32.394  16.681  22.767  1.00  0.00     0.062 H 
ENDBRANCH 119 121
ENDBRANCH 115 119
ENDBRANCH 101 104
ENDBRANCH  97 100
ENDBRANCH  94  97
ENDBRANCH  91  94
ENDBRANCH   1  91
TORSDOF 15
ENDMDL
MODEL 6
REMARK VINA RESULT:     -12.4      5.388     11.458
REMARK SMILES O=C(NCCCCCCNC(=O)[C@@H]1CCn2c(C(=O)c3ccccc3)ccc21)c1ccc(-c2c3nc(c(-c4c(F)c(F)c(F)c(F)c4F)c4ccc([nH]4)c(-c4c(F)c(F)c(F)c(F)c4F)c4nc(c(-c5c(F)c(F)c(F)c(F)c5F)c5ccc2[nH]5)C=C4)C=C3)cc1
REMARK SMILES IDX 6 1 5 4 4 7 3 10 1 11 2 12 29 14 30 15 91 16 31 17 90 19
REMARK SMILES IDX 32 21 33 24 34 25 84 26 35 27 89 28 83 29 85 30 36 31 88 32
REMARK SMILES IDX 82 34 81 36 37 38 69 41 49 42 68 43 50 44 53 45 67 46 86 47
REMARK SMILES IDX 51 48 52 50 66 52 87 53 54 56 38 58 39 59 47 60 40 61 41 62
REMARK SMILES IDX 45 63 48 64 42 65 43 66 46 67 44 68 70 69 71 70 79 71 72 72
REMARK SMILES IDX 73 73 77 74 80 75 74 76 75 77 78 78 76 79 55 80 56 81 64 82
REMARK SMILES IDX 57 83 58 84 62 85 65 86 59 87 60 88 63 89 61 90 7 91 8 94
REMARK SMILES IDX 9 97 10 100 11 101 12 103 13 104 14 105 28 106 15 108 16 111
REMARK SMILES IDX 27 112 17 115 26 116 18 119 19 120 20 121 21 122 25 123
REMARK SMILES IDX 22 124 24 126 23 128
REMARK H PARENT 6 2 6 3 5 5 5 6 4 8 4 9 3 13 30 18 91 20 31 22 90 23 89 33
REMARK H PARENT 83 35 85 37 88 39 82 40 50 49 53 51 86 54 51 55 87 57 7 92
REMARK H PARENT 7 93 8 95 8 96 9 98 9 99 10 102 13 107 14 109 14 110 15 113
REMARK H PARENT 15 114 27 117 26 118 21 125 25 127 22 129 24 130 23 131
REMARK Flexibility Score: inf
ROOT
ATOM      1  C   UNL A   1      36.741  20.548  24.958  1.00  0.00    -0.052 C 
ATOM      2  H   UNL A   1      36.409  20.689  25.965  1.00  0.00     0.027 H 
ATOM      3  H   UNL A   1      36.009  20.077  24.335  1.00  0.00     0.027 H 
ENDROOT
BRANCH   1   4
ATOM      4  C   UNL A   1      37.949  19.612  24.983  1.00  0.00    -0.036 C 
ATOM      5  H   UNL A   1      37.649  18.688  25.431  1.00  0.00     0.028 H 
ATOM      6  H   UNL A   1      38.271  19.496  23.969  1.00  0.00     0.028 H 
BRANCH   4   7
ATOM      7  C   UNL A   1      39.140  20.154  25.760  1.00  0.00     0.018 C 
ATOM      8  H   UNL A   1      39.531  21.005  25.242  1.00  0.00     0.049 H 
ATOM      9  H   UNL A   1      38.801  20.421  26.740  1.00  0.00     0.049 H 
BRANCH   7  10
ATOM     10  N   UNL A   1      40.195  19.166  25.904  1.00  0.00    -0.352 N 
ATOM     11  O   UNL A   1      42.331  18.434  25.997  1.00  0.00    -0.269 OA
ATOM     12  C   UNL A   1      41.538  19.366  26.092  1.00  0.00     0.251 C 
ATOM     13  H   UNL A   1      39.906  18.226  25.861  1.00  0.00     0.163 HD
BRANCH  12  14
ATOM     14  C   UNL A   1      42.028  20.725  26.398  1.00  0.00     0.039 A 
ATOM     15  C   UNL A   1      42.274  21.634  25.364  1.00  0.00    -0.049 A 
ATOM     16  C   UNL A   1      42.234  21.096  27.729  1.00  0.00    -0.049 A 
ATOM     17  C   UNL A   1      42.836  22.870  25.651  1.00  0.00    -0.053 A 
ATOM     18  H   UNL A   1      42.038  21.385  24.391  1.00  0.00     0.063 H 
ATOM     19  C   UNL A   1      42.713  22.374  28.022  1.00  0.00    -0.053 A 
ATOM     20  H   UNL A   1      42.033  20.430  28.490  1.00  0.00     0.063 H 
ATOM     21  C   UNL A   1      43.029  23.266  26.984  1.00  0.00    -0.014 A 
ATOM     22  H   UNL A   1      43.113  23.500  24.882  1.00  0.00     0.063 H 
ATOM     23  H   UNL A   1      42.837  22.664  29.004  1.00  0.00     0.063 H 
BRANCH  21  24
ATOM     24  C   UNL A   1      43.449  24.658  27.274  1.00  0.00     0.031 A 
ATOM     25  C   UNL A   1      42.487  25.666  27.828  1.00  0.00     0.074 A 
ATOM     26  C   UNL A   1      44.726  25.002  27.012  1.00  0.00     0.049 A 
ATOM     27  N   UNL A   1      42.686  26.931  28.097  1.00  0.00    -0.248 NA
ATOM     28  C   UNL A   1      41.121  25.201  28.111  1.00  0.00    -0.034 C 
ATOM     29  C   UNL A   1      45.742  24.102  26.459  1.00  0.00    -0.036 A 
ATOM     30  N   UNL A   1      45.389  26.191  27.172  1.00  0.00    -0.354 N 
ATOM     31  C   UNL A   1      41.472  27.420  28.558  1.00  0.00     0.074 A 
ATOM     32  C   UNL A   1      40.533  26.319  28.518  1.00  0.00    -0.034 C 
ATOM     33  H   UNL A   1      40.724  24.253  28.017  1.00  0.00     0.065 H 
ATOM     34  C   UNL A   1      46.903  24.761  26.348  1.00  0.00    -0.036 A 
ATOM     35  H   UNL A   1      45.588  23.116  26.196  1.00  0.00     0.065 H 
ATOM     36  C   UNL A   1      46.696  26.147  26.749  1.00  0.00     0.049 A 
ATOM     37  H   UNL A   1      44.972  26.997  27.552  1.00  0.00     0.167 HD
ATOM     38  C   UNL A   1      41.178  28.674  28.977  1.00  0.00     0.037 A 
ATOM     39  H   UNL A   1      39.535  26.394  28.772  1.00  0.00     0.065 H 
ATOM     40  H   UNL A   1      47.797  24.356  26.030  1.00  0.00     0.065 H 
ATOM     41  C   UNL A   1      47.616  27.123  26.657  1.00  0.00     0.037 A 
ATOM     42  C   UNL A   1      42.130  29.757  29.023  1.00  0.00     0.049 A 
ATOM     43  C   UNL A   1      47.244  28.513  27.086  1.00  0.00     0.074 A 
ATOM     44  C   UNL A   1      41.947  31.044  29.495  1.00  0.00    -0.036 A 
ATOM     45  N   UNL A   1      43.437  29.681  28.565  1.00  0.00    -0.354 N 
ATOM     46  N   UNL A   1      46.112  28.946  27.585  1.00  0.00    -0.248 NA
ATOM     47  C   UNL A   1      48.272  29.550  26.937  1.00  0.00    -0.034 C 
ATOM     48  C   UNL A   1      43.119  31.768  29.260  1.00  0.00    -0.036 A 
ATOM     49  H   UNL A   1      41.091  31.408  29.943  1.00  0.00     0.065 H 
ATOM     50  C   UNL A   1      44.058  30.915  28.703  1.00  0.00     0.049 A 
ATOM     51  H   UNL A   1      43.863  28.872  28.198  1.00  0.00     0.167 HD
ATOM     52  C   UNL A   1      46.295  30.300  27.825  1.00  0.00     0.074 A 
ATOM     53  C   UNL A   1      47.657  30.610  27.441  1.00  0.00    -0.034 C 
ATOM     54  H   UNL A   1      49.223  29.473  26.544  1.00  0.00     0.065 H 
ATOM     55  H   UNL A   1      43.262  32.769  29.466  1.00  0.00     0.065 H 
ATOM     56  C   UNL A   1      45.415  31.206  28.315  1.00  0.00     0.037 A 
ATOM     57  H   UNL A   1      48.093  31.539  27.545  1.00  0.00     0.065 H 
BRANCH  38  58
ATOM     58  C   UNL A   1      39.765  28.968  29.396  1.00  0.00     0.064 A 
ATOM     59  C   UNL A   1      38.789  29.384  28.479  1.00  0.00     0.173 A 
ATOM     60  C   UNL A   1      39.365  28.755  30.726  1.00  0.00     0.173 A 
ATOM     61  F   UNL A   1      39.119  29.610  27.199  1.00  0.00    -0.203 F 
ATOM     62  C   UNL A   1      37.471  29.593  28.880  1.00  0.00     0.198 A 
ATOM     63  C   UNL A   1      38.041  28.935  31.116  1.00  0.00     0.198 A 
ATOM     64  F   UNL A   1      40.257  28.348  31.643  1.00  0.00    -0.203 F 
ATOM     65  F   UNL A   1      36.563  30.024  27.993  1.00  0.00    -0.200 F 
ATOM     66  C   UNL A   1      37.096  29.359  30.194  1.00  0.00     0.200 A 
ATOM     67  F   UNL A   1      37.679  28.693  32.384  1.00  0.00    -0.200 F 
ATOM     68  F   UNL A   1      35.825  29.544  30.574  1.00  0.00    -0.200 F 
ENDBRANCH  38  58
BRANCH  41  69
ATOM     69  C   UNL A   1      48.961  26.824  26.099  1.00  0.00     0.064 A 
ATOM     70  C   UNL A   1      49.243  27.019  24.741  1.00  0.00     0.173 A 
ATOM     71  C   UNL A   1      49.993  26.333  26.915  1.00  0.00     0.173 A 
ATOM     72  F   UNL A   1      48.286  27.471  23.917  1.00  0.00    -0.203 F 
ATOM     73  C   UNL A   1      50.496  26.709  24.215  1.00  0.00     0.198 A 
ATOM     74  C   UNL A   1      51.255  26.059  26.396  1.00  0.00     0.198 A 
ATOM     75  F   UNL A   1      49.779  26.136  28.225  1.00  0.00    -0.203 F 
ATOM     76  F   UNL A   1      50.721  26.853  22.903  1.00  0.00    -0.200 F 
ATOM     77  C   UNL A   1      51.501  26.235  25.044  1.00  0.00     0.200 A 
ATOM     78  F   UNL A   1      52.230  25.622  27.205  1.00  0.00    -0.200 F 
ATOM     79  F   UNL A   1      52.707  25.942  24.537  1.00  0.00    -0.200 F 
ENDBRANCH  41  69
BRANCH  56  80
ATOM     80  C   UNL A   1      45.904  32.615  28.485  1.00  0.00     0.064 A 
ATOM     81  C   UNL A   1      46.552  33.031  29.657  1.00  0.00     0.173 A 
ATOM     82  C   UNL A   1      45.762  33.546  27.446  1.00  0.00     0.173 A 
ATOM     83  F   UNL A   1      46.695  32.183  30.687  1.00  0.00    -0.203 F 
ATOM     84  C   UNL A   1      47.021  34.335  29.790  1.00  0.00     0.198 A 
ATOM     85  C   UNL A   1      46.261  34.839  27.569  1.00  0.00     0.198 A 
ATOM     86  F   UNL A   1      45.152  33.197  26.303  1.00  0.00    -0.203 F 
ATOM     87  F   UNL A   1      47.594  34.725  30.937  1.00  0.00    -0.200 F 
ATOM     88  C   UNL A   1      46.885  35.235  28.743  1.00  0.00     0.200 A 
ATOM     89  F   UNL A   1      46.142  35.702  26.551  1.00  0.00    -0.200 F 
ATOM     90  F   UNL A   1      47.349  36.486  28.868  1.00  0.00    -0.200 F 
ENDBRANCH  56  80
ENDBRANCH  21  24
ENDBRANCH  12  14
ENDBRANCH   7  10
ENDBRANCH   4   7
ENDBRANCH   1   4
BRANCH   1  91
ATOM     91  C   UNL A   1      37.008  21.926  24.345  1.00  0.00    -0.052 C 
ATOM     92  H   UNL A   1      37.480  21.782  23.396  1.00  0.00     0.027 H 
ATOM     93  H   UNL A   1      37.619  22.452  25.048  1.00  0.00     0.027 H 
BRANCH  91  94
ATOM     94  C   UNL A   1      35.761  22.791  24.129  1.00  0.00    -0.036 C 
ATOM     95  H   UNL A   1      35.617  22.917  23.076  1.00  0.00     0.028 H 
ATOM     96  H   UNL A   1      35.937  23.717  24.635  1.00  0.00     0.028 H 
BRANCH  94  97
ATOM     97  C   UNL A   1      34.481  22.203  24.721  1.00  0.00     0.017 C 
ATOM     98  H   UNL A   1      34.290  22.663  25.667  1.00  0.00     0.049 H 
ATOM     99  H   UNL A   1      34.612  21.148  24.837  1.00  0.00     0.049 H 
BRANCH  97 100
ATOM    100  N   UNL A   1      33.352  22.436  23.844  1.00  0.00    -0.356 N 
ATOM    101  C   UNL A   1      32.379  23.387  23.896  1.00  0.00     0.229 C 
ATOM    102  H   UNL A   1      33.276  21.806  23.091  1.00  0.00     0.163 HD
ATOM    103  O   UNL A   1      31.431  23.277  23.116  1.00  0.00    -0.274 OA
BRANCH 101 104
ATOM    104  C   UNL A   1      32.492  24.516  24.909  1.00  0.00     0.080 C 
ATOM    105  C   UNL A   1      31.183  24.683  25.712  1.00  0.00    -0.018 C 
ATOM    106  C   UNL A   1      32.624  25.839  24.247  1.00  0.00     0.031 A 
ATOM    107  H   UNL A   1      33.337  24.254  25.511  1.00  0.00     0.047 H 
ATOM    108  C   UNL A   1      30.995  26.198  25.888  1.00  0.00     0.024 C 
ATOM    109  H   UNL A   1      31.266  24.204  26.666  1.00  0.00     0.030 H 
ATOM    110  H   UNL A   1      30.350  24.236  25.211  1.00  0.00     0.030 H 
ATOM    111  N   UNL A   1      31.801  26.767  24.819  1.00  0.00    -0.341 N 
ATOM    112  C   UNL A   1      33.315  26.432  23.228  1.00  0.00    -0.040 A 
ATOM    113  H   UNL A   1      31.349  26.519  26.844  1.00  0.00     0.050 H 
ATOM    114  H   UNL A   1      29.970  26.499  25.840  1.00  0.00     0.050 H 
ATOM    115  C   UNL A   1      31.944  27.988  24.234  1.00  0.00     0.090 A 
ATOM    116  C   UNL A   1      32.882  27.784  23.217  1.00  0.00    -0.033 A 
ATOM    117  H   UNL A   1      34.005  25.990  22.601  1.00  0.00     0.064 H 
ATOM    118  H   UNL A   1      33.210  28.507  22.556  1.00  0.00     0.065 H 
BRANCH 115 119
ATOM    119  C   UNL A   1      31.271  29.247  24.510  1.00  0.00     0.209 C 
ATOM    120  O   UNL A   1      31.710  30.077  25.307  1.00  0.00    -0.287 OA
BRANCH 119 121
ATOM    121  C   UNL A   1      30.016  29.609  23.821  1.00  0.00     0.024 A 
ATOM    122  C   UNL A   1      29.559  30.926  23.925  1.00  0.00    -0.051 A 
ATOM    123  C   UNL A   1      29.267  28.654  23.125  1.00  0.00    -0.051 A 
ATOM    124  C   UNL A   1      28.378  31.302  23.287  1.00  0.00    -0.062 A 
ATOM    125  H   UNL A   1      30.094  31.619  24.471  1.00  0.00     0.063 H 
ATOM    126  C   UNL A   1      28.092  29.038  22.478  1.00  0.00    -0.062 A 
ATOM    127  H   UNL A   1      29.582  27.672  23.091  1.00  0.00     0.063 H 
ATOM    128  C   UNL A   1      27.652  30.361  22.556  1.00  0.00    -0.062 A 
ATOM    129  H   UNL A   1      28.040  32.275  23.356  1.00  0.00     0.062 H 
ATOM    130  H   UNL A   1      27.549  28.344  21.941  1.00  0.00     0.062 H 
ATOM    131  H   UNL A   1      26.786  30.643  22.069  1.00  0.00     0.062 H 
ENDBRANCH 119 121
ENDBRANCH 115 119
ENDBRANCH 101 104
ENDBRANCH  97 100
ENDBRANCH  94  97
ENDBRANCH  91  94
ENDBRANCH   1  91
TORSDOF 15
ENDMDL
MODEL 7
REMARK VINA RESULT:     -12.3      1.371      2.061
REMARK SMILES O=C(NCCCCCCNC(=O)[C@@H]1CCn2c(C(=O)c3ccccc3)ccc21)c1ccc(-c2c3nc(c(-c4c(F)c(F)c(F)c(F)c4F)c4ccc([nH]4)c(-c4c(F)c(F)c(F)c(F)c4F)c4nc(c(-c5c(F)c(F)c(F)c(F)c5F)c5ccc2[nH]5)C=C4)C=C3)cc1
REMARK SMILES IDX 6 1 5 4 4 7 3 10 1 11 2 12 29 14 30 15 91 16 31 17 90 19
REMARK SMILES IDX 32 21 33 24 34 25 84 26 35 27 89 28 83 29 85 30 36 31 88 32
REMARK SMILES IDX 82 34 81 36 37 38 69 41 49 42 68 43 50 44 53 45 67 46 86 47
REMARK SMILES IDX 51 48 52 50 66 52 87 53 54 56 38 58 39 59 47 60 40 61 41 62
REMARK SMILES IDX 45 63 48 64 42 65 43 66 46 67 44 68 70 69 71 70 79 71 72 72
REMARK SMILES IDX 73 73 77 74 80 75 74 76 75 77 78 78 76 79 55 80 56 81 64 82
REMARK SMILES IDX 57 83 58 84 62 85 65 86 59 87 60 88 63 89 61 90 7 91 8 94
REMARK SMILES IDX 9 97 10 100 11 101 12 103 13 104 14 105 28 106 15 108 16 111
REMARK SMILES IDX 27 112 17 115 26 116 18 119 19 120 20 121 21 122 25 123
REMARK SMILES IDX 22 124 24 126 23 128
REMARK H PARENT 6 2 6 3 5 5 5 6 4 8 4 9 3 13 30 18 91 20 31 22 90 23 89 33
REMARK H PARENT 83 35 85 37 88 39 82 40 50 49 53 51 86 54 51 55 87 57 7 92
REMARK H PARENT 7 93 8 95 8 96 9 98 9 99 10 102 13 107 14 109 14 110 15 113
REMARK H PARENT 15 114 27 117 26 118 21 125 25 127 22 129 24 130 23 131
REMARK Flexibility Score: inf
ROOT
ATOM      1  C   UNL A   1      31.760  30.388  26.103  1.00  0.00    -0.052 C 
ATOM      2  H   UNL A   1      31.414  29.767  26.903  1.00  0.00     0.027 H 
ATOM      3  H   UNL A   1      32.806  30.277  25.906  1.00  0.00     0.027 H 
ENDROOT
BRANCH   1   4
ATOM      4  C   UNL A   1      31.553  31.846  26.512  1.00  0.00    -0.036 C 
ATOM      5  H   UNL A   1      31.277  32.403  25.641  1.00  0.00     0.028 H 
ATOM      6  H   UNL A   1      30.791  31.850  27.264  1.00  0.00     0.028 H 
BRANCH   4   7
ATOM      7  C   UNL A   1      32.780  32.500  27.128  1.00  0.00     0.018 C 
ATOM      8  H   UNL A   1      33.086  31.927  27.979  1.00  0.00     0.049 H 
ATOM      9  H   UNL A   1      33.549  32.528  26.384  1.00  0.00     0.049 H 
BRANCH   7  10
ATOM     10  N   UNL A   1      32.518  33.865  27.552  1.00  0.00    -0.352 N 
ATOM     11  O   UNL A   1      32.606  35.640  28.948  1.00  0.00    -0.269 OA
ATOM     12  C   UNL A   1      33.073  34.561  28.594  1.00  0.00     0.251 C 
ATOM     13  H   UNL A   1      31.851  34.356  27.019  1.00  0.00     0.163 HD
BRANCH  12  14
ATOM     14  C   UNL A   1      34.239  33.993  29.301  1.00  0.00     0.039 A 
ATOM     15  C   UNL A   1      34.051  33.097  30.358  1.00  0.00    -0.049 A 
ATOM     16  C   UNL A   1      35.527  34.351  28.897  1.00  0.00    -0.049 A 
ATOM     17  C   UNL A   1      35.146  32.652  31.087  1.00  0.00    -0.053 A 
ATOM     18  H   UNL A   1      33.102  32.769  30.596  1.00  0.00     0.063 H 
ATOM     19  C   UNL A   1      36.631  33.829  29.573  1.00  0.00    -0.053 A 
ATOM     20  H   UNL A   1      35.661  34.996  28.104  1.00  0.00     0.063 H 
ATOM     21  C   UNL A   1      36.448  32.985  30.681  1.00  0.00    -0.014 A 
ATOM     22  H   UNL A   1      35.002  32.074  31.930  1.00  0.00     0.063 H 
ATOM     23  H   UNL A   1      37.585  34.065  29.259  1.00  0.00     0.063 H 
BRANCH  21  24
ATOM     24  C   UNL A   1      37.604  32.346  31.354  1.00  0.00     0.031 A 
ATOM     25  C   UNL A   1      38.332  31.193  30.731  1.00  0.00     0.074 A 
ATOM     26  C   UNL A   1      37.980  32.823  32.557  1.00  0.00     0.049 A 
ATOM     27  N   UNL A   1      39.333  30.498  31.208  1.00  0.00    -0.248 NA
ATOM     28  C   UNL A   1      37.875  30.752  29.405  1.00  0.00    -0.034 C 
ATOM     29  C   UNL A   1      37.331  33.934  33.261  1.00  0.00    -0.036 A 
ATOM     30  N   UNL A   1      38.989  32.442  33.402  1.00  0.00    -0.354 N 
ATOM     31  C   UNL A   1      39.613  29.527  30.257  1.00  0.00     0.074 A 
ATOM     32  C   UNL A   1      38.665  29.710  29.179  1.00  0.00    -0.034 C 
ATOM     33  H   UNL A   1      37.134  31.149  28.806  1.00  0.00     0.065 H 
ATOM     34  C   UNL A   1      37.971  34.160  34.415  1.00  0.00    -0.036 A 
ATOM     35  H   UNL A   1      36.511  34.459  32.920  1.00  0.00     0.065 H 
ATOM     36  C   UNL A   1      39.025  33.165  34.570  1.00  0.00     0.049 A 
ATOM     37  H   UNL A   1      39.626  31.721  33.194  1.00  0.00     0.167 HD
ATOM     38  C   UNL A   1      40.578  28.576  30.288  1.00  0.00     0.037 A 
ATOM     39  H   UNL A   1      38.610  29.107  28.342  1.00  0.00     0.065 H 
ATOM     40  H   UNL A   1      37.755  34.914  35.085  1.00  0.00     0.065 H 
ATOM     41  C   UNL A   1      39.795  33.019  35.663  1.00  0.00     0.037 A 
ATOM     42  C   UNL A   1      41.523  28.418  31.365  1.00  0.00     0.049 A 
ATOM     43  C   UNL A   1      40.823  31.926  35.684  1.00  0.00     0.074 A 
ATOM     44  C   UNL A   1      42.580  27.529  31.459  1.00  0.00    -0.036 A 
ATOM     45  N   UNL A   1      41.515  29.153  32.542  1.00  0.00    -0.354 N 
ATOM     46  N   UNL A   1      41.124  31.058  34.749  1.00  0.00    -0.248 NA
ATOM     47  C   UNL A   1      41.617  31.787  36.911  1.00  0.00    -0.034 C 
ATOM     48  C   UNL A   1      43.167  27.678  32.718  1.00  0.00    -0.036 A 
ATOM     49  H   UNL A   1      42.882  26.869  30.725  1.00  0.00     0.065 H 
ATOM     50  C   UNL A   1      42.521  28.706  33.386  1.00  0.00     0.049 A 
ATOM     51  H   UNL A   1      40.888  29.885  32.747  1.00  0.00     0.167 HD
ATOM     52  C   UNL A   1      42.151  30.281  35.266  1.00  0.00     0.074 A 
ATOM     53  C   UNL A   1      42.439  30.799  36.588  1.00  0.00    -0.034 C 
ATOM     54  H   UNL A   1      41.552  32.319  37.793  1.00  0.00     0.065 H 
ATOM     55  H   UNL A   1      43.950  27.117  33.089  1.00  0.00     0.065 H 
ATOM     56  C   UNL A   1      42.794  29.232  34.699  1.00  0.00     0.037 A 
ATOM     57  H   UNL A   1      43.188  30.442  37.201  1.00  0.00     0.065 H 
BRANCH  38  58
ATOM     58  C   UNL A   1      40.654  27.607  29.143  1.00  0.00     0.064 A 
ATOM     59  C   UNL A   1      39.786  26.512  29.037  1.00  0.00     0.173 A 
ATOM     60  C   UNL A   1      41.564  27.825  28.094  1.00  0.00     0.173 A 
ATOM     61  F   UNL A   1      38.902  26.254  30.013  1.00  0.00    -0.203 F 
ATOM     62  C   UNL A   1      39.836  25.661  27.935  1.00  0.00     0.198 A 
ATOM     63  C   UNL A   1      41.591  26.990  26.981  1.00  0.00     0.198 A 
ATOM     64  F   UNL A   1      42.413  28.863  28.140  1.00  0.00    -0.203 F 
ATOM     65  F   UNL A   1      39.018  24.600  27.872  1.00  0.00    -0.200 F 
ATOM     66  C   UNL A   1      40.730  25.905  26.904  1.00  0.00     0.200 A 
ATOM     67  F   UNL A   1      42.446  27.238  25.979  1.00  0.00    -0.200 F 
ATOM     68  F   UNL A   1      40.765  25.096  25.837  1.00  0.00    -0.200 F 
ENDBRANCH  38  58
BRANCH  41  69
ATOM     69  C   UNL A   1      39.591  33.907  36.837  1.00  0.00     0.064 A 
ATOM     70  C   UNL A   1      38.796  33.507  37.920  1.00  0.00     0.173 A 
ATOM     71  C   UNL A   1      40.185  35.178  36.900  1.00  0.00     0.173 A 
ATOM     72  F   UNL A   1      38.193  32.309  37.900  1.00  0.00    -0.203 F 
ATOM     73  C   UNL A   1      38.581  34.354  39.006  1.00  0.00     0.198 A 
ATOM     74  C   UNL A   1      40.000  36.007  38.002  1.00  0.00     0.198 A 
ATOM     75  F   UNL A   1      40.963  35.607  35.894  1.00  0.00    -0.203 F 
ATOM     76  F   UNL A   1      37.773  33.968  40.001  1.00  0.00    -0.200 F 
ATOM     77  C   UNL A   1      39.189  35.599  39.049  1.00  0.00     0.200 A 
ATOM     78  F   UNL A   1      40.607  37.201  38.049  1.00  0.00    -0.200 F 
ATOM     79  F   UNL A   1      38.985  36.410  40.096  1.00  0.00    -0.200 F 
ENDBRANCH  41  69
BRANCH  56  80
ATOM     80  C   UNL A   1      43.889  28.587  35.497  1.00  0.00     0.064 A 
ATOM     81  C   UNL A   1      43.637  27.505  36.352  1.00  0.00     0.173 A 
ATOM     82  C   UNL A   1      45.214  29.030  35.372  1.00  0.00     0.173 A 
ATOM     83  F   UNL A   1      42.384  27.056  36.522  1.00  0.00    -0.203 F 
ATOM     84  C   UNL A   1      44.668  26.903  37.067  1.00  0.00     0.198 A 
ATOM     85  C   UNL A   1      46.247  28.405  36.062  1.00  0.00     0.198 A 
ATOM     86  F   UNL A   1      45.510  30.061  34.564  1.00  0.00    -0.203 F 
ATOM     87  F   UNL A   1      44.397  25.900  37.915  1.00  0.00    -0.200 F 
ATOM     88  C   UNL A   1      45.974  27.346  36.914  1.00  0.00     0.200 A 
ATOM     89  F   UNL A   1      47.510  28.825  35.901  1.00  0.00    -0.200 F 
ATOM     90  F   UNL A   1      46.967  26.757  37.594  1.00  0.00    -0.200 F 
ENDBRANCH  56  80
ENDBRANCH  21  24
ENDBRANCH  12  14
ENDBRANCH   7  10
ENDBRANCH   4   7
ENDBRANCH   1   4
BRANCH   1  91
ATOM     91  C   UNL A   1      31.031  29.969  24.823  1.00  0.00    -0.052 C 
ATOM     92  H   UNL A   1      30.579  30.841  24.398  1.00  0.00     0.027 H 
ATOM     93  H   UNL A   1      30.323  29.222  25.114  1.00  0.00     0.027 H 
BRANCH  91  94
ATOM     94  C   UNL A   1      31.920  29.324  23.753  1.00  0.00    -0.036 C 
ATOM     95  H   UNL A   1      32.677  28.750  24.247  1.00  0.00     0.028 H 
ATOM     96  H   UNL A   1      32.323  30.121  23.165  1.00  0.00     0.028 H 
BRANCH  94  97
ATOM     97  C   UNL A   1      31.172  28.403  22.791  1.00  0.00     0.017 C 
ATOM     98  H   UNL A   1      30.572  28.996  22.134  1.00  0.00     0.049 H 
ATOM     99  H   UNL A   1      30.557  27.738  23.362  1.00  0.00     0.049 H 
BRANCH  97 100
ATOM    100  N   UNL A   1      32.099  27.615  22.005  1.00  0.00    -0.356 N 
ATOM    101  C   UNL A   1      32.802  26.495  22.335  1.00  0.00     0.229 C 
ATOM    102  H   UNL A   1      32.245  27.940  21.087  1.00  0.00     0.163 HD
ATOM    103  O   UNL A   1      33.651  26.099  21.536  1.00  0.00    -0.274 OA
BRANCH 101 104
ATOM    104  C   UNL A   1      32.524  25.803  23.661  1.00  0.00     0.080 C 
ATOM    105  C   UNL A   1      33.575  26.187  24.726  1.00  0.00    -0.018 C 
ATOM    106  C   UNL A   1      32.701  24.332  23.562  1.00  0.00     0.031 A 
ATOM    107  H   UNL A   1      31.527  26.097  23.914  1.00  0.00     0.047 H 
ATOM    108  C   UNL A   1      33.849  24.900  25.520  1.00  0.00     0.024 C 
ATOM    109  H   UNL A   1      33.192  26.950  25.371  1.00  0.00     0.030 H 
ATOM    110  H   UNL A   1      34.468  26.575  24.280  1.00  0.00     0.030 H 
ATOM    111  N   UNL A   1      33.420  23.845  24.616  1.00  0.00    -0.341 N 
ATOM    112  C   UNL A   1      32.370  23.294  22.737  1.00  0.00    -0.040 A 
ATOM    113  H   UNL A   1      33.281  24.881  26.425  1.00  0.00     0.050 H 
ATOM    114  H   UNL A   1      34.872  24.803  25.816  1.00  0.00     0.050 H 
ATOM    115  C   UNL A   1      33.556  22.492  24.543  1.00  0.00     0.090 A 
ATOM    116  C   UNL A   1      32.915  22.136  23.352  1.00  0.00    -0.033 A 
ATOM    117  H   UNL A   1      31.839  23.343  21.854  1.00  0.00     0.064 H 
ATOM    118  H   UNL A   1      32.848  21.177  22.977  1.00  0.00     0.065 H 
BRANCH 115 119
ATOM    119  C   UNL A   1      34.244  21.568  25.431  1.00  0.00     0.209 C 
ATOM    120  O   UNL A   1      33.649  20.840  26.226  1.00  0.00    -0.287 OA
BRANCH 119 121
ATOM    121  C   UNL A   1      35.715  21.438  25.407  1.00  0.00     0.024 A 
ATOM    122  C   UNL A   1      36.484  22.555  25.749  1.00  0.00    -0.051 A 
ATOM    123  C   UNL A   1      36.334  20.252  25.001  1.00  0.00    -0.051 A 
ATOM    124  C   UNL A   1      37.875  22.468  25.736  1.00  0.00    -0.062 A 
ATOM    125  H   UNL A   1      36.024  23.441  26.011  1.00  0.00     0.063 H 
ATOM    126  C   UNL A   1      37.726  20.165  25.002  1.00  0.00    -0.062 A 
ATOM    127  H   UNL A   1      35.763  19.445  24.702  1.00  0.00     0.063 H 
ATOM    128  C   UNL A   1      38.494  21.271  25.374  1.00  0.00    -0.062 A 
ATOM    129  H   UNL A   1      38.447  23.288  25.993  1.00  0.00     0.062 H 
ATOM    130  H   UNL A   1      38.189  19.285  24.729  1.00  0.00     0.062 H 
ATOM    131  H   UNL A   1      39.524  21.202  25.381  1.00  0.00     0.062 H 
ENDBRANCH 119 121
ENDBRANCH 115 119
ENDBRANCH 101 104
ENDBRANCH  97 100
ENDBRANCH  94  97
ENDBRANCH  91  94
ENDBRANCH   1  91
TORSDOF 15
ENDMDL
MODEL 8
REMARK VINA RESULT:     -12.3      5.649     10.833
REMARK SMILES O=C(NCCCCCCNC(=O)[C@@H]1CCn2c(C(=O)c3ccccc3)ccc21)c1ccc(-c2c3nc(c(-c4c(F)c(F)c(F)c(F)c4F)c4ccc([nH]4)c(-c4c(F)c(F)c(F)c(F)c4F)c4nc(c(-c5c(F)c(F)c(F)c(F)c5F)c5ccc2[nH]5)C=C4)C=C3)cc1
REMARK SMILES IDX 6 1 5 4 4 7 3 10 1 11 2 12 29 14 30 15 91 16 31 17 90 19
REMARK SMILES IDX 32 21 33 24 34 25 84 26 35 27 89 28 83 29 85 30 36 31 88 32
REMARK SMILES IDX 82 34 81 36 37 38 69 41 49 42 68 43 50 44 53 45 67 46 86 47
REMARK SMILES IDX 51 48 52 50 66 52 87 53 54 56 38 58 39 59 47 60 40 61 41 62
REMARK SMILES IDX 45 63 48 64 42 65 43 66 46 67 44 68 70 69 71 70 79 71 72 72
REMARK SMILES IDX 73 73 77 74 80 75 74 76 75 77 78 78 76 79 55 80 56 81 64 82
REMARK SMILES IDX 57 83 58 84 62 85 65 86 59 87 60 88 63 89 61 90 7 91 8 94
REMARK SMILES IDX 9 97 10 100 11 101 12 103 13 104 14 105 28 106 15 108 16 111
REMARK SMILES IDX 27 112 17 115 26 116 18 119 19 120 20 121 21 122 25 123
REMARK SMILES IDX 22 124 24 126 23 128
REMARK H PARENT 6 2 6 3 5 5 5 6 4 8 4 9 3 13 30 18 91 20 31 22 90 23 89 33
REMARK H PARENT 83 35 85 37 88 39 82 40 50 49 53 51 86 54 51 55 87 57 7 92
REMARK H PARENT 7 93 8 95 8 96 9 98 9 99 10 102 13 107 14 109 14 110 15 113
REMARK H PARENT 15 114 27 117 26 118 21 125 25 127 22 129 24 130 23 131
REMARK Flexibility Score: inf
ROOT
ATOM      1  C   UNL A   1      36.862  20.280  25.000  1.00  0.00    -0.052 C 
ATOM      2  H   UNL A   1      36.233  19.983  25.813  1.00  0.00     0.027 H 
ATOM      3  H   UNL A   1      36.397  20.165  24.043  1.00  0.00     0.027 H 
ENDROOT
BRANCH   1   4
ATOM      4  C   UNL A   1      38.090  19.369  24.993  1.00  0.00    -0.036 C 
ATOM      5  H   UNL A   1      37.816  18.433  25.433  1.00  0.00     0.028 H 
ATOM      6  H   UNL A   1      38.397  19.273  23.972  1.00  0.00     0.028 H 
BRANCH   4   7
ATOM      7  C   UNL A   1      39.281  19.926  25.758  1.00  0.00     0.018 C 
ATOM      8  H   UNL A   1      39.646  20.792  25.246  1.00  0.00     0.049 H 
ATOM      9  H   UNL A   1      38.954  20.170  26.747  1.00  0.00     0.049 H 
BRANCH   7  10
ATOM     10  N   UNL A   1      40.359  18.958  25.869  1.00  0.00    -0.352 N 
ATOM     11  O   UNL A   1      42.512  18.271  25.915  1.00  0.00    -0.269 OA
ATOM     12  C   UNL A   1      41.701  19.185  26.037  1.00  0.00     0.251 C 
ATOM     13  H   UNL A   1      40.091  18.013  25.817  1.00  0.00     0.163 HD
BRANCH  12  14
ATOM     14  C   UNL A   1      42.168  20.549  26.355  1.00  0.00     0.039 A 
ATOM     15  C   UNL A   1      42.490  21.440  25.326  1.00  0.00    -0.049 A 
ATOM     16  C   UNL A   1      42.273  20.944  27.690  1.00  0.00    -0.049 A 
ATOM     17  C   UNL A   1      43.030  22.682  25.632  1.00  0.00    -0.053 A 
ATOM     18  H   UNL A   1      42.327  21.174  24.342  1.00  0.00     0.063 H 
ATOM     19  C   UNL A   1      42.730  22.228  27.996  1.00  0.00    -0.053 A 
ATOM     20  H   UNL A   1      42.016  20.291  28.446  1.00  0.00     0.063 H 
ATOM     21  C   UNL A   1      43.122  23.102  26.968  1.00  0.00    -0.014 A 
ATOM     22  H   UNL A   1      43.363  23.299  24.874  1.00  0.00     0.063 H 
ATOM     23  H   UNL A   1      42.780  22.535  28.979  1.00  0.00     0.063 H 
BRANCH  21  24
ATOM     24  C   UNL A   1      43.521  24.499  27.264  1.00  0.00     0.031 A 
ATOM     25  C   UNL A   1      42.528  25.503  27.770  1.00  0.00     0.074 A 
ATOM     26  C   UNL A   1      44.804  24.850  27.053  1.00  0.00     0.049 A 
ATOM     27  N   UNL A   1      42.708  26.773  28.036  1.00  0.00    -0.248 NA
ATOM     28  C   UNL A   1      41.156  25.031  27.999  1.00  0.00    -0.034 C 
ATOM     29  C   UNL A   1      45.849  23.954  26.550  1.00  0.00    -0.036 A 
ATOM     30  N   UNL A   1      45.452  26.045  27.231  1.00  0.00    -0.354 N 
ATOM     31  C   UNL A   1      41.471  27.256  28.442  1.00  0.00     0.074 A 
ATOM     32  C   UNL A   1      40.543  26.148  28.372  1.00  0.00    -0.034 C 
ATOM     33  H   UNL A   1      40.769  24.079  27.896  1.00  0.00     0.065 H 
ATOM     34  C   UNL A   1      47.009  24.621  26.482  1.00  0.00    -0.036 A 
ATOM     35  H   UNL A   1      45.713  22.965  26.290  1.00  0.00     0.065 H 
ATOM     36  C   UNL A   1      46.775  26.008  26.863  1.00  0.00     0.049 A 
ATOM     37  H   UNL A   1      45.013  26.851  27.586  1.00  0.00     0.167 HD
ATOM     38  C   UNL A   1      41.151  28.511  28.838  1.00  0.00     0.037 A 
ATOM     39  H   UNL A   1      39.535  26.217  28.584  1.00  0.00     0.065 H 
ATOM     40  H   UNL A   1      47.918  24.219  26.206  1.00  0.00     0.065 H 
ATOM     41  C   UNL A   1      47.692  26.990  26.801  1.00  0.00     0.037 A 
ATOM     42  C   UNL A   1      42.092  29.601  28.915  1.00  0.00     0.049 A 
ATOM     43  C   UNL A   1      47.292  28.380  27.204  1.00  0.00     0.074 A 
ATOM     44  C   UNL A   1      41.881  30.891  29.368  1.00  0.00    -0.036 A 
ATOM     45  N   UNL A   1      43.418  29.532  28.513  1.00  0.00    -0.354 N 
ATOM     46  N   UNL A   1      46.137  28.809  27.651  1.00  0.00    -0.248 NA
ATOM     47  C   UNL A   1      48.318  29.424  27.089  1.00  0.00    -0.034 C 
ATOM     48  C   UNL A   1      43.057  31.621  29.176  1.00  0.00    -0.036 A 
ATOM     49  H   UNL A   1      41.004  31.252  29.777  1.00  0.00     0.065 H 
ATOM     50  C   UNL A   1      44.024  30.771  28.666  1.00  0.00     0.049 A 
ATOM     51  H   UNL A   1      43.865  28.723  28.170  1.00  0.00     0.167 HD
ATOM     52  C   UNL A   1      46.300  30.166  27.887  1.00  0.00     0.074 A 
ATOM     53  C   UNL A   1      47.675  30.484  27.558  1.00  0.00    -0.034 C 
ATOM     54  H   UNL A   1      49.285  29.351  26.736  1.00  0.00     0.065 H 
ATOM     55  H   UNL A   1      43.183  32.626  29.380  1.00  0.00     0.065 H 
ATOM     56  C   UNL A   1      45.393  31.070  28.332  1.00  0.00     0.037 A 
ATOM     57  H   UNL A   1      48.100  31.417  27.672  1.00  0.00     0.065 H 
BRANCH  38  58
ATOM     58  C   UNL A   1      39.720  28.798  29.195  1.00  0.00     0.064 A 
ATOM     59  C   UNL A   1      39.233  28.637  30.501  1.00  0.00     0.173 A 
ATOM     60  C   UNL A   1      38.842  29.315  28.229  1.00  0.00     0.173 A 
ATOM     61  F   UNL A   1      40.028  28.140  31.461  1.00  0.00    -0.203 F 
ATOM     62  C   UNL A   1      37.918  28.966  30.821  1.00  0.00     0.198 A 
ATOM     63  C   UNL A   1      37.537  29.671  28.559  1.00  0.00     0.198 A 
ATOM     64  F   UNL A   1      39.258  29.497  26.966  1.00  0.00    -0.203 F 
ATOM     65  F   UNL A   1      37.465  28.771  32.068  1.00  0.00    -0.200 F 
ATOM     66  C   UNL A   1      37.074  29.492  29.854  1.00  0.00     0.200 A 
ATOM     67  F   UNL A   1      36.730  30.193  27.626  1.00  0.00    -0.200 F 
ATOM     68  F   UNL A   1      35.815  29.823  30.168  1.00  0.00    -0.200 F 
ENDBRANCH  38  58
BRANCH  41  69
ATOM     69  C   UNL A   1      49.061  26.697  26.303  1.00  0.00     0.064 A 
ATOM     70  C   UNL A   1      50.060  26.223  27.164  1.00  0.00     0.173 A 
ATOM     71  C   UNL A   1      49.400  26.886  24.953  1.00  0.00     0.173 A 
ATOM     72  F   UNL A   1      49.790  26.040  28.465  1.00  0.00    -0.203 F 
ATOM     73  C   UNL A   1      51.351  25.976  26.700  1.00  0.00     0.198 A 
ATOM     74  C   UNL A   1      50.679  26.605  24.485  1.00  0.00     0.198 A 
ATOM     75  F   UNL A   1      48.479  27.330  24.085  1.00  0.00    -0.203 F 
ATOM     76  F   UNL A   1      52.300  25.577  27.557  1.00  0.00    -0.200 F 
ATOM     77  C   UNL A   1      51.657  26.161  25.361  1.00  0.00     0.200 A 
ATOM     78  F   UNL A   1      50.965  26.764  23.185  1.00  0.00    -0.200 F 
ATOM     79  F   UNL A   1      52.898  25.920  24.917  1.00  0.00    -0.200 F 
ENDBRANCH  41  69
BRANCH  56  80
ATOM     80  C   UNL A   1      45.865  32.483  28.512  1.00  0.00     0.064 A 
ATOM     81  C   UNL A   1      46.469  32.911  29.702  1.00  0.00     0.173 A 
ATOM     82  C   UNL A   1      45.751  33.408  27.463  1.00  0.00     0.173 A 
ATOM     83  F   UNL A   1      46.584  32.070  30.742  1.00  0.00    -0.203 F 
ATOM     84  C   UNL A   1      46.923  34.219  29.844  1.00  0.00     0.198 A 
ATOM     85  C   UNL A   1      46.235  34.705  27.596  1.00  0.00     0.198 A 
ATOM     86  F   UNL A   1      45.184  33.048  26.301  1.00  0.00    -0.203 F 
ATOM     87  F   UNL A   1      47.453  34.620  31.008  1.00  0.00    -0.200 F 
ATOM     88  C   UNL A   1      46.815  35.113  28.788  1.00  0.00     0.200 A 
ATOM     89  F   UNL A   1      46.144  35.562  26.570  1.00  0.00    -0.200 F 
ATOM     90  F   UNL A   1      47.264  36.368  28.921  1.00  0.00    -0.200 F 
ENDBRANCH  56  80
ENDBRANCH  21  24
ENDBRANCH  12  14
ENDBRANCH   7  10
ENDBRANCH   4   7
ENDBRANCH   1   4
BRANCH   1  91
ATOM     91  C   UNL A   1      37.170  21.772  25.155  1.00  0.00    -0.052 C 
ATOM     92  H   UNL A   1      38.214  21.876  25.366  1.00  0.00     0.027 H 
ATOM     93  H   UNL A   1      36.539  22.127  25.943  1.00  0.00     0.027 H 
BRANCH  91  94
ATOM     94  C   UNL A   1      36.845  22.631  23.927  1.00  0.00    -0.036 C 
ATOM     95  H   UNL A   1      37.309  22.184  23.072  1.00  0.00     0.028 H 
ATOM     96  H   UNL A   1      37.215  23.614  24.131  1.00  0.00     0.028 H 
BRANCH  94  97
ATOM     97  C   UNL A   1      35.351  22.775  23.642  1.00  0.00     0.017 C 
ATOM     98  H   UNL A   1      34.849  21.883  23.948  1.00  0.00     0.049 H 
ATOM     99  H   UNL A   1      35.218  22.939  22.592  1.00  0.00     0.049 H 
BRANCH  97 100
ATOM    100  N   UNL A   1      34.795  23.903  24.360  1.00  0.00    -0.356 N 
ATOM    101  C   UNL A   1      33.646  24.005  25.084  1.00  0.00     0.229 C 
ATOM    102  H   UNL A   1      35.332  24.728  24.317  1.00  0.00     0.163 HD
ATOM    103  O   UNL A   1      33.313  25.126  25.471  1.00  0.00    -0.274 OA
BRANCH 101 104
ATOM    104  C   UNL A   1      32.828  22.754  25.366  1.00  0.00     0.080 C 
ATOM    105  C   UNL A   1      33.646  21.716  26.166  1.00  0.00    -0.018 C 
ATOM    106  C   UNL A   1      32.511  22.010  24.120  1.00  0.00     0.031 A 
ATOM    107  H   UNL A   1      31.960  23.110  25.882  1.00  0.00     0.047 H 
ATOM    108  C   UNL A   1      33.258  20.347  25.586  1.00  0.00     0.024 C 
ATOM    109  H   UNL A   1      33.397  21.766  27.206  1.00  0.00     0.030 H 
ATOM    110  H   UNL A   1      34.698  21.895  26.088  1.00  0.00     0.030 H 
ATOM    111  N   UNL A   1      32.735  20.671  24.269  1.00  0.00    -0.341 N 
ATOM    112  C   UNL A   1      32.064  22.243  22.850  1.00  0.00    -0.040 A 
ATOM    113  H   UNL A   1      32.511  19.875  26.188  1.00  0.00     0.050 H 
ATOM    114  H   UNL A   1      34.079  19.662  25.551  1.00  0.00     0.050 H 
ATOM    115  C   UNL A   1      32.415  19.984  23.137  1.00  0.00     0.090 A 
ATOM    116  C   UNL A   1      32.010  20.967  22.230  1.00  0.00    -0.033 A 
ATOM    117  H   UNL A   1      31.819  23.154  22.431  1.00  0.00     0.064 H 
ATOM    118  H   UNL A   1      31.716  20.793  21.256  1.00  0.00     0.065 H 
BRANCH 115 119
ATOM    119  C   UNL A   1      32.503  18.562  22.846  1.00  0.00     0.209 C 
ATOM    120  O   UNL A   1      32.152  18.079  21.769  1.00  0.00    -0.287 OA
BRANCH 119 121
ATOM    121  C   UNL A   1      33.046  17.612  23.838  1.00  0.00     0.024 A 
ATOM    122  C   UNL A   1      32.171  17.067  24.782  1.00  0.00    -0.051 A 
ATOM    123  C   UNL A   1      34.409  17.301  23.876  1.00  0.00    -0.051 A 
ATOM    124  C   UNL A   1      32.650  16.167  25.733  1.00  0.00    -0.062 A 
ATOM    125  H   UNL A   1      31.173  17.328  24.775  1.00  0.00     0.063 H 
ATOM    126  C   UNL A   1      34.882  16.390  24.821  1.00  0.00    -0.062 A 
ATOM    127  H   UNL A   1      35.061  17.742  23.208  1.00  0.00     0.063 H 
ATOM    128  C   UNL A   1      34.002  15.822  25.744  1.00  0.00    -0.062 A 
ATOM    129  H   UNL A   1      32.006  15.758  26.429  1.00  0.00     0.062 H 
ATOM    130  H   UNL A   1      35.882  16.136  24.838  1.00  0.00     0.062 H 
ATOM    131  H   UNL A   1      34.354  15.142  26.438  1.00  0.00     0.062 H 
ENDBRANCH 119 121
ENDBRANCH 115 119
ENDBRANCH 101 104
ENDBRANCH  97 100
ENDBRANCH  94  97
ENDBRANCH  91  94
ENDBRANCH   1  91
TORSDOF 15
ENDMDL
MODEL 9
REMARK VINA RESULT:     -12.3      5.322     11.358
REMARK SMILES O=C(NCCCCCCNC(=O)[C@@H]1CCn2c(C(=O)c3ccccc3)ccc21)c1ccc(-c2c3nc(c(-c4c(F)c(F)c(F)c(F)c4F)c4ccc([nH]4)c(-c4c(F)c(F)c(F)c(F)c4F)c4nc(c(-c5c(F)c(F)c(F)c(F)c5F)c5ccc2[nH]5)C=C4)C=C3)cc1
REMARK SMILES IDX 6 1 5 4 4 7 3 10 1 11 2 12 29 14 30 15 91 16 31 17 90 19
REMARK SMILES IDX 32 21 33 24 34 25 84 26 35 27 89 28 83 29 85 30 36 31 88 32
REMARK SMILES IDX 82 34 81 36 37 38 69 41 49 42 68 43 50 44 53 45 67 46 86 47
REMARK SMILES IDX 51 48 52 50 66 52 87 53 54 56 38 58 39 59 47 60 40 61 41 62
REMARK SMILES IDX 45 63 48 64 42 65 43 66 46 67 44 68 70 69 71 70 79 71 72 72
REMARK SMILES IDX 73 73 77 74 80 75 74 76 75 77 78 78 76 79 55 80 56 81 64 82
REMARK SMILES IDX 57 83 58 84 62 85 65 86 59 87 60 88 63 89 61 90 7 91 8 94
REMARK SMILES IDX 9 97 10 100 11 101 12 103 13 104 14 105 28 106 15 108 16 111
REMARK SMILES IDX 27 112 17 115 26 116 18 119 19 120 20 121 21 122 25 123
REMARK SMILES IDX 22 124 24 126 23 128
REMARK H PARENT 6 2 6 3 5 5 5 6 4 8 4 9 3 13 30 18 91 20 31 22 90 23 89 33
REMARK H PARENT 83 35 85 37 88 39 82 40 50 49 53 51 86 54 51 55 87 57 7 92
REMARK H PARENT 7 93 8 95 8 96 9 98 9 99 10 102 13 107 14 109 14 110 15 113
REMARK H PARENT 15 114 27 117 26 118 21 125 25 127 22 129 24 130 23 131
REMARK Flexibility Score: inf
ROOT
ATOM      1  C   UNL A   1      37.374  21.217  24.588  1.00  0.00    -0.052 C 
ATOM      2  H   UNL A   1      37.422  21.299  23.522  1.00  0.00     0.027 H 
ATOM      3  H   UNL A   1      37.849  22.032  25.095  1.00  0.00     0.027 H 
ENDROOT
BRANCH   1   4
ATOM      4  C   UNL A   1      38.130  19.955  25.001  1.00  0.00    -0.036 C 
ATOM      5  H   UNL A   1      37.416  19.225  25.321  1.00  0.00     0.028 H 
ATOM      6  H   UNL A   1      38.691  19.638  24.146  1.00  0.00     0.028 H 
BRANCH   4   7
ATOM      7  C   UNL A   1      39.132  20.169  26.126  1.00  0.00     0.018 C 
ATOM      8  H   UNL A   1      39.542  21.154  26.039  1.00  0.00     0.049 H 
ATOM      9  H   UNL A   1      38.616  20.046  27.055  1.00  0.00     0.049 H 
BRANCH   7  10
ATOM     10  N   UNL A   1      40.216  19.203  26.084  1.00  0.00    -0.352 N 
ATOM     11  O   UNL A   1      42.360  18.525  25.862  1.00  0.00    -0.269 OA
ATOM     12  C   UNL A   1      41.568  19.431  26.104  1.00  0.00     0.251 C 
ATOM     13  H   UNL A   1      39.944  18.259  26.033  1.00  0.00     0.163 HD
BRANCH  12  14
ATOM     14  C   UNL A   1      42.067  20.787  26.408  1.00  0.00     0.039 A 
ATOM     15  C   UNL A   1      42.271  21.708  25.376  1.00  0.00    -0.049 A 
ATOM     16  C   UNL A   1      42.322  21.142  27.734  1.00  0.00    -0.049 A 
ATOM     17  C   UNL A   1      42.842  22.943  25.657  1.00  0.00    -0.053 A 
ATOM     18  H   UNL A   1      41.999  21.471  24.409  1.00  0.00     0.063 H 
ATOM     19  C   UNL A   1      42.809  22.418  28.025  1.00  0.00    -0.053 A 
ATOM     20  H   UNL A   1      42.151  20.466  28.494  1.00  0.00     0.063 H 
ATOM     21  C   UNL A   1      43.084  23.323  26.986  1.00  0.00    -0.014 A 
ATOM     22  H   UNL A   1      43.088  23.583  24.885  1.00  0.00     0.063 H 
ATOM     23  H   UNL A   1      42.969  22.696  29.005  1.00  0.00     0.063 H 
BRANCH  21  24
ATOM     24  C   UNL A   1      43.512  24.712  27.277  1.00  0.00     0.031 A 
ATOM     25  C   UNL A   1      42.554  25.727  27.825  1.00  0.00     0.074 A 
ATOM     26  C   UNL A   1      44.792  25.047  27.022  1.00  0.00     0.049 A 
ATOM     27  N   UNL A   1      42.760  26.992  28.094  1.00  0.00    -0.248 NA
ATOM     28  C   UNL A   1      41.183  25.272  28.100  1.00  0.00    -0.034 C 
ATOM     29  C   UNL A   1      45.806  24.140  26.475  1.00  0.00    -0.036 A 
ATOM     30  N   UNL A   1      45.463  26.232  27.184  1.00  0.00    -0.354 N 
ATOM     31  C   UNL A   1      41.546  27.489  28.547  1.00  0.00     0.074 A 
ATOM     32  C   UNL A   1      40.601  26.395  28.503  1.00  0.00    -0.034 C 
ATOM     33  H   UNL A   1      40.780  24.327  28.006  1.00  0.00     0.065 H 
ATOM     34  C   UNL A   1      46.971  24.791  26.370  1.00  0.00    -0.036 A 
ATOM     35  H   UNL A   1      45.646  23.155  26.213  1.00  0.00     0.065 H 
ATOM     36  C   UNL A   1      46.772  26.179  26.769  1.00  0.00     0.049 A 
ATOM     37  H   UNL A   1      45.049  27.041  27.560  1.00  0.00     0.167 HD
ATOM     38  C   UNL A   1      41.258  28.746  28.963  1.00  0.00     0.037 A 
ATOM     39  H   UNL A   1      39.602  26.476  28.752  1.00  0.00     0.065 H 
ATOM     40  H   UNL A   1      47.864  24.379  26.058  1.00  0.00     0.065 H 
ATOM     41  C   UNL A   1      47.699  27.148  26.680  1.00  0.00     0.037 A 
ATOM     42  C   UNL A   1      42.218  29.822  29.013  1.00  0.00     0.049 A 
ATOM     43  C   UNL A   1      47.334  28.541  27.106  1.00  0.00     0.074 A 
ATOM     44  C   UNL A   1      42.041  31.111  29.483  1.00  0.00    -0.036 A 
ATOM     45  N   UNL A   1      43.527  29.737  28.563  1.00  0.00    -0.354 N 
ATOM     46  N   UNL A   1      46.202  28.983  27.598  1.00  0.00    -0.248 NA
ATOM     47  C   UNL A   1      48.370  29.571  26.962  1.00  0.00    -0.034 C 
ATOM     48  C   UNL A   1      43.220  31.826  29.253  1.00  0.00    -0.036 A 
ATOM     49  H   UNL A   1      41.185  31.481  29.926  1.00  0.00     0.065 H 
ATOM     50  C   UNL A   1      44.155  30.966  28.702  1.00  0.00     0.049 A 
ATOM     51  H   UNL A   1      43.949  28.925  28.199  1.00  0.00     0.167 HD
ATOM     52  C   UNL A   1      46.393  30.336  27.837  1.00  0.00     0.074 A 
ATOM     53  C   UNL A   1      47.759  30.636  27.461  1.00  0.00    -0.034 C 
ATOM     54  H   UNL A   1      49.322  29.487  26.574  1.00  0.00     0.065 H 
ATOM     55  H   UNL A   1      43.368  32.827  29.459  1.00  0.00     0.065 H 
ATOM     56  C   UNL A   1      45.516  31.248  28.321  1.00  0.00     0.037 A 
ATOM     57  H   UNL A   1      48.201  31.562  27.566  1.00  0.00     0.065 H 
BRANCH  38  58
ATOM     58  C   UNL A   1      39.846  29.050  29.374  1.00  0.00     0.064 A 
ATOM     59  C   UNL A   1      38.879  29.477  28.453  1.00  0.00     0.173 A 
ATOM     60  C   UNL A   1      39.436  28.835  30.700  1.00  0.00     0.173 A 
ATOM     61  F   UNL A   1      39.219  29.703  27.175  1.00  0.00    -0.203 F 
ATOM     62  C   UNL A   1      37.560  29.694  28.846  1.00  0.00     0.198 A 
ATOM     63  C   UNL A   1      38.111  29.025  31.083  1.00  0.00     0.198 A 
ATOM     64  F   UNL A   1      40.318  28.418  31.622  1.00  0.00    -0.203 F 
ATOM     65  F   UNL A   1      36.662  30.136  27.953  1.00  0.00    -0.200 F 
ATOM     66  C   UNL A   1      37.175  29.459  30.157  1.00  0.00     0.200 A 
ATOM     67  F   UNL A   1      37.738  28.782  32.347  1.00  0.00    -0.200 F 
ATOM     68  F   UNL A   1      35.902  29.653  30.528  1.00  0.00    -0.200 F 
ENDBRANCH  38  58
BRANCH  41  69
ATOM     69  C   UNL A   1      49.045  26.839  26.131  1.00  0.00     0.064 A 
ATOM     70  C   UNL A   1      49.333  27.022  24.772  1.00  0.00     0.173 A 
ATOM     71  C   UNL A   1      50.072  26.351  26.955  1.00  0.00     0.173 A 
ATOM     72  F   UNL A   1      48.381  27.472  23.941  1.00  0.00    -0.203 F 
ATOM     73  C   UNL A   1      50.587  26.703  24.253  1.00  0.00     0.198 A 
ATOM     74  C   UNL A   1      51.334  26.067  26.443  1.00  0.00     0.198 A 
ATOM     75  F   UNL A   1      49.852  26.165  28.265  1.00  0.00    -0.203 F 
ATOM     76  F   UNL A   1      50.818  26.836  22.941  1.00  0.00    -0.200 F 
ATOM     77  C   UNL A   1      51.587  26.232  25.090  1.00  0.00     0.200 A 
ATOM     78  F   UNL A   1      52.305  25.633  27.259  1.00  0.00    -0.200 F 
ATOM     79  F   UNL A   1      52.793  25.930  24.590  1.00  0.00    -0.200 F 
ENDBRANCH  41  69
BRANCH  56  80
ATOM     80  C   UNL A   1      46.014  32.654  28.493  1.00  0.00     0.064 A 
ATOM     81  C   UNL A   1      45.866  33.614  27.482  1.00  0.00     0.173 A 
ATOM     82  C   UNL A   1      46.605  33.055  29.700  1.00  0.00     0.173 A 
ATOM     83  F   UNL A   1      45.325  33.275  26.302  1.00  0.00    -0.203 F 
ATOM     84  C   UNL A   1      46.312  34.920  27.667  1.00  0.00     0.198 A 
ATOM     85  C   UNL A   1      47.019  34.369  29.893  1.00  0.00     0.198 A 
ATOM     86  F   UNL A   1      46.766  32.175  30.700  1.00  0.00    -0.203 F 
ATOM     87  F   UNL A   1      46.205  35.809  26.669  1.00  0.00    -0.200 F 
ATOM     88  C   UNL A   1      46.879  35.299  28.875  1.00  0.00     0.200 A 
ATOM     89  F   UNL A   1      47.552  34.737  31.066  1.00  0.00    -0.200 F 
ATOM     90  F   UNL A   1      47.295  36.560  29.055  1.00  0.00    -0.200 F 
ENDBRANCH  56  80
ENDBRANCH  21  24
ENDBRANCH  12  14
ENDBRANCH   7  10
ENDBRANCH   4   7
ENDBRANCH   1   4
BRANCH   1  91
ATOM     91  C   UNL A   1      35.900  21.249  25.003  1.00  0.00    -0.052 C 
ATOM     92  H   UNL A   1      35.378  21.893  24.327  1.00  0.00     0.027 H 
ATOM     93  H   UNL A   1      35.883  21.593  26.017  1.00  0.00     0.027 H 
BRANCH  91  94
ATOM     94  C   UNL A   1      35.197  19.886  25.001  1.00  0.00    -0.036 C 
ATOM     95  H   UNL A   1      35.611  19.294  25.791  1.00  0.00     0.028 H 
ATOM     96  H   UNL A   1      35.359  19.458  24.034  1.00  0.00     0.028 H 
BRANCH  94  97
ATOM     97  C   UNL A   1      33.685  19.962  25.199  1.00  0.00     0.017 C 
ATOM     98  H   UNL A   1      33.470  20.654  25.986  1.00  0.00     0.049 H 
ATOM     99  H   UNL A   1      33.323  18.987  25.449  1.00  0.00     0.049 H 
BRANCH  97 100
ATOM    100  N   UNL A   1      33.026  20.403  23.987  1.00  0.00    -0.356 N 
ATOM    101  C   UNL A   1      32.403  21.580  23.702  1.00  0.00     0.229 C 
ATOM    102  H   UNL A   1      33.030  19.748  23.252  1.00  0.00     0.163 HD
ATOM    103  O   UNL A   1      31.778  21.653  22.643  1.00  0.00    -0.274 OA
BRANCH 101 104
ATOM    104  C   UNL A   1      32.488  22.730  24.695  1.00  0.00     0.080 C 
ATOM    105  C   UNL A   1      31.091  23.113  25.231  1.00  0.00    -0.018 C 
ATOM    106  C   UNL A   1      32.931  23.989  24.044  1.00  0.00     0.031 A 
ATOM    107  H   UNL A   1      33.160  22.382  25.452  1.00  0.00     0.047 H 
ATOM    108  C   UNL A   1      31.095  24.646  25.337  1.00  0.00     0.024 C 
ATOM    109  H   UNL A   1      30.926  22.673  26.193  1.00  0.00     0.030 H 
ATOM    110  H   UNL A   1      30.310  22.763  24.589  1.00  0.00     0.030 H 
ATOM    111  N   UNL A   1      32.159  25.047  24.430  1.00  0.00    -0.341 N 
ATOM    112  C   UNL A   1      33.877  24.432  23.163  1.00  0.00    -0.040 A 
ATOM    113  H   UNL A   1      31.308  24.960  26.337  1.00  0.00     0.050 H 
ATOM    114  H   UNL A   1      30.151  25.083  25.089  1.00  0.00     0.050 H 
ATOM    115  C   UNL A   1      32.583  26.208  23.858  1.00  0.00     0.090 A 
ATOM    116  C   UNL A   1      33.654  25.828  23.042  1.00  0.00    -0.033 A 
ATOM    117  H   UNL A   1      34.600  23.870  22.688  1.00  0.00     0.064 H 
ATOM    118  H   UNL A   1      34.199  26.467  22.442  1.00  0.00     0.065 H 
BRANCH 115 119
ATOM    119  C   UNL A   1      32.059  27.559  23.976  1.00  0.00     0.209 C 
ATOM    120  O   UNL A   1      31.284  28.048  23.154  1.00  0.00    -0.287 OA
BRANCH 119 121
ATOM    121  C   UNL A   1      32.420  28.420  25.121  1.00  0.00     0.024 A 
ATOM    122  C   UNL A   1      31.709  29.610  25.304  1.00  0.00    -0.051 A 
ATOM    123  C   UNL A   1      33.480  28.092  25.972  1.00  0.00    -0.051 A 
ATOM    124  C   UNL A   1      32.024  30.447  26.374  1.00  0.00    -0.062 A 
ATOM    125  H   UNL A   1      30.953  29.868  24.652  1.00  0.00     0.063 H 
ATOM    126  C   UNL A   1      33.784  28.926  27.048  1.00  0.00    -0.062 A 
ATOM    127  H   UNL A   1      34.035  27.237  25.804  1.00  0.00     0.063 H 
ATOM    128  C   UNL A   1      33.053  30.099  27.250  1.00  0.00    -0.062 A 
ATOM    129  H   UNL A   1      31.498  31.324  26.517  1.00  0.00     0.062 H 
ATOM    130  H   UNL A   1      34.547  28.676  27.696  1.00  0.00     0.062 H 
ATOM    131  H   UNL A   1      33.275  30.710  28.052  1.00  0.00     0.062 H 
ENDBRANCH 119 121
ENDBRANCH 115 119
ENDBRANCH 101 104
ENDBRANCH  97 100
ENDBRANCH  94  97
ENDBRANCH  91  94
ENDBRANCH   1  91
TORSDOF 15
ENDMDL
MODEL 10
REMARK VINA RESULT:     -12.3      3.631      8.577
REMARK SMILES O=C(NCCCCCCNC(=O)[C@@H]1CCn2c(C(=O)c3ccccc3)ccc21)c1ccc(-c2c3nc(c(-c4c(F)c(F)c(F)c(F)c4F)c4ccc([nH]4)c(-c4c(F)c(F)c(F)c(F)c4F)c4nc(c(-c5c(F)c(F)c(F)c(F)c5F)c5ccc2[nH]5)C=C4)C=C3)cc1
REMARK SMILES IDX 6 1 5 4 4 7 3 10 1 11 2 12 29 14 30 15 91 16 31 17 90 19
REMARK SMILES IDX 32 21 33 24 34 25 84 26 35 27 89 28 83 29 85 30 36 31 88 32
REMARK SMILES IDX 82 34 81 36 37 38 69 41 49 42 68 43 50 44 53 45 67 46 86 47
REMARK SMILES IDX 51 48 52 50 66 52 87 53 54 56 38 58 39 59 47 60 40 61 41 62
REMARK SMILES IDX 45 63 48 64 42 65 43 66 46 67 44 68 70 69 71 70 79 71 72 72
REMARK SMILES IDX 73 73 77 74 80 75 74 76 75 77 78 78 76 79 55 80 56 81 64 82
REMARK SMILES IDX 57 83 58 84 62 85 65 86 59 87 60 88 63 89 61 90 7 91 8 94
REMARK SMILES IDX 9 97 10 100 11 101 12 103 13 104 14 105 28 106 15 108 16 111
REMARK SMILES IDX 27 112 17 115 26 116 18 119 19 120 20 121 21 122 25 123
REMARK SMILES IDX 22 124 24 126 23 128
REMARK H PARENT 6 2 6 3 5 5 5 6 4 8 4 9 3 13 30 18 91 20 31 22 90 23 89 33
REMARK H PARENT 83 35 85 37 88 39 82 40 50 49 53 51 86 54 51 55 87 57 7 92
REMARK H PARENT 7 93 8 95 8 96 9 98 9 99 10 102 13 107 14 109 14 110 15 113
REMARK H PARENT 15 114 27 117 26 118 21 125 25 127 22 129 24 130 23 131
REMARK Flexibility Score: inf
ROOT
ATOM      1  C   UNL A   1      32.847  29.299  24.567  1.00  0.00    -0.052 C 
ATOM      2  H   UNL A   1      33.376  29.712  23.733  1.00  0.00     0.027 H 
ATOM      3  H   UNL A   1      32.678  30.007  25.351  1.00  0.00     0.027 H 
ENDROOT
BRANCH   1   4
ATOM      4  C   UNL A   1      33.704  28.187  25.169  1.00  0.00    -0.036 C 
ATOM      5  H   UNL A   1      33.175  27.262  25.067  1.00  0.00     0.028 H 
ATOM      6  H   UNL A   1      34.634  28.193  24.638  1.00  0.00     0.028 H 
BRANCH   4   7
ATOM      7  C   UNL A   1      34.038  28.385  26.640  1.00  0.00     0.018 C 
ATOM      8  H   UNL A   1      33.445  27.712  27.222  1.00  0.00     0.049 H 
ATOM      9  H   UNL A   1      35.083  28.192  26.770  1.00  0.00     0.049 H 
BRANCH   7  10
ATOM     10  N   UNL A   1      33.775  29.744  27.081  1.00  0.00    -0.352 N 
ATOM     11  O   UNL A   1      34.084  31.596  28.340  1.00  0.00    -0.269 OA
ATOM     12  C   UNL A   1      34.534  30.543  27.898  1.00  0.00     0.251 C 
ATOM     13  H   UNL A   1      32.940  30.146  26.749  1.00  0.00     0.163 HD
BRANCH  12  14
ATOM     14  C   UNL A   1      35.902  30.116  28.254  1.00  0.00     0.039 A 
ATOM     15  C   UNL A   1      36.957  30.316  27.358  1.00  0.00    -0.049 A 
ATOM     16  C   UNL A   1      36.133  29.523  29.497  1.00  0.00    -0.049 A 
ATOM     17  C   UNL A   1      38.218  29.815  27.654  1.00  0.00    -0.053 A 
ATOM     18  H   UNL A   1      36.798  30.832  26.479  1.00  0.00     0.063 H 
ATOM     19  C   UNL A   1      37.422  29.103  29.832  1.00  0.00    -0.053 A 
ATOM     20  H   UNL A   1      35.356  29.395  30.163  1.00  0.00     0.063 H 
ATOM     21  C   UNL A   1      38.471  29.236  28.907  1.00  0.00    -0.014 A 
ATOM     22  H   UNL A   1      38.971  29.871  26.951  1.00  0.00     0.063 H 
ATOM     23  H   UNL A   1      37.604  28.692  30.761  1.00  0.00     0.063 H 
BRANCH  21  24
ATOM     24  C   UNL A   1      39.863  28.883  29.276  1.00  0.00     0.031 A 
ATOM     25  C   UNL A   1      40.724  29.824  30.065  1.00  0.00     0.074 A 
ATOM     26  C   UNL A   1      40.344  27.692  28.869  1.00  0.00     0.049 A 
ATOM     27  N   UNL A   1      41.973  29.683  30.432  1.00  0.00    -0.248 NA
ATOM     28  C   UNL A   1      40.114  31.090  30.493  1.00  0.00    -0.034 C 
ATOM     29  C   UNL A   1      39.595  26.707  28.084  1.00  0.00    -0.036 A 
ATOM     30  N   UNL A   1      41.569  27.105  29.053  1.00  0.00    -0.354 N 
ATOM     31  C   UNL A   1      42.305  30.846  31.112  1.00  0.00     0.074 A 
ATOM     32  C   UNL A   1      41.132  31.693  31.095  1.00  0.00    -0.034 C 
ATOM     33  H   UNL A   1      39.146  31.424  30.360  1.00  0.00     0.065 H 
ATOM     34  C   UNL A   1      40.364  25.631  27.875  1.00  0.00    -0.036 A 
ATOM     35  H   UNL A   1      38.627  26.824  27.746  1.00  0.00     0.065 H 
ATOM     36  C   UNL A   1      41.683  25.879  28.443  1.00  0.00     0.049 A 
ATOM     37  H   UNL A   1      42.296  27.520  29.571  1.00  0.00     0.167 HD
ATOM     38  C   UNL A   1      43.484  31.168  31.697  1.00  0.00     0.037 A 
ATOM     39  H   UNL A   1      41.091  32.643  31.497  1.00  0.00     0.065 H 
ATOM     40  H   UNL A   1      40.072  24.768  27.391  1.00  0.00     0.065 H 
ATOM     41  C   UNL A   1      42.744  25.061  28.320  1.00  0.00     0.037 A 
ATOM     42  C   UNL A   1      44.640  30.305  31.716  1.00  0.00     0.049 A 
ATOM     43  C   UNL A   1      44.048  25.468  28.941  1.00  0.00     0.074 A 
ATOM     44  C   UNL A   1      45.858  30.512  32.341  1.00  0.00    -0.036 A 
ATOM     45  N   UNL A   1      44.726  29.082  31.069  1.00  0.00    -0.354 N 
ATOM     46  N   UNL A   1      44.330  26.540  29.640  1.00  0.00    -0.248 NA
ATOM     47  C   UNL A   1      45.184  24.558  28.752  1.00  0.00    -0.034 C 
ATOM     48  C   UNL A   1      46.703  29.448  32.014  1.00  0.00    -0.036 A 
ATOM     49  H   UNL A   1      46.099  31.314  32.943  1.00  0.00     0.065 H 
ATOM     50  C   UNL A   1      45.993  28.544  31.241  1.00  0.00     0.049 A 
ATOM     51  H   UNL A   1      43.996  28.657  30.562  1.00  0.00     0.167 HD
ATOM     52  C   UNL A   1      45.668  26.426  29.990  1.00  0.00     0.074 A 
ATOM     53  C   UNL A   1      46.134  25.167  29.447  1.00  0.00    -0.034 C 
ATOM     54  H   UNL A   1      45.230  23.675  28.219  1.00  0.00     0.065 H 
ATOM     55  H   UNL A   1      47.691  29.353  32.300  1.00  0.00     0.065 H 
ATOM     56  C   UNL A   1      46.441  27.288  30.693  1.00  0.00     0.037 A 
ATOM     57  H   UNL A   1      47.086  24.793  29.582  1.00  0.00     0.065 H 
BRANCH  38  58
ATOM     58  C   UNL A   1      43.609  32.517  32.344  1.00  0.00     0.064 A 
ATOM     59  C   UNL A   1      44.007  33.653  31.625  1.00  0.00     0.173 A 
ATOM     60  C   UNL A   1      43.248  32.690  33.691  1.00  0.00     0.173 A 
ATOM     61  F   UNL A   1      44.369  33.544  30.338  1.00  0.00    -0.203 F 
ATOM     62  C   UNL A   1      44.058  34.906  32.232  1.00  0.00     0.198 A 
ATOM     63  C   UNL A   1      43.271  33.948  34.287  1.00  0.00     0.198 A 
ATOM     64  F   UNL A   1      42.851  31.638  34.424  1.00  0.00    -0.203 F 
ATOM     65  F   UNL A   1      44.475  35.971  31.533  1.00  0.00    -0.200 F 
ATOM     66  C   UNL A   1      43.681  35.054  33.558  1.00  0.00     0.200 A 
ATOM     67  F   UNL A   1      42.891  34.090  35.564  1.00  0.00    -0.200 F 
ATOM     68  F   UNL A   1      43.713  36.263  34.136  1.00  0.00    -0.200 F 
ENDBRANCH  38  58
BRANCH  41  69
ATOM     69  C   UNL A   1      42.620  23.799  27.546  1.00  0.00     0.064 A 
ATOM     70  C   UNL A   1      42.926  23.753  26.179  1.00  0.00     0.173 A 
ATOM     71  C   UNL A   1      42.189  22.610  28.157  1.00  0.00     0.173 A 
ATOM     72  F   UNL A   1      43.326  24.865  25.546  1.00  0.00    -0.203 F 
ATOM     73  C   UNL A   1      42.780  22.575  25.449  1.00  0.00     0.198 A 
ATOM     74  C   UNL A   1      42.080  21.426  27.435  1.00  0.00     0.198 A 
ATOM     75  F   UNL A   1      41.891  22.596  29.465  1.00  0.00    -0.203 F 
ATOM     76  F   UNL A   1      43.027  22.573  24.133  1.00  0.00    -0.200 F 
ATOM     77  C   UNL A   1      42.364  21.412  26.078  1.00  0.00     0.200 A 
ATOM     78  F   UNL A   1      41.698  20.299  28.052  1.00  0.00    -0.200 F 
ATOM     79  F   UNL A   1      42.228  20.279  25.375  1.00  0.00    -0.200 F 
ENDBRANCH  41  69
BRANCH  56  80
ATOM     80  C   UNL A   1      47.867  26.888  30.936  1.00  0.00     0.064 A 
ATOM     81  C   UNL A   1      48.221  26.030  31.987  1.00  0.00     0.173 A 
ATOM     82  C   UNL A   1      48.885  27.333  30.079  1.00  0.00     0.173 A 
ATOM     83  F   UNL A   1      47.287  25.593  32.846  1.00  0.00    -0.203 F 
ATOM     84  C   UNL A   1      49.545  25.649  32.184  1.00  0.00     0.198 A 
ATOM     85  C   UNL A   1      50.202  26.923  30.259  1.00  0.00     0.198 A 
ATOM     86  F   UNL A   1      48.599  28.152  29.056  1.00  0.00    -0.203 F 
ATOM     87  F   UNL A   1      49.868  24.867  33.224  1.00  0.00    -0.200 F 
ATOM     88  C   UNL A   1      50.533  26.087  31.315  1.00  0.00     0.200 A 
ATOM     89  F   UNL A   1      51.153  27.336  29.409  1.00  0.00    -0.200 F 
ATOM     90  F   UNL A   1      51.806  25.709  31.498  1.00  0.00    -0.200 F 
ENDBRANCH  56  80
ENDBRANCH  21  24
ENDBRANCH  12  14
ENDBRANCH   7  10
ENDBRANCH   4   7
ENDBRANCH   1   4
BRANCH   1  91
ATOM     91  C   UNL A   1      31.464  28.855  24.082  1.00  0.00    -0.052 C 
ATOM     92  H   UNL A   1      31.503  28.749  23.018  1.00  0.00     0.027 H 
ATOM     93  H   UNL A   1      30.776  29.606  24.410  1.00  0.00     0.027 H 
BRANCH  91  94
ATOM     94  C   UNL A   1      30.965  27.530  24.673  1.00  0.00    -0.036 C 
ATOM     95  H   UNL A   1      30.111  27.736  25.285  1.00  0.00     0.028 H 
ATOM     96  H   UNL A   1      31.780  27.114  25.227  1.00  0.00     0.028 H 
BRANCH  94  97
ATOM     97  C   UNL A   1      30.566  26.490  23.628  1.00  0.00     0.017 C 
ATOM     98  H   UNL A   1      29.731  26.856  23.071  1.00  0.00     0.049 H 
ATOM     99  H   UNL A   1      30.311  25.581  24.131  1.00  0.00     0.049 H 
BRANCH  97 100
ATOM    100  N   UNL A   1      31.663  26.224  22.720  1.00  0.00    -0.356 N 
ATOM    101  C   UNL A   1      32.787  25.473  22.894  1.00  0.00     0.229 C 
ATOM    102  H   UNL A   1      31.585  26.654  21.838  1.00  0.00     0.163 HD
ATOM    103  O   UNL A   1      33.652  25.531  22.019  1.00  0.00    -0.274 OA
BRANCH 101 104
ATOM    104  C   UNL A   1      32.930  24.623  24.147  1.00  0.00     0.080 C 
ATOM    105  C   UNL A   1      34.356  24.721  24.732  1.00  0.00    -0.018 C 
ATOM    106  C   UNL A   1      32.814  23.173  23.845  1.00  0.00     0.031 A 
ATOM    107  H   UNL A   1      32.168  24.983  24.806  1.00  0.00     0.047 H 
ATOM    108  C   UNL A   1      34.701  23.306  25.222  1.00  0.00     0.024 C 
ATOM    109  H   UNL A   1      34.379  25.414  25.547  1.00  0.00     0.030 H 
ATOM    110  H   UNL A   1      35.060  25.070  24.005  1.00  0.00     0.030 H 
ATOM    111  N   UNL A   1      33.793  22.454  24.470  1.00  0.00    -0.341 N 
ATOM    112  C   UNL A   1      32.029  22.316  23.127  1.00  0.00    -0.040 A 
ATOM    113  H   UNL A   1      34.528  23.213  26.273  1.00  0.00     0.050 H 
ATOM    114  H   UNL A   1      35.729  23.052  25.072  1.00  0.00     0.050 H 
ATOM    115  C   UNL A   1      33.669  21.121  24.220  1.00  0.00     0.090 A 
ATOM    116  C   UNL A   1      32.572  21.025  23.358  1.00  0.00    -0.033 A 
ATOM    117  H   UNL A   1      31.215  22.557  22.540  1.00  0.00     0.064 H 
ATOM    118  H   UNL A   1      32.212  20.147  22.951  1.00  0.00     0.065 H 
BRANCH 115 119
ATOM    119  C   UNL A   1      34.485  20.003  24.664  1.00  0.00     0.209 C 
ATOM    120  O   UNL A   1      35.662  20.129  25.003  1.00  0.00    -0.287 OA
BRANCH 119 121
ATOM    121  C   UNL A   1      33.926  18.639  24.754  1.00  0.00     0.024 A 
ATOM    122  C   UNL A   1      34.406  17.666  23.872  1.00  0.00    -0.051 A 
ATOM    123  C   UNL A   1      32.903  18.330  25.657  1.00  0.00    -0.051 A 
ATOM    124  C   UNL A   1      33.900  16.369  23.929  1.00  0.00    -0.062 A 
ATOM    125  H   UNL A   1      35.134  17.907  23.181  1.00  0.00     0.063 H 
ATOM    126  C   UNL A   1      32.408  17.027  25.720  1.00  0.00    -0.062 A 
ATOM    127  H   UNL A   1      32.517  19.063  26.273  1.00  0.00     0.063 H 
ATOM    128  C   UNL A   1      32.910  16.048  24.860  1.00  0.00    -0.062 A 
ATOM    129  H   UNL A   1      34.255  15.646  23.283  1.00  0.00     0.062 H 
ATOM    130  H   UNL A   1      31.672  16.787  26.401  1.00  0.00     0.062 H 
ATOM    131  H   UNL A   1      32.547  15.083  24.913  1.00  0.00     0.062 H 
ENDBRANCH 119 121
ENDBRANCH 115 119
ENDBRANCH 101 104
ENDBRANCH  97 100
ENDBRANCH  94  97
ENDBRANCH  91  94
ENDBRANCH   1  91
TORSDOF 15
ENDMDL
