MODEL 1
REMARK VINA RESULT:      -9.6      0.000      0.000
REMARK SMILES O=C(CNC(=O)CNC(=O)OCc1ccccc1)NCCCCCCNC(=O)c1ccc(-c2c3nc(c(-c4c(F)c(F)c(F)c(F)c4F)c4ccc([nH]4)c(-c4c(F)c(F)c(F)c(F)c4F)c4nc(c(-c5c(F)c(F)c(F)c(F)c5F)c5ccc2[nH]5)C=C4)C=C3)cc1
REMARK SMILES IDX 20 1 19 4 1 5 2 6 3 8 4 11 5 12 6 14 7 15 8 18 9 19 10 21
REMARK SMILES IDX 11 22 12 23 13 26 14 27 18 28 15 29 17 31 16 33 21 37 22 40
REMARK SMILES IDX 23 43 24 46 25 49 26 52 27 53 28 55 29 56 30 57 91 58 31 59
REMARK SMILES IDX 90 61 32 63 33 66 34 67 84 68 35 69 89 70 83 71 85 72 36 73
REMARK SMILES IDX 88 74 82 76 81 78 37 80 69 83 49 84 68 85 50 86 53 87 67 88
REMARK SMILES IDX 86 89 51 90 52 92 66 94 87 95 54 98 38 100 39 101 47 102
REMARK SMILES IDX 40 103 41 104 45 105 48 106 42 107 43 108 46 109 44 110
REMARK SMILES IDX 70 111 71 112 79 113 72 114 73 115 77 116 80 117 74 118
REMARK SMILES IDX 75 119 78 120 76 121 55 122 56 123 64 124 57 125 58 126
REMARK SMILES IDX 62 127 65 128 59 129 60 130 63 131 61 132
REMARK H PARENT 20 2 20 3 19 7 3 9 3 10 4 13 7 16 7 17 8 20 12 24 12 25 14 30
REMARK H PARENT 18 32 15 34 17 35 16 36 21 38 21 39 22 41 22 42 23 44 23 45
REMARK H PARENT 24 47 24 48 25 50 25 51 26 54 30 60 91 62 31 64 90 65 89 75
REMARK H PARENT 83 77 85 79 88 81 82 82 50 91 53 93 86 96 51 97 87 99
REMARK Flexibility Score: inf
ROOT
ATOM      1  C   UNL A   1      44.197  18.622  25.440  1.00  0.00     0.017 C 
ATOM      2  H   UNL A   1      45.066  18.652  26.063  1.00  0.00     0.049 H 
ATOM      3  H   UNL A   1      44.273  17.881  24.674  1.00  0.00     0.049 H 
ENDROOT
BRANCH   1   4
ATOM      4  N   UNL A   1      44.058  19.908  24.781  1.00  0.00    -0.355 N 
ATOM      5  O   UNL A   1      46.100  20.733  25.426  1.00  0.00    -0.273 OA
ATOM      6  C   UNL A   1      45.053  20.859  24.796  1.00  0.00     0.239 C 
ATOM      7  H   UNL A   1      43.220  20.107  24.305  1.00  0.00     0.163 HD
BRANCH   6   8
ATOM      8  C   UNL A   1      44.745  22.155  24.027  1.00  0.00     0.097 C 
ATOM      9  H   UNL A   1      44.079  22.744  24.623  1.00  0.00     0.059 H 
ATOM     10  H   UNL A   1      44.320  21.854  23.091  1.00  0.00     0.059 H 
BRANCH   8  11
ATOM     11  N   UNL A   1      45.911  22.970  23.706  1.00  0.00    -0.346 N 
ATOM     12  C   UNL A   1      46.521  23.936  24.451  1.00  0.00     0.239 C 
ATOM     13  H   UNL A   1      46.315  22.797  22.824  1.00  0.00     0.164 HD
ATOM     14  O   UNL A   1      47.503  24.506  23.973  1.00  0.00    -0.273 OA
BRANCH  12  15
ATOM     15  C   UNL A   1      45.937  24.349  25.803  1.00  0.00     0.100 C 
ATOM     16  H   UNL A   1      45.252  23.605  26.150  1.00  0.00     0.060 H 
ATOM     17  H   UNL A   1      45.406  25.274  25.721  1.00  0.00     0.060 H 
BRANCH  15  18
ATOM     18  N   UNL A   1      47.047  24.472  26.726  1.00  0.00    -0.312 N 
ATOM     19  C   UNL A   1      47.313  25.525  27.538  1.00  0.00     0.407 C 
ATOM     20  H   UNL A   1      47.672  23.713  26.767  1.00  0.00     0.167 HD
ATOM     21  O   UNL A   1      48.438  25.674  27.998  1.00  0.00    -0.225 OA
BRANCH  19  22
ATOM     22  O   UNL A   1      46.261  26.350  27.739  1.00  0.00    -0.445 OA
BRANCH  22  23
ATOM     23  C   UNL A   1      46.324  27.605  27.037  1.00  0.00     0.118 C 
ATOM     24  H   UNL A   1      46.820  27.445  26.103  1.00  0.00     0.076 H 
ATOM     25  H   UNL A   1      46.853  28.290  27.667  1.00  0.00     0.076 H 
BRANCH  23  26
ATOM     26  C   UNL A   1      44.967  28.214  26.761  1.00  0.00    -0.011 A 
ATOM     27  C   UNL A   1      44.037  27.556  25.945  1.00  0.00    -0.056 A 
ATOM     28  C   UNL A   1      44.623  29.472  27.280  1.00  0.00    -0.056 A 
ATOM     29  C   UNL A   1      42.802  28.147  25.656  1.00  0.00    -0.062 A 
ATOM     30  H   UNL A   1      44.264  26.629  25.553  1.00  0.00     0.063 H 
ATOM     31  C   UNL A   1      43.383  30.051  27.011  1.00  0.00    -0.062 A 
ATOM     32  H   UNL A   1      45.300  29.978  27.872  1.00  0.00     0.063 H 
ATOM     33  C   UNL A   1      42.473  29.390  26.194  1.00  0.00    -0.062 A 
ATOM     34  H   UNL A   1      42.130  27.658  25.043  1.00  0.00     0.062 H 
ATOM     35  H   UNL A   1      43.141  30.969  27.416  1.00  0.00     0.062 H 
ATOM     36  H   UNL A   1      41.558  29.819  25.985  1.00  0.00     0.062 H 
ENDBRANCH  23  26
ENDBRANCH  22  23
ENDBRANCH  19  22
ENDBRANCH  15  18
ENDBRANCH  12  15
ENDBRANCH   8  11
ENDBRANCH   6   8
ENDBRANCH   1   4
BRANCH   1  37
ATOM     37  C   UNL A   1      42.992  18.251  26.307  1.00  0.00    -0.036 C 
ATOM     38  H   UNL A   1      43.317  18.211  27.326  1.00  0.00     0.028 H 
ATOM     39  H   UNL A   1      42.636  17.312  25.937  1.00  0.00     0.028 H 
BRANCH  37  40
ATOM     40  C   UNL A   1      41.807  19.221  26.223  1.00  0.00    -0.052 C 
ATOM     41  H   UNL A   1      40.940  18.652  25.955  1.00  0.00     0.027 H 
ATOM     42  H   UNL A   1      42.093  19.957  25.501  1.00  0.00     0.027 H 
BRANCH  40  43
ATOM     43  C   UNL A   1      41.476  20.003  27.495  1.00  0.00    -0.052 C 
ATOM     44  H   UNL A   1      41.987  19.534  28.310  1.00  0.00     0.027 H 
ATOM     45  H   UNL A   1      40.410  19.982  27.578  1.00  0.00     0.027 H 
BRANCH  43  46
ATOM     46  C   UNL A   1      41.862  21.481  27.488  1.00  0.00    -0.036 C 
ATOM     47  H   UNL A   1      42.919  21.545  27.640  1.00  0.00     0.028 H 
ATOM     48  H   UNL A   1      41.285  21.937  28.264  1.00  0.00     0.028 H 
BRANCH  46  49
ATOM     49  C   UNL A   1      41.524  22.247  26.211  1.00  0.00     0.018 C 
ATOM     50  H   UNL A   1      42.060  21.805  25.396  1.00  0.00     0.049 H 
ATOM     51  H   UNL A   1      41.801  23.268  26.366  1.00  0.00     0.049 H 
BRANCH  49  52
ATOM     52  N   UNL A   1      40.104  22.225  25.895  1.00  0.00    -0.352 N 
ATOM     53  C   UNL A   1      39.104  23.103  26.230  1.00  0.00     0.251 C 
ATOM     54  H   UNL A   1      39.814  21.456  25.351  1.00  0.00     0.163 HD
ATOM     55  O   UNL A   1      37.935  22.825  25.970  1.00  0.00    -0.269 OA
BRANCH  53  56
ATOM     56  C   UNL A   1      39.408  24.372  26.931  1.00  0.00     0.039 A 
ATOM     57  C   UNL A   1      39.008  24.509  28.265  1.00  0.00    -0.049 A 
ATOM     58  C   UNL A   1      40.052  25.433  26.289  1.00  0.00    -0.049 A 
ATOM     59  C   UNL A   1      39.316  25.675  28.971  1.00  0.00    -0.053 A 
ATOM     60  H   UNL A   1      38.486  23.749  28.728  1.00  0.00     0.063 H 
ATOM     61  C   UNL A   1      40.417  26.570  27.011  1.00  0.00    -0.053 A 
ATOM     62  H   UNL A   1      40.256  25.376  25.279  1.00  0.00     0.063 H 
ATOM     63  C   UNL A   1      40.057  26.700  28.361  1.00  0.00    -0.014 A 
ATOM     64  H   UNL A   1      38.998  25.783  29.946  1.00  0.00     0.063 H 
ATOM     65  H   UNL A   1      40.955  27.319  26.550  1.00  0.00     0.063 H 
BRANCH  63  66
ATOM     66  C   UNL A   1      40.487  27.892  29.138  1.00  0.00     0.031 A 
ATOM     67  C   UNL A   1      41.879  27.989  29.695  1.00  0.00     0.074 A 
ATOM     68  C   UNL A   1      39.596  28.871  29.386  1.00  0.00     0.049 A 
ATOM     69  N   UNL A   1      42.423  28.951  30.399  1.00  0.00    -0.248 NA
ATOM     70  C   UNL A   1      42.770  26.846  29.453  1.00  0.00    -0.034 C 
ATOM     71  C   UNL A   1      38.198  28.870  28.953  1.00  0.00    -0.036 A 
ATOM     72  N   UNL A   1      39.733  30.057  30.065  1.00  0.00    -0.354 N 
ATOM     73  C   UNL A   1      43.710  28.525  30.694  1.00  0.00     0.074 A 
ATOM     74  C   UNL A   1      43.853  27.198  30.132  1.00  0.00    -0.034 C 
ATOM     75  H   UNL A   1      42.599  25.992  28.899  1.00  0.00     0.065 H 
ATOM     76  C   UNL A   1      37.616  30.014  29.347  1.00  0.00    -0.036 A 
ATOM     77  H   UNL A   1      37.734  28.112  28.428  1.00  0.00     0.065 H 
ATOM     78  C   UNL A   1      38.588  30.815  30.083  1.00  0.00     0.049 A 
ATOM     79  H   UNL A   1      40.573  30.337  30.497  1.00  0.00     0.167 HD
ATOM     80  C   UNL A   1      44.691  29.187  31.354  1.00  0.00     0.037 A 
ATOM     81  H   UNL A   1      44.688  26.603  30.247  1.00  0.00     0.065 H 
ATOM     82  H   UNL A   1      36.638  30.282  29.159  1.00  0.00     0.065 H 
ATOM     83  C   UNL A   1      38.351  32.023  30.627  1.00  0.00     0.037 A 
ATOM     84  C   UNL A   1      44.559  30.518  31.888  1.00  0.00     0.049 A 
ATOM     85  C   UNL A   1      39.460  32.742  31.343  1.00  0.00     0.074 A 
ATOM     86  C   UNL A   1      45.523  31.306  32.493  1.00  0.00    -0.036 A 
ATOM     87  N   UNL A   1      43.384  31.256  31.885  1.00  0.00    -0.354 N 
ATOM     88  N   UNL A   1      40.699  32.366  31.537  1.00  0.00    -0.248 NA
ATOM     89  C   UNL A   1      39.134  34.059  31.908  1.00  0.00    -0.034 C 
ATOM     90  C   UNL A   1      44.921  32.504  32.897  1.00  0.00    -0.036 A 
ATOM     91  H   UNL A   1      46.515  31.053  32.625  1.00  0.00     0.065 H 
ATOM     92  C   UNL A   1      43.592  32.481  32.504  1.00  0.00     0.049 A 
ATOM     93  H   UNL A   1      42.529  30.956  31.500  1.00  0.00     0.167 HD
ATOM     94  C   UNL A   1      41.308  33.404  32.229  1.00  0.00     0.074 A 
ATOM     95  C   UNL A   1      40.305  34.434  32.404  1.00  0.00    -0.034 C 
ATOM     96  H   UNL A   1      38.231  34.559  31.919  1.00  0.00     0.065 H 
ATOM     97  H   UNL A   1      45.388  33.274  33.400  1.00  0.00     0.065 H 
ATOM     98  C   UNL A   1      42.583  33.494  32.680  1.00  0.00     0.037 A 
ATOM     99  H   UNL A   1      40.480  35.345  32.856  1.00  0.00     0.065 H 
BRANCH  80 100
ATOM    100  C   UNL A   1      46.001  28.477  31.539  1.00  0.00     0.064 A 
ATOM    101  C   UNL A   1      46.214  27.593  32.607  1.00  0.00     0.173 A 
ATOM    102  C   UNL A   1      47.045  28.659  30.619  1.00  0.00     0.173 A 
ATOM    103  F   UNL A   1      45.251  27.392  33.519  1.00  0.00    -0.203 F 
ATOM    104  C   UNL A   1      47.436  26.943  32.766  1.00  0.00     0.198 A 
ATOM    105  C   UNL A   1      48.255  27.986  30.766  1.00  0.00     0.198 A 
ATOM    106  F   UNL A   1      46.890  29.487  29.575  1.00  0.00    -0.203 F 
ATOM    107  F   UNL A   1      47.634  26.142  33.823  1.00  0.00    -0.200 F 
ATOM    108  C   UNL A   1      48.452  27.136  31.843  1.00  0.00     0.200 A 
ATOM    109  F   UNL A   1      49.232  28.164  29.866  1.00  0.00    -0.200 F 
ATOM    110  F   UNL A   1      49.626  26.507  31.997  1.00  0.00    -0.200 F 
ENDBRANCH  80 100
BRANCH  83 111
ATOM    111  C   UNL A   1      37.014  32.650  30.472  1.00  0.00     0.064 A 
ATOM    112  C   UNL A   1      36.700  33.385  29.320  1.00  0.00     0.173 A 
ATOM    113  C   UNL A   1      36.027  32.523  31.458  1.00  0.00     0.173 A 
ATOM    114  F   UNL A   1      37.622  33.551  28.360  1.00  0.00    -0.203 F 
ATOM    115  C   UNL A   1      35.450  33.979  29.166  1.00  0.00     0.198 A 
ATOM    116  C   UNL A   1      34.769  33.098  31.292  1.00  0.00     0.198 A 
ATOM    117  F   UNL A   1      36.279  31.827  32.576  1.00  0.00    -0.203 F 
ATOM    118  F   UNL A   1      35.186  34.706  28.071  1.00  0.00    -0.200 F 
ATOM    119  C   UNL A   1      34.484  33.831  30.150  1.00  0.00     0.200 A 
ATOM    120  F   UNL A   1      33.833  32.943  32.239  1.00  0.00    -0.200 F 
ATOM    121  F   UNL A   1      33.279  34.397  29.998  1.00  0.00    -0.200 F 
ENDBRANCH  83 111
BRANCH  98 122
ATOM    122  C   UNL A   1      42.966  34.757  33.392  1.00  0.00     0.064 A 
ATOM    123  C   UNL A   1      42.938  34.846  34.792  1.00  0.00     0.173 A 
ATOM    124  C   UNL A   1      43.377  35.887  32.670  1.00  0.00     0.173 A 
ATOM    125  F   UNL A   1      42.535  33.798  35.526  1.00  0.00    -0.203 F 
ATOM    126  C   UNL A   1      43.281  36.029  35.441  1.00  0.00     0.198 A 
ATOM    127  C   UNL A   1      43.745  37.060  33.323  1.00  0.00     0.198 A 
ATOM    128  F   UNL A   1      43.424  35.853  31.330  1.00  0.00    -0.203 F 
ATOM    129  F   UNL A   1      43.197  36.108  36.776  1.00  0.00    -0.200 F 
ATOM    130  C   UNL A   1      43.689  37.133  34.707  1.00  0.00     0.200 A 
ATOM    131  F   UNL A   1      44.148  38.123  32.613  1.00  0.00    -0.200 F 
ATOM    132  F   UNL A   1      44.017  38.272  35.333  1.00  0.00    -0.200 F 
ENDBRANCH  98 122
ENDBRANCH  63  66
ENDBRANCH  53  56
ENDBRANCH  49  52
ENDBRANCH  46  49
ENDBRANCH  43  46
ENDBRANCH  40  43
ENDBRANCH  37  40
ENDBRANCH   1  37
TORSDOF 19
ENDMDL
MODEL 2
REMARK VINA RESULT:      -9.6      5.090     10.666
REMARK SMILES O=C(CNC(=O)CNC(=O)OCc1ccccc1)NCCCCCCNC(=O)c1ccc(-c2c3nc(c(-c4c(F)c(F)c(F)c(F)c4F)c4ccc([nH]4)c(-c4c(F)c(F)c(F)c(F)c4F)c4nc(c(-c5c(F)c(F)c(F)c(F)c5F)c5ccc2[nH]5)C=C4)C=C3)cc1
REMARK SMILES IDX 20 1 19 4 1 5 2 6 3 8 4 11 5 12 6 14 7 15 8 18 9 19 10 21
REMARK SMILES IDX 11 22 12 23 13 26 14 27 18 28 15 29 17 31 16 33 21 37 22 40
REMARK SMILES IDX 23 43 24 46 25 49 26 52 27 53 28 55 29 56 30 57 91 58 31 59
REMARK SMILES IDX 90 61 32 63 33 66 34 67 84 68 35 69 89 70 83 71 85 72 36 73
REMARK SMILES IDX 88 74 82 76 81 78 37 80 69 83 49 84 68 85 50 86 53 87 67 88
REMARK SMILES IDX 86 89 51 90 52 92 66 94 87 95 54 98 38 100 39 101 47 102
REMARK SMILES IDX 40 103 41 104 45 105 48 106 42 107 43 108 46 109 44 110
REMARK SMILES IDX 70 111 71 112 79 113 72 114 73 115 77 116 80 117 74 118
REMARK SMILES IDX 75 119 78 120 76 121 55 122 56 123 64 124 57 125 58 126
REMARK SMILES IDX 62 127 65 128 59 129 60 130 63 131 61 132
REMARK H PARENT 20 2 20 3 19 7 3 9 3 10 4 13 7 16 7 17 8 20 12 24 12 25 14 30
REMARK H PARENT 18 32 15 34 17 35 16 36 21 38 21 39 22 41 22 42 23 44 23 45
REMARK H PARENT 24 47 24 48 25 50 25 51 26 54 30 60 91 62 31 64 90 65 89 75
REMARK H PARENT 83 77 85 79 88 81 82 82 50 91 53 93 86 96 51 97 87 99
REMARK Flexibility Score: inf
ROOT
ATOM      1  C   UNL A   1      30.305  26.019  25.790  1.00  0.00     0.017 C 
ATOM      2  H   UNL A   1      30.347  26.219  26.840  1.00  0.00     0.049 H 
ATOM      3  H   UNL A   1      29.438  26.445  25.331  1.00  0.00     0.049 H 
ENDROOT
BRANCH   1   4
ATOM      4  N   UNL A   1      30.230  24.582  25.599  1.00  0.00    -0.355 N 
ATOM      5  O   UNL A   1      31.499  24.026  27.429  1.00  0.00    -0.273 OA
ATOM      6  C   UNL A   1      30.810  23.687  26.470  1.00  0.00     0.239 C 
ATOM      7  H   UNL A   1      29.745  24.234  24.816  1.00  0.00     0.163 HD
BRANCH   6   8
ATOM      8  C   UNL A   1      30.612  22.202  26.125  1.00  0.00     0.097 C 
ATOM      9  H   UNL A   1      29.834  22.132  25.394  1.00  0.00     0.059 H 
ATOM     10  H   UNL A   1      30.372  21.709  27.045  1.00  0.00     0.059 H 
BRANCH   8  11
ATOM     11  N   UNL A   1      31.795  21.532  25.597  1.00  0.00    -0.346 N 
ATOM     12  C   UNL A   1      32.262  21.487  24.316  1.00  0.00     0.239 C 
ATOM     13  H   UNL A   1      32.333  21.042  26.261  1.00  0.00     0.164 HD
ATOM     14  O   UNL A   1      33.294  20.849  24.095  1.00  0.00    -0.273 OA
BRANCH  12  15
ATOM     15  C   UNL A   1      31.470  22.142  23.184  1.00  0.00     0.100 C 
ATOM     16  H   UNL A   1      31.052  23.068  23.516  1.00  0.00     0.060 H 
ATOM     17  H   UNL A   1      30.665  21.511  22.869  1.00  0.00     0.060 H 
BRANCH  15  18
ATOM     18  N   UNL A   1      32.397  22.376  22.096  1.00  0.00    -0.312 N 
ATOM     19  C   UNL A   1      32.902  23.572  21.704  1.00  0.00     0.407 C 
ATOM     20  H   UNL A   1      32.691  21.585  21.589  1.00  0.00     0.167 HD
ATOM     21  O   UNL A   1      33.379  23.698  20.584  1.00  0.00    -0.225 OA
BRANCH  19  22
ATOM     22  O   UNL A   1      32.792  24.550  22.631  1.00  0.00    -0.445 OA
BRANCH  22  23
ATOM     23  C   UNL A   1      34.039  25.096  23.098  1.00  0.00     0.118 C 
ATOM     24  H   UNL A   1      33.834  26.007  23.619  1.00  0.00     0.076 H 
ATOM     25  H   UNL A   1      34.655  25.249  22.237  1.00  0.00     0.076 H 
BRANCH  23  26
ATOM     26  C   UNL A   1      34.795  24.172  24.027  1.00  0.00    -0.011 A 
ATOM     27  C   UNL A   1      35.800  23.326  23.539  1.00  0.00    -0.056 A 
ATOM     28  C   UNL A   1      34.479  24.108  25.393  1.00  0.00    -0.056 A 
ATOM     29  C   UNL A   1      36.463  22.442  24.396  1.00  0.00    -0.062 A 
ATOM     30  H   UNL A   1      36.054  23.356  22.539  1.00  0.00     0.063 H 
ATOM     31  C   UNL A   1      35.154  23.242  26.252  1.00  0.00    -0.062 A 
ATOM     32  H   UNL A   1      33.732  24.714  25.769  1.00  0.00     0.063 H 
ATOM     33  C   UNL A   1      36.145  22.404  25.753  1.00  0.00    -0.062 A 
ATOM     34  H   UNL A   1      37.193  21.814  24.022  1.00  0.00     0.062 H 
ATOM     35  H   UNL A   1      34.921  23.223  27.257  1.00  0.00     0.062 H 
ATOM     36  H   UNL A   1      36.642  21.756  26.383  1.00  0.00     0.062 H 
ENDBRANCH  23  26
ENDBRANCH  22  23
ENDBRANCH  19  22
ENDBRANCH  15  18
ENDBRANCH  12  15
ENDBRANCH   8  11
ENDBRANCH   6   8
ENDBRANCH   1   4
BRANCH   1  37
ATOM     37  C   UNL A   1      31.526  26.656  25.125  1.00  0.00    -0.036 C 
ATOM     38  H   UNL A   1      31.185  27.461  24.508  1.00  0.00     0.028 H 
ATOM     39  H   UNL A   1      32.009  25.874  24.577  1.00  0.00     0.028 H 
BRANCH  37  40
ATOM     40  C   UNL A   1      32.578  27.211  26.093  1.00  0.00    -0.052 C 
ATOM     41  H   UNL A   1      33.188  26.393  26.416  1.00  0.00     0.027 H 
ATOM     42  H   UNL A   1      32.023  27.685  26.875  1.00  0.00     0.027 H 
BRANCH  40  43
ATOM     43  C   UNL A   1      33.508  28.293  25.540  1.00  0.00    -0.052 C 
ATOM     44  H   UNL A   1      33.790  28.007  24.549  1.00  0.00     0.027 H 
ATOM     45  H   UNL A   1      34.325  28.351  26.228  1.00  0.00     0.027 H 
BRANCH  43  46
ATOM     46  C   UNL A   1      32.923  29.703  25.472  1.00  0.00    -0.036 C 
ATOM     47  H   UNL A   1      32.127  29.695  24.757  1.00  0.00     0.028 H 
ATOM     48  H   UNL A   1      33.737  30.344  25.207  1.00  0.00     0.028 H 
BRANCH  46  49
ATOM     49  C   UNL A   1      32.369  30.253  26.785  1.00  0.00     0.018 C 
ATOM     50  H   UNL A   1      32.912  29.812  27.596  1.00  0.00     0.049 H 
ATOM     51  H   UNL A   1      31.329  30.010  26.821  1.00  0.00     0.049 H 
BRANCH  49  52
ATOM     52  N   UNL A   1      32.481  31.700  26.887  1.00  0.00    -0.352 N 
ATOM     53  C   UNL A   1      33.428  32.478  27.506  1.00  0.00     0.251 C 
ATOM     54  H   UNL A   1      31.762  32.202  26.439  1.00  0.00     0.163 HD
ATOM     55  O   UNL A   1      33.261  33.693  27.586  1.00  0.00    -0.269 OA
BRANCH  53  56
ATOM     56  C   UNL A   1      34.638  31.871  28.107  1.00  0.00     0.039 A 
ATOM     57  C   UNL A   1      35.786  32.660  28.236  1.00  0.00    -0.049 A 
ATOM     58  C   UNL A   1      34.666  30.535  28.517  1.00  0.00    -0.049 A 
ATOM     59  C   UNL A   1      36.932  32.135  28.838  1.00  0.00    -0.053 A 
ATOM     60  H   UNL A   1      35.787  33.631  27.886  1.00  0.00     0.063 H 
ATOM     61  C   UNL A   1      35.788  30.031  29.177  1.00  0.00    -0.053 A 
ATOM     62  H   UNL A   1      33.858  29.922  28.331  1.00  0.00     0.063 H 
ATOM     63  C   UNL A   1      36.930  30.827  29.349  1.00  0.00    -0.014 A 
ATOM     64  H   UNL A   1      37.785  32.711  28.908  1.00  0.00     0.063 H 
ATOM     65  H   UNL A   1      35.776  29.066  29.542  1.00  0.00     0.063 H 
BRANCH  63  66
ATOM     66  C   UNL A   1      38.104  30.300  30.091  1.00  0.00     0.031 A 
ATOM     67  C   UNL A   1      38.374  30.722  31.508  1.00  0.00     0.074 A 
ATOM     68  C   UNL A   1      38.963  29.474  29.463  1.00  0.00     0.049 A 
ATOM     69  N   UNL A   1      39.352  30.366  32.305  1.00  0.00    -0.248 NA
ATOM     70  C   UNL A   1      37.440  31.689  32.100  1.00  0.00    -0.034 C 
ATOM     71  C   UNL A   1      38.847  29.035  28.072  1.00  0.00    -0.036 A 
ATOM     72  N   UNL A   1      40.104  28.856  29.912  1.00  0.00    -0.354 N 
ATOM     73  C   UNL A   1      39.158  31.074  33.483  1.00  0.00     0.074 A 
ATOM     74  C   UNL A   1      37.996  31.913  33.283  1.00  0.00    -0.034 C 
ATOM     75  H   UNL A   1      36.576  32.088  31.701  1.00  0.00     0.065 H 
ATOM     76  C   UNL A   1      39.855  28.195  27.791  1.00  0.00    -0.036 A 
ATOM     77  H   UNL A   1      38.108  29.326  27.412  1.00  0.00     0.065 H 
ATOM     78  C   UNL A   1      40.703  28.057  28.971  1.00  0.00     0.049 A 
ATOM     79  H   UNL A   1      40.458  28.975  30.823  1.00  0.00     0.167 HD
ATOM     80  C   UNL A   1      39.871  31.013  34.633  1.00  0.00     0.037 A 
ATOM     81  H   UNL A   1      37.646  32.599  33.970  1.00  0.00     0.065 H 
ATOM     82  H   UNL A   1      40.006  27.722  26.886  1.00  0.00     0.065 H 
ATOM     83  C   UNL A   1      41.808  27.293  29.051  1.00  0.00     0.037 A 
ATOM     84  C   UNL A   1      41.010  30.157  34.843  1.00  0.00     0.049 A 
ATOM     85  C   UNL A   1      42.573  27.233  30.343  1.00  0.00     0.074 A 
ATOM     86  C   UNL A   1      41.741  29.960  36.001  1.00  0.00    -0.036 A 
ATOM     87  N   UNL A   1      41.587  29.358  33.866  1.00  0.00    -0.354 N 
ATOM     88  N   UNL A   1      42.328  27.838  31.478  1.00  0.00    -0.248 NA
ATOM     89  C   UNL A   1      43.767  26.376  30.364  1.00  0.00    -0.034 C 
ATOM     90  C   UNL A   1      42.789  29.076  35.714  1.00  0.00    -0.036 A 
ATOM     91  H   UNL A   1      41.549  30.391  36.919  1.00  0.00     0.065 H 
ATOM     92  C   UNL A   1      42.683  28.688  34.389  1.00  0.00     0.049 A 
ATOM     93  H   UNL A   1      41.265  29.279  32.939  1.00  0.00     0.167 HD
ATOM     94  C   UNL A   1      43.321  27.423  32.354  1.00  0.00     0.074 A 
ATOM     95  C   UNL A   1      44.163  26.499  31.623  1.00  0.00    -0.034 C 
ATOM     96  H   UNL A   1      44.187  25.825  29.598  1.00  0.00     0.065 H 
ATOM     97  H   UNL A   1      43.514  28.765  36.378  1.00  0.00     0.065 H 
ATOM     98  C   UNL A   1      43.518  27.777  33.647  1.00  0.00     0.037 A 
ATOM     99  H   UNL A   1      44.968  25.998  32.030  1.00  0.00     0.065 H 
BRANCH  80 100
ATOM    100  C   UNL A   1      39.438  31.904  35.762  1.00  0.00     0.064 A 
ATOM    101  C   UNL A   1      40.005  33.173  35.956  1.00  0.00     0.173 A 
ATOM    102  C   UNL A   1      38.423  31.497  36.641  1.00  0.00     0.173 A 
ATOM    103  F   UNL A   1      40.985  33.605  35.150  1.00  0.00    -0.203 F 
ATOM    104  C   UNL A   1      39.594  33.987  37.009  1.00  0.00     0.198 A 
ATOM    105  C   UNL A   1      37.996  32.325  37.675  1.00  0.00     0.198 A 
ATOM    106  F   UNL A   1      37.842  30.297  36.494  1.00  0.00    -0.203 F 
ATOM    107  F   UNL A   1      40.185  35.174  37.206  1.00  0.00    -0.200 F 
ATOM    108  C   UNL A   1      38.587  33.565  37.864  1.00  0.00     0.200 A 
ATOM    109  F   UNL A   1      37.014  31.921  38.493  1.00  0.00    -0.200 F 
ATOM    110  F   UNL A   1      38.192  34.352  38.874  1.00  0.00    -0.200 F 
ENDBRANCH  80 100
BRANCH  83 111
ATOM    111  C   UNL A   1      42.229  26.483  27.880  1.00  0.00     0.064 A 
ATOM    112  C   UNL A   1      41.666  25.221  27.645  1.00  0.00     0.173 A 
ATOM    113  C   UNL A   1      43.190  26.951  26.973  1.00  0.00     0.173 A 
ATOM    114  F   UNL A   1      40.759  24.724  28.499  1.00  0.00    -0.203 F 
ATOM    115  C   UNL A   1      42.056  24.452  26.551  1.00  0.00     0.198 A 
ATOM    116  C   UNL A   1      43.562  26.190  25.867  1.00  0.00     0.198 A 
ATOM    117  F   UNL A   1      43.756  28.153  27.154  1.00  0.00    -0.203 F 
ATOM    118  F   UNL A   1      41.527  23.234  26.368  1.00  0.00    -0.200 F 
ATOM    119  C   UNL A   1      43.000  24.940  25.660  1.00  0.00     0.200 A 
ATOM    120  F   UNL A   1      44.466  26.669  25.001  1.00  0.00    -0.200 F 
ATOM    121  F   UNL A   1      43.370  24.202  24.604  1.00  0.00    -0.200 F 
ENDBRANCH  83 111
BRANCH  98 122
ATOM    122  C   UNL A   1      44.682  27.150  34.355  1.00  0.00     0.064 A 
ATOM    123  C   UNL A   1      45.948  27.756  34.365  1.00  0.00     0.173 A 
ATOM    124  C   UNL A   1      44.530  25.936  35.042  1.00  0.00     0.173 A 
ATOM    125  F   UNL A   1      46.148  28.908  33.709  1.00  0.00    -0.203 F 
ATOM    126  C   UNL A   1      47.023  27.156  35.013  1.00  0.00     0.198 A 
ATOM    127  C   UNL A   1      45.601  25.352  35.712  1.00  0.00     0.198 A 
ATOM    128  F   UNL A   1      43.340  25.317  35.066  1.00  0.00    -0.203 F 
ATOM    129  F   UNL A   1      48.235  27.726  34.966  1.00  0.00    -0.200 F 
ATOM    130  C   UNL A   1      46.849  25.958  35.690  1.00  0.00     0.200 A 
ATOM    131  F   UNL A   1      45.429  24.199  36.373  1.00  0.00    -0.200 F 
ATOM    132  F   UNL A   1      47.887  25.380  36.312  1.00  0.00    -0.200 F 
ENDBRANCH  98 122
ENDBRANCH  63  66
ENDBRANCH  53  56
ENDBRANCH  49  52
ENDBRANCH  46  49
ENDBRANCH  43  46
ENDBRANCH  40  43
ENDBRANCH  37  40
ENDBRANCH   1  37
TORSDOF 19
ENDMDL
MODEL 3
REMARK VINA RESULT:      -9.5      5.497     11.013
REMARK SMILES O=C(CNC(=O)CNC(=O)OCc1ccccc1)NCCCCCCNC(=O)c1ccc(-c2c3nc(c(-c4c(F)c(F)c(F)c(F)c4F)c4ccc([nH]4)c(-c4c(F)c(F)c(F)c(F)c4F)c4nc(c(-c5c(F)c(F)c(F)c(F)c5F)c5ccc2[nH]5)C=C4)C=C3)cc1
REMARK SMILES IDX 20 1 19 4 1 5 2 6 3 8 4 11 5 12 6 14 7 15 8 18 9 19 10 21
REMARK SMILES IDX 11 22 12 23 13 26 14 27 18 28 15 29 17 31 16 33 21 37 22 40
REMARK SMILES IDX 23 43 24 46 25 49 26 52 27 53 28 55 29 56 30 57 91 58 31 59
REMARK SMILES IDX 90 61 32 63 33 66 34 67 84 68 35 69 89 70 83 71 85 72 36 73
REMARK SMILES IDX 88 74 82 76 81 78 37 80 69 83 49 84 68 85 50 86 53 87 67 88
REMARK SMILES IDX 86 89 51 90 52 92 66 94 87 95 54 98 38 100 39 101 47 102
REMARK SMILES IDX 40 103 41 104 45 105 48 106 42 107 43 108 46 109 44 110
REMARK SMILES IDX 70 111 71 112 79 113 72 114 73 115 77 116 80 117 74 118
REMARK SMILES IDX 75 119 78 120 76 121 55 122 56 123 64 124 57 125 58 126
REMARK SMILES IDX 62 127 65 128 59 129 60 130 63 131 61 132
REMARK H PARENT 20 2 20 3 19 7 3 9 3 10 4 13 7 16 7 17 8 20 12 24 12 25 14 30
REMARK H PARENT 18 32 15 34 17 35 16 36 21 38 21 39 22 41 22 42 23 44 23 45
REMARK H PARENT 24 47 24 48 25 50 25 51 26 54 30 60 91 62 31 64 90 65 89 75
REMARK H PARENT 83 77 85 79 88 81 82 82 50 91 53 93 86 96 51 97 87 99
REMARK Flexibility Score: inf
ROOT
ATOM      1  C   UNL A   1      33.233  27.025  22.050  1.00  0.00     0.017 C 
ATOM      2  H   UNL A   1      32.266  27.397  21.782  1.00  0.00     0.049 H 
ATOM      3  H   UNL A   1      33.832  26.803  21.193  1.00  0.00     0.049 H 
ENDROOT
BRANCH   1   4
ATOM      4  N   UNL A   1      33.062  25.787  22.788  1.00  0.00    -0.355 N 
ATOM      5  O   UNL A   1      33.280  24.394  20.977  1.00  0.00    -0.273 OA
ATOM      6  C   UNL A   1      33.139  24.550  22.187  1.00  0.00     0.239 C 
ATOM      7  H   UNL A   1      32.884  25.834  23.755  1.00  0.00     0.163 HD
BRANCH   6   8
ATOM      8  C   UNL A   1      32.955  23.345  23.124  1.00  0.00     0.097 C 
ATOM      9  H   UNL A   1      33.434  22.500  22.676  1.00  0.00     0.059 H 
ATOM     10  H   UNL A   1      31.899  23.217  23.246  1.00  0.00     0.059 H 
BRANCH   8  11
ATOM     11  N   UNL A   1      33.504  23.521  24.464  1.00  0.00    -0.346 N 
ATOM     12  C   UNL A   1      32.859  23.538  25.667  1.00  0.00     0.239 C 
ATOM     13  H   UNL A   1      34.480  23.646  24.506  1.00  0.00     0.164 HD
ATOM     14  O   UNL A   1      33.532  23.708  26.685  1.00  0.00    -0.273 OA
BRANCH  12  15
ATOM     15  C   UNL A   1      31.334  23.436  25.724  1.00  0.00     0.100 C 
ATOM     16  H   UNL A   1      31.045  22.520  26.196  1.00  0.00     0.060 H 
ATOM     17  H   UNL A   1      30.915  23.445  24.740  1.00  0.00     0.060 H 
BRANCH  15  18
ATOM     18  N   UNL A   1      30.861  24.565  26.497  1.00  0.00    -0.312 N 
ATOM     19  C   UNL A   1      30.717  25.843  26.063  1.00  0.00     0.407 C 
ATOM     20  H   UNL A   1      30.618  24.388  27.434  1.00  0.00     0.167 HD
ATOM     21  O   UNL A   1      30.656  26.760  26.871  1.00  0.00    -0.225 OA
BRANCH  19  22
ATOM     22  O   UNL A   1      30.685  25.970  24.718  1.00  0.00    -0.445 OA
BRANCH  22  23
ATOM     23  C   UNL A   1      29.369  26.050  24.141  1.00  0.00     0.118 C 
ATOM     24  H   UNL A   1      28.651  25.862  24.912  1.00  0.00     0.076 H 
ATOM     25  H   UNL A   1      29.325  25.323  23.358  1.00  0.00     0.076 H 
BRANCH  23  26
ATOM     26  C   UNL A   1      29.061  27.394  23.518  1.00  0.00    -0.011 A 
ATOM     27  C   UNL A   1      27.754  27.901  23.510  1.00  0.00    -0.056 A 
ATOM     28  C   UNL A   1      30.068  28.146  22.894  1.00  0.00    -0.056 A 
ATOM     29  C   UNL A   1      27.469  29.123  22.891  1.00  0.00    -0.062 A 
ATOM     30  H   UNL A   1      26.995  27.369  23.965  1.00  0.00     0.063 H 
ATOM     31  C   UNL A   1      29.789  29.374  22.296  1.00  0.00    -0.062 A 
ATOM     32  H   UNL A   1      31.034  27.783  22.877  1.00  0.00     0.063 H 
ATOM     33  C   UNL A   1      28.487  29.861  22.290  1.00  0.00    -0.062 A 
ATOM     34  H   UNL A   1      26.500  29.479  22.881  1.00  0.00     0.062 H 
ATOM     35  H   UNL A   1      30.546  29.922  21.858  1.00  0.00     0.062 H 
ATOM     36  H   UNL A   1      28.273  30.766  21.841  1.00  0.00     0.062 H 
ENDBRANCH  23  26
ENDBRANCH  22  23
ENDBRANCH  19  22
ENDBRANCH  15  18
ENDBRANCH  12  15
ENDBRANCH   8  11
ENDBRANCH   6   8
ENDBRANCH   1   4
BRANCH   1  37
ATOM     37  C   UNL A   1      33.966  28.108  22.844  1.00  0.00    -0.036 C 
ATOM     38  H   UNL A   1      33.817  29.043  22.345  1.00  0.00     0.028 H 
ATOM     39  H   UNL A   1      34.991  27.806  22.884  1.00  0.00     0.028 H 
BRANCH  37  40
ATOM     40  C   UNL A   1      33.510  28.269  24.299  1.00  0.00    -0.052 C 
ATOM     41  H   UNL A   1      34.365  28.121  24.926  1.00  0.00     0.027 H 
ATOM     42  H   UNL A   1      32.732  27.547  24.435  1.00  0.00     0.027 H 
BRANCH  40  43
ATOM     43  C   UNL A   1      32.887  29.615  24.672  1.00  0.00    -0.052 C 
ATOM     44  H   UNL A   1      32.443  30.026  23.790  1.00  0.00     0.027 H 
ATOM     45  H   UNL A   1      33.686  30.202  25.074  1.00  0.00     0.027 H 
BRANCH  43  46
ATOM     46  C   UNL A   1      31.816  29.574  25.761  1.00  0.00    -0.036 C 
ATOM     47  H   UNL A   1      31.575  28.549  25.948  1.00  0.00     0.028 H 
ATOM     48  H   UNL A   1      30.995  30.150  25.386  1.00  0.00     0.028 H 
BRANCH  46  49
ATOM     49  C   UNL A   1      32.201  30.216  27.092  1.00  0.00     0.018 C 
ATOM     50  H   UNL A   1      33.126  29.788  27.422  1.00  0.00     0.049 H 
ATOM     51  H   UNL A   1      31.405  30.028  27.781  1.00  0.00     0.049 H 
BRANCH  49  52
ATOM     52  N   UNL A   1      32.365  31.658  27.001  1.00  0.00    -0.352 N 
ATOM     53  C   UNL A   1      33.376  32.469  27.453  1.00  0.00     0.251 C 
ATOM     54  H   UNL A   1      31.633  32.129  26.540  1.00  0.00     0.163 HD
ATOM     55  O   UNL A   1      33.253  33.690  27.389  1.00  0.00    -0.269 OA
BRANCH  53  56
ATOM     56  C   UNL A   1      34.605  31.895  28.048  1.00  0.00     0.039 A 
ATOM     57  C   UNL A   1      35.614  32.769  28.467  1.00  0.00    -0.049 A 
ATOM     58  C   UNL A   1      34.789  30.515  28.171  1.00  0.00    -0.049 A 
ATOM     59  C   UNL A   1      36.769  32.266  29.072  1.00  0.00    -0.053 A 
ATOM     60  H   UNL A   1      35.506  33.786  28.331  1.00  0.00     0.063 H 
ATOM     61  C   UNL A   1      35.911  30.016  28.833  1.00  0.00    -0.053 A 
ATOM     62  H   UNL A   1      34.095  29.865  27.770  1.00  0.00     0.063 H 
ATOM     63  C   UNL A   1      36.910  30.886  29.295  1.00  0.00    -0.014 A 
ATOM     64  H   UNL A   1      37.521  32.911  29.357  1.00  0.00     0.063 H 
ATOM     65  H   UNL A   1      36.007  29.000  28.984  1.00  0.00     0.063 H 
BRANCH  63  66
ATOM     66  C   UNL A   1      38.081  30.354  30.039  1.00  0.00     0.031 A 
ATOM     67  C   UNL A   1      38.340  30.759  31.462  1.00  0.00     0.074 A 
ATOM     68  C   UNL A   1      38.946  29.537  29.407  1.00  0.00     0.049 A 
ATOM     69  N   UNL A   1      39.313  30.396  32.262  1.00  0.00    -0.248 NA
ATOM     70  C   UNL A   1      37.399  31.716  32.060  1.00  0.00    -0.034 C 
ATOM     71  C   UNL A   1      38.840  29.116  28.009  1.00  0.00    -0.036 A 
ATOM     72  N   UNL A   1      40.086  28.918  29.856  1.00  0.00    -0.354 N 
ATOM     73  C   UNL A   1      39.109  31.089  33.447  1.00  0.00     0.074 A 
ATOM     74  C   UNL A   1      37.946  31.927  33.249  1.00  0.00    -0.034 C 
ATOM     75  H   UNL A   1      36.536  32.118  31.660  1.00  0.00     0.065 H 
ATOM     76  C   UNL A   1      39.853  28.281  27.725  1.00  0.00    -0.036 A 
ATOM     77  H   UNL A   1      38.106  29.412  27.348  1.00  0.00     0.065 H 
ATOM     78  C   UNL A   1      40.694  28.131  28.909  1.00  0.00     0.049 A 
ATOM     79  H   UNL A   1      40.434  29.027  30.771  1.00  0.00     0.167 HD
ATOM     80  C   UNL A   1      39.815  31.016  34.602  1.00  0.00     0.037 A 
ATOM     81  H   UNL A   1      37.590  32.603  33.942  1.00  0.00     0.065 H 
ATOM     82  H   UNL A   1      40.012  27.821  26.816  1.00  0.00     0.065 H 
ATOM     83  C   UNL A   1      41.800  27.370  28.987  1.00  0.00     0.037 A 
ATOM     84  C   UNL A   1      40.954  30.160  34.809  1.00  0.00     0.049 A 
ATOM     85  C   UNL A   1      42.557  27.297  30.284  1.00  0.00     0.074 A 
ATOM     86  C   UNL A   1      41.679  29.952  35.969  1.00  0.00    -0.036 A 
ATOM     87  N   UNL A   1      41.540  29.376  33.826  1.00  0.00    -0.354 N 
ATOM     88  N   UNL A   1      42.302  27.887  31.425  1.00  0.00    -0.248 NA
ATOM     89  C   UNL A   1      43.753  26.443  30.302  1.00  0.00    -0.034 C 
ATOM     90  C   UNL A   1      42.730  29.074  35.679  1.00  0.00    -0.036 A 
ATOM     91  H   UNL A   1      41.478  30.371  36.891  1.00  0.00     0.065 H 
ATOM     92  C   UNL A   1      42.635  28.702  34.348  1.00  0.00     0.049 A 
ATOM     93  H   UNL A   1      41.225  29.307  32.896  1.00  0.00     0.167 HD
ATOM     94  C   UNL A   1      43.290  27.464  32.302  1.00  0.00     0.074 A 
ATOM     95  C   UNL A   1      44.140  26.551  31.565  1.00  0.00    -0.034 C 
ATOM     96  H   UNL A   1      44.180  25.902  29.533  1.00  0.00     0.065 H 
ATOM     97  H   UNL A   1      43.452  28.757  36.343  1.00  0.00     0.065 H 
ATOM     98  C   UNL A   1      43.478  27.803  33.601  1.00  0.00     0.037 A 
ATOM     99  H   UNL A   1      44.944  26.048  31.972  1.00  0.00     0.065 H 
BRANCH  80 100
ATOM    100  C   UNL A   1      39.371  31.892  35.738  1.00  0.00     0.064 A 
ATOM    101  C   UNL A   1      39.897  33.179  35.922  1.00  0.00     0.173 A 
ATOM    102  C   UNL A   1      38.387  31.450  36.635  1.00  0.00     0.173 A 
ATOM    103  F   UNL A   1      40.847  33.645  35.098  1.00  0.00    -0.203 F 
ATOM    104  C   UNL A   1      39.477  33.980  36.982  1.00  0.00     0.198 A 
ATOM    105  C   UNL A   1      37.950  32.263  37.677  1.00  0.00     0.198 A 
ATOM    106  F   UNL A   1      37.846  30.230  36.499  1.00  0.00    -0.203 F 
ATOM    107  F   UNL A   1      40.030  35.187  37.169  1.00  0.00    -0.200 F 
ATOM    108  C   UNL A   1      38.501  33.523  37.855  1.00  0.00     0.200 A 
ATOM    109  F   UNL A   1      36.998  31.826  38.513  1.00  0.00    -0.200 F 
ATOM    110  F   UNL A   1      38.097  34.296  38.873  1.00  0.00    -0.200 F 
ENDBRANCH  80 100
BRANCH  83 111
ATOM    111  C   UNL A   1      42.232  26.576  27.809  1.00  0.00     0.064 A 
ATOM    112  C   UNL A   1      43.195  27.079  26.923  1.00  0.00     0.173 A 
ATOM    113  C   UNL A   1      41.702  25.305  27.549  1.00  0.00     0.173 A 
ATOM    114  F   UNL A   1      43.712  28.300  27.121  1.00  0.00    -0.203 F 
ATOM    115  C   UNL A   1      43.604  26.343  25.814  1.00  0.00     0.198 A 
ATOM    116  C   UNL A   1      42.130  24.560  26.452  1.00  0.00     0.198 A 
ATOM    117  F   UNL A   1      40.781  24.780  28.370  1.00  0.00    -0.203 F 
ATOM    118  F   UNL A   1      44.501  26.862  24.963  1.00  0.00    -0.200 F 
ATOM    119  C   UNL A   1      43.076  25.082  25.582  1.00  0.00     0.200 A 
ATOM    120  F   UNL A   1      41.626  23.337  26.237  1.00  0.00    -0.200 F 
ATOM    121  F   UNL A   1      43.475  24.372  24.518  1.00  0.00    -0.200 F 
ENDBRANCH  83 111
BRANCH  98 122
ATOM    122  C   UNL A   1      44.639  27.170  34.309  1.00  0.00     0.064 A 
ATOM    123  C   UNL A   1      45.895  27.794  34.360  1.00  0.00     0.173 A 
ATOM    124  C   UNL A   1      44.493  25.934  34.955  1.00  0.00     0.173 A 
ATOM    125  F   UNL A   1      46.090  28.968  33.743  1.00  0.00    -0.203 F 
ATOM    126  C   UNL A   1      46.968  27.189  35.007  1.00  0.00     0.198 A 
ATOM    127  C   UNL A   1      45.561  25.344  35.625  1.00  0.00     0.198 A 
ATOM    128  F   UNL A   1      43.311  25.298  34.939  1.00  0.00    -0.203 F 
ATOM    129  F   UNL A   1      48.172  27.777  34.999  1.00  0.00    -0.200 F 
ATOM    130  C   UNL A   1      46.800  25.968  35.644  1.00  0.00     0.200 A 
ATOM    131  F   UNL A   1      45.394  24.169  36.247  1.00  0.00    -0.200 F 
ATOM    132  F   UNL A   1      47.835  25.386  36.265  1.00  0.00    -0.200 F 
ENDBRANCH  98 122
ENDBRANCH  63  66
ENDBRANCH  53  56
ENDBRANCH  49  52
ENDBRANCH  46  49
ENDBRANCH  43  46
ENDBRANCH  40  43
ENDBRANCH  37  40
ENDBRANCH   1  37
TORSDOF 19
ENDMDL
MODEL 4
REMARK VINA RESULT:      -9.5      5.103      9.979
REMARK SMILES O=C(CNC(=O)CNC(=O)OCc1ccccc1)NCCCCCCNC(=O)c1ccc(-c2c3nc(c(-c4c(F)c(F)c(F)c(F)c4F)c4ccc([nH]4)c(-c4c(F)c(F)c(F)c(F)c4F)c4nc(c(-c5c(F)c(F)c(F)c(F)c5F)c5ccc2[nH]5)C=C4)C=C3)cc1
REMARK SMILES IDX 20 1 19 4 1 5 2 6 3 8 4 11 5 12 6 14 7 15 8 18 9 19 10 21
REMARK SMILES IDX 11 22 12 23 13 26 14 27 18 28 15 29 17 31 16 33 21 37 22 40
REMARK SMILES IDX 23 43 24 46 25 49 26 52 27 53 28 55 29 56 30 57 91 58 31 59
REMARK SMILES IDX 90 61 32 63 33 66 34 67 84 68 35 69 89 70 83 71 85 72 36 73
REMARK SMILES IDX 88 74 82 76 81 78 37 80 69 83 49 84 68 85 50 86 53 87 67 88
REMARK SMILES IDX 86 89 51 90 52 92 66 94 87 95 54 98 38 100 39 101 47 102
REMARK SMILES IDX 40 103 41 104 45 105 48 106 42 107 43 108 46 109 44 110
REMARK SMILES IDX 70 111 71 112 79 113 72 114 73 115 77 116 80 117 74 118
REMARK SMILES IDX 75 119 78 120 76 121 55 122 56 123 64 124 57 125 58 126
REMARK SMILES IDX 62 127 65 128 59 129 60 130 63 131 61 132
REMARK H PARENT 20 2 20 3 19 7 3 9 3 10 4 13 7 16 7 17 8 20 12 24 12 25 14 30
REMARK H PARENT 18 32 15 34 17 35 16 36 21 38 21 39 22 41 22 42 23 44 23 45
REMARK H PARENT 24 47 24 48 25 50 25 51 26 54 30 60 91 62 31 64 90 65 89 75
REMARK H PARENT 83 77 85 79 88 81 82 82 50 91 53 93 86 96 51 97 87 99
REMARK Flexibility Score: inf
ROOT
ATOM      1  C   UNL A   1      31.026  26.896  26.209  1.00  0.00     0.017 C 
ATOM      2  H   UNL A   1      30.434  26.949  27.099  1.00  0.00     0.049 H 
ATOM      3  H   UNL A   1      30.488  27.225  25.345  1.00  0.00     0.049 H 
ENDROOT
BRANCH   1   4
ATOM      4  N   UNL A   1      31.394  25.510  25.983  1.00  0.00    -0.355 N 
ATOM      5  O   UNL A   1      29.484  24.603  26.876  1.00  0.00    -0.273 OA
ATOM      6  C   UNL A   1      30.562  24.460  26.305  1.00  0.00     0.239 C 
ATOM      7  H   UNL A   1      32.271  25.313  25.584  1.00  0.00     0.163 HD
BRANCH   6   8
ATOM      8  C   UNL A   1      31.103  23.060  25.976  1.00  0.00     0.097 C 
ATOM      9  H   UNL A   1      31.381  23.045  24.943  1.00  0.00     0.059 H 
ATOM     10  H   UNL A   1      30.319  22.371  26.212  1.00  0.00     0.059 H 
BRANCH   8  11
ATOM     11  N   UNL A   1      32.260  22.649  26.764  1.00  0.00    -0.346 N 
ATOM     12  C   UNL A   1      33.340  21.903  26.390  1.00  0.00     0.239 C 
ATOM     13  H   UNL A   1      32.262  22.955  27.701  1.00  0.00     0.164 HD
ATOM     14  O   UNL A   1      34.208  21.672  27.233  1.00  0.00    -0.273 OA
BRANCH  12  15
ATOM     15  C   UNL A   1      33.411  21.304  24.984  1.00  0.00     0.100 C 
ATOM     16  H   UNL A   1      32.490  21.470  24.467  1.00  0.00     0.060 H 
ATOM     17  H   UNL A   1      33.579  20.249  25.028  1.00  0.00     0.060 H 
BRANCH  15  18
ATOM     18  N   UNL A   1      34.496  21.971  24.293  1.00  0.00    -0.312 N 
ATOM     19  C   UNL A   1      34.414  23.112  23.564  1.00  0.00     0.407 C 
ATOM     20  H   UNL A   1      35.384  21.553  24.361  1.00  0.00     0.167 HD
ATOM     21  O   UNL A   1      35.288  23.383  22.751  1.00  0.00    -0.225 OA
BRANCH  19  22
ATOM     22  O   UNL A   1      33.305  23.846  23.807  1.00  0.00    -0.445 OA
BRANCH  22  23
ATOM     23  C   UNL A   1      32.655  24.380  22.640  1.00  0.00     0.118 C 
ATOM     24  H   UNL A   1      31.674  23.958  22.578  1.00  0.00     0.076 H 
ATOM     25  H   UNL A   1      33.263  24.124  21.798  1.00  0.00     0.076 H 
BRANCH  23  26
ATOM     26  C   UNL A   1      32.528  25.888  22.654  1.00  0.00    -0.011 A 
ATOM     27  C   UNL A   1      33.653  26.703  22.835  1.00  0.00    -0.056 A 
ATOM     28  C   UNL A   1      31.274  26.506  22.529  1.00  0.00    -0.056 A 
ATOM     29  C   UNL A   1      33.521  28.095  22.892  1.00  0.00    -0.062 A 
ATOM     30  H   UNL A   1      34.587  26.274  22.926  1.00  0.00     0.063 H 
ATOM     31  C   UNL A   1      31.144  27.894  22.564  1.00  0.00    -0.062 A 
ATOM     32  H   UNL A   1      30.431  25.922  22.408  1.00  0.00     0.063 H 
ATOM     33  C   UNL A   1      32.268  28.689  22.751  1.00  0.00    -0.062 A 
ATOM     34  H   UNL A   1      34.356  28.684  23.039  1.00  0.00     0.062 H 
ATOM     35  H   UNL A   1      30.216  28.330  22.452  1.00  0.00     0.062 H 
ATOM     36  H   UNL A   1      32.177  29.717  22.786  1.00  0.00     0.062 H 
ENDBRANCH  23  26
ENDBRANCH  22  23
ENDBRANCH  19  22
ENDBRANCH  15  18
ENDBRANCH  12  15
ENDBRANCH   8  11
ENDBRANCH   6   8
ENDBRANCH   1   4
BRANCH   1  37
ATOM     37  C   UNL A   1      32.230  27.825  26.371  1.00  0.00    -0.036 C 
ATOM     38  H   UNL A   1      32.672  27.966  25.407  1.00  0.00     0.028 H 
ATOM     39  H   UNL A   1      32.882  27.348  27.073  1.00  0.00     0.028 H 
BRANCH  37  40
ATOM     40  C   UNL A   1      31.911  29.206  26.955  1.00  0.00    -0.052 C 
ATOM     41  H   UNL A   1      32.749  29.510  27.549  1.00  0.00     0.027 H 
ATOM     42  H   UNL A   1      31.002  29.080  27.505  1.00  0.00     0.027 H 
BRANCH  40  43
ATOM     43  C   UNL A   1      31.627  30.321  25.948  1.00  0.00    -0.052 C 
ATOM     44  H   UNL A   1      30.745  30.055  25.404  1.00  0.00     0.027 H 
ATOM     45  H   UNL A   1      32.507  30.396  25.343  1.00  0.00     0.027 H 
BRANCH  43  46
ATOM     46  C   UNL A   1      31.412  31.714  26.538  1.00  0.00    -0.036 C 
ATOM     47  H   UNL A   1      30.808  31.610  27.415  1.00  0.00     0.028 H 
ATOM     48  H   UNL A   1      30.954  32.293  25.763  1.00  0.00     0.028 H 
BRANCH  46  49
ATOM     49  C   UNL A   1      32.680  32.469  26.929  1.00  0.00     0.018 C 
ATOM     50  H   UNL A   1      33.330  32.508  26.080  1.00  0.00     0.049 H 
ATOM     51  H   UNL A   1      33.124  31.947  27.750  1.00  0.00     0.049 H 
BRANCH  49  52
ATOM     52  N   UNL A   1      32.417  33.830  27.372  1.00  0.00    -0.352 N 
ATOM     53  C   UNL A   1      32.995  34.567  28.376  1.00  0.00     0.251 C 
ATOM     54  H   UNL A   1      31.710  34.298  26.871  1.00  0.00     0.163 HD
ATOM     55  O   UNL A   1      32.528  35.664  28.674  1.00  0.00    -0.269 OA
BRANCH  53  56
ATOM     56  C   UNL A   1      34.159  34.046  29.130  1.00  0.00     0.039 A 
ATOM     57  C   UNL A   1      33.923  33.205  30.223  1.00  0.00    -0.049 A 
ATOM     58  C   UNL A   1      35.470  34.395  28.795  1.00  0.00    -0.049 A 
ATOM     59  C   UNL A   1      34.998  32.660  30.930  1.00  0.00    -0.053 A 
ATOM     60  H   UNL A   1      32.955  32.986  30.506  1.00  0.00     0.063 H 
ATOM     61  C   UNL A   1      36.543  33.800  29.460  1.00  0.00    -0.053 A 
ATOM     62  H   UNL A   1      35.644  35.095  28.056  1.00  0.00     0.063 H 
ATOM     63  C   UNL A   1      36.318  32.923  30.530  1.00  0.00    -0.014 A 
ATOM     64  H   UNL A   1      34.820  32.061  31.751  1.00  0.00     0.063 H 
ATOM     65  H   UNL A   1      37.509  34.007  29.161  1.00  0.00     0.063 H 
BRANCH  63  66
ATOM     66  C   UNL A   1      37.462  32.257  31.206  1.00  0.00     0.031 A 
ATOM     67  C   UNL A   1      38.203  31.133  30.540  1.00  0.00     0.074 A 
ATOM     68  C   UNL A   1      37.802  32.638  32.452  1.00  0.00     0.049 A 
ATOM     69  N   UNL A   1      39.221  30.436  30.982  1.00  0.00    -0.248 NA
ATOM     70  C   UNL A   1      37.725  30.718  29.214  1.00  0.00    -0.034 C 
ATOM     71  C   UNL A   1      37.125  33.675  33.232  1.00  0.00    -0.036 A 
ATOM     72  N   UNL A   1      38.800  32.194  33.284  1.00  0.00    -0.354 N 
ATOM     73  C   UNL A   1      39.494  29.495  29.999  1.00  0.00     0.074 A 
ATOM     74  C   UNL A   1      38.508  29.680  28.955  1.00  0.00    -0.034 C 
ATOM     75  H   UNL A   1      36.975  31.128  28.634  1.00  0.00     0.065 H 
ATOM     76  C   UNL A   1      37.747  33.812  34.414  1.00  0.00    -0.036 A 
ATOM     77  H   UNL A   1      36.302  34.215  32.923  1.00  0.00     0.065 H 
ATOM     78  C   UNL A   1      38.847  32.855  34.487  1.00  0.00     0.049 A 
ATOM     79  H   UNL A   1      39.424  31.472  33.041  1.00  0.00     0.167 HD
ATOM     80  C   UNL A   1      40.489  28.576  29.960  1.00  0.00     0.037 A 
ATOM     81  H   UNL A   1      38.424  29.081  28.120  1.00  0.00     0.065 H 
ATOM     82  H   UNL A   1      37.489  34.485  35.152  1.00  0.00     0.065 H 
ATOM     83  C   UNL A   1      39.685  32.710  35.530  1.00  0.00     0.037 A 
ATOM     84  C   UNL A   1      41.488  28.412  30.984  1.00  0.00     0.049 A 
ATOM     85  C   UNL A   1      40.788  31.692  35.455  1.00  0.00     0.074 A 
ATOM     86  C   UNL A   1      42.586  27.570  30.992  1.00  0.00    -0.036 A 
ATOM     87  N   UNL A   1      41.504  29.101  32.188  1.00  0.00    -0.354 N 
ATOM     88  N   UNL A   1      41.091  30.870  34.482  1.00  0.00    -0.248 NA
ATOM     89  C   UNL A   1      41.671  31.590  36.626  1.00  0.00    -0.034 C 
ATOM     90  C   UNL A   1      43.243  27.717  32.220  1.00  0.00    -0.036 A 
ATOM     91  H   UNL A   1      42.872  26.941  30.226  1.00  0.00     0.065 H 
ATOM     92  C   UNL A   1      42.579  28.683  32.959  1.00  0.00     0.049 A 
ATOM     93  H   UNL A   1      40.850  29.786  32.455  1.00  0.00     0.167 HD
ATOM     94  C   UNL A   1      42.208  30.166  34.910  1.00  0.00     0.074 A 
ATOM     95  C   UNL A   1      42.540  30.672  36.226  1.00  0.00    -0.034 C 
ATOM     96  H   UNL A   1      41.626  32.097  37.524  1.00  0.00     0.065 H 
ATOM     97  H   UNL A   1      44.081  27.196  32.522  1.00  0.00     0.065 H 
ATOM     98  C   UNL A   1      42.894  29.188  34.271  1.00  0.00     0.037 A 
ATOM     99  H   UNL A   1      43.351  30.359  36.782  1.00  0.00     0.065 H 
BRANCH  80 100
ATOM    100  C   UNL A   1      40.546  27.671  28.763  1.00  0.00     0.064 A 
ATOM    101  C   UNL A   1      41.335  27.979  27.645  1.00  0.00     0.173 A 
ATOM    102  C   UNL A   1      39.827  26.466  28.748  1.00  0.00     0.173 A 
ATOM    103  F   UNL A   1      42.033  29.124  27.606  1.00  0.00    -0.203 F 
ATOM    104  C   UNL A   1      41.376  27.131  26.541  1.00  0.00     0.198 A 
ATOM    105  C   UNL A   1      39.893  25.607  27.654  1.00  0.00     0.198 A 
ATOM    106  F   UNL A   1      39.064  26.120  29.795  1.00  0.00    -0.203 F 
ATOM    107  F   UNL A   1      42.096  27.470  25.463  1.00  0.00    -0.200 F 
ATOM    108  C   UNL A   1      40.660  25.943  26.549  1.00  0.00     0.200 A 
ATOM    109  F   UNL A   1      39.210  24.454  27.668  1.00  0.00    -0.200 F 
ATOM    110  F   UNL A   1      40.703  25.127  25.487  1.00  0.00    -0.200 F 
ENDBRANCH  80 100
BRANCH  83 111
ATOM    111  C   UNL A   1      39.540  33.589  36.718  1.00  0.00     0.064 A 
ATOM    112  C   UNL A   1      40.186  34.832  36.769  1.00  0.00     0.173 A 
ATOM    113  C   UNL A   1      38.755  33.212  37.816  1.00  0.00     0.173 A 
ATOM    114  F   UNL A   1      40.966  35.223  35.751  1.00  0.00    -0.203 F 
ATOM    115  C   UNL A   1      40.059  35.662  37.880  1.00  0.00     0.198 A 
ATOM    116  C   UNL A   1      38.610  34.054  38.916  1.00  0.00     0.198 A 
ATOM    117  F   UNL A   1      38.115  32.034  37.812  1.00  0.00    -0.203 F 
ATOM    118  F   UNL A   1      40.715  36.831  37.919  1.00  0.00    -0.200 F 
ATOM    119  C   UNL A   1      39.267  35.275  38.950  1.00  0.00     0.200 A 
ATOM    120  F   UNL A   1      37.834  33.683  39.944  1.00  0.00    -0.200 F 
ATOM    121  F   UNL A   1      39.140  36.077  40.016  1.00  0.00    -0.200 F 
ENDBRANCH  83 111
BRANCH  98 122
ATOM    122  C   UNL A   1      44.082  28.612  34.984  1.00  0.00     0.064 A 
ATOM    123  C   UNL A   1      43.964  27.490  35.817  1.00  0.00     0.173 A 
ATOM    124  C   UNL A   1      45.355  29.181  34.824  1.00  0.00     0.173 A 
ATOM    125  F   UNL A   1      42.766  26.921  36.016  1.00  0.00    -0.203 F 
ATOM    126  C   UNL A   1      45.071  26.975  36.484  1.00  0.00     0.198 A 
ATOM    127  C   UNL A   1      46.465  28.648  35.472  1.00  0.00     0.198 A 
ATOM    128  F   UNL A   1      45.521  30.254  34.036  1.00  0.00    -0.203 F 
ATOM    129  F   UNL A   1      44.926  25.934  37.316  1.00  0.00    -0.200 F 
ATOM    130  C   UNL A   1      46.321  27.550  36.308  1.00  0.00     0.200 A 
ATOM    131  F   UNL A   1      47.673  29.198  35.293  1.00  0.00    -0.200 F 
ATOM    132  F   UNL A   1      47.386  27.054  36.953  1.00  0.00    -0.200 F 
ENDBRANCH  98 122
ENDBRANCH  63  66
ENDBRANCH  53  56
ENDBRANCH  49  52
ENDBRANCH  46  49
ENDBRANCH  43  46
ENDBRANCH  40  43
ENDBRANCH  37  40
ENDBRANCH   1  37
TORSDOF 19
ENDMDL
MODEL 5
REMARK VINA RESULT:      -9.4      5.092     10.785
REMARK SMILES O=C(CNC(=O)CNC(=O)OCc1ccccc1)NCCCCCCNC(=O)c1ccc(-c2c3nc(c(-c4c(F)c(F)c(F)c(F)c4F)c4ccc([nH]4)c(-c4c(F)c(F)c(F)c(F)c4F)c4nc(c(-c5c(F)c(F)c(F)c(F)c5F)c5ccc2[nH]5)C=C4)C=C3)cc1
REMARK SMILES IDX 20 1 19 4 1 5 2 6 3 8 4 11 5 12 6 14 7 15 8 18 9 19 10 21
REMARK SMILES IDX 11 22 12 23 13 26 14 27 18 28 15 29 17 31 16 33 21 37 22 40
REMARK SMILES IDX 23 43 24 46 25 49 26 52 27 53 28 55 29 56 30 57 91 58 31 59
REMARK SMILES IDX 90 61 32 63 33 66 34 67 84 68 35 69 89 70 83 71 85 72 36 73
REMARK SMILES IDX 88 74 82 76 81 78 37 80 69 83 49 84 68 85 50 86 53 87 67 88
REMARK SMILES IDX 86 89 51 90 52 92 66 94 87 95 54 98 38 100 39 101 47 102
REMARK SMILES IDX 40 103 41 104 45 105 48 106 42 107 43 108 46 109 44 110
REMARK SMILES IDX 70 111 71 112 79 113 72 114 73 115 77 116 80 117 74 118
REMARK SMILES IDX 75 119 78 120 76 121 55 122 56 123 64 124 57 125 58 126
REMARK SMILES IDX 62 127 65 128 59 129 60 130 63 131 61 132
REMARK H PARENT 20 2 20 3 19 7 3 9 3 10 4 13 7 16 7 17 8 20 12 24 12 25 14 30
REMARK H PARENT 18 32 15 34 17 35 16 36 21 38 21 39 22 41 22 42 23 44 23 45
REMARK H PARENT 24 47 24 48 25 50 25 51 26 54 30 60 91 62 31 64 90 65 89 75
REMARK H PARENT 83 77 85 79 88 81 82 82 50 91 53 93 86 96 51 97 87 99
REMARK Flexibility Score: inf
ROOT
ATOM      1  C   UNL A   1      31.014  26.801  26.426  1.00  0.00     0.017 C 
ATOM      2  H   UNL A   1      30.503  26.928  27.357  1.00  0.00     0.049 H 
ATOM      3  H   UNL A   1      30.418  27.105  25.592  1.00  0.00     0.049 H 
ENDROOT
BRANCH   1   4
ATOM      4  N   UNL A   1      31.308  25.390  26.251  1.00  0.00    -0.355 N 
ATOM      5  O   UNL A   1      29.234  24.631  26.877  1.00  0.00    -0.273 OA
ATOM      6  C   UNL A   1      30.366  24.406  26.457  1.00  0.00     0.239 C 
ATOM      7  H   UNL A   1      32.215  25.127  25.974  1.00  0.00     0.163 HD
BRANCH   6   8
ATOM      8  C   UNL A   1      30.844  22.967  26.203  1.00  0.00     0.097 C 
ATOM      9  H   UNL A   1      31.064  22.869  25.161  1.00  0.00     0.059 H 
ATOM     10  H   UNL A   1      30.052  22.326  26.530  1.00  0.00     0.059 H 
BRANCH   8  11
ATOM     11  N   UNL A   1      32.029  22.573  26.957  1.00  0.00    -0.346 N 
ATOM     12  C   UNL A   1      33.162  21.949  26.522  1.00  0.00     0.239 C 
ATOM     13  H   UNL A   1      32.007  22.788  27.918  1.00  0.00     0.164 HD
ATOM     14  O   UNL A   1      34.045  21.706  27.346  1.00  0.00    -0.273 OA
BRANCH  12  15
ATOM     15  C   UNL A   1      33.278  21.492  25.067  1.00  0.00     0.100 C 
ATOM     16  H   UNL A   1      32.362  21.680  24.549  1.00  0.00     0.060 H 
ATOM     17  H   UNL A   1      33.479  20.443  25.012  1.00  0.00     0.060 H 
BRANCH  15  18
ATOM     18  N   UNL A   1      34.354  22.255  24.467  1.00  0.00    -0.312 N 
ATOM     19  C   UNL A   1      34.230  23.365  23.697  1.00  0.00     0.407 C 
ATOM     20  H   UNL A   1      35.269  21.935  24.636  1.00  0.00     0.167 HD
ATOM     21  O   UNL A   1      35.151  23.710  22.968  1.00  0.00    -0.225 OA
BRANCH  19  22
ATOM     22  O   UNL A   1      33.033  23.983  23.805  1.00  0.00    -0.445 OA
BRANCH  22  23
ATOM     23  C   UNL A   1      32.535  24.571  22.590  1.00  0.00     0.118 C 
ATOM     24  H   UNL A   1      31.628  24.072  22.321  1.00  0.00     0.076 H 
ATOM     25  H   UNL A   1      33.298  24.455  21.850  1.00  0.00     0.076 H 
BRANCH  23  26
ATOM     26  C   UNL A   1      32.250  26.053  22.706  1.00  0.00    -0.011 A 
ATOM     27  C   UNL A   1      30.934  26.529  22.782  1.00  0.00    -0.056 A 
ATOM     28  C   UNL A   1      33.295  26.990  22.697  1.00  0.00    -0.056 A 
ATOM     29  C   UNL A   1      30.677  27.902  22.842  1.00  0.00    -0.062 A 
ATOM     30  H   UNL A   1      30.147  25.861  22.793  1.00  0.00     0.063 H 
ATOM     31  C   UNL A   1      33.041  28.358  22.779  1.00  0.00    -0.062 A 
ATOM     32  H   UNL A   1      34.271  26.660  22.628  1.00  0.00     0.063 H 
ATOM     33  C   UNL A   1      31.730  28.816  22.847  1.00  0.00    -0.062 A 
ATOM     34  H   UNL A   1      29.703  28.241  22.885  1.00  0.00     0.062 H 
ATOM     35  H   UNL A   1      33.823  29.031  22.790  1.00  0.00     0.062 H 
ATOM     36  H   UNL A   1      31.536  29.828  22.900  1.00  0.00     0.062 H 
ENDBRANCH  23  26
ENDBRANCH  22  23
ENDBRANCH  19  22
ENDBRANCH  15  18
ENDBRANCH  12  15
ENDBRANCH   8  11
ENDBRANCH   6   8
ENDBRANCH   1   4
BRANCH   1  37
ATOM     37  C   UNL A   1      32.263  27.684  26.433  1.00  0.00    -0.036 C 
ATOM     38  H   UNL A   1      32.557  27.851  25.418  1.00  0.00     0.028 H 
ATOM     39  H   UNL A   1      32.997  27.158  27.008  1.00  0.00     0.028 H 
BRANCH  37  40
ATOM     40  C   UNL A   1      32.089  29.050  27.110  1.00  0.00    -0.052 C 
ATOM     41  H   UNL A   1      32.983  29.256  27.662  1.00  0.00     0.027 H 
ATOM     42  H   UNL A   1      31.209  28.960  27.711  1.00  0.00     0.027 H 
BRANCH  40  43
ATOM     43  C   UNL A   1      31.830  30.239  26.183  1.00  0.00    -0.052 C 
ATOM     44  H   UNL A   1      30.961  30.017  25.601  1.00  0.00     0.027 H 
ATOM     45  H   UNL A   1      32.724  30.357  25.607  1.00  0.00     0.027 H 
BRANCH  43  46
ATOM     46  C   UNL A   1      31.603  31.583  26.873  1.00  0.00    -0.036 C 
ATOM     47  H   UNL A   1      31.334  31.390  27.890  1.00  0.00     0.028 H 
ATOM     48  H   UNL A   1      30.837  32.075  26.309  1.00  0.00     0.028 H 
BRANCH  46  49
ATOM     49  C   UNL A   1      32.796  32.536  26.876  1.00  0.00     0.018 C 
ATOM     50  H   UNL A   1      33.118  32.683  25.865  1.00  0.00     0.049 H 
ATOM     51  H   UNL A   1      33.560  32.091  27.478  1.00  0.00     0.049 H 
BRANCH  49  52
ATOM     52  N   UNL A   1      32.486  33.833  27.455  1.00  0.00    -0.352 N 
ATOM     53  C   UNL A   1      33.044  34.486  28.526  1.00  0.00     0.251 C 
ATOM     54  H   UNL A   1      31.758  34.323  27.006  1.00  0.00     0.163 HD
ATOM     55  O   UNL A   1      32.538  35.529  28.936  1.00  0.00    -0.269 OA
BRANCH  53  56
ATOM     56  C   UNL A   1      34.231  33.936  29.219  1.00  0.00     0.039 A 
ATOM     57  C   UNL A   1      34.032  33.035  30.272  1.00  0.00    -0.049 A 
ATOM     58  C   UNL A   1      35.530  34.314  28.869  1.00  0.00    -0.049 A 
ATOM     59  C   UNL A   1      35.129  32.463  30.920  1.00  0.00    -0.053 A 
ATOM     60  H   UNL A   1      33.073  32.794  30.569  1.00  0.00     0.063 H 
ATOM     61  C   UNL A   1      36.625  33.694  29.471  1.00  0.00    -0.053 A 
ATOM     62  H   UNL A   1      35.679  35.053  28.164  1.00  0.00     0.063 H 
ATOM     63  C   UNL A   1      36.436  32.758  30.499  1.00  0.00    -0.014 A 
ATOM     64  H   UNL A   1      34.978  31.819  31.712  1.00  0.00     0.063 H 
ATOM     65  H   UNL A   1      37.581  33.924  29.158  1.00  0.00     0.063 H 
BRANCH  63  66
ATOM     66  C   UNL A   1      37.603  32.068  31.107  1.00  0.00     0.031 A 
ATOM     67  C   UNL A   1      38.067  32.412  32.494  1.00  0.00     0.074 A 
ATOM     68  C   UNL A   1      38.281  31.159  30.380  1.00  0.00     0.049 A 
ATOM     69  N   UNL A   1      39.067  31.915  33.179  1.00  0.00    -0.248 NA
ATOM     70  C   UNL A   1      37.328  33.471  33.195  1.00  0.00    -0.034 C 
ATOM     71  C   UNL A   1      37.969  30.777  29.002  1.00  0.00    -0.036 A 
ATOM     72  N   UNL A   1      39.374  30.391  30.698  1.00  0.00    -0.354 N 
ATOM     73  C   UNL A   1      39.086  32.608  34.381  1.00  0.00     0.074 A 
ATOM     74  C   UNL A   1      38.025  33.591  34.316  1.00  0.00    -0.034 C 
ATOM     75  H   UNL A   1      36.486  33.987  32.894  1.00  0.00     0.065 H 
ATOM     76  C   UNL A   1      38.829  29.826  28.605  1.00  0.00    -0.036 A 
ATOM     77  H   UNL A   1      37.211  31.177  28.427  1.00  0.00     0.065 H 
ATOM     78  C   UNL A   1      39.768  29.550  29.687  1.00  0.00     0.049 A 
ATOM     79  H   UNL A   1      39.832  30.439  31.569  1.00  0.00     0.167 HD
ATOM     80  C   UNL A   1      39.899  32.426  35.450  1.00  0.00     0.037 A 
ATOM     81  H   UNL A   1      37.837  34.295  35.047  1.00  0.00     0.065 H 
ATOM     82  H   UNL A   1      38.826  29.364  27.682  1.00  0.00     0.065 H 
ATOM     83  C   UNL A   1      40.770  28.652  29.640  1.00  0.00     0.037 A 
ATOM     84  C   UNL A   1      40.934  31.429  35.527  1.00  0.00     0.049 A 
ATOM     85  C   UNL A   1      41.648  28.461  30.844  1.00  0.00     0.074 A 
ATOM     86  C   UNL A   1      41.749  31.110  36.599  1.00  0.00    -0.036 A 
ATOM     87  N   UNL A   1      41.303  30.593  34.483  1.00  0.00    -0.354 N 
ATOM     88  N   UNL A   1      41.598  29.060  32.008  1.00  0.00    -0.248 NA
ATOM     89  C   UNL A   1      42.719  27.461  30.727  1.00  0.00    -0.034 C 
ATOM     90  C   UNL A   1      42.641  30.110  36.191  1.00  0.00    -0.036 A 
ATOM     91  H   UNL A   1      41.707  31.535  37.538  1.00  0.00     0.065 H 
ATOM     92  C   UNL A   1      42.353  29.776  34.878  1.00  0.00     0.049 A 
ATOM     93  H   UNL A   1      40.881  30.580  33.594  1.00  0.00     0.167 HD
ATOM     94  C   UNL A   1      42.615  28.500  32.769  1.00  0.00     0.074 A 
ATOM     95  C   UNL A   1      43.254  27.498  31.940  1.00  0.00    -0.034 C 
ATOM     96  H   UNL A   1      42.986  26.884  29.914  1.00  0.00     0.065 H 
ATOM     97  H   UNL A   1      43.385  29.693  36.771  1.00  0.00     0.065 H 
ATOM     98  C   UNL A   1      42.986  28.790  34.040  1.00  0.00     0.037 A 
ATOM     99  H   UNL A   1      44.026  26.890  32.253  1.00  0.00     0.065 H 
BRANCH  80 100
ATOM    100  C   UNL A   1      39.699  33.332  36.631  1.00  0.00     0.064 A 
ATOM    101  C   UNL A   1      40.375  34.556  36.741  1.00  0.00     0.173 A 
ATOM    102  C   UNL A   1      38.799  32.985  37.650  1.00  0.00     0.173 A 
ATOM    103  F   UNL A   1      41.254  34.930  35.799  1.00  0.00    -0.203 F 
ATOM    104  C   UNL A   1      40.181  35.385  37.844  1.00  0.00     0.198 A 
ATOM    105  C   UNL A   1      38.587  33.829  38.737  1.00  0.00     0.198 A 
ATOM    106  F   UNL A   1      38.121  31.829  37.590  1.00  0.00    -0.203 F 
ATOM    107  F   UNL A   1      40.875  36.527  37.952  1.00  0.00    -0.200 F 
ATOM    108  C   UNL A   1      39.284  35.024  38.837  1.00  0.00     0.200 A 
ATOM    109  F   UNL A   1      37.710  33.484  39.690  1.00  0.00    -0.200 F 
ATOM    110  F   UNL A   1      39.097  35.824  39.896  1.00  0.00    -0.200 F 
ENDBRANCH  80 100
BRANCH  83 111
ATOM    111  C   UNL A   1      40.963  27.830  28.419  1.00  0.00     0.064 A 
ATOM    112  C   UNL A   1      40.303  26.602  28.274  1.00  0.00     0.173 A 
ATOM    113  C   UNL A   1      41.799  28.252  27.377  1.00  0.00     0.173 A 
ATOM    114  F   UNL A   1      39.510  26.148  29.256  1.00  0.00    -0.203 F 
ATOM    115  C   UNL A   1      40.480  25.821  27.134  1.00  0.00     0.198 A 
ATOM    116  C   UNL A   1      41.957  27.481  26.227  1.00  0.00     0.198 A 
ATOM    117  F   UNL A   1      42.450  29.420  27.469  1.00  0.00    -0.203 F 
ATOM    118  F   UNL A   1      39.864  24.635  27.035  1.00  0.00    -0.200 F 
ATOM    119  C   UNL A   1      41.302  26.264  26.109  1.00  0.00     0.200 A 
ATOM    120  F   UNL A   1      42.744  27.917  25.233  1.00  0.00    -0.200 F 
ATOM    121  F   UNL A   1      41.467  25.515  25.010  1.00  0.00    -0.200 F 
ENDBRANCH  83 111
BRANCH  98 122
ATOM    122  C   UNL A   1      44.127  28.002  34.613  1.00  0.00     0.064 A 
ATOM    123  C   UNL A   1      45.450  28.461  34.528  1.00  0.00     0.173 A 
ATOM    124  C   UNL A   1      43.895  26.782  35.265  1.00  0.00     0.173 A 
ATOM    125  F   UNL A   1      45.725  29.613  33.899  1.00  0.00    -0.203 F 
ATOM    126  C   UNL A   1      46.501  27.713  35.051  1.00  0.00     0.198 A 
ATOM    127  C   UNL A   1      44.946  26.049  35.809  1.00  0.00     0.198 A 
ATOM    128  F   UNL A   1      42.648  26.300  35.375  1.00  0.00    -0.203 F 
ATOM    129  F   UNL A   1      47.762  28.145  34.912  1.00  0.00    -0.200 F 
ATOM    130  C   UNL A   1      46.249  26.511  35.695  1.00  0.00     0.200 A 
ATOM    131  F   UNL A   1      44.699  24.893  36.440  1.00  0.00    -0.200 F 
ATOM    132  F   UNL A   1      47.263  25.792  36.196  1.00  0.00    -0.200 F 
ENDBRANCH  98 122
ENDBRANCH  63  66
ENDBRANCH  53  56
ENDBRANCH  49  52
ENDBRANCH  46  49
ENDBRANCH  43  46
ENDBRANCH  40  43
ENDBRANCH  37  40
ENDBRANCH   1  37
TORSDOF 19
ENDMDL
MODEL 6
REMARK VINA RESULT:      -9.2      5.230     10.929
REMARK SMILES O=C(CNC(=O)CNC(=O)OCc1ccccc1)NCCCCCCNC(=O)c1ccc(-c2c3nc(c(-c4c(F)c(F)c(F)c(F)c4F)c4ccc([nH]4)c(-c4c(F)c(F)c(F)c(F)c4F)c4nc(c(-c5c(F)c(F)c(F)c(F)c5F)c5ccc2[nH]5)C=C4)C=C3)cc1
REMARK SMILES IDX 20 1 19 4 1 5 2 6 3 8 4 11 5 12 6 14 7 15 8 18 9 19 10 21
REMARK SMILES IDX 11 22 12 23 13 26 14 27 18 28 15 29 17 31 16 33 21 37 22 40
REMARK SMILES IDX 23 43 24 46 25 49 26 52 27 53 28 55 29 56 30 57 91 58 31 59
REMARK SMILES IDX 90 61 32 63 33 66 34 67 84 68 35 69 89 70 83 71 85 72 36 73
REMARK SMILES IDX 88 74 82 76 81 78 37 80 69 83 49 84 68 85 50 86 53 87 67 88
REMARK SMILES IDX 86 89 51 90 52 92 66 94 87 95 54 98 38 100 39 101 47 102
REMARK SMILES IDX 40 103 41 104 45 105 48 106 42 107 43 108 46 109 44 110
REMARK SMILES IDX 70 111 71 112 79 113 72 114 73 115 77 116 80 117 74 118
REMARK SMILES IDX 75 119 78 120 76 121 55 122 56 123 64 124 57 125 58 126
REMARK SMILES IDX 62 127 65 128 59 129 60 130 63 131 61 132
REMARK H PARENT 20 2 20 3 19 7 3 9 3 10 4 13 7 16 7 17 8 20 12 24 12 25 14 30
REMARK H PARENT 18 32 15 34 17 35 16 36 21 38 21 39 22 41 22 42 23 44 23 45
REMARK H PARENT 24 47 24 48 25 50 25 51 26 54 30 60 91 62 31 64 90 65 89 75
REMARK H PARENT 83 77 85 79 88 81 82 82 50 91 53 93 86 96 51 97 87 99
REMARK Flexibility Score: inf
ROOT
ATOM      1  C   UNL A   1      32.638  25.980  21.825  1.00  0.00     0.017 C 
ATOM      2  H   UNL A   1      31.746  26.494  21.533  1.00  0.00     0.049 H 
ATOM      3  H   UNL A   1      33.212  25.657  20.982  1.00  0.00     0.049 H 
ENDROOT
BRANCH   1   4
ATOM      4  N   UNL A   1      32.263  24.793  22.569  1.00  0.00    -0.355 N 
ATOM      5  O   UNL A   1      33.671  23.357  21.464  1.00  0.00    -0.273 OA
ATOM      6  C   UNL A   1      32.847  23.565  22.351  1.00  0.00     0.239 C 
ATOM      7  H   UNL A   1      31.563  24.868  23.257  1.00  0.00     0.163 HD
BRANCH   6   8
ATOM      8  C   UNL A   1      32.343  22.421  23.246  1.00  0.00     0.097 C 
ATOM      9  H   UNL A   1      32.707  21.499  22.843  1.00  0.00     0.059 H 
ATOM     10  H   UNL A   1      31.275  22.489  23.247  1.00  0.00     0.059 H 
BRANCH   8  11
ATOM     11  N   UNL A   1      32.761  22.505  24.641  1.00  0.00    -0.346 N 
ATOM     12  C   UNL A   1      32.012  22.752  25.754  1.00  0.00     0.239 C 
ATOM     13  H   UNL A   1      33.723  22.362  24.802  1.00  0.00     0.164 HD
ATOM     14  O   UNL A   1      32.583  22.781  26.846  1.00  0.00    -0.273 OA
BRANCH  12  15
ATOM     15  C   UNL A   1      30.521  23.070  25.623  1.00  0.00     0.100 C 
ATOM     16  H   UNL A   1      29.938  22.253  25.994  1.00  0.00     0.060 H 
ATOM     17  H   UNL A   1      30.254  23.228  24.600  1.00  0.00     0.060 H 
BRANCH  15  18
ATOM     18  N   UNL A   1      30.269  24.258  26.412  1.00  0.00    -0.312 N 
ATOM     19  C   UNL A   1      30.207  25.535  25.957  1.00  0.00     0.407 C 
ATOM     20  H   UNL A   1      30.128  24.126  27.377  1.00  0.00     0.167 HD
ATOM     21  O   UNL A   1      30.343  26.469  26.737  1.00  0.00    -0.225 OA
BRANCH  19  22
ATOM     22  O   UNL A   1      30.021  25.639  24.623  1.00  0.00    -0.445 OA
BRANCH  22  23
ATOM     23  C   UNL A   1      28.817  26.320  24.223  1.00  0.00     0.118 C 
ATOM     24  H   UNL A   1      28.226  26.499  25.096  1.00  0.00     0.076 H 
ATOM     25  H   UNL A   1      28.320  25.688  23.517  1.00  0.00     0.076 H 
BRANCH  23  26
ATOM     26  C   UNL A   1      29.069  27.643  23.535  1.00  0.00    -0.011 A 
ATOM     27  C   UNL A   1      28.025  28.338  22.909  1.00  0.00    -0.056 A 
ATOM     28  C   UNL A   1      30.361  28.186  23.469  1.00  0.00    -0.056 A 
ATOM     29  C   UNL A   1      28.274  29.539  22.236  1.00  0.00    -0.062 A 
ATOM     30  H   UNL A   1      27.065  27.962  22.946  1.00  0.00     0.063 H 
ATOM     31  C   UNL A   1      30.606  29.394  22.816  1.00  0.00    -0.062 A 
ATOM     32  H   UNL A   1      31.146  27.682  23.912  1.00  0.00     0.063 H 
ATOM     33  C   UNL A   1      29.562  30.069  22.194  1.00  0.00    -0.062 A 
ATOM     34  H   UNL A   1      27.499  30.035  21.767  1.00  0.00     0.062 H 
ATOM     35  H   UNL A   1      31.561  29.786  22.794  1.00  0.00     0.062 H 
ATOM     36  H   UNL A   1      29.740  30.959  21.702  1.00  0.00     0.062 H 
ENDBRANCH  23  26
ENDBRANCH  22  23
ENDBRANCH  19  22
ENDBRANCH  15  18
ENDBRANCH  12  15
ENDBRANCH   8  11
ENDBRANCH   6   8
ENDBRANCH   1   4
BRANCH   1  37
ATOM     37  C   UNL A   1      33.515  26.946  22.624  1.00  0.00    -0.036 C 
ATOM     38  H   UNL A   1      32.932  27.813  22.851  1.00  0.00     0.028 H 
ATOM     39  H   UNL A   1      34.366  27.154  22.009  1.00  0.00     0.028 H 
BRANCH  37  40
ATOM     40  C   UNL A   1      34.067  26.385  23.940  1.00  0.00    -0.052 C 
ATOM     41  H   UNL A   1      35.109  26.626  23.986  1.00  0.00     0.027 H 
ATOM     42  H   UNL A   1      33.855  25.337  23.914  1.00  0.00     0.027 H 
BRANCH  40  43
ATOM     43  C   UNL A   1      33.415  26.901  25.224  1.00  0.00    -0.052 C 
ATOM     44  H   UNL A   1      33.500  26.134  25.966  1.00  0.00     0.027 H 
ATOM     45  H   UNL A   1      32.406  27.142  24.960  1.00  0.00     0.027 H 
BRANCH  43  46
ATOM     46  C   UNL A   1      34.008  28.183  25.805  1.00  0.00    -0.036 C 
ATOM     47  H   UNL A   1      33.631  29.007  25.236  1.00  0.00     0.028 H 
ATOM     48  H   UNL A   1      35.070  28.067  25.746  1.00  0.00     0.028 H 
BRANCH  46  49
ATOM     49  C   UNL A   1      33.698  28.448  27.276  1.00  0.00     0.018 C 
ATOM     50  H   UNL A   1      34.455  27.984  27.874  1.00  0.00     0.049 H 
ATOM     51  H   UNL A   1      32.728  28.047  27.477  1.00  0.00     0.049 H 
BRANCH  49  52
ATOM     52  N   UNL A   1      33.657  29.866  27.602  1.00  0.00    -0.352 N 
ATOM     53  C   UNL A   1      34.604  30.673  28.183  1.00  0.00     0.251 C 
ATOM     54  H   UNL A   1      32.815  30.320  27.367  1.00  0.00     0.163 HD
ATOM     55  O   UNL A   1      34.314  31.826  28.494  1.00  0.00    -0.269 OA
BRANCH  53  56
ATOM     56  C   UNL A   1      35.965  30.165  28.471  1.00  0.00     0.039 A 
ATOM     57  C   UNL A   1      36.926  30.221  27.455  1.00  0.00    -0.049 A 
ATOM     58  C   UNL A   1      36.298  29.611  29.710  1.00  0.00    -0.049 A 
ATOM     59  C   UNL A   1      38.232  29.791  27.704  1.00  0.00    -0.053 A 
ATOM     60  H   UNL A   1      36.671  30.580  26.522  1.00  0.00     0.063 H 
ATOM     61  C   UNL A   1      37.617  29.243  29.979  1.00  0.00    -0.053 A 
ATOM     62  H   UNL A   1      35.568  29.474  30.426  1.00  0.00     0.063 H 
ATOM     63  C   UNL A   1      38.598  29.334  28.980  1.00  0.00    -0.014 A 
ATOM     64  H   UNL A   1      38.931  29.810  26.946  1.00  0.00     0.063 H 
ATOM     65  H   UNL A   1      37.873  28.902  30.918  1.00  0.00     0.063 H 
BRANCH  63  66
ATOM     66  C   UNL A   1      40.010  28.983  29.284  1.00  0.00     0.031 A 
ATOM     67  C   UNL A   1      40.876  29.904  30.097  1.00  0.00     0.074 A 
ATOM     68  C   UNL A   1      40.530  27.848  28.779  1.00  0.00     0.049 A 
ATOM     69  N   UNL A   1      42.128  29.760  30.456  1.00  0.00    -0.248 NA
ATOM     70  C   UNL A   1      40.264  31.162  30.547  1.00  0.00    -0.034 C 
ATOM     71  C   UNL A   1      39.813  26.899  27.926  1.00  0.00    -0.036 A 
ATOM     72  N   UNL A   1      41.782  27.301  28.906  1.00  0.00    -0.354 N 
ATOM     73  C   UNL A   1      42.457  30.911  31.158  1.00  0.00     0.074 A 
ATOM     74  C   UNL A   1      41.287  31.764  31.138  1.00  0.00    -0.034 C 
ATOM     75  H   UNL A   1      39.293  31.491  30.434  1.00  0.00     0.065 H 
ATOM     76  C   UNL A   1      40.625  25.871  27.634  1.00  0.00    -0.036 A 
ATOM     77  H   UNL A   1      38.839  27.004  27.600  1.00  0.00     0.065 H 
ATOM     78  C   UNL A   1      41.926  26.101  28.254  1.00  0.00     0.049 A 
ATOM     79  H   UNL A   1      42.508  27.728  29.417  1.00  0.00     0.167 HD
ATOM     80  C   UNL A   1      43.620  31.219  31.780  1.00  0.00     0.037 A 
ATOM     81  H   UNL A   1      41.254  32.717  31.531  1.00  0.00     0.065 H 
ATOM     82  H   UNL A   1      40.370  25.051  27.062  1.00  0.00     0.065 H 
ATOM     83  C   UNL A   1      42.986  25.275  28.171  1.00  0.00     0.037 A 
ATOM     84  C   UNL A   1      44.774  30.359  31.825  1.00  0.00     0.049 A 
ATOM     85  C   UNL A   1      44.260  25.635  28.882  1.00  0.00     0.074 A 
ATOM     86  C   UNL A   1      45.965  30.545  32.504  1.00  0.00    -0.036 A 
ATOM     87  N   UNL A   1      44.882  29.149  31.154  1.00  0.00    -0.354 N 
ATOM     88  N   UNL A   1      44.529  26.684  29.617  1.00  0.00    -0.248 NA
ATOM     89  C   UNL A   1      45.376  24.687  28.754  1.00  0.00    -0.034 C 
ATOM     90  C   UNL A   1      46.812  29.469  32.210  1.00  0.00    -0.036 A 
ATOM     91  H   UNL A   1      46.191  31.341  33.122  1.00  0.00     0.065 H 
ATOM     92  C   UNL A   1      46.132  28.591  31.382  1.00  0.00     0.049 A 
ATOM     93  H   UNL A   1      44.176  28.746  30.599  1.00  0.00     0.167 HD
ATOM     94  C   UNL A   1      45.835  26.518  30.057  1.00  0.00     0.074 A 
ATOM     95  C   UNL A   1      46.298  25.254  29.520  1.00  0.00    -0.034 C 
ATOM     96  H   UNL A   1      45.429  23.811  28.210  1.00  0.00     0.065 H 
ATOM     97  H   UNL A   1      47.777  29.350  32.553  1.00  0.00     0.065 H 
ATOM     98  C   UNL A   1      46.584  27.337  30.834  1.00  0.00     0.037 A 
ATOM     99  H   UNL A   1      47.227  24.847  29.709  1.00  0.00     0.065 H 
BRANCH  80 100
ATOM    100  C   UNL A   1      43.704  32.552  32.467  1.00  0.00     0.064 A 
ATOM    101  C   UNL A   1      43.335  32.711  33.811  1.00  0.00     0.173 A 
ATOM    102  C   UNL A   1      44.188  33.677  31.782  1.00  0.00     0.173 A 
ATOM    103  F   UNL A   1      42.858  31.669  34.508  1.00  0.00    -0.203 F 
ATOM    104  C   UNL A   1      43.417  33.954  34.434  1.00  0.00     0.198 A 
ATOM    105  C   UNL A   1      44.293  34.912  32.416  1.00  0.00     0.198 A 
ATOM    106  F   UNL A   1      44.561  33.578  30.497  1.00  0.00    -0.203 F 
ATOM    107  F   UNL A   1      43.011  34.093  35.705  1.00  0.00    -0.200 F 
ATOM    108  C   UNL A   1      43.900  35.051  33.738  1.00  0.00     0.200 A 
ATOM    109  F   UNL A   1      44.772  35.969  31.746  1.00  0.00    -0.200 F 
ATOM    110  F   UNL A   1      43.980  36.246  34.341  1.00  0.00    -0.200 F 
ENDBRANCH  80 100
BRANCH  83 111
ATOM    111  C   UNL A   1      42.868  24.000  27.420  1.00  0.00     0.064 A 
ATOM    112  C   UNL A   1      42.393  22.841  28.052  1.00  0.00     0.173 A 
ATOM    113  C   UNL A   1      43.215  23.912  26.066  1.00  0.00     0.173 A 
ATOM    114  F   UNL A   1      42.070  22.873  29.353  1.00  0.00    -0.203 F 
ATOM    115  C   UNL A   1      42.282  21.639  27.358  1.00  0.00     0.198 A 
ATOM    116  C   UNL A   1      43.081  22.715  25.367  1.00  0.00     0.198 A 
ATOM    117  F   UNL A   1      43.671  24.994  25.418  1.00  0.00    -0.203 F 
ATOM    118  F   UNL A   1      41.858  20.538  27.994  1.00  0.00    -0.200 F 
ATOM    119  C   UNL A   1      42.620  21.578  26.014  1.00  0.00     0.200 A 
ATOM    120  F   UNL A   1      43.397  22.662  24.065  1.00  0.00    -0.200 F 
ATOM    121  F   UNL A   1      42.506  20.423  25.345  1.00  0.00    -0.200 F 
ENDBRANCH  83 111
BRANCH  98 122
ATOM    122  C   UNL A   1      47.976  26.884  31.160  1.00  0.00     0.064 A 
ATOM    123  C   UNL A   1      48.234  26.029  32.242  1.00  0.00     0.173 A 
ATOM    124  C   UNL A   1      49.063  27.297  30.374  1.00  0.00     0.173 A 
ATOM    125  F   UNL A   1      47.231  25.621  33.033  1.00  0.00    -0.203 F 
ATOM    126  C   UNL A   1      49.533  25.628  32.542  1.00  0.00     0.198 A 
ATOM    127  C   UNL A   1      50.357  26.872  30.662  1.00  0.00     0.198 A 
ATOM    128  F   UNL A   1      48.869  28.111  29.326  1.00  0.00    -0.203 F 
ATOM    129  F   UNL A   1      49.762  24.854  33.612  1.00  0.00    -0.200 F 
ATOM    130  C   UNL A   1      50.592  26.045  31.750  1.00  0.00     0.200 A 
ATOM    131  F   UNL A   1      51.378  27.268  29.889  1.00  0.00    -0.200 F 
ATOM    132  F   UNL A   1      51.842  25.659  32.042  1.00  0.00    -0.200 F 
ENDBRANCH  98 122
ENDBRANCH  63  66
ENDBRANCH  53  56
ENDBRANCH  49  52
ENDBRANCH  46  49
ENDBRANCH  43  46
ENDBRANCH  40  43
ENDBRANCH  37  40
ENDBRANCH   1  37
TORSDOF 19
ENDMDL
MODEL 7
REMARK VINA RESULT:      -9.0      4.164     10.674
REMARK SMILES O=C(CNC(=O)CNC(=O)OCc1ccccc1)NCCCCCCNC(=O)c1ccc(-c2c3nc(c(-c4c(F)c(F)c(F)c(F)c4F)c4ccc([nH]4)c(-c4c(F)c(F)c(F)c(F)c4F)c4nc(c(-c5c(F)c(F)c(F)c(F)c5F)c5ccc2[nH]5)C=C4)C=C3)cc1
REMARK SMILES IDX 20 1 19 4 1 5 2 6 3 8 4 11 5 12 6 14 7 15 8 18 9 19 10 21
REMARK SMILES IDX 11 22 12 23 13 26 14 27 18 28 15 29 17 31 16 33 21 37 22 40
REMARK SMILES IDX 23 43 24 46 25 49 26 52 27 53 28 55 29 56 30 57 91 58 31 59
REMARK SMILES IDX 90 61 32 63 33 66 34 67 84 68 35 69 89 70 83 71 85 72 36 73
REMARK SMILES IDX 88 74 82 76 81 78 37 80 69 83 49 84 68 85 50 86 53 87 67 88
REMARK SMILES IDX 86 89 51 90 52 92 66 94 87 95 54 98 38 100 39 101 47 102
REMARK SMILES IDX 40 103 41 104 45 105 48 106 42 107 43 108 46 109 44 110
REMARK SMILES IDX 70 111 71 112 79 113 72 114 73 115 77 116 80 117 74 118
REMARK SMILES IDX 75 119 78 120 76 121 55 122 56 123 64 124 57 125 58 126
REMARK SMILES IDX 62 127 65 128 59 129 60 130 63 131 61 132
REMARK H PARENT 20 2 20 3 19 7 3 9 3 10 4 13 7 16 7 17 8 20 12 24 12 25 14 30
REMARK H PARENT 18 32 15 34 17 35 16 36 21 38 21 39 22 41 22 42 23 44 23 45
REMARK H PARENT 24 47 24 48 25 50 25 51 26 54 30 60 91 62 31 64 90 65 89 75
REMARK H PARENT 83 77 85 79 88 81 82 82 50 91 53 93 86 96 51 97 87 99
REMARK Flexibility Score: inf
ROOT
ATOM      1  C   UNL A   1      37.136  33.193  35.692  1.00  0.00     0.017 C 
ATOM      2  H   UNL A   1      37.316  33.964  36.413  1.00  0.00     0.049 H 
ATOM      3  H   UNL A   1      36.426  32.473  36.040  1.00  0.00     0.049 H 
ENDROOT
BRANCH   1   4
ATOM      4  N   UNL A   1      38.381  32.487  35.454  1.00  0.00    -0.355 N 
ATOM      5  O   UNL A   1      37.888  30.672  36.769  1.00  0.00    -0.273 OA
ATOM      6  C   UNL A   1      38.644  31.245  35.990  1.00  0.00     0.239 C 
ATOM      7  H   UNL A   1      39.064  32.912  34.887  1.00  0.00     0.163 HD
BRANCH   6   8
ATOM      8  C   UNL A   1      40.004  30.635  35.615  1.00  0.00     0.097 C 
ATOM      9  H   UNL A   1      40.413  30.173  36.489  1.00  0.00     0.059 H 
ATOM     10  H   UNL A   1      40.603  31.441  35.243  1.00  0.00     0.059 H 
BRANCH   8  11
ATOM     11  N   UNL A   1      39.956  29.636  34.552  1.00  0.00    -0.346 N 
ATOM     12  C   UNL A   1      40.728  28.525  34.376  1.00  0.00     0.239 C 
ATOM     13  H   UNL A   1      39.267  29.786  33.865  1.00  0.00     0.164 HD
ATOM     14  O   UNL A   1      40.511  27.817  33.391  1.00  0.00    -0.273 OA
BRANCH  12  15
ATOM     15  C   UNL A   1      41.884  28.231  35.333  1.00  0.00     0.100 C 
ATOM     16  H   UNL A   1      42.216  29.135  35.797  1.00  0.00     0.060 H 
ATOM     17  H   UNL A   1      42.713  27.805  34.809  1.00  0.00     0.060 H 
BRANCH  15  18
ATOM     18  N   UNL A   1      41.382  27.313  36.335  1.00  0.00    -0.312 N 
ATOM     19  C   UNL A   1      41.332  25.960  36.244  1.00  0.00     0.407 C 
ATOM     20  H   UNL A   1      41.042  27.712  37.168  1.00  0.00     0.167 HD
ATOM     21  O   UNL A   1      40.582  25.325  36.973  1.00  0.00    -0.225 OA
BRANCH  19  22
ATOM     22  O   UNL A   1      42.136  25.440  35.290  1.00  0.00    -0.445 OA
BRANCH  22  23
ATOM     23  C   UNL A   1      42.232  24.004  35.286  1.00  0.00     0.118 C 
ATOM     24  H   UNL A   1      41.743  23.636  34.408  1.00  0.00     0.076 H 
ATOM     25  H   UNL A   1      41.768  23.656  36.185  1.00  0.00     0.076 H 
BRANCH  23  26
ATOM     26  C   UNL A   1      43.655  23.491  35.293  1.00  0.00    -0.011 A 
ATOM     27  C   UNL A   1      44.071  22.511  34.381  1.00  0.00    -0.056 A 
ATOM     28  C   UNL A   1      44.582  23.952  36.240  1.00  0.00    -0.056 A 
ATOM     29  C   UNL A   1      45.376  22.009  34.423  1.00  0.00    -0.062 A 
ATOM     30  H   UNL A   1      43.410  22.158  33.671  1.00  0.00     0.063 H 
ATOM     31  C   UNL A   1      45.889  23.467  36.269  1.00  0.00    -0.062 A 
ATOM     32  H   UNL A   1      44.291  24.664  36.929  1.00  0.00     0.063 H 
ATOM     33  C   UNL A   1      46.286  22.491  35.362  1.00  0.00    -0.062 A 
ATOM     34  H   UNL A   1      45.666  21.278  33.754  1.00  0.00     0.062 H 
ATOM     35  H   UNL A   1      46.562  23.832  36.962  1.00  0.00     0.062 H 
ATOM     36  H   UNL A   1      47.250  22.123  35.385  1.00  0.00     0.062 H 
ENDBRANCH  23  26
ENDBRANCH  22  23
ENDBRANCH  19  22
ENDBRANCH  15  18
ENDBRANCH  12  15
ENDBRANCH   8  11
ENDBRANCH   6   8
ENDBRANCH   1   4
BRANCH   1  37
ATOM     37  C   UNL A   1      36.550  33.833  34.433  1.00  0.00    -0.036 C 
ATOM     38  H   UNL A   1      36.901  34.842  34.379  1.00  0.00     0.028 H 
ATOM     39  H   UNL A   1      35.487  33.756  34.527  1.00  0.00     0.028 H 
BRANCH  37  40
ATOM     40  C   UNL A   1      36.914  33.132  33.118  1.00  0.00    -0.052 C 
ATOM     41  H   UNL A   1      37.871  32.671  33.249  1.00  0.00     0.027 H 
ATOM     42  H   UNL A   1      36.891  33.898  32.371  1.00  0.00     0.027 H 
BRANCH  40  43
ATOM     43  C   UNL A   1      35.943  32.057  32.629  1.00  0.00    -0.052 C 
ATOM     44  H   UNL A   1      35.557  31.548  33.488  1.00  0.00     0.027 H 
ATOM     45  H   UNL A   1      36.510  31.432  31.971  1.00  0.00     0.027 H 
BRANCH  43  46
ATOM     46  C   UNL A   1      34.756  32.555  31.806  1.00  0.00    -0.036 C 
ATOM     47  H   UNL A   1      34.355  33.417  32.296  1.00  0.00     0.028 H 
ATOM     48  H   UNL A   1      34.073  31.733  31.750  1.00  0.00     0.028 H 
BRANCH  46  49
ATOM     49  C   UNL A   1      35.067  32.937  30.361  1.00  0.00     0.018 C 
ATOM     50  H   UNL A   1      36.123  32.855  30.206  1.00  0.00     0.049 H 
ATOM     51  H   UNL A   1      34.718  33.937  30.212  1.00  0.00     0.049 H 
BRANCH  49  52
ATOM     52  N   UNL A   1      34.390  32.091  29.391  1.00  0.00    -0.352 N 
ATOM     53  C   UNL A   1      34.843  31.000  28.692  1.00  0.00     0.251 C 
ATOM     54  H   UNL A   1      33.455  32.341  29.206  1.00  0.00     0.163 HD
ATOM     55  O   UNL A   1      34.141  30.505  27.812  1.00  0.00    -0.269 OA
BRANCH  53  56
ATOM     56  C   UNL A   1      36.182  30.426  28.959  1.00  0.00     0.039 A 
ATOM     57  C   UNL A   1      37.236  30.765  28.104  1.00  0.00    -0.049 A 
ATOM     58  C   UNL A   1      36.406  29.541  30.017  1.00  0.00    -0.049 A 
ATOM     59  C   UNL A   1      38.521  30.277  28.350  1.00  0.00    -0.053 A 
ATOM     60  H   UNL A   1      37.064  31.376  27.290  1.00  0.00     0.063 H 
ATOM     61  C   UNL A   1      37.701  29.106  30.303  1.00  0.00    -0.053 A 
ATOM     62  H   UNL A   1      35.612  29.208  30.588  1.00  0.00     0.063 H 
ATOM     63  C   UNL A   1      38.772  29.474  29.475  1.00  0.00    -0.014 A 
ATOM     64  H   UNL A   1      39.290  30.508  27.703  1.00  0.00     0.063 H 
ATOM     65  H   UNL A   1      37.871  28.511  31.127  1.00  0.00     0.063 H 
BRANCH  63  66
ATOM     66  C   UNL A   1      40.155  29.045  29.808  1.00  0.00     0.031 A 
ATOM     67  C   UNL A   1      41.021  29.870  30.718  1.00  0.00     0.074 A 
ATOM     68  C   UNL A   1      40.652  27.928  29.243  1.00  0.00     0.049 A 
ATOM     69  N   UNL A   1      42.251  29.651  31.113  1.00  0.00    -0.248 NA
ATOM     70  C   UNL A   1      40.440  31.118  31.233  1.00  0.00    -0.034 C 
ATOM     71  C   UNL A   1      39.936  27.071  28.297  1.00  0.00    -0.036 A 
ATOM     72  N   UNL A   1      41.877  27.322  29.379  1.00  0.00    -0.354 N 
ATOM     73  C   UNL A   1      42.594  30.735  31.909  1.00  0.00     0.074 A 
ATOM     74  C   UNL A   1      41.459  31.634  31.905  1.00  0.00    -0.034 C 
ATOM     75  H   UNL A   1      39.487  31.494  31.106  1.00  0.00     0.065 H 
ATOM     76  C   UNL A   1      40.720  26.034  27.964  1.00  0.00    -0.036 A 
ATOM     77  H   UNL A   1      38.981  27.238  27.942  1.00  0.00     0.065 H 
ATOM     78  C   UNL A   1      42.002  26.166  28.649  1.00  0.00     0.049 A 
ATOM     79  H   UNL A   1      42.596  27.682  29.947  1.00  0.00     0.167 HD
ATOM     80  C   UNL A   1      43.741  30.951  32.596  1.00  0.00     0.037 A 
ATOM     81  H   UNL A   1      41.446  32.558  32.363  1.00  0.00     0.065 H 
ATOM     82  H   UNL A   1      40.458  25.267  27.325  1.00  0.00     0.065 H 
ATOM     83  C   UNL A   1      43.032  25.306  28.548  1.00  0.00     0.037 A 
ATOM     84  C   UNL A   1      44.859  30.043  32.624  1.00  0.00     0.049 A 
ATOM     85  C   UNL A   1      44.288  25.562  29.332  1.00  0.00     0.074 A 
ATOM     86  C   UNL A   1      46.027  30.133  33.361  1.00  0.00    -0.036 A 
ATOM     87  N   UNL A   1      44.949  28.880  31.873  1.00  0.00    -0.354 N 
ATOM     88  N   UNL A   1      44.566  26.546  30.150  1.00  0.00    -0.248 NA
ATOM     89  C   UNL A   1      45.372  24.581  29.180  1.00  0.00    -0.034 C 
ATOM     90  C   UNL A   1      46.843  29.046  33.023  1.00  0.00    -0.036 A 
ATOM     91  H   UNL A   1      46.256  30.873  34.042  1.00  0.00     0.065 H 
ATOM     92  C   UNL A   1      46.166  28.257  32.108  1.00  0.00     0.049 A 
ATOM     93  H   UNL A   1      44.251  28.546  31.263  1.00  0.00     0.167 HD
ATOM     94  C   UNL A   1      45.846  26.295  30.627  1.00  0.00     0.074 A 
ATOM     95  C   UNL A   1      46.282  25.055  30.019  1.00  0.00    -0.034 C 
ATOM     96  H   UNL A   1      45.414  23.744  28.577  1.00  0.00     0.065 H 
ATOM     97  H   UNL A   1      47.788  28.864  33.394  1.00  0.00     0.065 H 
ATOM     98  C   UNL A   1      46.592  27.027  31.490  1.00  0.00     0.037 A 
ATOM     99  H   UNL A   1      47.186  24.598  30.215  1.00  0.00     0.065 H 
BRANCH  80 100
ATOM    100  C   UNL A   1      43.847  32.228  33.380  1.00  0.00     0.064 A 
ATOM    101  C   UNL A   1      43.566  32.273  34.753  1.00  0.00     0.173 A 
ATOM    102  C   UNL A   1      44.263  33.414  32.755  1.00  0.00     0.173 A 
ATOM    103  F   UNL A   1      43.155  31.169  35.395  1.00  0.00    -0.203 F 
ATOM    104  C   UNL A   1      43.666  33.465  35.466  1.00  0.00     0.198 A 
ATOM    105  C   UNL A   1      44.389  34.597  33.477  1.00  0.00     0.198 A 
ATOM    106  F   UNL A   1      44.552  33.424  31.446  1.00  0.00    -0.203 F 
ATOM    107  F   UNL A   1      43.344  33.495  36.767  1.00  0.00    -0.200 F 
ATOM    108  C   UNL A   1      44.083  34.624  34.830  1.00  0.00     0.200 A 
ATOM    109  F   UNL A   1      44.803  35.714  32.863  1.00  0.00    -0.200 F 
ATOM    110  F   UNL A   1      44.181  35.769  35.519  1.00  0.00    -0.200 F 
ENDBRANCH  80 100
BRANCH  83 111
ATOM    111  C   UNL A   1      42.897  24.092  27.704  1.00  0.00     0.064 A 
ATOM    112  C   UNL A   1      42.501  22.871  28.268  1.00  0.00     0.173 A 
ATOM    113  C   UNL A   1      43.150  24.126  26.326  1.00  0.00     0.173 A 
ATOM    114  F   UNL A   1      42.270  22.787  29.586  1.00  0.00    -0.203 F 
ATOM    115  C   UNL A   1      42.374  21.726  27.485  1.00  0.00     0.198 A 
ATOM    116  C   UNL A   1      43.000  22.985  25.541  1.00  0.00     0.198 A 
ATOM    117  F   UNL A   1      43.529  25.271  25.741  1.00  0.00    -0.203 F 
ATOM    118  F   UNL A   1      42.028  20.563  28.055  1.00  0.00    -0.200 F 
ATOM    119  C   UNL A   1      42.618  21.785  26.121  1.00  0.00     0.200 A 
ATOM    120  F   UNL A   1      43.225  23.048  24.221  1.00  0.00    -0.200 F 
ATOM    121  F   UNL A   1      42.489  20.685  25.368  1.00  0.00    -0.200 F 
ENDBRANCH  83 111
BRANCH  98 122
ATOM    122  C   UNL A   1      47.951  26.495  31.836  1.00  0.00     0.064 A 
ATOM    123  C   UNL A   1      49.098  26.909  31.142  1.00  0.00     0.173 A 
ATOM    124  C   UNL A   1      48.111  25.573  32.880  1.00  0.00     0.173 A 
ATOM    125  F   UNL A   1      48.995  27.776  30.124  1.00  0.00    -0.203 F 
ATOM    126  C   UNL A   1      50.351  26.396  31.464  1.00  0.00     0.198 A 
ATOM    127  C   UNL A   1      49.369  25.082  33.217  1.00  0.00     0.198 A 
ATOM    128  F   UNL A   1      47.046  25.148  33.577  1.00  0.00    -0.203 F 
ATOM    129  F   UNL A   1      51.426  26.765  30.754  1.00  0.00    -0.200 F 
ATOM    130  C   UNL A   1      50.488  25.488  32.503  1.00  0.00     0.200 A 
ATOM    131  F   UNL A   1      49.501  24.212  34.227  1.00  0.00    -0.200 F 
ATOM    132  F   UNL A   1      51.695  24.994  32.809  1.00  0.00    -0.200 F 
ENDBRANCH  98 122
ENDBRANCH  63  66
ENDBRANCH  53  56
ENDBRANCH  49  52
ENDBRANCH  46  49
ENDBRANCH  43  46
ENDBRANCH  40  43
ENDBRANCH  37  40
ENDBRANCH   1  37
TORSDOF 19
ENDMDL
MODEL 8
REMARK VINA RESULT:      -8.9      3.994     10.143
REMARK SMILES O=C(CNC(=O)CNC(=O)OCc1ccccc1)NCCCCCCNC(=O)c1ccc(-c2c3nc(c(-c4c(F)c(F)c(F)c(F)c4F)c4ccc([nH]4)c(-c4c(F)c(F)c(F)c(F)c4F)c4nc(c(-c5c(F)c(F)c(F)c(F)c5F)c5ccc2[nH]5)C=C4)C=C3)cc1
REMARK SMILES IDX 20 1 19 4 1 5 2 6 3 8 4 11 5 12 6 14 7 15 8 18 9 19 10 21
REMARK SMILES IDX 11 22 12 23 13 26 14 27 18 28 15 29 17 31 16 33 21 37 22 40
REMARK SMILES IDX 23 43 24 46 25 49 26 52 27 53 28 55 29 56 30 57 91 58 31 59
REMARK SMILES IDX 90 61 32 63 33 66 34 67 84 68 35 69 89 70 83 71 85 72 36 73
REMARK SMILES IDX 88 74 82 76 81 78 37 80 69 83 49 84 68 85 50 86 53 87 67 88
REMARK SMILES IDX 86 89 51 90 52 92 66 94 87 95 54 98 38 100 39 101 47 102
REMARK SMILES IDX 40 103 41 104 45 105 48 106 42 107 43 108 46 109 44 110
REMARK SMILES IDX 70 111 71 112 79 113 72 114 73 115 77 116 80 117 74 118
REMARK SMILES IDX 75 119 78 120 76 121 55 122 56 123 64 124 57 125 58 126
REMARK SMILES IDX 62 127 65 128 59 129 60 130 63 131 61 132
REMARK H PARENT 20 2 20 3 19 7 3 9 3 10 4 13 7 16 7 17 8 20 12 24 12 25 14 30
REMARK H PARENT 18 32 15 34 17 35 16 36 21 38 21 39 22 41 22 42 23 44 23 45
REMARK H PARENT 24 47 24 48 25 50 25 51 26 54 30 60 91 62 31 64 90 65 89 75
REMARK H PARENT 83 77 85 79 88 81 82 82 50 91 53 93 86 96 51 97 87 99
REMARK Flexibility Score: inf
ROOT
ATOM      1  C   UNL A   1      32.920  26.235  24.243  1.00  0.00     0.017 C 
ATOM      2  H   UNL A   1      33.218  26.615  23.288  1.00  0.00     0.049 H 
ATOM      3  H   UNL A   1      31.868  26.051  24.294  1.00  0.00     0.049 H 
ENDROOT
BRANCH   1   4
ATOM      4  N   UNL A   1      33.231  27.231  25.252  1.00  0.00    -0.355 N 
ATOM      5  O   UNL A   1      33.012  29.052  23.871  1.00  0.00    -0.273 OA
ATOM      6  C   UNL A   1      33.214  28.583  24.989  1.00  0.00     0.239 C 
ATOM      7  H   UNL A   1      33.463  26.929  26.159  1.00  0.00     0.163 HD
BRANCH   6   8
ATOM      8  C   UNL A   1      33.546  29.496  26.181  1.00  0.00     0.097 C 
ATOM      9  H   UNL A   1      32.923  29.209  27.002  1.00  0.00     0.059 H 
ATOM     10  H   UNL A   1      33.373  30.498  25.849  1.00  0.00     0.059 H 
BRANCH   8  11
ATOM     11  N   UNL A   1      34.935  29.444  26.623  1.00  0.00    -0.346 N 
ATOM     12  C   UNL A   1      35.553  30.150  27.614  1.00  0.00     0.239 C 
ATOM     13  H   UNL A   1      35.509  28.807  26.137  1.00  0.00     0.164 HD
ATOM     14  O   UNL A   1      36.751  29.944  27.815  1.00  0.00    -0.273 OA
BRANCH  12  15
ATOM     15  C   UNL A   1      34.787  31.225  28.386  1.00  0.00     0.100 C 
ATOM     16  H   UNL A   1      35.078  31.217  29.415  1.00  0.00     0.060 H 
ATOM     17  H   UNL A   1      33.733  31.048  28.340  1.00  0.00     0.060 H 
BRANCH  15  18
ATOM     18  N   UNL A   1      35.122  32.500  27.784  1.00  0.00    -0.312 N 
ATOM     19  C   UNL A   1      34.588  33.708  28.094  1.00  0.00     0.407 C 
ATOM     20  H   UNL A   1      35.807  32.488  27.079  1.00  0.00     0.167 HD
ATOM     21  O   UNL A   1      34.678  34.638  27.303  1.00  0.00    -0.225 OA
BRANCH  19  22
ATOM     22  O   UNL A   1      33.961  33.746  29.291  1.00  0.00    -0.445 OA
BRANCH  22  23
ATOM     23  C   UNL A   1      33.179  34.929  29.536  1.00  0.00     0.118 C 
ATOM     24  H   UNL A   1      32.144  34.661  29.508  1.00  0.00     0.076 H 
ATOM     25  H   UNL A   1      33.437  35.638  28.777  1.00  0.00     0.076 H 
BRANCH  23  26
ATOM     26  C   UNL A   1      33.470  35.582  30.870  1.00  0.00    -0.011 A 
ATOM     27  C   UNL A   1      33.220  36.946  31.072  1.00  0.00    -0.056 A 
ATOM     28  C   UNL A   1      34.036  34.848  31.923  1.00  0.00    -0.056 A 
ATOM     29  C   UNL A   1      33.534  37.553  32.293  1.00  0.00    -0.062 A 
ATOM     30  H   UNL A   1      32.801  37.508  30.314  1.00  0.00     0.063 H 
ATOM     31  C   UNL A   1      34.328  35.447  33.148  1.00  0.00    -0.062 A 
ATOM     32  H   UNL A   1      34.239  33.844  31.789  1.00  0.00     0.063 H 
ATOM     33  C   UNL A   1      34.082  36.803  33.332  1.00  0.00    -0.062 A 
ATOM     34  H   UNL A   1      33.357  38.562  32.425  1.00  0.00     0.062 H 
ATOM     35  H   UNL A   1      34.728  34.886  33.917  1.00  0.00     0.062 H 
ATOM     36  H   UNL A   1      34.305  37.253  34.233  1.00  0.00     0.062 H 
ENDBRANCH  23  26
ENDBRANCH  22  23
ENDBRANCH  19  22
ENDBRANCH  15  18
ENDBRANCH  12  15
ENDBRANCH   8  11
ENDBRANCH   6   8
ENDBRANCH   1   4
BRANCH   1  37
ATOM     37  C   UNL A   1      33.624  24.897  24.474  1.00  0.00    -0.036 C 
ATOM     38  H   UNL A   1      32.885  24.180  24.764  1.00  0.00     0.028 H 
ATOM     39  H   UNL A   1      34.364  25.076  25.227  1.00  0.00     0.028 H 
BRANCH  37  40
ATOM     40  C   UNL A   1      34.377  24.340  23.260  1.00  0.00    -0.052 C 
ATOM     41  H   UNL A   1      34.908  25.151  22.806  1.00  0.00     0.027 H 
ATOM     42  H   UNL A   1      33.627  23.900  22.637  1.00  0.00     0.027 H 
BRANCH  40  43
ATOM     43  C   UNL A   1      35.383  23.223  23.538  1.00  0.00    -0.052 C 
ATOM     44  H   UNL A   1      36.362  23.656  23.541  1.00  0.00     0.027 H 
ATOM     45  H   UNL A   1      35.230  22.497  22.766  1.00  0.00     0.027 H 
BRANCH  43  46
ATOM     46  C   UNL A   1      35.198  22.471  24.855  1.00  0.00    -0.036 C 
ATOM     47  H   UNL A   1      35.105  21.430  24.629  1.00  0.00     0.028 H 
ATOM     48  H   UNL A   1      34.328  22.894  25.313  1.00  0.00     0.028 H 
BRANCH  46  49
ATOM     49  C   UNL A   1      36.325  22.632  25.872  1.00  0.00     0.018 C 
ATOM     50  H   UNL A   1      35.900  22.642  26.855  1.00  0.00     0.049 H 
ATOM     51  H   UNL A   1      36.833  23.545  25.647  1.00  0.00     0.049 H 
BRANCH  49  52
ATOM     52  N   UNL A   1      37.308  21.561  25.806  1.00  0.00    -0.352 N 
ATOM     53  C   UNL A   1      38.661  21.579  26.032  1.00  0.00     0.251 C 
ATOM     54  H   UNL A   1      36.942  20.680  25.559  1.00  0.00     0.163 HD
ATOM     55  O   UNL A   1      39.334  20.580  25.788  1.00  0.00    -0.269 OA
BRANCH  53  56
ATOM     56  C   UNL A   1      39.333  22.799  26.537  1.00  0.00     0.039 A 
ATOM     57  C   UNL A   1      40.372  22.653  27.462  1.00  0.00    -0.049 A 
ATOM     58  C   UNL A   1      38.935  24.078  26.138  1.00  0.00    -0.049 A 
ATOM     59  C   UNL A   1      41.057  23.778  27.928  1.00  0.00    -0.053 A 
ATOM     60  H   UNL A   1      40.634  21.714  27.800  1.00  0.00     0.063 H 
ATOM     61  C   UNL A   1      39.661  25.196  26.551  1.00  0.00    -0.053 A 
ATOM     62  H   UNL A   1      38.104  24.195  25.537  1.00  0.00     0.063 H 
ATOM     63  C   UNL A   1      40.732  25.057  27.446  1.00  0.00    -0.014 A 
ATOM     64  H   UNL A   1      41.806  23.670  28.629  1.00  0.00     0.063 H 
ATOM     65  H   UNL A   1      39.408  26.131  26.197  1.00  0.00     0.063 H 
BRANCH  63  66
ATOM     66  C   UNL A   1      41.529  26.245  27.849  1.00  0.00     0.031 A 
ATOM     67  C   UNL A   1      40.941  27.302  28.741  1.00  0.00     0.074 A 
ATOM     68  C   UNL A   1      42.776  26.396  27.363  1.00  0.00     0.049 A 
ATOM     69  N   UNL A   1      41.489  28.405  29.189  1.00  0.00    -0.248 NA
ATOM     70  C   UNL A   1      39.548  27.110  29.166  1.00  0.00    -0.034 C 
ATOM     71  C   UNL A   1      43.441  25.473  26.443  1.00  0.00    -0.036 A 
ATOM     72  N   UNL A   1      43.707  27.383  27.574  1.00  0.00    -0.354 N 
ATOM     73  C   UNL A   1      40.507  29.042  29.934  1.00  0.00     0.074 A 
ATOM     74  C   UNL A   1      39.314  28.226  29.842  1.00  0.00    -0.034 C 
ATOM     75  H   UNL A   1      38.916  26.314  28.986  1.00  0.00     0.065 H 
ATOM     76  C   UNL A   1      44.682  25.919  26.194  1.00  0.00    -0.036 A 
ATOM     77  H   UNL A   1      43.022  24.617  26.047  1.00  0.00     0.065 H 
ATOM     78  C   UNL A   1      44.892  27.171  26.914  1.00  0.00     0.049 A 
ATOM     79  H   UNL A   1      43.541  28.168  28.146  1.00  0.00     0.167 HD
ATOM     80  C   UNL A   1      40.596  30.191  30.646  1.00  0.00     0.037 A 
ATOM     81  H   UNL A   1      38.401  28.481  30.248  1.00  0.00     0.065 H 
ATOM     82  H   UNL A   1      45.376  25.451  25.591  1.00  0.00     0.065 H 
ATOM     83  C   UNL A   1      46.023  27.900  26.896  1.00  0.00     0.037 A 
ATOM     84  C   UNL A   1      41.791  30.987  30.762  1.00  0.00     0.049 A 
ATOM     85  C   UNL A   1      46.100  29.164  27.706  1.00  0.00     0.074 A 
ATOM     86  C   UNL A   1      42.004  32.117  31.532  1.00  0.00    -0.036 A 
ATOM     87  N   UNL A   1      42.973  30.740  30.080  1.00  0.00    -0.354 N 
ATOM     88  N   UNL A   1      45.194  29.708  28.478  1.00  0.00    -0.248 NA
ATOM     89  C   UNL A   1      47.366  29.909  27.645  1.00  0.00    -0.034 C 
ATOM     90  C   UNL A   1      43.302  32.579  31.283  1.00  0.00    -0.036 A 
ATOM     91  H   UNL A   1      41.324  32.546  32.178  1.00  0.00     0.065 H 
ATOM     92  C   UNL A   1      43.912  31.713  30.391  1.00  0.00     0.049 A 
ATOM     93  H   UNL A   1      43.124  29.984  29.467  1.00  0.00     0.167 HD
ATOM     94  C   UNL A   1      45.781  30.848  29.011  1.00  0.00     0.074 A 
ATOM     95  C   UNL A   1      47.130  30.905  28.487  1.00  0.00    -0.034 C 
ATOM     96  H   UNL A   1      48.214  29.710  27.091  1.00  0.00     0.065 H 
ATOM     97  H   UNL A   1      43.732  33.422  31.695  1.00  0.00     0.065 H 
ATOM     98  C   UNL A   1      45.249  31.764  29.856  1.00  0.00     0.037 A 
ATOM     99  H   UNL A   1      47.821  31.630  28.738  1.00  0.00     0.065 H 
BRANCH  80 100
ATOM    100  C   UNL A   1      39.361  30.658  31.361  1.00  0.00     0.064 A 
ATOM    101  C   UNL A   1      39.094  30.286  32.687  1.00  0.00     0.173 A 
ATOM    102  C   UNL A   1      38.451  31.514  30.723  1.00  0.00     0.173 A 
ATOM    103  F   UNL A   1      39.928  29.462  33.338  1.00  0.00    -0.203 F 
ATOM    104  C   UNL A   1      37.942  30.726  33.336  1.00  0.00     0.198 A 
ATOM    105  C   UNL A   1      37.315  31.974  31.384  1.00  0.00     0.198 A 
ATOM    106  F   UNL A   1      38.664  31.907  29.458  1.00  0.00    -0.203 F 
ATOM    107  F   UNL A   1      37.682  30.316  34.585  1.00  0.00    -0.200 F 
ATOM    108  C   UNL A   1      37.058  31.573  32.687  1.00  0.00     0.200 A 
ATOM    109  F   UNL A   1      36.467  32.803  30.760  1.00  0.00    -0.200 F 
ATOM    110  F   UNL A   1      35.952  31.998  33.315  1.00  0.00    -0.200 F 
ENDBRANCH  80 100
BRANCH  83 111
ATOM    111  C   UNL A   1      47.193  27.424  26.116  1.00  0.00     0.064 A 
ATOM    112  C   UNL A   1      47.329  27.752  24.760  1.00  0.00     0.173 A 
ATOM    113  C   UNL A   1      48.197  26.643  26.705  1.00  0.00     0.173 A 
ATOM    114  F   UNL A   1      46.381  28.479  24.150  1.00  0.00    -0.203 F 
ATOM    115  C   UNL A   1      48.421  27.308  24.019  1.00  0.00     0.198 A 
ATOM    116  C   UNL A   1      49.300  26.219  25.968  1.00  0.00     0.198 A 
ATOM    117  F   UNL A   1      48.113  26.305  27.999  1.00  0.00    -0.203 F 
ATOM    118  F   UNL A   1      48.510  27.607  22.715  1.00  0.00    -0.200 F 
ATOM    119  C   UNL A   1      49.409  26.547  24.625  1.00  0.00     0.200 A 
ATOM    120  F   UNL A   1      50.260  25.492  26.559  1.00  0.00    -0.200 F 
ATOM    121  F   UNL A   1      50.462  26.125  23.913  1.00  0.00    -0.200 F 
ENDBRANCH  83 111
BRANCH  98 122
ATOM    122  C   UNL A   1      46.136  32.898  30.277  1.00  0.00     0.064 A 
ATOM    123  C   UNL A   1      46.976  32.796  31.395  1.00  0.00     0.173 A 
ATOM    124  C   UNL A   1      46.157  34.096  29.547  1.00  0.00     0.173 A 
ATOM    125  F   UNL A   1      46.980  31.677  32.136  1.00  0.00    -0.203 F 
ATOM    126  C   UNL A   1      47.783  33.861  31.784  1.00  0.00     0.198 A 
ATOM    127  C   UNL A   1      46.984  35.150  29.922  1.00  0.00     0.198 A 
ATOM    128  F   UNL A   1      45.374  34.243  28.467  1.00  0.00    -0.203 F 
ATOM    129  F   UNL A   1      48.539  33.760  32.886  1.00  0.00    -0.200 F 
ATOM    130  C   UNL A   1      47.791  35.035  31.045  1.00  0.00     0.200 A 
ATOM    131  F   UNL A   1      46.998  36.280  29.202  1.00  0.00    -0.200 F 
ATOM    132  F   UNL A   1      48.567  36.061  31.422  1.00  0.00    -0.200 F 
ENDBRANCH  98 122
ENDBRANCH  63  66
ENDBRANCH  53  56
ENDBRANCH  49  52
ENDBRANCH  46  49
ENDBRANCH  43  46
ENDBRANCH  40  43
ENDBRANCH  37  40
ENDBRANCH   1  37
TORSDOF 19
ENDMDL
MODEL 9
REMARK VINA RESULT:      -8.8      5.847     11.582
REMARK SMILES O=C(CNC(=O)CNC(=O)OCc1ccccc1)NCCCCCCNC(=O)c1ccc(-c2c3nc(c(-c4c(F)c(F)c(F)c(F)c4F)c4ccc([nH]4)c(-c4c(F)c(F)c(F)c(F)c4F)c4nc(c(-c5c(F)c(F)c(F)c(F)c5F)c5ccc2[nH]5)C=C4)C=C3)cc1
REMARK SMILES IDX 20 1 19 4 1 5 2 6 3 8 4 11 5 12 6 14 7 15 8 18 9 19 10 21
REMARK SMILES IDX 11 22 12 23 13 26 14 27 18 28 15 29 17 31 16 33 21 37 22 40
REMARK SMILES IDX 23 43 24 46 25 49 26 52 27 53 28 55 29 56 30 57 91 58 31 59
REMARK SMILES IDX 90 61 32 63 33 66 34 67 84 68 35 69 89 70 83 71 85 72 36 73
REMARK SMILES IDX 88 74 82 76 81 78 37 80 69 83 49 84 68 85 50 86 53 87 67 88
REMARK SMILES IDX 86 89 51 90 52 92 66 94 87 95 54 98 38 100 39 101 47 102
REMARK SMILES IDX 40 103 41 104 45 105 48 106 42 107 43 108 46 109 44 110
REMARK SMILES IDX 70 111 71 112 79 113 72 114 73 115 77 116 80 117 74 118
REMARK SMILES IDX 75 119 78 120 76 121 55 122 56 123 64 124 57 125 58 126
REMARK SMILES IDX 62 127 65 128 59 129 60 130 63 131 61 132
REMARK H PARENT 20 2 20 3 19 7 3 9 3 10 4 13 7 16 7 17 8 20 12 24 12 25 14 30
REMARK H PARENT 18 32 15 34 17 35 16 36 21 38 21 39 22 41 22 42 23 44 23 45
REMARK H PARENT 24 47 24 48 25 50 25 51 26 54 30 60 91 62 31 64 90 65 89 75
REMARK H PARENT 83 77 85 79 88 81 82 82 50 91 53 93 86 96 51 97 87 99
REMARK Flexibility Score: inf
ROOT
ATOM      1  C   UNL A   1      34.024  30.611  27.149  1.00  0.00     0.017 C 
ATOM      2  H   UNL A   1      33.354  31.389  26.847  1.00  0.00     0.049 H 
ATOM      3  H   UNL A   1      34.756  30.395  26.401  1.00  0.00     0.049 H 
ENDROOT
BRANCH   1   4
ATOM      4  N   UNL A   1      33.255  29.398  27.361  1.00  0.00    -0.355 N 
ATOM      5  O   UNL A   1      31.533  29.953  25.949  1.00  0.00    -0.273 OA
ATOM      6  C   UNL A   1      32.071  29.147  26.703  1.00  0.00     0.239 C 
ATOM      7  H   UNL A   1      33.593  28.730  27.999  1.00  0.00     0.163 HD
BRANCH   6   8
ATOM      8  C   UNL A   1      31.402  27.802  27.031  1.00  0.00     0.097 C 
ATOM      9  H   UNL A   1      30.451  27.777  26.543  1.00  0.00     0.059 H 
ATOM     10  H   UNL A   1      31.331  27.755  28.098  1.00  0.00     0.059 H 
BRANCH   8  11
ATOM     11  N   UNL A   1      32.157  26.625  26.619  1.00  0.00    -0.346 N 
ATOM     12  C   UNL A   1      32.156  25.974  25.419  1.00  0.00     0.239 C 
ATOM     13  H   UNL A   1      32.754  26.245  27.305  1.00  0.00     0.164 HD
ATOM     14  O   UNL A   1      32.880  24.985  25.293  1.00  0.00    -0.273 OA
BRANCH  12  15
ATOM     15  C   UNL A   1      31.211  26.421  24.302  1.00  0.00     0.100 C 
ATOM     16  H   UNL A   1      30.222  26.550  24.688  1.00  0.00     0.060 H 
ATOM     17  H   UNL A   1      31.168  25.688  23.525  1.00  0.00     0.060 H 
BRANCH  15  18
ATOM     18  N   UNL A   1      31.717  27.680  23.796  1.00  0.00    -0.312 N 
ATOM     19  C   UNL A   1      31.214  28.399  22.762  1.00  0.00     0.407 C 
ATOM     20  H   UNL A   1      32.506  28.053  24.250  1.00  0.00     0.167 HD
ATOM     21  O   UNL A   1      31.909  29.238  22.204  1.00  0.00    -0.225 OA
BRANCH  19  22
ATOM     22  O   UNL A   1      29.946  28.074  22.426  1.00  0.00    -0.445 OA
BRANCH  22  23
ATOM     23  C   UNL A   1      28.920  28.762  23.165  1.00  0.00     0.118 C 
ATOM     24  H   UNL A   1      29.246  28.864  24.178  1.00  0.00     0.076 H 
ATOM     25  H   UNL A   1      28.028  28.177  23.081  1.00  0.00     0.076 H 
BRANCH  23  26
ATOM     26  C   UNL A   1      28.602  30.138  22.622  1.00  0.00    -0.011 A 
ATOM     27  C   UNL A   1      28.277  30.321  21.272  1.00  0.00    -0.056 A 
ATOM     28  C   UNL A   1      28.667  31.270  23.449  1.00  0.00    -0.056 A 
ATOM     29  C   UNL A   1      28.028  31.602  20.768  1.00  0.00    -0.062 A 
ATOM     30  H   UNL A   1      28.219  29.505  20.643  1.00  0.00     0.063 H 
ATOM     31  C   UNL A   1      28.398  32.545  22.952  1.00  0.00    -0.062 A 
ATOM     32  H   UNL A   1      28.918  31.157  24.444  1.00  0.00     0.063 H 
ATOM     33  C   UNL A   1      28.083  32.712  21.609  1.00  0.00    -0.062 A 
ATOM     34  H   UNL A   1      27.802  31.726  19.768  1.00  0.00     0.062 H 
ATOM     35  H   UNL A   1      28.433  33.364  23.580  1.00  0.00     0.062 H 
ATOM     36  H   UNL A   1      27.892  33.655  21.234  1.00  0.00     0.062 H 
ENDBRANCH  23  26
ENDBRANCH  22  23
ENDBRANCH  19  22
ENDBRANCH  15  18
ENDBRANCH  12  15
ENDBRANCH   8  11
ENDBRANCH   6   8
ENDBRANCH   1   4
BRANCH   1  37
ATOM     37  C   UNL A   1      34.777  31.077  28.396  1.00  0.00    -0.036 C 
ATOM     38  H   UNL A   1      35.544  30.361  28.607  1.00  0.00     0.028 H 
ATOM     39  H   UNL A   1      34.046  31.161  29.173  1.00  0.00     0.028 H 
BRANCH  37  40
ATOM     40  C   UNL A   1      35.435  32.458  28.280  1.00  0.00    -0.052 C 
ATOM     41  H   UNL A   1      36.135  32.418  27.471  1.00  0.00     0.027 H 
ATOM     42  H   UNL A   1      35.876  32.645  29.237  1.00  0.00     0.027 H 
BRANCH  40  43
ATOM     43  C   UNL A   1      34.497  33.639  28.026  1.00  0.00    -0.052 C 
ATOM     44  H   UNL A   1      33.841  33.370  27.224  1.00  0.00     0.027 H 
ATOM     45  H   UNL A   1      35.133  34.472  27.809  1.00  0.00     0.027 H 
BRANCH  43  46
ATOM     46  C   UNL A   1      33.636  34.073  29.211  1.00  0.00    -0.036 C 
ATOM     47  H   UNL A   1      34.138  33.777  30.108  1.00  0.00     0.028 H 
ATOM     48  H   UNL A   1      32.686  33.601  29.071  1.00  0.00     0.028 H 
BRANCH  46  49
ATOM     49  C   UNL A   1      33.349  35.569  29.306  1.00  0.00     0.018 C 
ATOM     50  H   UNL A   1      32.839  35.877  28.416  1.00  0.00     0.049 H 
ATOM     51  H   UNL A   1      34.287  36.069  29.423  1.00  0.00     0.049 H 
BRANCH  49  52
ATOM     52  N   UNL A   1      32.525  35.918  30.454  1.00  0.00    -0.352 N 
ATOM     53  C   UNL A   1      32.696  35.643  31.788  1.00  0.00     0.251 C 
ATOM     54  H   UNL A   1      31.714  36.434  30.239  1.00  0.00     0.163 HD
ATOM     55  O   UNL A   1      31.803  35.918  32.586  1.00  0.00    -0.269 OA
BRANCH  53  56
ATOM     56  C   UNL A   1      33.932  34.990  32.279  1.00  0.00     0.039 A 
ATOM     57  C   UNL A   1      33.838  33.699  32.809  1.00  0.00    -0.049 A 
ATOM     58  C   UNL A   1      35.169  35.640  32.253  1.00  0.00    -0.049 A 
ATOM     59  C   UNL A   1      34.988  33.035  33.242  1.00  0.00    -0.053 A 
ATOM     60  H   UNL A   1      32.918  33.235  32.879  1.00  0.00     0.063 H 
ATOM     61  C   UNL A   1      36.326  34.954  32.624  1.00  0.00    -0.053 A 
ATOM     62  H   UNL A   1      35.226  36.628  31.960  1.00  0.00     0.063 H 
ATOM     63  C   UNL A   1      36.248  33.643  33.117  1.00  0.00    -0.014 A 
ATOM     64  H   UNL A   1      34.912  32.093  33.655  1.00  0.00     0.063 H 
ATOM     65  H   UNL A   1      37.245  35.414  32.535  1.00  0.00     0.063 H 
BRANCH  63  66
ATOM     66  C   UNL A   1      37.487  32.902  33.469  1.00  0.00     0.031 A 
ATOM     67  C   UNL A   1      38.210  33.176  34.757  1.00  0.00     0.074 A 
ATOM     68  C   UNL A   1      37.991  32.010  32.594  1.00  0.00     0.049 A 
ATOM     69  N   UNL A   1      39.306  32.627  35.224  1.00  0.00    -0.248 NA
ATOM     70  C   UNL A   1      37.646  34.219  35.625  1.00  0.00    -0.034 C 
ATOM     71  C   UNL A   1      37.418  31.696  31.285  1.00  0.00    -0.036 A 
ATOM     72  N   UNL A   1      39.101  31.206  32.673  1.00  0.00    -0.354 N 
ATOM     73  C   UNL A   1      39.567  33.266  36.428  1.00  0.00     0.074 A 
ATOM     74  C   UNL A   1      38.542  34.274  36.600  1.00  0.00    -0.034 C 
ATOM     75  H   UNL A   1      36.778  34.765  35.507  1.00  0.00     0.065 H 
ATOM     76  C   UNL A   1      38.160  30.745  30.697  1.00  0.00    -0.036 A 
ATOM     77  H   UNL A   1      36.578  32.137  30.878  1.00  0.00     0.065 H 
ATOM     78  C   UNL A   1      39.276  30.401  31.574  1.00  0.00     0.049 A 
ATOM     79  H   UNL A   1      39.714  31.206  33.444  1.00  0.00     0.167 HD
ATOM     80  C   UNL A   1      40.559  33.021  37.318  1.00  0.00     0.037 A 
ATOM     81  H   UNL A   1      38.515  34.950  37.379  1.00  0.00     0.065 H 
ATOM     82  H   UNL A   1      37.972  30.324  29.774  1.00  0.00     0.065 H 
ATOM     83  C   UNL A   1      40.224  29.485  31.306  1.00  0.00     0.037 A 
ATOM     84  C   UNL A   1      41.561  31.998  37.161  1.00  0.00     0.049 A 
ATOM     85  C   UNL A   1      41.305  29.223  32.317  1.00  0.00     0.074 A 
ATOM     86  C   UNL A   1      42.551  31.615  38.049  1.00  0.00    -0.036 A 
ATOM     87  N   UNL A   1      41.704  31.201  36.035  1.00  0.00    -0.354 N 
ATOM     88  N   UNL A   1      41.489  29.771  33.491  1.00  0.00    -0.248 NA
ATOM     89  C   UNL A   1      42.305  28.206  31.963  1.00  0.00    -0.034 C 
ATOM     90  C   UNL A   1      43.321  30.615  37.444  1.00  0.00    -0.036 A 
ATOM     91  H   UNL A   1      42.696  32.001  38.996  1.00  0.00     0.065 H 
ATOM     92  C   UNL A   1      42.785  30.345  36.195  1.00  0.00     0.049 A 
ATOM     93  H   UNL A   1      41.124  31.236  35.241  1.00  0.00     0.167 HD
ATOM     94  C   UNL A   1      42.613  29.156  34.027  1.00  0.00     0.074 A 
ATOM     95  C   UNL A   1      43.056  28.178  33.055  1.00  0.00    -0.034 C 
ATOM     96  H   UNL A   1      42.400  27.658  31.093  1.00  0.00     0.065 H 
ATOM     97  H   UNL A   1      44.147  30.157  37.858  1.00  0.00     0.065 H 
ATOM     98  C   UNL A   1      43.221  29.382  35.217  1.00  0.00     0.037 A 
ATOM     99  H   UNL A   1      43.855  27.540  33.195  1.00  0.00     0.065 H 
BRANCH  80 100
ATOM    100  C   UNL A   1      40.609  33.879  38.550  1.00  0.00     0.064 A 
ATOM    101  C   UNL A   1      39.875  33.555  39.701  1.00  0.00     0.173 A 
ATOM    102  C   UNL A   1      41.423  35.020  38.589  1.00  0.00     0.173 A 
ATOM    103  F   UNL A   1      39.074  32.479  39.711  1.00  0.00    -0.203 F 
ATOM    104  C   UNL A   1      39.930  34.361  40.835  1.00  0.00     0.198 A 
ATOM    105  C   UNL A   1      41.497  35.809  39.734  1.00  0.00     0.198 A 
ATOM    106  F   UNL A   1      42.151  35.370  37.518  1.00  0.00    -0.203 F 
ATOM    107  F   UNL A   1      39.182  34.061  41.906  1.00  0.00    -0.200 F 
ATOM    108  C   UNL A   1      40.745  35.484  40.853  1.00  0.00     0.200 A 
ATOM    109  F   UNL A   1      42.293  36.886  39.754  1.00  0.00    -0.200 F 
ATOM    110  F   UNL A   1      40.798  36.256  41.947  1.00  0.00    -0.200 F 
ENDBRANCH  80 100
BRANCH  83 111
ATOM    111  C   UNL A   1      40.163  28.712  30.040  1.00  0.00     0.064 A 
ATOM    112  C   UNL A   1      40.785  29.194  28.879  1.00  0.00     0.173 A 
ATOM    113  C   UNL A   1      39.495  27.483  29.963  1.00  0.00     0.173 A 
ATOM    114  F   UNL A   1      41.417  30.376  28.900  1.00  0.00    -0.203 F 
ATOM    115  C   UNL A   1      40.732  28.478  27.685  1.00  0.00     0.198 A 
ATOM    116  C   UNL A   1      39.462  26.757  28.775  1.00  0.00     0.198 A 
ATOM    117  F   UNL A   1      38.888  26.979  31.047  1.00  0.00    -0.203 F 
ATOM    118  F   UNL A   1      41.305  28.977  26.581  1.00  0.00    -0.200 F 
ATOM    119  C   UNL A   1      40.075  27.257  27.636  1.00  0.00     0.200 A 
ATOM    120  F   UNL A   1      38.837  25.572  28.732  1.00  0.00    -0.200 F 
ATOM    121  F   UNL A   1      40.030  26.566  26.489  1.00  0.00    -0.200 F 
ENDBRANCH  83 111
BRANCH  98 122
ATOM    122  C   UNL A   1      44.425  28.546  35.535  1.00  0.00     0.064 A 
ATOM    123  C   UNL A   1      44.307  27.310  36.189  1.00  0.00     0.173 A 
ATOM    124  C   UNL A   1      45.710  28.977  35.173  1.00  0.00     0.173 A 
ATOM    125  F   UNL A   1      43.102  26.862  36.571  1.00  0.00    -0.203 F 
ATOM    126  C   UNL A   1      45.433  26.551  36.492  1.00  0.00     0.198 A 
ATOM    127  C   UNL A   1      46.832  28.203  35.454  1.00  0.00     0.198 A 
ATOM    128  F   UNL A   1      45.877  30.150  34.543  1.00  0.00    -0.203 F 
ATOM    129  F   UNL A   1      45.302  25.399  37.163  1.00  0.00    -0.200 F 
ATOM    130  C   UNL A   1      46.694  26.994  36.121  1.00  0.00     0.200 A 
ATOM    131  F   UNL A   1      48.048  28.629  35.086  1.00  0.00    -0.200 F 
ATOM    132  F   UNL A   1      47.777  26.263  36.416  1.00  0.00    -0.200 F 
ENDBRANCH  98 122
ENDBRANCH  63  66
ENDBRANCH  53  56
ENDBRANCH  49  52
ENDBRANCH  46  49
ENDBRANCH  43  46
ENDBRANCH  40  43
ENDBRANCH  37  40
ENDBRANCH   1  37
TORSDOF 19
ENDMDL
MODEL 10
REMARK VINA RESULT:      -8.8      5.192     10.060
REMARK SMILES O=C(CNC(=O)CNC(=O)OCc1ccccc1)NCCCCCCNC(=O)c1ccc(-c2c3nc(c(-c4c(F)c(F)c(F)c(F)c4F)c4ccc([nH]4)c(-c4c(F)c(F)c(F)c(F)c4F)c4nc(c(-c5c(F)c(F)c(F)c(F)c5F)c5ccc2[nH]5)C=C4)C=C3)cc1
REMARK SMILES IDX 20 1 19 4 1 5 2 6 3 8 4 11 5 12 6 14 7 15 8 18 9 19 10 21
REMARK SMILES IDX 11 22 12 23 13 26 14 27 18 28 15 29 17 31 16 33 21 37 22 40
REMARK SMILES IDX 23 43 24 46 25 49 26 52 27 53 28 55 29 56 30 57 91 58 31 59
REMARK SMILES IDX 90 61 32 63 33 66 34 67 84 68 35 69 89 70 83 71 85 72 36 73
REMARK SMILES IDX 88 74 82 76 81 78 37 80 69 83 49 84 68 85 50 86 53 87 67 88
REMARK SMILES IDX 86 89 51 90 52 92 66 94 87 95 54 98 38 100 39 101 47 102
REMARK SMILES IDX 40 103 41 104 45 105 48 106 42 107 43 108 46 109 44 110
REMARK SMILES IDX 70 111 71 112 79 113 72 114 73 115 77 116 80 117 74 118
REMARK SMILES IDX 75 119 78 120 76 121 55 122 56 123 64 124 57 125 58 126
REMARK SMILES IDX 62 127 65 128 59 129 60 130 63 131 61 132
REMARK H PARENT 20 2 20 3 19 7 3 9 3 10 4 13 7 16 7 17 8 20 12 24 12 25 14 30
REMARK H PARENT 18 32 15 34 17 35 16 36 21 38 21 39 22 41 22 42 23 44 23 45
REMARK H PARENT 24 47 24 48 25 50 25 51 26 54 30 60 91 62 31 64 90 65 89 75
REMARK H PARENT 83 77 85 79 88 81 82 82 50 91 53 93 86 96 51 97 87 99
REMARK Flexibility Score: inf
ROOT
ATOM      1  C   UNL A   1      34.837  23.602  23.710  1.00  0.00     0.017 C 
ATOM      2  H   UNL A   1      34.793  24.046  22.737  1.00  0.00     0.049 H 
ATOM      3  H   UNL A   1      35.602  22.859  23.781  1.00  0.00     0.049 H 
ENDROOT
BRANCH   1   4
ATOM      4  N   UNL A   1      33.571  22.943  23.973  1.00  0.00    -0.355 N 
ATOM      5  O   UNL A   1      34.427  21.316  25.348  1.00  0.00    -0.273 OA
ATOM      6  C   UNL A   1      33.462  21.858  24.815  1.00  0.00     0.239 C 
ATOM      7  H   UNL A   1      32.760  23.283  23.532  1.00  0.00     0.163 HD
BRANCH   6   8
ATOM      8  C   UNL A   1      32.041  21.299  24.995  1.00  0.00     0.097 C 
ATOM      9  H   UNL A   1      32.102  20.231  24.993  1.00  0.00     0.059 H 
ATOM     10  H   UNL A   1      31.459  21.690  24.186  1.00  0.00     0.059 H 
BRANCH   8  11
ATOM     11  N   UNL A   1      31.370  21.714  26.222  1.00  0.00    -0.346 N 
ATOM     12  C   UNL A   1      30.689  22.867  26.486  1.00  0.00     0.239 C 
ATOM     13  H   UNL A   1      31.414  21.070  26.965  1.00  0.00     0.164 HD
ATOM     14  O   UNL A   1      30.200  23.009  27.608  1.00  0.00    -0.273 OA
BRANCH  12  15
ATOM     15  C   UNL A   1      30.620  23.978  25.438  1.00  0.00     0.100 C 
ATOM     16  H   UNL A   1      29.790  23.814  24.784  1.00  0.00     0.060 H 
ATOM     17  H   UNL A   1      31.509  23.996  24.843  1.00  0.00     0.060 H 
BRANCH  15  18
ATOM     18  N   UNL A   1      30.452  25.227  26.152  1.00  0.00    -0.312 N 
ATOM     19  C   UNL A   1      30.568  26.477  25.638  1.00  0.00     0.407 C 
ATOM     20  H   UNL A   1      30.231  25.162  27.108  1.00  0.00     0.167 HD
ATOM     21  O   UNL A   1      30.756  27.430  26.383  1.00  0.00    -0.225 OA
BRANCH  19  22
ATOM     22  O   UNL A   1      30.486  26.532  24.290  1.00  0.00    -0.445 OA
BRANCH  22  23
ATOM     23  C   UNL A   1      29.166  26.762  23.765  1.00  0.00     0.118 C 
ATOM     24  H   UNL A   1      28.463  26.666  24.565  1.00  0.00     0.076 H 
ATOM     25  H   UNL A   1      29.005  26.039  22.993  1.00  0.00     0.076 H 
BRANCH  23  26
ATOM     26  C   UNL A   1      28.994  28.128  23.137  1.00  0.00    -0.011 A 
ATOM     27  C   UNL A   1      27.762  28.795  23.193  1.00  0.00    -0.056 A 
ATOM     28  C   UNL A   1      30.050  28.742  22.447  1.00  0.00    -0.056 A 
ATOM     29  C   UNL A   1      27.597  30.037  22.571  1.00  0.00    -0.062 A 
ATOM     30  H   UNL A   1      26.970  28.367  23.697  1.00  0.00     0.063 H 
ATOM     31  C   UNL A   1      29.893  29.990  21.845  1.00  0.00    -0.062 A 
ATOM     32  H   UNL A   1      30.961  28.261  22.383  1.00  0.00     0.063 H 
ATOM     33  C   UNL A   1      28.664  30.637  21.902  1.00  0.00    -0.062 A 
ATOM     34  H   UNL A   1      26.682  30.512  22.608  1.00  0.00     0.062 H 
ATOM     35  H   UNL A   1      30.687  30.434  21.357  1.00  0.00     0.062 H 
ATOM     36  H   UNL A   1      28.540  31.556  21.451  1.00  0.00     0.062 H 
ENDBRANCH  23  26
ENDBRANCH  22  23
ENDBRANCH  19  22
ENDBRANCH  15  18
ENDBRANCH  12  15
ENDBRANCH   8  11
ENDBRANCH   6   8
ENDBRANCH   1   4
BRANCH   1  37
ATOM     37  C   UNL A   1      35.174  24.695  24.726  1.00  0.00    -0.036 C 
ATOM     38  H   UNL A   1      36.031  25.227  24.369  1.00  0.00     0.028 H 
ATOM     39  H   UNL A   1      35.341  24.195  25.657  1.00  0.00     0.028 H 
BRANCH  37  40
ATOM     40  C   UNL A   1      34.056  25.712  24.982  1.00  0.00    -0.052 C 
ATOM     41  H   UNL A   1      34.163  26.067  25.987  1.00  0.00     0.027 H 
ATOM     42  H   UNL A   1      33.144  25.186  24.794  1.00  0.00     0.027 H 
BRANCH  40  43
ATOM     43  C   UNL A   1      34.021  26.932  24.060  1.00  0.00    -0.052 C 
ATOM     44  H   UNL A   1      33.338  26.721  23.264  1.00  0.00     0.027 H 
ATOM     45  H   UNL A   1      35.032  27.081  23.740  1.00  0.00     0.027 H 
BRANCH  43  46
ATOM     46  C   UNL A   1      33.594  28.247  24.709  1.00  0.00    -0.036 C 
ATOM     47  H   UNL A   1      32.525  28.279  24.714  1.00  0.00     0.028 H 
ATOM     48  H   UNL A   1      34.048  29.021  24.127  1.00  0.00     0.028 H 
BRANCH  46  49
ATOM     49  C   UNL A   1      34.076  28.464  26.142  1.00  0.00     0.018 C 
ATOM     50  H   UNL A   1      35.125  28.256  26.184  1.00  0.00     0.049 H 
ATOM     51  H   UNL A   1      33.512  27.810  26.773  1.00  0.00     0.049 H 
BRANCH  49  52
ATOM     52  N   UNL A   1      33.854  29.822  26.616  1.00  0.00    -0.352 N 
ATOM     53  C   UNL A   1      34.570  30.581  27.508  1.00  0.00     0.251 C 
ATOM     54  H   UNL A   1      33.064  30.269  26.234  1.00  0.00     0.163 HD
ATOM     55  O   UNL A   1      34.130  31.669  27.873  1.00  0.00    -0.269 OA
BRANCH  53  56
ATOM     56  C   UNL A   1      35.854  30.095  28.064  1.00  0.00     0.039 A 
ATOM     57  C   UNL A   1      37.006  30.210  27.280  1.00  0.00    -0.049 A 
ATOM     58  C   UNL A   1      35.932  29.503  29.328  1.00  0.00    -0.049 A 
ATOM     59  C   UNL A   1      38.242  29.802  27.788  1.00  0.00    -0.053 A 
ATOM     60  H   UNL A   1      36.944  30.598  26.325  1.00  0.00     0.063 H 
ATOM     61  C   UNL A   1      37.174  29.156  29.861  1.00  0.00    -0.053 A 
ATOM     62  H   UNL A   1      35.071  29.322  29.866  1.00  0.00     0.063 H 
ATOM     63  C   UNL A   1      38.342  29.307  29.098  1.00  0.00    -0.014 A 
ATOM     64  H   UNL A   1      39.086  29.865  27.198  1.00  0.00     0.063 H 
ATOM     65  H   UNL A   1      37.234  28.786  30.822  1.00  0.00     0.063 H 
BRANCH  63  66
ATOM     66  C   UNL A   1      39.667  28.978  29.686  1.00  0.00     0.031 A 
ATOM     67  C   UNL A   1      40.469  27.814  29.176  1.00  0.00     0.074 A 
ATOM     68  C   UNL A   1      40.125  29.704  30.724  1.00  0.00     0.049 A 
ATOM     69  N   UNL A   1      41.640  27.379  29.573  1.00  0.00    -0.248 NA
ATOM     70  C   UNL A   1      39.869  27.018  28.097  1.00  0.00    -0.034 C 
ATOM     71  C   UNL A   1      39.416  30.821  31.350  1.00  0.00    -0.036 A 
ATOM     72  N   UNL A   1      41.295  29.611  31.436  1.00  0.00    -0.354 N 
ATOM     73  C   UNL A   1      41.909  26.256  28.804  1.00  0.00     0.074 A 
ATOM     74  C   UNL A   1      40.760  26.048  27.948  1.00  0.00    -0.034 C 
ATOM     75  H   UNL A   1      38.985  27.173  27.587  1.00  0.00     0.065 H 
ATOM     76  C   UNL A   1      40.179  31.330  32.331  1.00  0.00    -0.036 A 
ATOM     77  H   UNL A   1      38.480  31.162  31.082  1.00  0.00     0.065 H 
ATOM     78  C   UNL A   1      41.416  30.560  32.421  1.00  0.00     0.049 A 
ATOM     79  H   UNL A   1      41.983  28.928  31.257  1.00  0.00     0.167 HD
ATOM     80  C   UNL A   1      43.021  25.481  28.797  1.00  0.00     0.037 A 
ATOM     81  H   UNL A   1      40.648  25.247  27.307  1.00  0.00     0.065 H 
ATOM     82  H   UNL A   1      39.930  32.136  32.925  1.00  0.00     0.065 H 
ATOM     83  C   UNL A   1      42.414  30.789  33.294  1.00  0.00     0.037 A 
ATOM     84  C   UNL A   1      44.176  25.705  29.628  1.00  0.00     0.049 A 
ATOM     85  C   UNL A   1      43.642  29.923  33.256  1.00  0.00     0.074 A 
ATOM     86  C   UNL A   1      45.383  25.028  29.629  1.00  0.00    -0.036 A 
ATOM     87  N   UNL A   1      44.262  26.678  30.613  1.00  0.00    -0.354 N 
ATOM     88  N   UNL A   1      43.921  28.918  32.464  1.00  0.00    -0.248 NA
ATOM     89  C   UNL A   1      44.696  30.230  34.234  1.00  0.00    -0.034 C 
ATOM     90  C   UNL A   1      46.185  25.563  30.645  1.00  0.00    -0.036 A 
ATOM     91  H   UNL A   1      45.647  24.261  28.992  1.00  0.00     0.065 H 
ATOM     92  C   UNL A   1      45.494  26.602  31.247  1.00  0.00     0.049 A 
ATOM     93  H   UNL A   1      43.555  27.328  30.829  1.00  0.00     0.167 HD
ATOM     94  C   UNL A   1      45.188  28.484  32.830  1.00  0.00     0.074 A 
ATOM     95  C   UNL A   1      45.630  29.349  33.906  1.00  0.00    -0.034 C 
ATOM     96  H   UNL A   1      44.705  30.943  34.980  1.00  0.00     0.065 H 
ATOM     97  H   UNL A   1      47.131  25.240  30.900  1.00  0.00     0.065 H 
ATOM     98  C   UNL A   1      45.918  27.462  32.322  1.00  0.00     0.037 A 
ATOM     99  H   UNL A   1      46.555  29.287  34.359  1.00  0.00     0.065 H 
BRANCH  80 100
ATOM    100  C   UNL A   1      43.041  24.310  27.857  1.00  0.00     0.064 A 
ATOM    101  C   UNL A   1      43.451  24.447  26.522  1.00  0.00     0.173 A 
ATOM    102  C   UNL A   1      42.675  23.032  28.304  1.00  0.00     0.173 A 
ATOM    103  F   UNL A   1      43.802  25.649  26.043  1.00  0.00    -0.203 F 
ATOM    104  C   UNL A   1      43.463  23.352  25.661  1.00  0.00     0.198 A 
ATOM    105  C   UNL A   1      42.714  21.935  27.448  1.00  0.00     0.198 A 
ATOM    106  F   UNL A   1      42.282  22.845  29.573  1.00  0.00    -0.203 F 
ATOM    107  F   UNL A   1      43.810  23.516  24.377  1.00  0.00    -0.200 F 
ATOM    108  C   UNL A   1      43.099  22.097  26.125  1.00  0.00     0.200 A 
ATOM    109  F   UNL A   1      42.374  20.720  27.901  1.00  0.00    -0.200 F 
ATOM    110  F   UNL A   1      43.114  21.045  25.296  1.00  0.00    -0.200 F 
ENDBRANCH  80 100
BRANCH  83 111
ATOM    111  C   UNL A   1      42.311  31.921  34.249  1.00  0.00     0.064 A 
ATOM    112  C   UNL A   1      42.806  33.188  33.910  1.00  0.00     0.173 A 
ATOM    113  C   UNL A   1      41.714  31.765  35.507  1.00  0.00     0.173 A 
ATOM    114  F   UNL A   1      43.406  33.377  32.725  1.00  0.00    -0.203 F 
ATOM    115  C   UNL A   1      42.718  34.256  34.800  1.00  0.00     0.198 A 
ATOM    116  C   UNL A   1      41.605  32.840  36.387  1.00  0.00     0.198 A 
ATOM    117  F   UNL A   1      41.223  30.573  35.876  1.00  0.00    -0.203 F 
ATOM    118  F   UNL A   1      43.230  35.448  34.465  1.00  0.00    -0.200 F 
ATOM    119  C   UNL A   1      42.112  34.082  36.035  1.00  0.00     0.200 A 
ATOM    120  F   UNL A   1      41.009  32.673  37.576  1.00  0.00    -0.200 F 
ATOM    121  F   UNL A   1      42.021  35.112  36.888  1.00  0.00    -0.200 F 
ENDBRANCH  83 111
BRANCH  98 122
ATOM    122  C   UNL A   1      47.276  27.234  32.917  1.00  0.00     0.064 A 
ATOM    123  C   UNL A   1      48.413  27.891  32.423  1.00  0.00     0.173 A 
ATOM    124  C   UNL A   1      47.442  26.358  34.000  1.00  0.00     0.173 A 
ATOM    125  F   UNL A   1      48.308  28.725  31.377  1.00  0.00    -0.203 F 
ATOM    126  C   UNL A   1      49.669  27.659  32.974  1.00  0.00     0.198 A 
ATOM    127  C   UNL A   1      48.696  26.148  34.566  1.00  0.00     0.198 A 
ATOM    128  F   UNL A   1      46.387  25.707  34.512  1.00  0.00    -0.203 F 
ATOM    129  F   UNL A   1      50.749  28.258  32.453  1.00  0.00    -0.200 F 
ATOM    130  C   UNL A   1      49.810  26.792  34.048  1.00  0.00     0.200 A 
ATOM    131  F   UNL A   1      48.829  25.318  35.610  1.00  0.00    -0.200 F 
ATOM    132  F   UNL A   1      51.022  26.568  34.576  1.00  0.00    -0.200 F 
ENDBRANCH  98 122
ENDBRANCH  63  66
ENDBRANCH  53  56
ENDBRANCH  49  52
ENDBRANCH  46  49
ENDBRANCH  43  46
ENDBRANCH  40  43
ENDBRANCH  37  40
ENDBRANCH   1  37
TORSDOF 19
ENDMDL
