MODEL 1
REMARK VINA RESULT:     -12.7      0.000      0.000
REMARK SMILES O=C(NCCCCCCNC(=O)c1ccccc1/N=C/c1coc2ccccc2c1=O)c1ccc(-c2c3nc(c(-c4c(F)c(F)c(F)c(F)c4F)c4ccc([nH]4)c(-c4c(F)c(F)c(F)c(F)c4F)c4nc(c(-c5c(F)c(F)c(F)c(F)c5F)c5ccc2[nH]5)C=C4)C=C3)cc1
REMARK SMILES IDX 6 1 5 4 4 7 3 10 1 11 2 12 32 14 33 15 94 16 34 17 93 19
REMARK SMILES IDX 35 21 36 24 37 25 87 26 38 27 92 28 86 29 88 30 39 31 91 32
REMARK SMILES IDX 85 34 84 36 40 38 72 41 52 42 71 43 53 44 56 45 70 46 89 47
REMARK SMILES IDX 54 48 55 50 69 52 90 53 57 56 41 58 42 59 50 60 43 61 44 62
REMARK SMILES IDX 48 63 51 64 45 65 46 66 49 67 47 68 73 69 74 70 82 71 75 72
REMARK SMILES IDX 76 73 80 74 83 75 77 76 78 77 81 78 79 79 58 80 59 81 67 82
REMARK SMILES IDX 60 83 61 84 65 85 68 86 62 87 63 88 66 89 64 90 7 91 8 94
REMARK SMILES IDX 9 97 10 100 11 101 12 103 13 104 14 105 18 106 15 107 17 109
REMARK SMILES IDX 16 110 19 114 20 115 21 117 22 118 30 119 23 120 29 122
REMARK SMILES IDX 31 123 24 124 28 125 25 126 27 127 26 129
REMARK H PARENT 6 2 6 3 5 5 5 6 4 8 4 9 3 13 33 18 94 20 34 22 93 23 92 33
REMARK H PARENT 86 35 88 37 91 39 85 40 53 49 56 51 89 54 54 55 90 57 7 92
REMARK H PARENT 7 93 8 95 8 96 9 98 9 99 10 102 14 108 15 111 17 112 16 113
REMARK H PARENT 20 116 22 121 28 128 25 130 27 131 26 132
REMARK Flexibility Score: inf
ROOT
ATOM      1  C   UNL A   1      31.132  30.730  25.612  1.00  0.00    -0.052 C 
ATOM      2  H   UNL A   1      31.549  31.018  24.669  1.00  0.00     0.027 H 
ATOM      3  H   UNL A   1      30.128  30.365  25.549  1.00  0.00     0.027 H 
ENDROOT
BRANCH   1   4
ATOM      4  C   UNL A   1      31.067  31.976  26.494  1.00  0.00    -0.036 C 
ATOM      5  H   UNL A   1      30.527  32.728  25.958  1.00  0.00     0.028 H 
ATOM      6  H   UNL A   1      30.598  31.657  27.402  1.00  0.00     0.028 H 
BRANCH   4   7
ATOM      7  C   UNL A   1      32.402  32.575  26.917  1.00  0.00     0.018 C 
ATOM      8  H   UNL A   1      32.832  31.948  27.671  1.00  0.00     0.049 H 
ATOM      9  H   UNL A   1      33.014  32.631  26.040  1.00  0.00     0.049 H 
BRANCH   7  10
ATOM     10  N   UNL A   1      32.289  33.921  27.447  1.00  0.00    -0.352 N 
ATOM     11  O   UNL A   1      32.685  35.680  28.792  1.00  0.00    -0.269 OA
ATOM     12  C   UNL A   1      33.020  34.554  28.422  1.00  0.00     0.251 C 
ATOM     13  H   UNL A   1      31.576  34.468  27.044  1.00  0.00     0.163 HD
BRANCH  12  14
ATOM     14  C   UNL A   1      34.192  33.904  29.059  1.00  0.00     0.039 A 
ATOM     15  C   UNL A   1      34.064  32.795  29.897  1.00  0.00    -0.049 A 
ATOM     16  C   UNL A   1      35.471  34.390  28.752  1.00  0.00    -0.049 A 
ATOM     17  C   UNL A   1      35.191  32.248  30.512  1.00  0.00    -0.053 A 
ATOM     18  H   UNL A   1      33.135  32.379  30.063  1.00  0.00     0.063 H 
ATOM     19  C   UNL A   1      36.608  33.803  29.320  1.00  0.00    -0.053 A 
ATOM     20  H   UNL A   1      35.575  35.186  28.104  1.00  0.00     0.063 H 
ATOM     21  C   UNL A   1      36.474  32.742  30.226  1.00  0.00    -0.014 A 
ATOM     22  H   UNL A   1      35.080  31.473  31.185  1.00  0.00     0.063 H 
ATOM     23  H   UNL A   1      37.546  34.152  29.071  1.00  0.00     0.063 H 
BRANCH  21  24
ATOM     24  C   UNL A   1      37.660  32.102  30.847  1.00  0.00     0.031 A 
ATOM     25  C   UNL A   1      38.072  32.429  32.255  1.00  0.00     0.074 A 
ATOM     26  C   UNL A   1      38.354  31.188  30.142  1.00  0.00     0.049 A 
ATOM     27  N   UNL A   1      39.054  31.928  32.963  1.00  0.00    -0.248 NA
ATOM     28  C   UNL A   1      37.287  33.454  32.957  1.00  0.00    -0.034 C 
ATOM     29  C   UNL A   1      38.070  30.798  28.761  1.00  0.00    -0.036 A 
ATOM     30  N   UNL A   1      39.422  30.404  30.499  1.00  0.00    -0.354 N 
ATOM     31  C   UNL A   1      39.018  32.589  34.184  1.00  0.00     0.074 A 
ATOM     32  C   UNL A   1      37.922  33.534  34.119  1.00  0.00    -0.034 C 
ATOM     33  H   UNL A   1      36.457  33.975  32.632  1.00  0.00     0.065 H 
ATOM     34  C   UNL A   1      38.908  29.813  28.403  1.00  0.00    -0.036 A 
ATOM     35  H   UNL A   1      37.342  31.215  28.159  1.00  0.00     0.065 H 
ATOM     36  C   UNL A   1      39.805  29.523  29.518  1.00  0.00     0.049 A 
ATOM     37  H   UNL A   1      39.870  30.466  31.372  1.00  0.00     0.167 HD
ATOM     38  C   UNL A   1      39.822  32.418  35.260  1.00  0.00     0.037 A 
ATOM     39  H   UNL A   1      37.670  34.186  34.879  1.00  0.00     0.065 H 
ATOM     40  H   UNL A   1      38.916  29.336  27.487  1.00  0.00     0.065 H 
ATOM     41  C   UNL A   1      40.764  28.580  29.519  1.00  0.00     0.037 A 
ATOM     42  C   UNL A   1      40.895  31.464  35.342  1.00  0.00     0.049 A 
ATOM     43  C   UNL A   1      41.612  28.384  30.739  1.00  0.00     0.074 A 
ATOM     44  C   UNL A   1      41.753  31.215  36.401  1.00  0.00    -0.036 A 
ATOM     45  N   UNL A   1      41.252  30.591  34.327  1.00  0.00    -0.354 N 
ATOM     46  N   UNL A   1      41.561  29.012  31.887  1.00  0.00    -0.248 NA
ATOM     47  C   UNL A   1      42.655  27.351  30.662  1.00  0.00    -0.034 C 
ATOM     48  C   UNL A   1      42.638  30.199  36.021  1.00  0.00    -0.036 A 
ATOM     49  H   UNL A   1      41.742  31.697  37.314  1.00  0.00     0.065 H 
ATOM     50  C   UNL A   1      42.319  29.805  34.732  1.00  0.00     0.049 A 
ATOM     51  H   UNL A   1      40.814  30.539  33.446  1.00  0.00     0.167 HD
ATOM     52  C   UNL A   1      42.564  28.458  32.666  1.00  0.00     0.074 A 
ATOM     53  C   UNL A   1      43.194  27.424  31.871  1.00  0.00    -0.034 C 
ATOM     54  H   UNL A   1      42.902  26.732  29.874  1.00  0.00     0.065 H 
ATOM     55  H   UNL A   1      43.398  29.811  36.601  1.00  0.00     0.065 H 
ATOM     56  C   UNL A   1      42.936  28.785  33.927  1.00  0.00     0.037 A 
ATOM     57  H   UNL A   1      43.964  26.822  32.203  1.00  0.00     0.065 H 
BRANCH  38  58
ATOM     58  C   UNL A   1      39.572  33.293  36.450  1.00  0.00     0.064 A 
ATOM     59  C   UNL A   1      40.178  34.551  36.566  1.00  0.00     0.173 A 
ATOM     60  C   UNL A   1      38.682  32.890  37.455  1.00  0.00     0.173 A 
ATOM     61  F   UNL A   1      41.044  34.973  35.632  1.00  0.00    -0.203 F 
ATOM     62  C   UNL A   1      39.906  35.375  37.655  1.00  0.00     0.198 A 
ATOM     63  C   UNL A   1      38.402  33.721  38.536  1.00  0.00     0.198 A 
ATOM     64  F   UNL A   1      38.078  31.695  37.383  1.00  0.00    -0.203 F 
ATOM     65  F   UNL A   1      40.509  36.567  37.759  1.00  0.00    -0.200 F 
ATOM     66  C   UNL A   1      39.015  34.961  38.635  1.00  0.00     0.200 A 
ATOM     67  F   UNL A   1      37.538  33.324  39.480  1.00  0.00    -0.200 F 
ATOM     68  F   UNL A   1      38.750  35.759  39.680  1.00  0.00    -0.200 F 
ENDBRANCH  38  58
BRANCH  41  69
ATOM     69  C   UNL A   1      40.946  27.727  28.321  1.00  0.00     0.064 A 
ATOM     70  C   UNL A   1      41.803  28.125  27.287  1.00  0.00     0.173 A 
ATOM     71  C   UNL A   1      40.294  26.493  28.203  1.00  0.00     0.173 A 
ATOM     72  F   UNL A   1      42.431  29.307  27.356  1.00  0.00    -0.203 F 
ATOM     73  C   UNL A   1      42.002  27.314  26.172  1.00  0.00     0.198 A 
ATOM     74  C   UNL A   1      40.505  25.677  27.093  1.00  0.00     0.198 A 
ATOM     75  F   UNL A   1      39.466  26.075  29.171  1.00  0.00    -0.203 F 
ATOM     76  F   UNL A   1      42.812  27.723  25.186  1.00  0.00    -0.200 F 
ATOM     77  C   UNL A   1      41.357  26.089  26.079  1.00  0.00     0.200 A 
ATOM     78  F   UNL A   1      39.887  24.492  27.009  1.00  0.00    -0.200 F 
ATOM     79  F   UNL A   1      41.554  25.308  25.009  1.00  0.00    -0.200 F 
ENDBRANCH  41  69
BRANCH  56  80
ATOM     80  C   UNL A   1      44.079  28.021  34.517  1.00  0.00     0.064 A 
ATOM     81  C   UNL A   1      45.388  28.517  34.450  1.00  0.00     0.173 A 
ATOM     82  C   UNL A   1      43.863  26.802  35.171  1.00  0.00     0.173 A 
ATOM     83  F   UNL A   1      45.641  29.673  33.818  1.00  0.00    -0.203 F 
ATOM     84  C   UNL A   1      46.448  27.809  35.009  1.00  0.00     0.198 A 
ATOM     85  C   UNL A   1      44.923  26.101  35.740  1.00  0.00     0.198 A 
ATOM     86  F   UNL A   1      42.626  26.289  35.256  1.00  0.00    -0.203 F 
ATOM     87  F   UNL A   1      47.696  28.285  34.912  1.00  0.00    -0.200 F 
ATOM     88  C   UNL A   1      46.214  26.603  35.656  1.00  0.00     0.200 A 
ATOM     89  F   UNL A   1      44.698  24.938  36.364  1.00  0.00    -0.200 F 
ATOM     90  F   UNL A   1      47.236  25.921  36.191  1.00  0.00    -0.200 F 
ENDBRANCH  56  80
ENDBRANCH  21  24
ENDBRANCH  12  14
ENDBRANCH   7  10
ENDBRANCH   4   7
ENDBRANCH   1   4
BRANCH   1  91
ATOM     91  C   UNL A   1      31.963  29.568  26.159  1.00  0.00    -0.052 C 
ATOM     92  H   UNL A   1      31.358  28.686  26.113  1.00  0.00     0.027 H 
ATOM     93  H   UNL A   1      32.245  29.862  27.149  1.00  0.00     0.027 H 
BRANCH  91  94
ATOM     94  C   UNL A   1      33.282  29.268  25.433  1.00  0.00    -0.036 C 
ATOM     95  H   UNL A   1      34.071  29.738  25.983  1.00  0.00     0.028 H 
ATOM     96  H   UNL A   1      33.153  29.644  24.439  1.00  0.00     0.028 H 
BRANCH  94  97
ATOM     97  C   UNL A   1      33.645  27.792  25.267  1.00  0.00     0.018 C 
ATOM     98  H   UNL A   1      32.812  27.198  25.579  1.00  0.00     0.049 H 
ATOM     99  H   UNL A   1      34.513  27.605  25.864  1.00  0.00     0.049 H 
BRANCH  97 100
ATOM    100  N   UNL A   1      33.976  27.441  23.898  1.00  0.00    -0.352 N 
ATOM    101  C   UNL A   1      33.164  27.416  22.796  1.00  0.00     0.253 C 
ATOM    102  H   UNL A   1      34.914  27.184  23.740  1.00  0.00     0.163 HD
ATOM    103  O   UNL A   1      33.634  27.162  21.689  1.00  0.00    -0.269 OA
BRANCH 101 104
ATOM    104  C   UNL A   1      31.719  27.659  22.911  1.00  0.00     0.065 A 
ATOM    105  C   UNL A   1      31.228  28.853  22.360  1.00  0.00    -0.047 A 
ATOM    106  C   UNL A   1      30.858  26.790  23.588  1.00  0.00     0.076 A 
ATOM    107  C   UNL A   1      29.872  29.171  22.456  1.00  0.00    -0.061 A 
ATOM    108  H   UNL A   1      31.874  29.500  21.881  1.00  0.00     0.063 H 
ATOM    109  C   UNL A   1      29.500  27.136  23.685  1.00  0.00    -0.036 A 
ATOM    110  C   UNL A   1      29.007  28.315  23.127  1.00  0.00    -0.060 A 
ATOM    111  H   UNL A   1      29.513  30.040  22.029  1.00  0.00     0.062 H 
ATOM    112  H   UNL A   1      28.852  26.504  24.180  1.00  0.00     0.065 H 
ATOM    113  H   UNL A   1      28.005  28.549  23.210  1.00  0.00     0.062 H 
BRANCH 106 114
ATOM    114  N   UNL A   1      31.166  25.512  24.043  1.00  0.00    -0.255 NA
ATOM    115  C   UNL A   1      30.747  25.015  25.161  1.00  0.00     0.042 C 
ATOM    116  H   UNL A   1      30.253  25.578  25.872  1.00  0.00     0.085 H 
BRANCH 115 117
ATOM    117  C   UNL A   1      31.034  23.572  25.342  1.00  0.00     0.076 A 
ATOM    118  C   UNL A   1      31.225  22.980  24.148  1.00  0.00     0.104 A 
ATOM    119  C   UNL A   1      32.026  23.182  26.377  1.00  0.00     0.201 A 
ATOM    120  O   UNL A   1      32.336  22.197  23.850  1.00  0.00    -0.463 OA
ATOM    121  H   UNL A   1      30.510  23.114  23.414  1.00  0.00     0.105 H 
ATOM    122  C   UNL A   1      33.385  23.058  25.837  1.00  0.00     0.065 A 
ATOM    123  O   UNL A   1      31.762  23.084  27.564  1.00  0.00    -0.288 OA
ATOM    124  C   UNL A   1      33.477  22.590  24.525  1.00  0.00     0.137 A 
ATOM    125  C   UNL A   1      34.488  23.577  26.509  1.00  0.00    -0.047 A 
ATOM    126  C   UNL A   1      34.697  22.626  23.864  1.00  0.00    -0.019 A 
ATOM    127  C   UNL A   1      35.703  23.650  25.832  1.00  0.00    -0.061 A 
ATOM    128  H   UNL A   1      34.407  23.901  27.487  1.00  0.00     0.063 H 
ATOM    129  C   UNL A   1      35.807  23.177  24.517  1.00  0.00    -0.059 A 
ATOM    130  H   UNL A   1      34.785  22.252  22.906  1.00  0.00     0.066 H 
ATOM    131  H   UNL A   1      36.531  24.053  26.300  1.00  0.00     0.062 H 
ATOM    132  H   UNL A   1      36.712  23.235  24.024  1.00  0.00     0.062 H 
ENDBRANCH 115 117
ENDBRANCH 106 114
ENDBRANCH 101 104
ENDBRANCH  97 100
ENDBRANCH  94  97
ENDBRANCH  91  94
ENDBRANCH   1  91
TORSDOF 15
ENDMDL
MODEL 2
REMARK VINA RESULT:     -12.7      0.128      1.210
REMARK SMILES O=C(NCCCCCCNC(=O)c1ccccc1/N=C/c1coc2ccccc2c1=O)c1ccc(-c2c3nc(c(-c4c(F)c(F)c(F)c(F)c4F)c4ccc([nH]4)c(-c4c(F)c(F)c(F)c(F)c4F)c4nc(c(-c5c(F)c(F)c(F)c(F)c5F)c5ccc2[nH]5)C=C4)C=C3)cc1
REMARK SMILES IDX 6 1 5 4 4 7 3 10 1 11 2 12 32 14 33 15 94 16 34 17 93 19
REMARK SMILES IDX 35 21 36 24 37 25 87 26 38 27 92 28 86 29 88 30 39 31 91 32
REMARK SMILES IDX 85 34 84 36 40 38 72 41 52 42 71 43 53 44 56 45 70 46 89 47
REMARK SMILES IDX 54 48 55 50 69 52 90 53 57 56 41 58 42 59 50 60 43 61 44 62
REMARK SMILES IDX 48 63 51 64 45 65 46 66 49 67 47 68 73 69 74 70 82 71 75 72
REMARK SMILES IDX 76 73 80 74 83 75 77 76 78 77 81 78 79 79 58 80 59 81 67 82
REMARK SMILES IDX 60 83 61 84 65 85 68 86 62 87 63 88 66 89 64 90 7 91 8 94
REMARK SMILES IDX 9 97 10 100 11 101 12 103 13 104 14 105 18 106 15 107 17 109
REMARK SMILES IDX 16 110 19 114 20 115 21 117 22 118 30 119 23 120 29 122
REMARK SMILES IDX 31 123 24 124 28 125 25 126 27 127 26 129
REMARK H PARENT 6 2 6 3 5 5 5 6 4 8 4 9 3 13 33 18 94 20 34 22 93 23 92 33
REMARK H PARENT 86 35 88 37 91 39 85 40 53 49 56 51 89 54 54 55 90 57 7 92
REMARK H PARENT 7 93 8 95 8 96 9 98 9 99 10 102 14 108 15 111 17 112 16 113
REMARK H PARENT 20 116 22 121 28 128 25 130 27 131 26 132
REMARK Flexibility Score: inf
ROOT
ATOM      1  C   UNL A   1      31.134  30.813  25.574  1.00  0.00    -0.052 C 
ATOM      2  H   UNL A   1      31.637  31.101  24.674  1.00  0.00     0.027 H 
ATOM      3  H   UNL A   1      30.125  30.490  25.424  1.00  0.00     0.027 H 
ENDROOT
BRANCH   1   4
ATOM      4  C   UNL A   1      31.047  32.043  26.476  1.00  0.00    -0.036 C 
ATOM      5  H   UNL A   1      30.513  32.802  25.942  1.00  0.00     0.028 H 
ATOM      6  H   UNL A   1      30.562  31.708  27.369  1.00  0.00     0.028 H 
BRANCH   4   7
ATOM      7  C   UNL A   1      32.370  32.641  26.934  1.00  0.00     0.018 C 
ATOM      8  H   UNL A   1      32.783  32.010  27.693  1.00  0.00     0.049 H 
ATOM      9  H   UNL A   1      33.002  32.705  26.072  1.00  0.00     0.049 H 
BRANCH   7  10
ATOM     10  N   UNL A   1      32.243  33.983  27.471  1.00  0.00    -0.352 N 
ATOM     11  O   UNL A   1      32.641  35.748  28.807  1.00  0.00    -0.269 OA
ATOM     12  C   UNL A   1      32.991  34.632  28.423  1.00  0.00     0.251 C 
ATOM     13  H   UNL A   1      31.503  34.513  27.094  1.00  0.00     0.163 HD
BRANCH  12  14
ATOM     14  C   UNL A   1      34.199  34.010  29.017  1.00  0.00     0.039 A 
ATOM     15  C   UNL A   1      35.487  34.479  28.749  1.00  0.00    -0.049 A 
ATOM     16  C   UNL A   1      34.028  32.955  29.926  1.00  0.00    -0.049 A 
ATOM     17  C   UNL A   1      36.596  33.830  29.293  1.00  0.00    -0.053 A 
ATOM     18  H   UNL A   1      35.619  35.307  28.147  1.00  0.00     0.063 H 
ATOM     19  C   UNL A   1      35.137  32.344  30.520  1.00  0.00    -0.053 A 
ATOM     20  H   UNL A   1      33.077  32.629  30.156  1.00  0.00     0.063 H 
ATOM     21  C   UNL A   1      36.434  32.761  30.188  1.00  0.00    -0.014 A 
ATOM     22  H   UNL A   1      37.547  34.140  29.034  1.00  0.00     0.063 H 
ATOM     23  H   UNL A   1      35.001  31.584  31.204  1.00  0.00     0.063 H 
BRANCH  21  24
ATOM     24  C   UNL A   1      37.629  32.128  30.799  1.00  0.00     0.031 A 
ATOM     25  C   UNL A   1      38.064  32.476  32.194  1.00  0.00     0.074 A 
ATOM     26  C   UNL A   1      38.309  31.202  30.097  1.00  0.00     0.049 A 
ATOM     27  N   UNL A   1      39.056  31.983  32.895  1.00  0.00    -0.248 NA
ATOM     28  C   UNL A   1      37.292  33.512  32.894  1.00  0.00    -0.034 C 
ATOM     29  C   UNL A   1      38.002  30.792  28.726  1.00  0.00    -0.036 A 
ATOM     30  N   UNL A   1      39.381  30.421  30.448  1.00  0.00    -0.354 N 
ATOM     31  C   UNL A   1      39.040  32.662  34.105  1.00  0.00     0.074 A 
ATOM     32  C   UNL A   1      37.946  33.609  34.044  1.00  0.00    -0.034 C 
ATOM     33  H   UNL A   1      36.458  34.030  32.574  1.00  0.00     0.065 H 
ATOM     34  C   UNL A   1      38.832  29.800  28.370  1.00  0.00    -0.036 A 
ATOM     35  H   UNL A   1      37.266  31.202  28.129  1.00  0.00     0.065 H 
ATOM     36  C   UNL A   1      39.746  29.525  29.474  1.00  0.00     0.049 A 
ATOM     37  H   UNL A   1      39.844  30.496  31.313  1.00  0.00     0.167 HD
ATOM     38  C   UNL A   1      39.861  32.506  35.171  1.00  0.00     0.037 A 
ATOM     39  H   UNL A   1      37.707  34.273  34.798  1.00  0.00     0.065 H 
ATOM     40  H   UNL A   1      38.825  29.309  27.461  1.00  0.00     0.065 H 
ATOM     41  C   UNL A   1      40.704  28.580  29.475  1.00  0.00     0.037 A 
ATOM     42  C   UNL A   1      40.934  31.550  35.251  1.00  0.00     0.049 A 
ATOM     43  C   UNL A   1      41.571  28.401  30.684  1.00  0.00     0.074 A 
ATOM     44  C   UNL A   1      41.808  31.316  36.300  1.00  0.00    -0.036 A 
ATOM     45  N   UNL A   1      41.273  30.662  34.243  1.00  0.00    -0.354 N 
ATOM     46  N   UNL A   1      41.540  29.046  31.823  1.00  0.00    -0.248 NA
ATOM     47  C   UNL A   1      42.610  27.363  30.605  1.00  0.00    -0.034 C 
ATOM     48  C   UNL A   1      42.685  30.293  35.920  1.00  0.00    -0.036 A 
ATOM     49  H   UNL A   1      41.813  31.812  37.205  1.00  0.00     0.065 H 
ATOM     50  C   UNL A   1      42.344  29.879  34.643  1.00  0.00     0.049 A 
ATOM     51  H   UNL A   1      40.821  30.597  33.371  1.00  0.00     0.167 HD
ATOM     52  C   UNL A   1      42.554  28.501  32.594  1.00  0.00     0.074 A 
ATOM     53  C   UNL A   1      43.169  27.454  31.805  1.00  0.00    -0.034 C 
ATOM     54  H   UNL A   1      42.844  26.733  29.823  1.00  0.00     0.065 H 
ATOM     55  H   UNL A   1      43.454  29.911  36.494  1.00  0.00     0.065 H 
ATOM     56  C   UNL A   1      42.946  28.847  33.844  1.00  0.00     0.037 A 
ATOM     57  H   UNL A   1      43.943  26.855  32.133  1.00  0.00     0.065 H 
BRANCH  38  58
ATOM     58  C   UNL A   1      39.633  33.399  36.351  1.00  0.00     0.064 A 
ATOM     59  C   UNL A   1      40.200  34.679  36.415  1.00  0.00     0.173 A 
ATOM     60  C   UNL A   1      38.799  32.990  37.402  1.00  0.00     0.173 A 
ATOM     61  F   UNL A   1      41.012  35.107  35.436  1.00  0.00    -0.203 F 
ATOM     62  C   UNL A   1      39.946  35.518  37.497  1.00  0.00     0.198 A 
ATOM     63  C   UNL A   1      38.537  33.837  38.476  1.00  0.00     0.198 A 
ATOM     64  F   UNL A   1      38.232  31.775  37.381  1.00  0.00    -0.203 F 
ATOM     65  F   UNL A   1      40.513  36.731  37.549  1.00  0.00    -0.200 F 
ATOM     66  C   UNL A   1      39.112  35.098  38.522  1.00  0.00     0.200 A 
ATOM     67  F   UNL A   1      37.727  33.433  39.464  1.00  0.00    -0.200 F 
ATOM     68  F   UNL A   1      38.864  35.910  39.560  1.00  0.00    -0.200 F 
ENDBRANCH  38  58
BRANCH  41  69
ATOM     69  C   UNL A   1      40.865  27.709  28.287  1.00  0.00     0.064 A 
ATOM     70  C   UNL A   1      41.689  28.099  27.224  1.00  0.00     0.173 A 
ATOM     71  C   UNL A   1      40.226  26.464  28.207  1.00  0.00     0.173 A 
ATOM     72  F   UNL A   1      42.304  29.290  27.255  1.00  0.00    -0.203 F 
ATOM     73  C   UNL A   1      41.868  27.271  26.118  1.00  0.00     0.198 A 
ATOM     74  C   UNL A   1      40.418  25.632  27.107  1.00  0.00     0.198 A 
ATOM     75  F   UNL A   1      39.429  26.053  29.204  1.00  0.00    -0.203 F 
ATOM     76  F   UNL A   1      42.647  27.673  25.104  1.00  0.00    -0.200 F 
ATOM     77  C   UNL A   1      41.237  26.037  26.063  1.00  0.00     0.200 A 
ATOM     78  F   UNL A   1      39.813  24.438  27.059  1.00  0.00    -0.200 F 
ATOM     79  F   UNL A   1      41.416  25.239  25.001  1.00  0.00    -0.200 F 
ENDBRANCH  41  69
BRANCH  56  80
ATOM     80  C   UNL A   1      44.098  28.089  34.427  1.00  0.00     0.064 A 
ATOM     81  C   UNL A   1      43.893  26.892  35.126  1.00  0.00     0.173 A 
ATOM     82  C   UNL A   1      45.411  28.547  34.264  1.00  0.00     0.173 A 
ATOM     83  F   UNL A   1      42.649  26.426  35.318  1.00  0.00    -0.203 F 
ATOM     84  C   UNL A   1      44.967  26.184  35.657  1.00  0.00     0.198 A 
ATOM     85  C   UNL A   1      46.485  27.831  34.786  1.00  0.00     0.198 A 
ATOM     86  F   UNL A   1      45.653  29.690  33.603  1.00  0.00    -0.203 F 
ATOM     87  F   UNL A   1      44.750  25.056  36.347  1.00  0.00    -0.200 F 
ATOM     88  C   UNL A   1      46.262  26.652  35.484  1.00  0.00     0.200 A 
ATOM     89  F   UNL A   1      47.735  28.283  34.619  1.00  0.00    -0.200 F 
ATOM     90  F   UNL A   1      47.295  25.971  35.998  1.00  0.00    -0.200 F 
ENDBRANCH  56  80
ENDBRANCH  21  24
ENDBRANCH  12  14
ENDBRANCH   7  10
ENDBRANCH   4   7
ENDBRANCH   1   4
BRANCH   1  91
ATOM     91  C   UNL A   1      31.873  29.608  26.160  1.00  0.00    -0.052 C 
ATOM     92  H   UNL A   1      31.246  28.750  26.032  1.00  0.00     0.027 H 
ATOM     93  H   UNL A   1      32.070  29.865  27.180  1.00  0.00     0.027 H 
BRANCH  91  94
ATOM     94  C   UNL A   1      33.243  29.282  25.550  1.00  0.00    -0.036 C 
ATOM     95  H   UNL A   1      33.992  29.706  26.186  1.00  0.00     0.028 H 
ATOM     96  H   UNL A   1      33.220  29.691  24.561  1.00  0.00     0.028 H 
BRANCH  94  97
ATOM     97  C   UNL A   1      33.570  27.799  25.370  1.00  0.00     0.018 C 
ATOM     98  H   UNL A   1      32.710  27.223  25.643  1.00  0.00     0.049 H 
ATOM     99  H   UNL A   1      34.411  27.577  25.993  1.00  0.00     0.049 H 
BRANCH  97 100
ATOM    100  N   UNL A   1      33.938  27.462  24.007  1.00  0.00    -0.352 N 
ATOM    101  C   UNL A   1      33.152  27.429  22.887  1.00  0.00     0.253 C 
ATOM    102  H   UNL A   1      34.883  27.223  23.869  1.00  0.00     0.163 HD
ATOM    103  O   UNL A   1      33.650  27.190  21.789  1.00  0.00    -0.269 OA
BRANCH 101 104
ATOM    104  C   UNL A   1      31.700  27.645  22.970  1.00  0.00     0.065 A 
ATOM    105  C   UNL A   1      31.199  28.826  22.400  1.00  0.00    -0.047 A 
ATOM    106  C   UNL A   1      30.842  26.765  23.636  1.00  0.00     0.076 A 
ATOM    107  C   UNL A   1      29.835  29.119  22.465  1.00  0.00    -0.061 A 
ATOM    108  H   UNL A   1      31.842  29.481  21.930  1.00  0.00     0.063 H 
ATOM    109  C   UNL A   1      29.475  27.086  23.702  1.00  0.00    -0.036 A 
ATOM    110  C   UNL A   1      28.972  28.251  23.125  1.00  0.00    -0.060 A 
ATOM    111  H   UNL A   1      29.469  29.978  22.025  1.00  0.00     0.062 H 
ATOM    112  H   UNL A   1      28.830  26.445  24.189  1.00  0.00     0.065 H 
ATOM    113  H   UNL A   1      27.965  28.467  23.186  1.00  0.00     0.062 H 
BRANCH 106 114
ATOM    114  N   UNL A   1      31.164  25.497  24.107  1.00  0.00    -0.255 NA
ATOM    115  C   UNL A   1      30.734  25.001  25.222  1.00  0.00     0.042 C 
ATOM    116  H   UNL A   1      30.217  25.561  25.918  1.00  0.00     0.085 H 
BRANCH 115 117
ATOM    117  C   UNL A   1      31.044  23.565  25.419  1.00  0.00     0.076 A 
ATOM    118  C   UNL A   1      31.202  22.953  24.231  1.00  0.00     0.104 A 
ATOM    119  C   UNL A   1      32.073  23.206  26.429  1.00  0.00     0.201 A 
ATOM    120  O   UNL A   1      32.313  22.176  23.912  1.00  0.00    -0.463 OA
ATOM    121  H   UNL A   1      30.463  23.065  23.518  1.00  0.00     0.105 H 
ATOM    122  C   UNL A   1      33.415  23.086  25.848  1.00  0.00     0.065 A 
ATOM    123  O   UNL A   1      31.848  23.127  27.626  1.00  0.00    -0.288 OA
ATOM    124  C   UNL A   1      33.470  22.595  24.542  1.00  0.00     0.137 A 
ATOM    125  C   UNL A   1      34.533  23.630  26.475  1.00  0.00    -0.047 A 
ATOM    126  C   UNL A   1      34.668  22.632  23.842  1.00  0.00    -0.019 A 
ATOM    127  C   UNL A   1      35.725  23.704  25.758  1.00  0.00    -0.061 A 
ATOM    128  H   UNL A   1      34.479  23.971  27.448  1.00  0.00     0.063 H 
ATOM    129  C   UNL A   1      35.792  23.207  24.448  1.00  0.00    -0.059 A 
ATOM    130  H   UNL A   1      34.730  22.241  22.888  1.00  0.00     0.066 H 
ATOM    131  H   UNL A   1      36.562  24.125  26.191  1.00  0.00     0.062 H 
ATOM    132  H   UNL A   1      36.680  23.266  23.925  1.00  0.00     0.062 H 
ENDBRANCH 115 117
ENDBRANCH 106 114
ENDBRANCH 101 104
ENDBRANCH  97 100
ENDBRANCH  94  97
ENDBRANCH  91  94
ENDBRANCH   1  91
TORSDOF 15
ENDMDL
MODEL 3
REMARK VINA RESULT:     -12.5      2.870      5.351
REMARK SMILES O=C(NCCCCCCNC(=O)c1ccccc1/N=C/c1coc2ccccc2c1=O)c1ccc(-c2c3nc(c(-c4c(F)c(F)c(F)c(F)c4F)c4ccc([nH]4)c(-c4c(F)c(F)c(F)c(F)c4F)c4nc(c(-c5c(F)c(F)c(F)c(F)c5F)c5ccc2[nH]5)C=C4)C=C3)cc1
REMARK SMILES IDX 6 1 5 4 4 7 3 10 1 11 2 12 32 14 33 15 94 16 34 17 93 19
REMARK SMILES IDX 35 21 36 24 37 25 87 26 38 27 92 28 86 29 88 30 39 31 91 32
REMARK SMILES IDX 85 34 84 36 40 38 72 41 52 42 71 43 53 44 56 45 70 46 89 47
REMARK SMILES IDX 54 48 55 50 69 52 90 53 57 56 41 58 42 59 50 60 43 61 44 62
REMARK SMILES IDX 48 63 51 64 45 65 46 66 49 67 47 68 73 69 74 70 82 71 75 72
REMARK SMILES IDX 76 73 80 74 83 75 77 76 78 77 81 78 79 79 58 80 59 81 67 82
REMARK SMILES IDX 60 83 61 84 65 85 68 86 62 87 63 88 66 89 64 90 7 91 8 94
REMARK SMILES IDX 9 97 10 100 11 101 12 103 13 104 14 105 18 106 15 107 17 109
REMARK SMILES IDX 16 110 19 114 20 115 21 117 22 118 30 119 23 120 29 122
REMARK SMILES IDX 31 123 24 124 28 125 25 126 27 127 26 129
REMARK H PARENT 6 2 6 3 5 5 5 6 4 8 4 9 3 13 33 18 94 20 34 22 93 23 92 33
REMARK H PARENT 86 35 88 37 91 39 85 40 53 49 56 51 89 54 54 55 90 57 7 92
REMARK H PARENT 7 93 8 95 8 96 9 98 9 99 10 102 14 108 15 111 17 112 16 113
REMARK H PARENT 20 116 22 121 28 128 25 130 27 131 26 132
REMARK Flexibility Score: inf
ROOT
ATOM      1  C   UNL A   1      32.429  26.207  26.174  1.00  0.00    -0.052 C 
ATOM      2  H   UNL A   1      32.812  25.405  26.771  1.00  0.00     0.027 H 
ATOM      3  H   UNL A   1      32.955  26.353  25.254  1.00  0.00     0.027 H 
ENDROOT
BRANCH   1   4
ATOM      4  C   UNL A   1      32.605  27.503  26.963  1.00  0.00    -0.036 C 
ATOM      5  H   UNL A   1      31.738  28.108  26.795  1.00  0.00     0.028 H 
ATOM      6  H   UNL A   1      32.742  27.201  27.980  1.00  0.00     0.028 H 
BRANCH   4   7
ATOM      7  C   UNL A   1      33.829  28.342  26.621  1.00  0.00     0.018 C 
ATOM      8  H   UNL A   1      34.668  27.954  27.162  1.00  0.00     0.049 H 
ATOM      9  H   UNL A   1      33.968  28.280  25.562  1.00  0.00     0.049 H 
BRANCH   7  10
ATOM     10  N   UNL A   1      33.678  29.747  26.953  1.00  0.00    -0.352 N 
ATOM     11  O   UNL A   1      34.133  31.732  27.907  1.00  0.00    -0.269 OA
ATOM     12  C   UNL A   1      34.509  30.587  27.652  1.00  0.00     0.251 C 
ATOM     13  H   UNL A   1      32.849  30.164  26.623  1.00  0.00     0.163 HD
BRANCH  12  14
ATOM     14  C   UNL A   1      35.840  30.141  28.131  1.00  0.00     0.039 A 
ATOM     15  C   UNL A   1      36.028  29.588  29.400  1.00  0.00    -0.049 A 
ATOM     16  C   UNL A   1      36.928  30.224  27.250  1.00  0.00    -0.049 A 
ATOM     17  C   UNL A   1      37.308  29.228  29.825  1.00  0.00    -0.053 A 
ATOM     18  H   UNL A   1      35.220  29.446  30.026  1.00  0.00     0.063 H 
ATOM     19  C   UNL A   1      38.201  29.805  27.653  1.00  0.00    -0.053 A 
ATOM     20  H   UNL A   1      36.787  30.596  26.298  1.00  0.00     0.063 H 
ATOM     21  C   UNL A   1      38.405  29.327  28.955  1.00  0.00    -0.014 A 
ATOM     22  H   UNL A   1      37.449  28.886  30.789  1.00  0.00     0.063 H 
ATOM     23  H   UNL A   1      38.990  29.849  26.991  1.00  0.00     0.063 H 
BRANCH  21  24
ATOM     24  C   UNL A   1      39.745  28.880  29.412  1.00  0.00     0.031 A 
ATOM     25  C   UNL A   1      40.502  29.643  30.462  1.00  0.00     0.074 A 
ATOM     26  C   UNL A   1      40.268  27.752  28.896  1.00  0.00     0.049 A 
ATOM     27  N   UNL A   1      41.662  29.365  31.006  1.00  0.00    -0.248 NA
ATOM     28  C   UNL A   1      39.884  30.879  30.963  1.00  0.00    -0.034 C 
ATOM     29  C   UNL A   1      39.644  26.933  27.856  1.00  0.00    -0.036 A 
ATOM     30  N   UNL A   1      41.430  27.085  29.194  1.00  0.00    -0.354 N 
ATOM     31  C   UNL A   1      41.921  30.399  31.895  1.00  0.00     0.074 A 
ATOM     32  C   UNL A   1      40.804  31.316  31.813  1.00  0.00    -0.034 C 
ATOM     33  H   UNL A   1      38.973  31.297  30.717  1.00  0.00     0.065 H 
ATOM     34  C   UNL A   1      40.403  25.848  27.639  1.00  0.00    -0.036 A 
ATOM     35  H   UNL A   1      38.762  27.156  27.368  1.00  0.00     0.065 H 
ATOM     36  C   UNL A   1      41.578  25.910  28.502  1.00  0.00     0.049 A 
ATOM     37  H   UNL A   1      42.092  27.418  29.842  1.00  0.00     0.167 HD
ATOM     38  C   UNL A   1      42.992  30.563  32.709  1.00  0.00     0.037 A 
ATOM     39  H   UNL A   1      40.732  32.196  32.349  1.00  0.00     0.065 H 
ATOM     40  H   UNL A   1      40.188  25.091  26.970  1.00  0.00     0.065 H 
ATOM     41  C   UNL A   1      42.548  24.979  28.562  1.00  0.00     0.037 A 
ATOM     42  C   UNL A   1      44.093  29.644  32.815  1.00  0.00     0.049 A 
ATOM     43  C   UNL A   1      43.701  25.167  29.502  1.00  0.00     0.074 A 
ATOM     44  C   UNL A   1      45.215  29.727  33.624  1.00  0.00    -0.036 A 
ATOM     45  N   UNL A   1      44.208  28.465  32.096  1.00  0.00    -0.354 N 
ATOM     46  N   UNL A   1      43.929  26.146  30.341  1.00  0.00    -0.248 NA
ATOM     47  C   UNL A   1      44.734  24.121  29.499  1.00  0.00    -0.034 C 
ATOM     48  C   UNL A   1      46.014  28.604  33.384  1.00  0.00    -0.036 A 
ATOM     49  H   UNL A   1      45.426  30.489  34.289  1.00  0.00     0.065 H 
ATOM     50  C   UNL A   1      45.381  27.814  32.439  1.00  0.00     0.049 A 
ATOM     51  H   UNL A   1      43.553  28.140  31.436  1.00  0.00     0.167 HD
ATOM     52  C   UNL A   1      45.130  25.840  30.961  1.00  0.00     0.074 A 
ATOM     53  C   UNL A   1      45.573  24.572  30.421  1.00  0.00    -0.034 C 
ATOM     54  H   UNL A   1      44.792  23.263  28.929  1.00  0.00     0.065 H 
ATOM     55  H   UNL A   1      46.921  28.399  33.834  1.00  0.00     0.065 H 
ATOM     56  C   UNL A   1      45.809  26.556  31.889  1.00  0.00     0.037 A 
ATOM     57  H   UNL A   1      46.433  24.082  30.716  1.00  0.00     0.065 H 
BRANCH  38  58
ATOM     58  C   UNL A   1      43.028  31.798  33.556  1.00  0.00     0.064 A 
ATOM     59  C   UNL A   1      42.483  31.809  34.847  1.00  0.00     0.173 A 
ATOM     60  C   UNL A   1      43.658  32.961  33.091  1.00  0.00     0.173 A 
ATOM     61  F   UNL A   1      41.863  30.721  35.329  1.00  0.00    -0.203 F 
ATOM     62  C   UNL A   1      42.561  32.949  35.643  1.00  0.00     0.198 A 
ATOM     63  C   UNL A   1      43.744  34.095  33.894  1.00  0.00     0.198 A 
ATOM     64  F   UNL A   1      44.195  32.994  31.863  1.00  0.00    -0.203 F 
ATOM     65  F   UNL A   1      42.017  32.948  36.868  1.00  0.00    -0.200 F 
ATOM     66  C   UNL A   1      43.195  34.088  35.168  1.00  0.00     0.200 A 
ATOM     67  F   UNL A   1      44.362  35.193  33.437  1.00  0.00    -0.200 F 
ATOM     68  F   UNL A   1      43.274  35.182  35.938  1.00  0.00    -0.200 F 
ENDBRANCH  38  58
BRANCH  41  69
ATOM     69  C   UNL A   1      42.444  23.766  27.718  1.00  0.00     0.064 A 
ATOM     70  C   UNL A   1      42.876  23.785  26.386  1.00  0.00     0.173 A 
ATOM     71  C   UNL A   1      41.943  22.563  28.234  1.00  0.00     0.173 A 
ATOM     72  F   UNL A   1      43.346  24.921  25.851  1.00  0.00    -0.203 F 
ATOM     73  C   UNL A   1      42.809  22.640  25.596  1.00  0.00     0.198 A 
ATOM     74  C   UNL A   1      41.889  21.415  27.446  1.00  0.00     0.198 A 
ATOM     75  F   UNL A   1      41.519  22.502  29.504  1.00  0.00    -0.203 F 
ATOM     76  F   UNL A   1      43.211  22.686  24.319  1.00  0.00    -0.200 F 
ATOM     77  C   UNL A   1      42.321  21.455  26.129  1.00  0.00     0.200 A 
ATOM     78  F   UNL A   1      41.424  20.271  27.964  1.00  0.00    -0.200 F 
ATOM     79  F   UNL A   1      42.263  20.353  25.369  1.00  0.00    -0.200 F 
ENDBRANCH  41  69
BRANCH  56  80
ATOM     80  C   UNL A   1      47.105  25.983  32.371  1.00  0.00     0.064 A 
ATOM     81  C   UNL A   1      47.160  25.203  33.534  1.00  0.00     0.173 A 
ATOM     82  C   UNL A   1      48.290  26.193  31.655  1.00  0.00     0.173 A 
ATOM     83  F   UNL A   1      46.051  24.991  34.258  1.00  0.00    -0.203 F 
ATOM     84  C   UNL A   1      48.366  24.663  33.972  1.00  0.00     0.198 A 
ATOM     85  C   UNL A   1      49.492  25.642  32.089  1.00  0.00     0.198 A 
ATOM     86  F   UNL A   1      48.283  26.936  30.537  1.00  0.00    -0.203 F 
ATOM     87  F   UNL A   1      48.404  23.943  35.102  1.00  0.00    -0.200 F 
ATOM     88  C   UNL A   1      49.529  24.880  33.249  1.00  0.00     0.200 A 
ATOM     89  F   UNL A   1      50.616  25.852  31.391  1.00  0.00    -0.200 F 
ATOM     90  F   UNL A   1      50.690  24.362  33.674  1.00  0.00    -0.200 F 
ENDBRANCH  56  80
ENDBRANCH  21  24
ENDBRANCH  12  14
ENDBRANCH   7  10
ENDBRANCH   4   7
ENDBRANCH   1   4
BRANCH   1  91
ATOM     91  C   UNL A   1      30.993  25.855  25.781  1.00  0.00    -0.052 C 
ATOM     92  H   UNL A   1      30.617  26.655  25.177  1.00  0.00     0.027 H 
ATOM     93  H   UNL A   1      30.472  25.715  26.705  1.00  0.00     0.027 H 
BRANCH  91  94
ATOM     94  C   UNL A   1      30.797  24.548  25.001  1.00  0.00    -0.036 C 
ATOM     95  H   UNL A   1      30.913  24.770  23.960  1.00  0.00     0.028 H 
ATOM     96  H   UNL A   1      29.822  24.198  25.271  1.00  0.00     0.028 H 
BRANCH  94  97
ATOM     97  C   UNL A   1      31.752  23.404  25.343  1.00  0.00     0.018 C 
ATOM     98  H   UNL A   1      31.539  23.066  26.335  1.00  0.00     0.049 H 
ATOM     99  H   UNL A   1      32.749  23.780  25.255  1.00  0.00     0.049 H 
BRANCH  97 100
ATOM    100  N   UNL A   1      31.631  22.276  24.436  1.00  0.00    -0.352 N 
ATOM    101  C   UNL A   1      32.619  21.505  23.887  1.00  0.00     0.253 C 
ATOM    102  H   UNL A   1      30.712  22.034  24.180  1.00  0.00     0.163 HD
ATOM    103  O   UNL A   1      32.330  20.534  23.190  1.00  0.00    -0.269 OA
BRANCH 101 104
ATOM    104  C   UNL A   1      34.039  21.830  24.089  1.00  0.00     0.065 A 
ATOM    105  C   UNL A   1      34.809  20.901  24.807  1.00  0.00    -0.047 A 
ATOM    106  C   UNL A   1      34.609  23.029  23.653  1.00  0.00     0.076 A 
ATOM    107  C   UNL A   1      36.158  21.152  25.067  1.00  0.00    -0.061 A 
ATOM    108  H   UNL A   1      34.375  20.028  25.145  1.00  0.00     0.063 H 
ATOM    109  C   UNL A   1      35.964  23.268  23.938  1.00  0.00    -0.036 A 
ATOM    110  C   UNL A   1      36.735  22.342  24.639  1.00  0.00    -0.060 A 
ATOM    111  H   UNL A   1      36.724  20.455  25.577  1.00  0.00     0.062 H 
ATOM    112  H   UNL A   1      36.398  24.149  23.621  1.00  0.00     0.065 H 
ATOM    113  H   UNL A   1      37.728  22.538  24.837  1.00  0.00     0.062 H 
BRANCH 106 114
ATOM    114  N   UNL A   1      34.020  23.963  22.806  1.00  0.00    -0.255 NA
ATOM    115  C   UNL A   1      33.889  25.219  23.083  1.00  0.00     0.042 C 
ATOM    116  H   UNL A   1      34.097  25.609  24.016  1.00  0.00     0.085 H 
BRANCH 115 117
ATOM    117  C   UNL A   1      33.417  26.055  21.952  1.00  0.00     0.076 A 
ATOM    118  C   UNL A   1      32.247  25.585  21.481  1.00  0.00     0.104 A 
ATOM    119  C   UNL A   1      33.459  27.531  22.112  1.00  0.00     0.201 A 
ATOM    120  O   UNL A   1      31.119  26.381  21.305  1.00  0.00    -0.463 OA
ATOM    121  H   UNL A   1      32.183  24.584  21.237  1.00  0.00     0.105 H 
ATOM    122  C   UNL A   1      32.198  28.078  22.625  1.00  0.00     0.065 A 
ATOM    123  O   UNL A   1      34.464  28.202  21.941  1.00  0.00    -0.288 OA
ATOM    124  C   UNL A   1      31.037  27.421  22.212  1.00  0.00     0.137 A 
ATOM    125  C   UNL A   1      32.175  29.046  23.626  1.00  0.00    -0.047 A 
ATOM    126  C   UNL A   1      29.820  27.739  22.797  1.00  0.00    -0.019 A 
ATOM    127  C   UNL A   1      30.959  29.336  24.240  1.00  0.00    -0.061 A 
ATOM    128  H   UNL A   1      33.040  29.537  23.905  1.00  0.00     0.063 H 
ATOM    129  C   UNL A   1      29.788  28.686  23.828  1.00  0.00    -0.059 A 
ATOM    130  H   UNL A   1      28.950  27.284  22.477  1.00  0.00     0.066 H 
ATOM    131  H   UNL A   1      30.920  30.033  25.002  1.00  0.00     0.062 H 
ATOM    132  H   UNL A   1      28.892  28.908  24.290  1.00  0.00     0.062 H 
ENDBRANCH 115 117
ENDBRANCH 106 114
ENDBRANCH 101 104
ENDBRANCH  97 100
ENDBRANCH  94  97
ENDBRANCH  91  94
ENDBRANCH   1  91
TORSDOF 15
ENDMDL
MODEL 4
REMARK VINA RESULT:     -12.5      4.938     10.643
REMARK SMILES O=C(NCCCCCCNC(=O)c1ccccc1/N=C/c1coc2ccccc2c1=O)c1ccc(-c2c3nc(c(-c4c(F)c(F)c(F)c(F)c4F)c4ccc([nH]4)c(-c4c(F)c(F)c(F)c(F)c4F)c4nc(c(-c5c(F)c(F)c(F)c(F)c5F)c5ccc2[nH]5)C=C4)C=C3)cc1
REMARK SMILES IDX 6 1 5 4 4 7 3 10 1 11 2 12 32 14 33 15 94 16 34 17 93 19
REMARK SMILES IDX 35 21 36 24 37 25 87 26 38 27 92 28 86 29 88 30 39 31 91 32
REMARK SMILES IDX 85 34 84 36 40 38 72 41 52 42 71 43 53 44 56 45 70 46 89 47
REMARK SMILES IDX 54 48 55 50 69 52 90 53 57 56 41 58 42 59 50 60 43 61 44 62
REMARK SMILES IDX 48 63 51 64 45 65 46 66 49 67 47 68 73 69 74 70 82 71 75 72
REMARK SMILES IDX 76 73 80 74 83 75 77 76 78 77 81 78 79 79 58 80 59 81 67 82
REMARK SMILES IDX 60 83 61 84 65 85 68 86 62 87 63 88 66 89 64 90 7 91 8 94
REMARK SMILES IDX 9 97 10 100 11 101 12 103 13 104 14 105 18 106 15 107 17 109
REMARK SMILES IDX 16 110 19 114 20 115 21 117 22 118 30 119 23 120 29 122
REMARK SMILES IDX 31 123 24 124 28 125 25 126 27 127 26 129
REMARK H PARENT 6 2 6 3 5 5 5 6 4 8 4 9 3 13 33 18 94 20 34 22 93 23 92 33
REMARK H PARENT 86 35 88 37 91 39 85 40 53 49 56 51 89 54 54 55 90 57 7 92
REMARK H PARENT 7 93 8 95 8 96 9 98 9 99 10 102 14 108 15 111 17 112 16 113
REMARK H PARENT 20 116 22 121 28 128 25 130 27 131 26 132
REMARK Flexibility Score: inf
ROOT
ATOM      1  C   UNL A   1      36.548  20.093  25.001  1.00  0.00    -0.052 C 
ATOM      2  H   UNL A   1      36.062  19.935  25.941  1.00  0.00     0.027 H 
ATOM      3  H   UNL A   1      35.987  19.747  24.158  1.00  0.00     0.027 H 
ENDROOT
BRANCH   1   4
ATOM      4  C   UNL A   1      37.843  19.282  25.001  1.00  0.00    -0.036 C 
ATOM      5  H   UNL A   1      37.634  18.334  25.451  1.00  0.00     0.028 H 
ATOM      6  H   UNL A   1      38.144  19.228  23.975  1.00  0.00     0.028 H 
BRANCH   4   7
ATOM      7  C   UNL A   1      39.025  19.896  25.739  1.00  0.00     0.018 C 
ATOM      8  H   UNL A   1      39.293  20.810  25.250  1.00  0.00     0.049 H 
ATOM      9  H   UNL A   1      38.717  20.054  26.751  1.00  0.00     0.049 H 
BRANCH   7  10
ATOM     10  N   UNL A   1      40.193  19.035  25.776  1.00  0.00    -0.352 N 
ATOM     11  O   UNL A   1      42.363  18.457  25.901  1.00  0.00    -0.269 OA
ATOM     12  C   UNL A   1      41.510  19.337  26.020  1.00  0.00     0.251 C 
ATOM     13  H   UNL A   1      40.013  18.083  25.599  1.00  0.00     0.163 HD
BRANCH  12  14
ATOM     14  C   UNL A   1      41.934  20.707  26.401  1.00  0.00     0.039 A 
ATOM     15  C   UNL A   1      42.268  21.045  27.714  1.00  0.00    -0.049 A 
ATOM     16  C   UNL A   1      42.061  21.671  25.390  1.00  0.00    -0.049 A 
ATOM     17  C   UNL A   1      42.614  22.359  28.033  1.00  0.00    -0.053 A 
ATOM     18  H   UNL A   1      42.258  20.322  28.451  1.00  0.00     0.063 H 
ATOM     19  C   UNL A   1      42.468  22.973  25.699  1.00  0.00    -0.053 A 
ATOM     20  H   UNL A   1      41.852  21.417  24.412  1.00  0.00     0.063 H 
ATOM     21  C   UNL A   1      42.723  23.334  27.030  1.00  0.00    -0.014 A 
ATOM     22  H   UNL A   1      42.791  22.616  29.018  1.00  0.00     0.063 H 
ATOM     23  H   UNL A   1      42.580  23.669  24.947  1.00  0.00     0.063 H 
BRANCH  21  24
ATOM     24  C   UNL A   1      43.152  24.709  27.388  1.00  0.00     0.031 A 
ATOM     25  C   UNL A   1      44.542  25.193  27.086  1.00  0.00     0.074 A 
ATOM     26  C   UNL A   1      42.264  25.542  27.963  1.00  0.00     0.049 A 
ATOM     27  N   UNL A   1      45.065  26.377  27.290  1.00  0.00    -0.248 NA
ATOM     28  C   UNL A   1      45.468  24.224  26.482  1.00  0.00    -0.034 C 
ATOM     29  C   UNL A   1      40.892  25.188  28.327  1.00  0.00    -0.036 A 
ATOM     30  N   UNL A   1      42.374  26.864  28.316  1.00  0.00    -0.354 N 
ATOM     31  C   UNL A   1      46.382  26.290  26.861  1.00  0.00     0.074 A 
ATOM     32  C   UNL A   1      46.584  24.935  26.392  1.00  0.00    -0.034 C 
ATOM     33  H   UNL A   1      45.295  23.246  26.201  1.00  0.00     0.065 H 
ATOM     34  C   UNL A   1      40.271  26.277  28.805  1.00  0.00    -0.036 A 
ATOM     35  H   UNL A   1      40.470  24.250  28.233  1.00  0.00     0.065 H 
ATOM     36  C   UNL A   1      41.208  27.396  28.807  1.00  0.00     0.049 A 
ATOM     37  H   UNL A   1      43.207  27.380  28.226  1.00  0.00     0.167 HD
ATOM     38  C   UNL A   1      47.333  27.254  26.854  1.00  0.00     0.037 A 
ATOM     39  H   UNL A   1      47.482  24.570  26.034  1.00  0.00     0.065 H 
ATOM     40  H   UNL A   1      39.288  26.317  29.119  1.00  0.00     0.065 H 
ATOM     41  C   UNL A   1      40.922  28.649  29.205  1.00  0.00     0.037 A 
ATOM     42  C   UNL A   1      47.134  28.610  27.294  1.00  0.00     0.049 A 
ATOM     43  C   UNL A   1      41.982  29.707  29.148  1.00  0.00     0.074 A 
ATOM     44  C   UNL A   1      48.041  29.657  27.310  1.00  0.00    -0.036 A 
ATOM     45  N   UNL A   1      45.939  29.110  27.786  1.00  0.00    -0.354 N 
ATOM     46  N   UNL A   1      43.221  29.611  28.734  1.00  0.00    -0.248 NA
ATOM     47  C   UNL A   1      41.605  31.048  29.620  1.00  0.00    -0.034 C 
ATOM     48  C   UNL A   1      47.397  30.788  27.825  1.00  0.00    -0.036 A 
ATOM     49  H   UNL A   1      49.024  29.610  26.997  1.00  0.00     0.065 H 
ATOM     50  C   UNL A   1      46.085  30.449  28.112  1.00  0.00     0.049 A 
ATOM     51  H   UNL A   1      45.109  28.590  27.892  1.00  0.00     0.167 HD
ATOM     52  C   UNL A   1      43.773  30.872  28.898  1.00  0.00     0.074 A 
ATOM     53  C   UNL A   1      42.730  31.724  29.427  1.00  0.00    -0.034 C 
ATOM     54  H   UNL A   1      40.704  31.376  30.000  1.00  0.00     0.065 H 
ATOM     55  H   UNL A   1      47.826  31.716  27.966  1.00  0.00     0.065 H 
ATOM     56  C   UNL A   1      45.039  31.281  28.642  1.00  0.00     0.037 A 
ATOM     57  H   UNL A   1      42.846  32.731  29.630  1.00  0.00     0.065 H 
BRANCH  38  58
ATOM     58  C   UNL A   1      48.693  26.875  26.354  1.00  0.00     0.064 A 
ATOM     59  C   UNL A   1      49.640  26.283  27.201  1.00  0.00     0.173 A 
ATOM     60  C   UNL A   1      49.032  27.060  25.006  1.00  0.00     0.173 A 
ATOM     61  F   UNL A   1      49.361  26.096  28.500  1.00  0.00    -0.203 F 
ATOM     62  C   UNL A   1      50.885  25.895  26.715  1.00  0.00     0.198 A 
ATOM     63  C   UNL A   1      50.274  26.659  24.522  1.00  0.00     0.198 A 
ATOM     64  F   UNL A   1      48.156  27.620  24.160  1.00  0.00    -0.203 F 
ATOM     65  F   UNL A   1      51.785  25.347  27.544  1.00  0.00    -0.200 F 
ATOM     66  C   UNL A   1      51.199  26.078  25.376  1.00  0.00     0.200 A 
ATOM     67  F   UNL A   1      50.575  26.832  23.227  1.00  0.00    -0.200 F 
ATOM     68  F   UNL A   1      52.397  25.698  24.910  1.00  0.00    -0.200 F 
ENDBRANCH  38  58
BRANCH  41  69
ATOM     69  C   UNL A   1      39.551  28.970  29.666  1.00  0.00     0.064 A 
ATOM     70  C   UNL A   1      39.187  28.782  31.005  1.00  0.00     0.173 A 
ATOM     71  C   UNL A   1      38.594  29.497  28.788  1.00  0.00     0.173 A 
ATOM     72  F   UNL A   1      40.069  28.264  31.872  1.00  0.00    -0.203 F 
ATOM     73  C   UNL A   1      37.908  29.110  31.451  1.00  0.00     0.198 A 
ATOM     74  C   UNL A   1      37.321  29.837  29.239  1.00  0.00     0.198 A 
ATOM     75  F   UNL A   1      38.903  29.693  27.498  1.00  0.00    -0.203 F 
ATOM     76  F   UNL A   1      37.576  28.904  32.733  1.00  0.00    -0.200 F 
ATOM     77  C   UNL A   1      36.979  29.642  30.569  1.00  0.00     0.200 A 
ATOM     78  F   UNL A   1      36.428  30.357  28.387  1.00  0.00    -0.200 F 
ATOM     79  F   UNL A   1      35.752  29.963  31.001  1.00  0.00    -0.200 F 
ENDBRANCH  41  69
BRANCH  56  80
ATOM     80  C   UNL A   1      45.361  32.712  28.938  1.00  0.00     0.064 A 
ATOM     81  C   UNL A   1      45.880  33.091  30.183  1.00  0.00     0.173 A 
ATOM     82  C   UNL A   1      45.175  33.703  27.966  1.00  0.00     0.173 A 
ATOM     83  F   UNL A   1      46.059  32.175  31.147  1.00  0.00    -0.203 F 
ATOM     84  C   UNL A   1      46.189  34.421  30.451  1.00  0.00     0.198 A 
ATOM     85  C   UNL A   1      45.495  35.031  28.233  1.00  0.00     0.198 A 
ATOM     86  F   UNL A   1      44.678  33.385  26.761  1.00  0.00    -0.203 F 
ATOM     87  F   UNL A   1      46.657  34.769  31.657  1.00  0.00    -0.200 F 
ATOM     88  C   UNL A   1      45.999  35.389  29.476  1.00  0.00     0.200 A 
ATOM     89  F   UNL A   1      45.312  35.966  27.291  1.00  0.00    -0.200 F 
ATOM     90  F   UNL A   1      46.294  36.670  29.736  1.00  0.00    -0.200 F 
ENDBRANCH  56  80
ENDBRANCH  21  24
ENDBRANCH  12  14
ENDBRANCH   7  10
ENDBRANCH   4   7
ENDBRANCH   1   4
BRANCH   1  91
ATOM     91  C   UNL A   1      36.706  21.602  24.802  1.00  0.00    -0.052 C 
ATOM     92  H   UNL A   1      36.122  21.881  23.950  1.00  0.00     0.027 H 
ATOM     93  H   UNL A   1      37.758  21.765  24.691  1.00  0.00     0.027 H 
BRANCH  91  94
ATOM     94  C   UNL A   1      36.279  22.496  25.975  1.00  0.00    -0.036 C 
ATOM     95  H   UNL A   1      37.160  22.954  26.373  1.00  0.00     0.028 H 
ATOM     96  H   UNL A   1      35.771  21.847  26.658  1.00  0.00     0.028 H 
BRANCH  94  97
ATOM     97  C   UNL A   1      35.281  23.609  25.651  1.00  0.00     0.018 C 
ATOM     98  H   UNL A   1      34.901  23.450  24.663  1.00  0.00     0.049 H 
ATOM     99  H   UNL A   1      35.801  24.540  25.733  1.00  0.00     0.049 H 
BRANCH  97 100
ATOM    100  N   UNL A   1      34.162  23.652  26.575  1.00  0.00    -0.352 N 
ATOM    101  C   UNL A   1      33.090  22.807  26.668  1.00  0.00     0.253 C 
ATOM    102  H   UNL A   1      34.177  24.393  27.224  1.00  0.00     0.163 HD
ATOM    103  O   UNL A   1      32.265  22.953  27.567  1.00  0.00    -0.269 OA
BRANCH 101 104
ATOM    104  C   UNL A   1      32.880  21.734  25.686  1.00  0.00     0.065 A 
ATOM    105  C   UNL A   1      33.093  20.418  26.127  1.00  0.00    -0.047 A 
ATOM    106  C   UNL A   1      32.549  21.984  24.351  1.00  0.00     0.076 A 
ATOM    107  C   UNL A   1      32.945  19.344  25.246  1.00  0.00    -0.061 A 
ATOM    108  H   UNL A   1      33.359  20.242  27.108  1.00  0.00     0.063 H 
ATOM    109  C   UNL A   1      32.419  20.890  23.478  1.00  0.00    -0.036 A 
ATOM    110  C   UNL A   1      32.615  19.582  23.916  1.00  0.00    -0.060 A 
ATOM    111  H   UNL A   1      33.081  18.378  25.581  1.00  0.00     0.062 H 
ATOM    112  H   UNL A   1      32.172  21.060  22.491  1.00  0.00     0.065 H 
ATOM    113  H   UNL A   1      32.514  18.793  23.257  1.00  0.00     0.062 H 
BRANCH 106 114
ATOM    114  N   UNL A   1      32.159  23.206  23.813  1.00  0.00    -0.255 NA
ATOM    115  C   UNL A   1      32.848  23.875  22.946  1.00  0.00     0.042 C 
ATOM    116  H   UNL A   1      33.811  23.615  22.679  1.00  0.00     0.085 H 
BRANCH 115 117
ATOM    117  C   UNL A   1      32.144  25.044  22.367  1.00  0.00     0.076 A 
ATOM    118  C   UNL A   1      30.945  25.206  22.956  1.00  0.00     0.104 A 
ATOM    119  C   UNL A   1      32.912  26.305  22.196  1.00  0.00     0.201 A 
ATOM    120  O   UNL A   1      30.517  26.414  23.502  1.00  0.00    -0.463 OA
ATOM    121  H   UNL A   1      30.308  24.395  23.006  1.00  0.00     0.105 H 
ATOM    122  C   UNL A   1      32.785  27.203  23.349  1.00  0.00     0.065 A 
ATOM    123  O   UNL A   1      33.653  26.522  21.251  1.00  0.00    -0.288 OA
ATOM    124  C   UNL A   1      31.551  27.182  24.003  1.00  0.00     0.137 A 
ATOM    125  C   UNL A   1      33.887  27.865  23.884  1.00  0.00    -0.047 A 
ATOM    126  C   UNL A   1      31.402  27.845  25.213  1.00  0.00    -0.019 A 
ATOM    127  C   UNL A   1      33.748  28.495  25.118  1.00  0.00    -0.061 A 
ATOM    128  H   UNL A   1      34.787  27.887  23.377  1.00  0.00     0.063 H 
ATOM    129  C   UNL A   1      32.512  28.485  25.779  1.00  0.00    -0.059 A 
ATOM    130  H   UNL A   1      30.486  27.865  25.690  1.00  0.00     0.066 H 
ATOM    131  H   UNL A   1      34.557  28.972  25.547  1.00  0.00     0.062 H 
ATOM    132  H   UNL A   1      32.418  28.956  26.693  1.00  0.00     0.062 H 
ENDBRANCH 115 117
ENDBRANCH 106 114
ENDBRANCH 101 104
ENDBRANCH  97 100
ENDBRANCH  94  97
ENDBRANCH  91  94
ENDBRANCH   1  91
TORSDOF 15
ENDMDL
MODEL 5
REMARK VINA RESULT:     -12.5      5.015     10.689
REMARK SMILES O=C(NCCCCCCNC(=O)c1ccccc1/N=C/c1coc2ccccc2c1=O)c1ccc(-c2c3nc(c(-c4c(F)c(F)c(F)c(F)c4F)c4ccc([nH]4)c(-c4c(F)c(F)c(F)c(F)c4F)c4nc(c(-c5c(F)c(F)c(F)c(F)c5F)c5ccc2[nH]5)C=C4)C=C3)cc1
REMARK SMILES IDX 6 1 5 4 4 7 3 10 1 11 2 12 32 14 33 15 94 16 34 17 93 19
REMARK SMILES IDX 35 21 36 24 37 25 87 26 38 27 92 28 86 29 88 30 39 31 91 32
REMARK SMILES IDX 85 34 84 36 40 38 72 41 52 42 71 43 53 44 56 45 70 46 89 47
REMARK SMILES IDX 54 48 55 50 69 52 90 53 57 56 41 58 42 59 50 60 43 61 44 62
REMARK SMILES IDX 48 63 51 64 45 65 46 66 49 67 47 68 73 69 74 70 82 71 75 72
REMARK SMILES IDX 76 73 80 74 83 75 77 76 78 77 81 78 79 79 58 80 59 81 67 82
REMARK SMILES IDX 60 83 61 84 65 85 68 86 62 87 63 88 66 89 64 90 7 91 8 94
REMARK SMILES IDX 9 97 10 100 11 101 12 103 13 104 14 105 18 106 15 107 17 109
REMARK SMILES IDX 16 110 19 114 20 115 21 117 22 118 30 119 23 120 29 122
REMARK SMILES IDX 31 123 24 124 28 125 25 126 27 127 26 129
REMARK H PARENT 6 2 6 3 5 5 5 6 4 8 4 9 3 13 33 18 94 20 34 22 93 23 92 33
REMARK H PARENT 86 35 88 37 91 39 85 40 53 49 56 51 89 54 54 55 90 57 7 92
REMARK H PARENT 7 93 8 95 8 96 9 98 9 99 10 102 14 108 15 111 17 112 16 113
REMARK H PARENT 20 116 22 121 28 128 25 130 27 131 26 132
REMARK Flexibility Score: inf
ROOT
ATOM      1  C   UNL A   1      36.656  20.014  24.994  1.00  0.00    -0.052 C 
ATOM      2  H   UNL A   1      36.231  19.958  25.975  1.00  0.00     0.027 H 
ATOM      3  H   UNL A   1      36.047  19.577  24.231  1.00  0.00     0.027 H 
ENDROOT
BRANCH   1   4
ATOM      4  C   UNL A   1      37.955  19.208  25.001  1.00  0.00    -0.036 C 
ATOM      5  H   UNL A   1      37.746  18.257  25.445  1.00  0.00     0.028 H 
ATOM      6  H   UNL A   1      38.265  19.161  23.978  1.00  0.00     0.028 H 
BRANCH   4   7
ATOM      7  C   UNL A   1      39.128  19.824  25.752  1.00  0.00     0.018 C 
ATOM      8  H   UNL A   1      39.405  20.734  25.260  1.00  0.00     0.049 H 
ATOM      9  H   UNL A   1      38.806  19.989  26.759  1.00  0.00     0.049 H 
BRANCH   7  10
ATOM     10  N   UNL A   1      40.293  18.960  25.811  1.00  0.00    -0.352 N 
ATOM     11  O   UNL A   1      42.461  18.378  25.954  1.00  0.00    -0.269 OA
ATOM     12  C   UNL A   1      41.610  19.264  26.050  1.00  0.00     0.251 C 
ATOM     13  H   UNL A   1      40.110  18.005  25.656  1.00  0.00     0.163 HD
BRANCH  12  14
ATOM     14  C   UNL A   1      42.039  20.640  26.400  1.00  0.00     0.039 A 
ATOM     15  C   UNL A   1      42.293  21.029  27.717  1.00  0.00    -0.049 A 
ATOM     16  C   UNL A   1      42.252  21.556  25.360  1.00  0.00    -0.049 A 
ATOM     17  C   UNL A   1      42.647  22.349  28.002  1.00  0.00    -0.053 A 
ATOM     18  H   UNL A   1      42.220  20.340  28.481  1.00  0.00     0.063 H 
ATOM     19  C   UNL A   1      42.666  22.863  25.639  1.00  0.00    -0.053 A 
ATOM     20  H   UNL A   1      42.102  21.264  24.382  1.00  0.00     0.063 H 
ATOM     21  C   UNL A   1      42.842  23.277  26.967  1.00  0.00    -0.014 A 
ATOM     22  H   UNL A   1      42.765  22.645  28.984  1.00  0.00     0.063 H 
ATOM     23  H   UNL A   1      42.843  23.523  24.867  1.00  0.00     0.063 H 
BRANCH  21  24
ATOM     24  C   UNL A   1      43.277  24.658  27.294  1.00  0.00     0.031 A 
ATOM     25  C   UNL A   1      44.654  25.144  26.939  1.00  0.00     0.074 A 
ATOM     26  C   UNL A   1      42.405  25.494  27.888  1.00  0.00     0.049 A 
ATOM     27  N   UNL A   1      45.178  26.332  27.111  1.00  0.00    -0.248 NA
ATOM     28  C   UNL A   1      45.563  24.172  26.315  1.00  0.00    -0.034 C 
ATOM     29  C   UNL A   1      41.048  25.139  28.304  1.00  0.00    -0.036 A 
ATOM     30  N   UNL A   1      42.520  26.820  28.222  1.00  0.00    -0.354 N 
ATOM     31  C   UNL A   1      46.480  26.246  26.638  1.00  0.00     0.074 A 
ATOM     32  C   UNL A   1      46.672  24.886  26.179  1.00  0.00    -0.034 C 
ATOM     33  H   UNL A   1      45.384  23.189  26.052  1.00  0.00     0.065 H 
ATOM     34  C   UNL A   1      40.438  26.231  28.789  1.00  0.00    -0.036 A 
ATOM     35  H   UNL A   1      40.628  24.198  28.235  1.00  0.00     0.065 H 
ATOM     36  C   UNL A   1      41.370  27.354  28.746  1.00  0.00     0.049 A 
ATOM     37  H   UNL A   1      43.348  27.339  28.097  1.00  0.00     0.167 HD
ATOM     38  C   UNL A   1      47.425  27.214  26.587  1.00  0.00     0.037 A 
ATOM     39  H   UNL A   1      47.558  24.520  25.795  1.00  0.00     0.065 H 
ATOM     40  H   UNL A   1      39.466  26.271  29.137  1.00  0.00     0.065 H 
ATOM     41  C   UNL A   1      41.092  28.611  29.139  1.00  0.00     0.037 A 
ATOM     42  C   UNL A   1      47.235  28.574  27.017  1.00  0.00     0.049 A 
ATOM     43  C   UNL A   1      42.145  29.672  29.033  1.00  0.00     0.074 A 
ATOM     44  C   UNL A   1      48.138  29.625  26.990  1.00  0.00    -0.036 A 
ATOM     45  N   UNL A   1      46.056  29.075  27.544  1.00  0.00    -0.354 N 
ATOM     46  N   UNL A   1      43.369  29.576  28.578  1.00  0.00    -0.248 NA
ATOM     47  C   UNL A   1      41.778  31.017  29.501  1.00  0.00    -0.034 C 
ATOM     48  C   UNL A   1      47.506  30.759  27.513  1.00  0.00    -0.036 A 
ATOM     49  H   UNL A   1      49.109  29.578  26.644  1.00  0.00     0.065 H 
ATOM     50  C   UNL A   1      46.207  30.418  27.849  1.00  0.00     0.049 A 
ATOM     51  H   UNL A   1      45.232  28.553  27.684  1.00  0.00     0.167 HD
ATOM     52  C   UNL A   1      43.921  30.841  28.708  1.00  0.00     0.074 A 
ATOM     53  C   UNL A   1      42.892  31.696  29.262  1.00  0.00    -0.034 C 
ATOM     54  H   UNL A   1      40.889  31.346  29.908  1.00  0.00     0.065 H 
ATOM     55  H   UNL A   1      47.936  31.691  27.629  1.00  0.00     0.065 H 
ATOM     56  C   UNL A   1      45.175  31.252  28.404  1.00  0.00     0.037 A 
ATOM     57  H   UNL A   1      43.010  32.705  29.449  1.00  0.00     0.065 H 
BRANCH  38  58
ATOM     58  C   UNL A   1      48.769  26.835  26.046  1.00  0.00     0.064 A 
ATOM     59  C   UNL A   1      49.086  27.019  24.693  1.00  0.00     0.173 A 
ATOM     60  C   UNL A   1      49.763  26.331  26.897  1.00  0.00     0.173 A 
ATOM     61  F   UNL A   1      48.163  27.490  23.841  1.00  0.00    -0.203 F 
ATOM     62  C   UNL A   1      50.353  26.704  24.209  1.00  0.00     0.198 A 
ATOM     63  C   UNL A   1      51.032  26.029  26.412  1.00  0.00     0.198 A 
ATOM     64  F   UNL A   1      49.505  26.141  28.199  1.00  0.00    -0.203 F 
ATOM     65  F   UNL A   1      50.632  26.869  22.908  1.00  0.00    -0.200 F 
ATOM     66  C   UNL A   1      51.325  26.214  25.069  1.00  0.00     0.200 A 
ATOM     67  F   UNL A   1      51.973  25.561  27.244  1.00  0.00    -0.200 F 
ATOM     68  F   UNL A   1      52.546  25.917  24.602  1.00  0.00    -0.200 F 
ENDBRANCH  38  58
BRANCH  41  69
ATOM     69  C   UNL A   1      39.735  28.931  29.642  1.00  0.00     0.064 A 
ATOM     70  C   UNL A   1      38.758  29.442  28.780  1.00  0.00     0.173 A 
ATOM     71  C   UNL A   1      39.385  28.703  30.979  1.00  0.00     0.173 A 
ATOM     72  F   UNL A   1      39.060  29.690  27.497  1.00  0.00    -0.203 F 
ATOM     73  C   UNL A   1      37.472  29.717  29.240  1.00  0.00     0.198 A 
ATOM     74  C   UNL A   1      38.094  28.965  31.434  1.00  0.00     0.198 A 
ATOM     75  F   UNL A   1      40.291  28.214  31.837  1.00  0.00    -0.203 F 
ATOM     76  F   UNL A   1      36.558  30.223  28.401  1.00  0.00    -0.200 F 
ATOM     77  C   UNL A   1      37.141  29.473  30.565  1.00  0.00     0.200 A 
ATOM     78  F   UNL A   1      37.775  28.723  32.712  1.00  0.00    -0.200 F 
ATOM     79  F   UNL A   1      35.901  29.732  31.004  1.00  0.00    -0.200 F 
ENDBRANCH  41  69
BRANCH  56  80
ATOM     80  C   UNL A   1      45.501  32.688  28.672  1.00  0.00     0.064 A 
ATOM     81  C   UNL A   1      45.245  33.676  27.712  1.00  0.00     0.173 A 
ATOM     82  C   UNL A   1      46.047  33.080  29.901  1.00  0.00     0.173 A 
ATOM     83  F   UNL A   1      44.737  33.342  26.517  1.00  0.00    -0.203 F 
ATOM     84  C   UNL A   1      45.539  35.012  27.970  1.00  0.00     0.198 A 
ATOM     85  C   UNL A   1      46.330  34.418  30.160  1.00  0.00     0.198 A 
ATOM     86  F   UNL A   1      46.311  32.166  30.847  1.00  0.00    -0.203 F 
ATOM     87  F   UNL A   1      45.313  35.940  27.030  1.00  0.00    -0.200 F 
ATOM     88  C   UNL A   1      46.078  35.382  29.193  1.00  0.00     0.200 A 
ATOM     89  F   UNL A   1      46.850  34.776  31.341  1.00  0.00    -0.200 F 
ATOM     90  F   UNL A   1      46.363  36.669  29.439  1.00  0.00    -0.200 F 
ENDBRANCH  56  80
ENDBRANCH  21  24
ENDBRANCH  12  14
ENDBRANCH   7  10
ENDBRANCH   4   7
ENDBRANCH   1   4
BRANCH   1  91
ATOM     91  C   UNL A   1      36.790  21.492  24.624  1.00  0.00    -0.052 C 
ATOM     92  H   UNL A   1      36.084  21.698  23.847  1.00  0.00     0.027 H 
ATOM     93  H   UNL A   1      37.814  21.621  24.339  1.00  0.00     0.027 H 
BRANCH  91  94
ATOM     94  C   UNL A   1      36.552  22.505  25.753  1.00  0.00    -0.036 C 
ATOM     95  H   UNL A   1      37.468  23.034  25.914  1.00  0.00     0.028 H 
ATOM     96  H   UNL A   1      36.223  21.926  26.591  1.00  0.00     0.028 H 
BRANCH  94  97
ATOM     97  C   UNL A   1      35.452  23.540  25.515  1.00  0.00     0.018 C 
ATOM     98  H   UNL A   1      34.987  23.335  24.573  1.00  0.00     0.049 H 
ATOM     99  H   UNL A   1      35.911  24.506  25.530  1.00  0.00     0.049 H 
BRANCH  97 100
ATOM    100  N   UNL A   1      34.430  23.527  26.546  1.00  0.00    -0.352 N 
ATOM    101  C   UNL A   1      33.378  22.666  26.704  1.00  0.00     0.253 C 
ATOM    102  H   UNL A   1      34.504  24.236  27.226  1.00  0.00     0.163 HD
ATOM    103  O   UNL A   1      32.646  22.760  27.687  1.00  0.00    -0.269 OA
BRANCH 101 104
ATOM    104  C   UNL A   1      33.079  21.638  25.697  1.00  0.00     0.065 A 
ATOM    105  C   UNL A   1      33.212  20.298  26.098  1.00  0.00    -0.047 A 
ATOM    106  C   UNL A   1      32.740  21.948  24.377  1.00  0.00     0.076 A 
ATOM    107  C   UNL A   1      32.976  19.263  25.190  1.00  0.00    -0.061 A 
ATOM    108  H   UNL A   1      33.484  20.078  27.068  1.00  0.00     0.063 H 
ATOM    109  C   UNL A   1      32.521  20.891  23.478  1.00  0.00    -0.036 A 
ATOM    110  C   UNL A   1      32.638  19.560  23.875  1.00  0.00    -0.060 A 
ATOM    111  H   UNL A   1      33.054  18.280  25.496  1.00  0.00     0.062 H 
ATOM    112  H   UNL A   1      32.269  21.105  22.500  1.00  0.00     0.065 H 
ATOM    113  H   UNL A   1      32.473  18.799  23.197  1.00  0.00     0.062 H 
BRANCH 106 114
ATOM    114  N   UNL A   1      32.423  23.208  23.881  1.00  0.00    -0.255 NA
ATOM    115  C   UNL A   1      32.869  23.686  22.765  1.00  0.00     0.042 C 
ATOM    116  H   UNL A   1      33.604  23.218  22.212  1.00  0.00     0.085 H 
BRANCH 115 117
ATOM    117  C   UNL A   1      32.240  24.961  22.345  1.00  0.00     0.076 A 
ATOM    118  C   UNL A   1      30.997  25.059  22.852  1.00  0.00     0.104 A 
ATOM    119  C   UNL A   1      33.042  26.207  22.462  1.00  0.00     0.201 A 
ATOM    120  O   UNL A   1      30.545  26.166  23.564  1.00  0.00    -0.463 OA
ATOM    121  H   UNL A   1      30.344  24.272  22.705  1.00  0.00     0.105 H 
ATOM    122  C   UNL A   1      32.832  26.895  23.740  1.00  0.00     0.065 A 
ATOM    123  O   UNL A   1      33.867  26.560  21.634  1.00  0.00    -0.288 OA
ATOM    124  C   UNL A   1      31.546  26.802  24.276  1.00  0.00     0.137 A 
ATOM    125  C   UNL A   1      33.895  27.416  24.473  1.00  0.00    -0.047 A 
ATOM    126  C   UNL A   1      31.303  27.249  25.567  1.00  0.00    -0.019 A 
ATOM    127  C   UNL A   1      33.660  27.827  25.782  1.00  0.00    -0.061 A 
ATOM    128  H   UNL A   1      34.836  27.496  24.054  1.00  0.00     0.063 H 
ATOM    129  C   UNL A   1      32.371  27.744  26.327  1.00  0.00    -0.059 A 
ATOM    130  H   UNL A   1      30.350  27.216  25.963  1.00  0.00     0.066 H 
ATOM    131  H   UNL A   1      34.437  28.195  26.355  1.00  0.00     0.062 H 
ATOM    132  H   UNL A   1      32.207  28.052  27.299  1.00  0.00     0.062 H 
ENDBRANCH 115 117
ENDBRANCH 106 114
ENDBRANCH 101 104
ENDBRANCH  97 100
ENDBRANCH  94  97
ENDBRANCH  91  94
ENDBRANCH   1  91
TORSDOF 15
ENDMDL
MODEL 6
REMARK VINA RESULT:     -12.4      0.514      7.189
REMARK SMILES O=C(NCCCCCCNC(=O)c1ccccc1/N=C/c1coc2ccccc2c1=O)c1ccc(-c2c3nc(c(-c4c(F)c(F)c(F)c(F)c4F)c4ccc([nH]4)c(-c4c(F)c(F)c(F)c(F)c4F)c4nc(c(-c5c(F)c(F)c(F)c(F)c5F)c5ccc2[nH]5)C=C4)C=C3)cc1
REMARK SMILES IDX 6 1 5 4 4 7 3 10 1 11 2 12 32 14 33 15 94 16 34 17 93 19
REMARK SMILES IDX 35 21 36 24 37 25 87 26 38 27 92 28 86 29 88 30 39 31 91 32
REMARK SMILES IDX 85 34 84 36 40 38 72 41 52 42 71 43 53 44 56 45 70 46 89 47
REMARK SMILES IDX 54 48 55 50 69 52 90 53 57 56 41 58 42 59 50 60 43 61 44 62
REMARK SMILES IDX 48 63 51 64 45 65 46 66 49 67 47 68 73 69 74 70 82 71 75 72
REMARK SMILES IDX 76 73 80 74 83 75 77 76 78 77 81 78 79 79 58 80 59 81 67 82
REMARK SMILES IDX 60 83 61 84 65 85 68 86 62 87 63 88 66 89 64 90 7 91 8 94
REMARK SMILES IDX 9 97 10 100 11 101 12 103 13 104 14 105 18 106 15 107 17 109
REMARK SMILES IDX 16 110 19 114 20 115 21 117 22 118 30 119 23 120 29 122
REMARK SMILES IDX 31 123 24 124 28 125 25 126 27 127 26 129
REMARK H PARENT 6 2 6 3 5 5 5 6 4 8 4 9 3 13 33 18 94 20 34 22 93 23 92 33
REMARK H PARENT 86 35 88 37 91 39 85 40 53 49 56 51 89 54 54 55 90 57 7 92
REMARK H PARENT 7 93 8 95 8 96 9 98 9 99 10 102 14 108 15 111 17 112 16 113
REMARK H PARENT 20 116 22 121 28 128 25 130 27 131 26 132
REMARK Flexibility Score: inf
ROOT
ATOM      1  C   UNL A   1      31.233  30.836  25.668  1.00  0.00    -0.052 C 
ATOM      2  H   UNL A   1      31.744  31.081  24.760  1.00  0.00     0.027 H 
ATOM      3  H   UNL A   1      30.221  30.518  25.525  1.00  0.00     0.027 H 
ENDROOT
BRANCH   1   4
ATOM      4  C   UNL A   1      31.154  32.104  26.517  1.00  0.00    -0.036 C 
ATOM      5  H   UNL A   1      30.707  32.870  25.918  1.00  0.00     0.028 H 
ATOM      6  H   UNL A   1      30.586  31.832  27.382  1.00  0.00     0.028 H 
BRANCH   4   7
ATOM      7  C   UNL A   1      32.474  32.642  27.052  1.00  0.00     0.018 C 
ATOM      8  H   UNL A   1      32.797  32.012  27.855  1.00  0.00     0.049 H 
ATOM      9  H   UNL A   1      33.167  32.645  26.236  1.00  0.00     0.049 H 
BRANCH   7  10
ATOM     10  N   UNL A   1      32.385  34.005  27.543  1.00  0.00    -0.352 N 
ATOM     11  O   UNL A   1      32.790  35.786  28.856  1.00  0.00    -0.269 OA
ATOM     12  C   UNL A   1      33.102  34.641  28.527  1.00  0.00     0.251 C 
ATOM     13  H   UNL A   1      31.705  34.562  27.101  1.00  0.00     0.163 HD
BRANCH  12  14
ATOM     14  C   UNL A   1      34.230  33.973  29.221  1.00  0.00     0.039 A 
ATOM     15  C   UNL A   1      34.033  32.926  30.125  1.00  0.00    -0.049 A 
ATOM     16  C   UNL A   1      35.537  34.371  28.906  1.00  0.00    -0.049 A 
ATOM     17  C   UNL A   1      35.121  32.361  30.791  1.00  0.00    -0.053 A 
ATOM     18  H   UNL A   1      33.080  32.570  30.301  1.00  0.00     0.063 H 
ATOM     19  C   UNL A   1      36.633  33.763  29.528  1.00  0.00    -0.053 A 
ATOM     20  H   UNL A   1      35.690  35.118  28.211  1.00  0.00     0.063 H 
ATOM     21  C   UNL A   1      36.432  32.769  30.496  1.00  0.00    -0.014 A 
ATOM     22  H   UNL A   1      34.961  31.636  31.508  1.00  0.00     0.063 H 
ATOM     23  H   UNL A   1      37.591  34.046  29.273  1.00  0.00     0.063 H 
BRANCH  21  24
ATOM     24  C   UNL A   1      37.575  32.109  31.174  1.00  0.00     0.031 A 
ATOM     25  C   UNL A   1      38.403  31.072  30.470  1.00  0.00     0.074 A 
ATOM     26  C   UNL A   1      37.890  32.477  32.431  1.00  0.00     0.049 A 
ATOM     27  N   UNL A   1      39.462  30.431  30.901  1.00  0.00    -0.248 NA
ATOM     28  C   UNL A   1      37.988  30.699  29.110  1.00  0.00    -0.034 C 
ATOM     29  C   UNL A   1      37.153  33.455  33.231  1.00  0.00    -0.036 A 
ATOM     30  N   UNL A   1      38.925  32.091  33.244  1.00  0.00    -0.354 N 
ATOM     31  C   UNL A   1      39.827  29.568  29.877  1.00  0.00     0.074 A 
ATOM     32  C   UNL A   1      38.872  29.758  28.805  1.00  0.00    -0.034 C 
ATOM     33  H   UNL A   1      37.212  31.072  28.541  1.00  0.00     0.065 H 
ATOM     34  C   UNL A   1      37.788  33.632  34.400  1.00  0.00    -0.036 A 
ATOM     35  H   UNL A   1      36.284  33.932  32.942  1.00  0.00     0.065 H 
ATOM     36  C   UNL A   1      38.957  32.760  34.442  1.00  0.00     0.049 A 
ATOM     37  H   UNL A   1      39.582  31.403  32.993  1.00  0.00     0.167 HD
ATOM     38  C   UNL A   1      40.866  28.701  29.834  1.00  0.00     0.037 A 
ATOM     39  H   UNL A   1      38.879  29.229  27.918  1.00  0.00     0.065 H 
ATOM     40  H   UNL A   1      37.496  34.281  35.148  1.00  0.00     0.065 H 
ATOM     41  C   UNL A   1      39.836  32.686  35.459  1.00  0.00     0.037 A 
ATOM     42  C   UNL A   1      41.835  28.525  30.884  1.00  0.00     0.049 A 
ATOM     43  C   UNL A   1      41.001  31.748  35.367  1.00  0.00     0.074 A 
ATOM     44  C   UNL A   1      42.929  27.675  30.919  1.00  0.00    -0.036 A 
ATOM     45  N   UNL A   1      41.831  29.219  32.083  1.00  0.00    -0.354 N 
ATOM     46  N   UNL A   1      41.336  30.943  34.390  1.00  0.00    -0.248 NA
ATOM     47  C   UNL A   1      41.908  31.704  36.524  1.00  0.00    -0.034 C 
ATOM     48  C   UNL A   1      43.580  27.848  32.145  1.00  0.00    -0.036 A 
ATOM     49  H   UNL A   1      43.214  27.026  30.168  1.00  0.00     0.065 H 
ATOM     50  C   UNL A   1      42.901  28.817  32.866  1.00  0.00     0.049 A 
ATOM     51  H   UNL A   1      41.165  29.897  32.341  1.00  0.00     0.167 HD
ATOM     52  C   UNL A   1      42.485  30.293  34.812  1.00  0.00     0.074 A 
ATOM     53  C   UNL A   1      42.807  30.814  36.124  1.00  0.00    -0.034 C 
ATOM     54  H   UNL A   1      41.858  32.227  37.412  1.00  0.00     0.065 H 
ATOM     55  H   UNL A   1      44.422  27.340  32.460  1.00  0.00     0.065 H 
ATOM     56  C   UNL A   1      43.203  29.341  34.170  1.00  0.00     0.037 A 
ATOM     57  H   UNL A   1      43.630  30.530  36.679  1.00  0.00     0.065 H 
BRANCH  38  58
ATOM     58  C   UNL A   1      41.012  27.863  28.602  1.00  0.00     0.064 A 
ATOM     59  C   UNL A   1      40.284  26.676  28.440  1.00  0.00     0.173 A 
ATOM     60  C   UNL A   1      41.848  28.278  27.555  1.00  0.00     0.173 A 
ATOM     61  F   UNL A   1      39.480  26.237  29.420  1.00  0.00    -0.203 F 
ATOM     62  C   UNL A   1      40.395  25.927  27.271  1.00  0.00     0.198 A 
ATOM     63  C   UNL A   1      41.946  27.532  26.383  1.00  0.00     0.198 A 
ATOM     64  F   UNL A   1      42.560  29.408  27.666  1.00  0.00    -0.203 F 
ATOM     65  F   UNL A   1      39.705  24.785  27.142  1.00  0.00    -0.200 F 
ATOM     66  C   UNL A   1      41.221  26.358  26.243  1.00  0.00     0.200 A 
ATOM     67  F   UNL A   1      42.740  27.952  25.387  1.00  0.00    -0.200 F 
ATOM     68  F   UNL A   1      41.321  25.639  25.117  1.00  0.00    -0.200 F 
ENDBRANCH  38  58
BRANCH  41  69
ATOM     69  C   UNL A   1      39.653  33.560  36.642  1.00  0.00     0.064 A 
ATOM     70  C   UNL A   1      40.273  34.814  36.703  1.00  0.00     0.173 A 
ATOM     71  C   UNL A   1      38.834  33.172  37.710  1.00  0.00     0.173 A 
ATOM     72  F   UNL A   1      41.077  35.213  35.708  1.00  0.00    -0.203 F 
ATOM     73  C   UNL A   1      40.081  35.653  37.799  1.00  0.00     0.198 A 
ATOM     74  C   UNL A   1      38.632  34.019  38.798  1.00  0.00     0.198 A 
ATOM     75  F   UNL A   1      38.222  31.980  37.690  1.00  0.00    -0.203 F 
ATOM     76  F   UNL A   1      40.699  36.841  37.846  1.00  0.00    -0.200 F 
ATOM     77  C   UNL A   1      39.257  35.256  38.842  1.00  0.00     0.200 A 
ATOM     78  F   UNL A   1      37.831  33.637  39.801  1.00  0.00    -0.200 F 
ATOM     79  F   UNL A   1      39.068  36.067  39.892  1.00  0.00    -0.200 F 
ENDBRANCH  41  69
BRANCH  56  80
ATOM     80  C   UNL A   1      44.402  28.800  34.885  1.00  0.00     0.064 A 
ATOM     81  C   UNL A   1      44.302  27.667  35.704  1.00  0.00     0.173 A 
ATOM     82  C   UNL A   1      45.658  29.400  34.730  1.00  0.00     0.173 A 
ATOM     83  F   UNL A   1      43.115  27.072  35.891  1.00  0.00    -0.203 F 
ATOM     84  C   UNL A   1      45.421  27.161  36.358  1.00  0.00     0.198 A 
ATOM     85  C   UNL A   1      46.778  28.884  35.377  1.00  0.00     0.198 A 
ATOM     86  F   UNL A   1      45.798  30.488  33.958  1.00  0.00    -0.203 F 
ATOM     87  F   UNL A   1      45.301  26.094  37.159  1.00  0.00    -0.200 F 
ATOM     88  C   UNL A   1      46.658  27.767  36.192  1.00  0.00     0.200 A 
ATOM     89  F   UNL A   1      47.972  29.469  35.216  1.00  0.00    -0.200 F 
ATOM     90  F   UNL A   1      47.734  27.280  36.824  1.00  0.00    -0.200 F 
ENDBRANCH  56  80
ENDBRANCH  21  24
ENDBRANCH  12  14
ENDBRANCH   7  10
ENDBRANCH   4   7
ENDBRANCH   1   4
BRANCH   1  91
ATOM     91  C   UNL A   1      31.954  29.648  26.308  1.00  0.00    -0.052 C 
ATOM     92  H   UNL A   1      31.324  28.790  26.202  1.00  0.00     0.027 H 
ATOM     93  H   UNL A   1      32.139  29.941  27.321  1.00  0.00     0.027 H 
BRANCH  91  94
ATOM     94  C   UNL A   1      33.331  29.291  25.730  1.00  0.00    -0.036 C 
ATOM     95  H   UNL A   1      34.071  29.606  26.435  1.00  0.00     0.028 H 
ATOM     96  H   UNL A   1      33.381  29.788  24.784  1.00  0.00     0.028 H 
BRANCH  94  97
ATOM     97  C   UNL A   1      33.576  27.812  25.427  1.00  0.00     0.018 C 
ATOM     98  H   UNL A   1      32.672  27.270  25.612  1.00  0.00     0.049 H 
ATOM     99  H   UNL A   1      34.374  27.483  26.059  1.00  0.00     0.049 H 
BRANCH  97 100
ATOM    100  N   UNL A   1      33.983  27.576  24.054  1.00  0.00    -0.352 N 
ATOM    101  C   UNL A   1      33.230  27.630  22.912  1.00  0.00     0.253 C 
ATOM    102  H   UNL A   1      34.932  27.344  23.926  1.00  0.00     0.163 HD
ATOM    103  O   UNL A   1      33.761  27.472  21.814  1.00  0.00    -0.269 OA
BRANCH 101 104
ATOM    104  C   UNL A   1      31.778  27.846  22.969  1.00  0.00     0.065 A 
ATOM    105  C   UNL A   1      31.291  29.047  22.429  1.00  0.00    -0.047 A 
ATOM    106  C   UNL A   1      30.903  26.945  23.583  1.00  0.00     0.076 A 
ATOM    107  C   UNL A   1      29.926  29.340  22.472  1.00  0.00    -0.061 A 
ATOM    108  H   UNL A   1      31.945  29.717  21.997  1.00  0.00     0.063 H 
ATOM    109  C   UNL A   1      29.536  27.266  23.629  1.00  0.00    -0.036 A 
ATOM    110  C   UNL A   1      29.047  28.451  23.081  1.00  0.00    -0.060 A 
ATOM    111  H   UNL A   1      29.571  30.214  22.054  1.00  0.00     0.062 H 
ATOM    112  H   UNL A   1      28.878  26.610  24.078  1.00  0.00     0.065 H 
ATOM    113  H   UNL A   1      28.039  28.666  23.126  1.00  0.00     0.062 H 
BRANCH 106 114
ATOM    114  N   UNL A   1      31.213  25.660  24.017  1.00  0.00    -0.255 NA
ATOM    115  C   UNL A   1      30.791  25.142  25.125  1.00  0.00     0.042 C 
ATOM    116  H   UNL A   1      30.291  25.691  25.842  1.00  0.00     0.085 H 
BRANCH 115 117
ATOM    117  C   UNL A   1      31.082  23.697  25.281  1.00  0.00     0.076 A 
ATOM    118  C   UNL A   1      31.249  23.121  24.076  1.00  0.00     0.104 A 
ATOM    119  C   UNL A   1      32.093  23.295  26.292  1.00  0.00     0.201 A 
ATOM    120  O   UNL A   1      32.355  22.342  23.747  1.00  0.00    -0.463 OA
ATOM    121  H   UNL A   1      30.521  23.264  23.358  1.00  0.00     0.105 H 
ATOM    122  C   UNL A   1      33.441  23.178  25.725  1.00  0.00     0.065 A 
ATOM    123  O   UNL A   1      31.851  23.181  27.483  1.00  0.00    -0.288 OA
ATOM    124  C   UNL A   1      33.508  22.727  24.405  1.00  0.00     0.137 A 
ATOM    125  C   UNL A   1      34.557  23.689  26.383  1.00  0.00    -0.047 A 
ATOM    126  C   UNL A   1      34.716  22.772  23.722  1.00  0.00    -0.019 A 
ATOM    127  C   UNL A   1      35.759  23.771  25.684  1.00  0.00    -0.061 A 
ATOM    128  H   UNL A   1      34.494  24.000  27.366  1.00  0.00     0.063 H 
ATOM    129  C   UNL A   1      35.838  23.315  24.360  1.00  0.00    -0.059 A 
ATOM    130  H   UNL A   1      34.786  22.411  22.758  1.00  0.00     0.066 H 
ATOM    131  H   UNL A   1      36.595  24.169  26.141  1.00  0.00     0.062 H 
ATOM    132  H   UNL A   1      36.734  23.380  23.851  1.00  0.00     0.062 H 
ENDBRANCH 115 117
ENDBRANCH 106 114
ENDBRANCH 101 104
ENDBRANCH  97 100
ENDBRANCH  94  97
ENDBRANCH  91  94
ENDBRANCH   1  91
TORSDOF 15
ENDMDL
MODEL 7
REMARK VINA RESULT:     -12.3      5.045     10.778
REMARK SMILES O=C(NCCCCCCNC(=O)c1ccccc1/N=C/c1coc2ccccc2c1=O)c1ccc(-c2c3nc(c(-c4c(F)c(F)c(F)c(F)c4F)c4ccc([nH]4)c(-c4c(F)c(F)c(F)c(F)c4F)c4nc(c(-c5c(F)c(F)c(F)c(F)c5F)c5ccc2[nH]5)C=C4)C=C3)cc1
REMARK SMILES IDX 6 1 5 4 4 7 3 10 1 11 2 12 32 14 33 15 94 16 34 17 93 19
REMARK SMILES IDX 35 21 36 24 37 25 87 26 38 27 92 28 86 29 88 30 39 31 91 32
REMARK SMILES IDX 85 34 84 36 40 38 72 41 52 42 71 43 53 44 56 45 70 46 89 47
REMARK SMILES IDX 54 48 55 50 69 52 90 53 57 56 41 58 42 59 50 60 43 61 44 62
REMARK SMILES IDX 48 63 51 64 45 65 46 66 49 67 47 68 73 69 74 70 82 71 75 72
REMARK SMILES IDX 76 73 80 74 83 75 77 76 78 77 81 78 79 79 58 80 59 81 67 82
REMARK SMILES IDX 60 83 61 84 65 85 68 86 62 87 63 88 66 89 64 90 7 91 8 94
REMARK SMILES IDX 9 97 10 100 11 101 12 103 13 104 14 105 18 106 15 107 17 109
REMARK SMILES IDX 16 110 19 114 20 115 21 117 22 118 30 119 23 120 29 122
REMARK SMILES IDX 31 123 24 124 28 125 25 126 27 127 26 129
REMARK H PARENT 6 2 6 3 5 5 5 6 4 8 4 9 3 13 33 18 94 20 34 22 93 23 92 33
REMARK H PARENT 86 35 88 37 91 39 85 40 53 49 56 51 89 54 54 55 90 57 7 92
REMARK H PARENT 7 93 8 95 8 96 9 98 9 99 10 102 14 108 15 111 17 112 16 113
REMARK H PARENT 20 116 22 121 28 128 25 130 27 131 26 132
REMARK Flexibility Score: inf
ROOT
ATOM      1  C   UNL A   1      36.887  20.072  24.976  1.00  0.00    -0.052 C 
ATOM      2  H   UNL A   1      36.555  20.195  25.986  1.00  0.00     0.027 H 
ATOM      3  H   UNL A   1      36.195  19.547  24.352  1.00  0.00     0.027 H 
ENDROOT
BRANCH   1   4
ATOM      4  C   UNL A   1      38.154  19.218  25.002  1.00  0.00    -0.036 C 
ATOM      5  H   UNL A   1      37.876  18.230  25.306  1.00  0.00     0.028 H 
ATOM      6  H   UNL A   1      38.558  19.279  24.013  1.00  0.00     0.028 H 
BRANCH   4   7
ATOM      7  C   UNL A   1      39.270  19.691  25.925  1.00  0.00     0.018 C 
ATOM      8  H   UNL A   1      39.534  20.691  25.652  1.00  0.00     0.049 H 
ATOM      9  H   UNL A   1      38.898  19.629  26.926  1.00  0.00     0.049 H 
BRANCH   7  10
ATOM     10  N   UNL A   1      40.462  18.866  25.859  1.00  0.00    -0.352 N 
ATOM     11  O   UNL A   1      42.651  18.354  25.806  1.00  0.00    -0.269 OA
ATOM     12  C   UNL A   1      41.785  19.207  26.002  1.00  0.00     0.251 C 
ATOM     13  H   UNL A   1      40.297  17.911  25.686  1.00  0.00     0.163 HD
BRANCH  12  14
ATOM     14  C   UNL A   1      42.197  20.585  26.364  1.00  0.00     0.039 A 
ATOM     15  C   UNL A   1      42.476  20.957  27.681  1.00  0.00    -0.049 A 
ATOM     16  C   UNL A   1      42.368  21.522  25.334  1.00  0.00    -0.049 A 
ATOM     17  C   UNL A   1      42.812  22.278  27.979  1.00  0.00    -0.053 A 
ATOM     18  H   UNL A   1      42.433  20.254  28.435  1.00  0.00     0.063 H 
ATOM     19  C   UNL A   1      42.765  22.831  25.625  1.00  0.00    -0.053 A 
ATOM     20  H   UNL A   1      42.199  21.242  24.356  1.00  0.00     0.063 H 
ATOM     21  C   UNL A   1      42.966  23.227  26.956  1.00  0.00    -0.014 A 
ATOM     22  H   UNL A   1      42.949  22.561  28.963  1.00  0.00     0.063 H 
ATOM     23  H   UNL A   1      42.910  23.507  24.860  1.00  0.00     0.063 H 
BRANCH  21  24
ATOM     24  C   UNL A   1      43.384  24.610  27.295  1.00  0.00     0.031 A 
ATOM     25  C   UNL A   1      44.762  25.109  26.964  1.00  0.00     0.074 A 
ATOM     26  C   UNL A   1      42.494  25.437  27.878  1.00  0.00     0.049 A 
ATOM     27  N   UNL A   1      45.273  26.301  27.150  1.00  0.00    -0.248 NA
ATOM     28  C   UNL A   1      45.689  24.147  26.352  1.00  0.00    -0.034 C 
ATOM     29  C   UNL A   1      41.134  25.068  28.270  1.00  0.00    -0.036 A 
ATOM     30  N   UNL A   1      42.593  26.762  28.219  1.00  0.00    -0.354 N 
ATOM     31  C   UNL A   1      46.583  26.227  26.698  1.00  0.00     0.074 A 
ATOM     32  C   UNL A   1      46.794  24.871  26.237  1.00  0.00    -0.034 C 
ATOM     33  H   UNL A   1      45.523  23.164  26.082  1.00  0.00     0.065 H 
ATOM     34  C   UNL A   1      40.507  26.153  28.749  1.00  0.00    -0.036 A 
ATOM     35  H   UNL A   1      40.723  24.124  28.191  1.00  0.00     0.065 H 
ATOM     36  C   UNL A   1      41.430  27.284  28.726  1.00  0.00     0.049 A 
ATOM     37  H   UNL A   1      43.418  27.288  28.110  1.00  0.00     0.167 HD
ATOM     38  C   UNL A   1      47.521  27.203  26.667  1.00  0.00     0.037 A 
ATOM     39  H   UNL A   1      47.690  24.514  25.866  1.00  0.00     0.065 H 
ATOM     40  H   UNL A   1      39.530  26.183  29.081  1.00  0.00     0.065 H 
ATOM     41  C   UNL A   1      41.135  28.537  29.119  1.00  0.00     0.037 A 
ATOM     42  C   UNL A   1      47.313  28.560  27.099  1.00  0.00     0.049 A 
ATOM     43  C   UNL A   1      42.180  29.607  29.035  1.00  0.00     0.074 A 
ATOM     44  C   UNL A   1      48.206  29.619  27.090  1.00  0.00    -0.036 A 
ATOM     45  N   UNL A   1      46.120  29.049  27.608  1.00  0.00    -0.354 N 
ATOM     46  N   UNL A   1      43.412  29.524  28.599  1.00  0.00    -0.248 NA
ATOM     47  C   UNL A   1      41.794  30.947  29.501  1.00  0.00    -0.034 C 
ATOM     48  C   UNL A   1      47.557  30.745  27.607  1.00  0.00    -0.036 A 
ATOM     49  H   UNL A   1      49.184  29.582  26.761  1.00  0.00     0.065 H 
ATOM     50  C   UNL A   1      46.255  30.392  27.920  1.00  0.00     0.049 A 
ATOM     51  H   UNL A   1      45.299  28.520  27.732  1.00  0.00     0.167 HD
ATOM     52  C   UNL A   1      43.952  30.792  28.744  1.00  0.00     0.074 A 
ATOM     53  C   UNL A   1      42.907  31.636  29.284  1.00  0.00    -0.034 C 
ATOM     54  H   UNL A   1      40.896  31.267  29.895  1.00  0.00     0.065 H 
ATOM     55  H   UNL A   1      47.977  31.680  27.733  1.00  0.00     0.065 H 
ATOM     56  C   UNL A   1      45.207  31.215  28.461  1.00  0.00     0.037 A 
ATOM     57  H   UNL A   1      43.013  32.645  29.476  1.00  0.00     0.065 H 
BRANCH  38  58
ATOM     58  C   UNL A   1      48.877  26.838  26.146  1.00  0.00     0.064 A 
ATOM     59  C   UNL A   1      49.818  26.193  26.960  1.00  0.00     0.173 A 
ATOM     60  C   UNL A   1      49.217  27.088  24.809  1.00  0.00     0.173 A 
ATOM     61  F   UNL A   1      49.539  25.942  28.248  1.00  0.00    -0.203 F 
ATOM     62  C   UNL A   1      51.060  25.818  26.453  1.00  0.00     0.198 A 
ATOM     63  C   UNL A   1      50.454  26.701  24.303  1.00  0.00     0.198 A 
ATOM     64  F   UNL A   1      48.345  27.700  23.994  1.00  0.00    -0.203 F 
ATOM     65  F   UNL A   1      51.955  25.220  27.252  1.00  0.00    -0.200 F 
ATOM     66  C   UNL A   1      51.374  26.068  25.125  1.00  0.00     0.200 A 
ATOM     67  F   UNL A   1      50.756  26.937  23.018  1.00  0.00    -0.200 F 
ATOM     68  F   UNL A   1      52.568  25.700  24.638  1.00  0.00    -0.200 F 
ENDBRANCH  38  58
BRANCH  41  69
ATOM     69  C   UNL A   1      39.768  28.844  29.601  1.00  0.00     0.064 A 
ATOM     70  C   UNL A   1      38.790  29.315  28.716  1.00  0.00     0.173 A 
ATOM     71  C   UNL A   1      39.408  28.642  30.940  1.00  0.00     0.173 A 
ATOM     72  F   UNL A   1      39.100  29.536  27.431  1.00  0.00    -0.203 F 
ATOM     73  C   UNL A   1      37.494  29.576  29.157  1.00  0.00     0.198 A 
ATOM     74  C   UNL A   1      38.108  28.891  31.376  1.00  0.00     0.198 A 
ATOM     75  F   UNL A   1      40.315  28.192  31.819  1.00  0.00    -0.203 F 
ATOM     76  F   UNL A   1      36.579  30.044  28.297  1.00  0.00    -0.200 F 
ATOM     77  C   UNL A   1      37.154  29.359  30.485  1.00  0.00     0.200 A 
ATOM     78  F   UNL A   1      37.781  28.674  32.656  1.00  0.00    -0.200 F 
ATOM     79  F   UNL A   1      35.906  29.605  30.905  1.00  0.00    -0.200 F 
ENDBRANCH  41  69
BRANCH  56  80
ATOM     80  C   UNL A   1      45.516  32.653  28.740  1.00  0.00     0.064 A 
ATOM     81  C   UNL A   1      46.058  33.048  29.971  1.00  0.00     0.173 A 
ATOM     82  C   UNL A   1      45.294  33.634  27.766  1.00  0.00     0.173 A 
ATOM     83  F   UNL A   1      46.271  32.142  30.937  1.00  0.00    -0.203 F 
ATOM     84  C   UNL A   1      46.354  34.384  30.223  1.00  0.00     0.198 A 
ATOM     85  C   UNL A   1      45.602  34.968  28.016  1.00  0.00     0.198 A 
ATOM     86  F   UNL A   1      44.775  33.300  26.575  1.00  0.00    -0.203 F 
ATOM     87  F   UNL A   1      46.845  34.747  31.415  1.00  0.00    -0.200 F 
ATOM     88  C   UNL A   1      46.129  35.342  29.245  1.00  0.00     0.200 A 
ATOM     89  F   UNL A   1      45.385  35.894  27.072  1.00  0.00    -0.200 F 
ATOM     90  F   UNL A   1      46.412  36.629  29.489  1.00  0.00    -0.200 F 
ENDBRANCH  56  80
ENDBRANCH  21  24
ENDBRANCH  12  14
ENDBRANCH   7  10
ENDBRANCH   4   7
ENDBRANCH   1   4
BRANCH   1  91
ATOM     91  C   UNL A   1      37.033  21.463  24.357  1.00  0.00    -0.052 C 
ATOM     92  H   UNL A   1      36.098  21.716  23.903  1.00  0.00     0.027 H 
ATOM     93  H   UNL A   1      37.852  21.384  23.672  1.00  0.00     0.027 H 
BRANCH  91  94
ATOM     94  C   UNL A   1      37.411  22.602  25.314  1.00  0.00    -0.036 C 
ATOM     95  H   UNL A   1      38.139  23.213  24.822  1.00  0.00     0.028 H 
ATOM     96  H   UNL A   1      37.766  22.123  26.203  1.00  0.00     0.028 H 
BRANCH  94  97
ATOM     97  C   UNL A   1      36.270  23.513  25.770  1.00  0.00     0.018 C 
ATOM     98  H   UNL A   1      35.617  23.684  24.940  1.00  0.00     0.049 H 
ATOM     99  H   UNL A   1      36.707  24.422  26.126  1.00  0.00     0.049 H 
BRANCH  97 100
ATOM    100  N   UNL A   1      35.495  22.947  26.859  1.00  0.00    -0.352 N 
ATOM    101  C   UNL A   1      34.284  22.310  26.812  1.00  0.00     0.253 C 
ATOM    102  H   UNL A   1      35.895  23.034  27.754  1.00  0.00     0.163 HD
ATOM    103  O   UNL A   1      33.802  21.824  27.834  1.00  0.00    -0.269 OA
BRANCH 101 104
ATOM    104  C   UNL A   1      33.521  22.219  25.560  1.00  0.00     0.065 A 
ATOM    105  C   UNL A   1      33.422  20.950  24.966  1.00  0.00    -0.047 A 
ATOM    106  C   UNL A   1      32.962  23.335  24.932  1.00  0.00     0.076 A 
ATOM    107  C   UNL A   1      32.740  20.786  23.758  1.00  0.00    -0.061 A 
ATOM    108  H   UNL A   1      33.857  20.134  25.424  1.00  0.00     0.063 H 
ATOM    109  C   UNL A   1      32.292  23.150  23.710  1.00  0.00    -0.036 A 
ATOM    110  C   UNL A   1      32.180  21.890  23.125  1.00  0.00    -0.060 A 
ATOM    111  H   UNL A   1      32.652  19.848  23.337  1.00  0.00     0.062 H 
ATOM    112  H   UNL A   1      31.873  23.965  23.236  1.00  0.00     0.065 H 
ATOM    113  H   UNL A   1      31.684  21.777  22.227  1.00  0.00     0.062 H 
BRANCH 106 114
ATOM    114  N   UNL A   1      32.845  24.612  25.470  1.00  0.00    -0.255 NA
ATOM    115  C   UNL A   1      33.497  25.646  25.048  1.00  0.00     0.042 C 
ATOM    116  H   UNL A   1      34.259  25.579  24.355  1.00  0.00     0.085 H 
BRANCH 115 117
ATOM    117  C   UNL A   1      33.063  26.935  25.638  1.00  0.00     0.076 A 
ATOM    118  C   UNL A   1      33.654  27.963  25.002  1.00  0.00     0.104 A 
ATOM    119  C   UNL A   1      31.612  27.132  25.892  1.00  0.00     0.201 A 
ATOM    120  O   UNL A   1      32.953  29.047  24.483  1.00  0.00    -0.463 OA
ATOM    121  H   UNL A   1      34.682  27.947  24.893  1.00  0.00     0.105 H 
ATOM    122  C   UNL A   1      30.927  27.781  24.769  1.00  0.00     0.065 A 
ATOM    123  O   UNL A   1      31.033  26.703  26.877  1.00  0.00    -0.288 OA
ATOM    124  C   UNL A   1      31.678  28.720  24.059  1.00  0.00     0.137 A 
ATOM    125  C   UNL A   1      29.691  27.333  24.310  1.00  0.00    -0.047 A 
ATOM    126  C   UNL A   1      31.187  29.239  22.869  1.00  0.00    -0.019 A 
ATOM    127  C   UNL A   1      29.217  27.824  23.095  1.00  0.00    -0.061 A 
ATOM    128  H   UNL A   1      29.139  26.653  24.857  1.00  0.00     0.063 H 
ATOM    129  C   UNL A   1      29.961  28.771  22.379  1.00  0.00    -0.059 A 
ATOM    130  H   UNL A   1      31.718  29.958  22.352  1.00  0.00     0.066 H 
ATOM    131  H   UNL A   1      28.315  27.489  22.721  1.00  0.00     0.062 H 
ATOM    132  H   UNL A   1      29.601  29.129  21.480  1.00  0.00     0.062 H 
ENDBRANCH 115 117
ENDBRANCH 106 114
ENDBRANCH 101 104
ENDBRANCH  97 100
ENDBRANCH  94  97
ENDBRANCH  91  94
ENDBRANCH   1  91
TORSDOF 15
ENDMDL
MODEL 8
REMARK VINA RESULT:     -12.3      4.065      8.681
REMARK SMILES O=C(NCCCCCCNC(=O)c1ccccc1/N=C/c1coc2ccccc2c1=O)c1ccc(-c2c3nc(c(-c4c(F)c(F)c(F)c(F)c4F)c4ccc([nH]4)c(-c4c(F)c(F)c(F)c(F)c4F)c4nc(c(-c5c(F)c(F)c(F)c(F)c5F)c5ccc2[nH]5)C=C4)C=C3)cc1
REMARK SMILES IDX 6 1 5 4 4 7 3 10 1 11 2 12 32 14 33 15 94 16 34 17 93 19
REMARK SMILES IDX 35 21 36 24 37 25 87 26 38 27 92 28 86 29 88 30 39 31 91 32
REMARK SMILES IDX 85 34 84 36 40 38 72 41 52 42 71 43 53 44 56 45 70 46 89 47
REMARK SMILES IDX 54 48 55 50 69 52 90 53 57 56 41 58 42 59 50 60 43 61 44 62
REMARK SMILES IDX 48 63 51 64 45 65 46 66 49 67 47 68 73 69 74 70 82 71 75 72
REMARK SMILES IDX 76 73 80 74 83 75 77 76 78 77 81 78 79 79 58 80 59 81 67 82
REMARK SMILES IDX 60 83 61 84 65 85 68 86 62 87 63 88 66 89 64 90 7 91 8 94
REMARK SMILES IDX 9 97 10 100 11 101 12 103 13 104 14 105 18 106 15 107 17 109
REMARK SMILES IDX 16 110 19 114 20 115 21 117 22 118 30 119 23 120 29 122
REMARK SMILES IDX 31 123 24 124 28 125 25 126 27 127 26 129
REMARK H PARENT 6 2 6 3 5 5 5 6 4 8 4 9 3 13 33 18 94 20 34 22 93 23 92 33
REMARK H PARENT 86 35 88 37 91 39 85 40 53 49 56 51 89 54 54 55 90 57 7 92
REMARK H PARENT 7 93 8 95 8 96 9 98 9 99 10 102 14 108 15 111 17 112 16 113
REMARK H PARENT 20 116 22 121 28 128 25 130 27 131 26 132
REMARK Flexibility Score: inf
ROOT
ATOM      1  C   UNL A   1      35.167  23.492  23.431  1.00  0.00    -0.052 C 
ATOM      2  H   UNL A   1      34.830  22.585  23.888  1.00  0.00     0.027 H 
ATOM      3  H   UNL A   1      35.210  23.451  22.363  1.00  0.00     0.027 H 
ENDROOT
BRANCH   1   4
ATOM      4  C   UNL A   1      36.601  23.745  23.895  1.00  0.00    -0.036 C 
ATOM      5  H   UNL A   1      37.228  23.012  23.430  1.00  0.00     0.028 H 
ATOM      6  H   UNL A   1      36.817  24.754  23.613  1.00  0.00     0.028 H 
BRANCH   4   7
ATOM      7  C   UNL A   1      36.847  23.681  25.396  1.00  0.00     0.018 C 
ATOM      8  H   UNL A   1      37.206  24.635  25.722  1.00  0.00     0.049 H 
ATOM      9  H   UNL A   1      35.917  23.420  25.857  1.00  0.00     0.049 H 
BRANCH   7  10
ATOM     10  N   UNL A   1      37.815  22.670  25.780  1.00  0.00    -0.352 N 
ATOM     11  O   UNL A   1      39.732  21.805  26.576  1.00  0.00    -0.269 OA
ATOM     12  C   UNL A   1      39.012  22.795  26.440  1.00  0.00     0.251 C 
ATOM     13  H   UNL A   1      37.575  21.749  25.529  1.00  0.00     0.163 HD
BRANCH  12  14
ATOM     14  C   UNL A   1      39.472  24.100  26.975  1.00  0.00     0.039 A 
ATOM     15  C   UNL A   1      40.096  25.056  26.169  1.00  0.00    -0.049 A 
ATOM     16  C   UNL A   1      39.212  24.399  28.319  1.00  0.00    -0.049 A 
ATOM     17  C   UNL A   1      40.556  26.249  26.727  1.00  0.00    -0.053 A 
ATOM     18  H   UNL A   1      40.218  24.879  25.160  1.00  0.00     0.063 H 
ATOM     19  C   UNL A   1      39.617  25.622  28.865  1.00  0.00    -0.053 A 
ATOM     20  H   UNL A   1      38.718  23.712  28.910  1.00  0.00     0.063 H 
ATOM     21  C   UNL A   1      40.317  26.547  28.078  1.00  0.00    -0.014 A 
ATOM     22  H   UNL A   1      41.078  26.920  26.140  1.00  0.00     0.063 H 
ATOM     23  H   UNL A   1      39.402  25.843  29.849  1.00  0.00     0.063 H 
BRANCH  21  24
ATOM     24  C   UNL A   1      40.763  27.851  28.631  1.00  0.00     0.031 A 
ATOM     25  C   UNL A   1      42.220  28.147  28.841  1.00  0.00     0.074 A 
ATOM     26  C   UNL A   1      39.841  28.790  28.914  1.00  0.00     0.049 A 
ATOM     27  N   UNL A   1      42.783  29.250  29.272  1.00  0.00    -0.248 NA
ATOM     28  C   UNL A   1      43.171  27.068  28.535  1.00  0.00    -0.034 C 
ATOM     29  C   UNL A   1      38.394  28.619  28.775  1.00  0.00    -0.036 A 
ATOM     30  N   UNL A   1      39.984  30.083  29.352  1.00  0.00    -0.354 N 
ATOM     31  C   UNL A   1      44.146  28.992  29.308  1.00  0.00     0.074 A 
ATOM     32  C   UNL A   1      44.329  27.625  28.865  1.00  0.00    -0.034 C 
ATOM     33  H   UNL A   1      42.985  26.124  28.162  1.00  0.00     0.065 H 
ATOM     34  C   UNL A   1      37.786  29.778  29.071  1.00  0.00    -0.036 A 
ATOM     35  H   UNL A   1      37.919  27.746  28.495  1.00  0.00     0.065 H 
ATOM     36  C   UNL A   1      38.795  30.762  29.448  1.00  0.00     0.049 A 
ATOM     37  H   UNL A   1      40.855  30.484  29.575  1.00  0.00     0.167 HD
ATOM     38  C   UNL A   1      45.153  29.821  29.673  1.00  0.00     0.037 A 
ATOM     39  H   UNL A   1      45.242  27.147  28.813  1.00  0.00     0.065 H 
ATOM     40  H   UNL A   1      36.767  29.946  29.037  1.00  0.00     0.065 H 
ATOM     41  C   UNL A   1      38.546  32.039  29.790  1.00  0.00     0.037 A 
ATOM     42  C   UNL A   1      44.983  31.188  30.089  1.00  0.00     0.049 A 
ATOM     43  C   UNL A   1      39.683  32.947  30.150  1.00  0.00     0.074 A 
ATOM     44  C   UNL A   1      45.951  32.105  30.465  1.00  0.00    -0.036 A 
ATOM     45  N   UNL A   1      43.763  31.839  30.175  1.00  0.00    -0.354 N 
ATOM     46  N   UNL A   1      40.967  32.690  30.174  1.00  0.00    -0.248 NA
ATOM     47  C   UNL A   1      39.335  34.323  30.535  1.00  0.00    -0.034 C 
ATOM     48  C   UNL A   1      45.314  33.308  30.790  1.00  0.00    -0.036 A 
ATOM     49  H   UNL A   1      46.968  31.930  30.501  1.00  0.00     0.065 H 
ATOM     50  C   UNL A   1      43.951  33.144  30.600  1.00  0.00     0.049 A 
ATOM     51  H   UNL A   1      42.890  31.433  29.966  1.00  0.00     0.167 HD
ATOM     52  C   UNL A   1      41.581  33.865  30.580  1.00  0.00     0.074 A 
ATOM     53  C   UNL A   1      40.532  34.845  30.769  1.00  0.00    -0.034 C 
ATOM     54  H   UNL A   1      38.406  34.765  30.606  1.00  0.00     0.065 H 
ATOM     55  H   UNL A   1      45.779  34.170  31.117  1.00  0.00     0.065 H 
ATOM     56  C   UNL A   1      42.897  34.104  30.788  1.00  0.00     0.037 A 
ATOM     57  H   UNL A   1      40.694  35.825  31.051  1.00  0.00     0.065 H 
BRANCH  38  58
ATOM     58  C   UNL A   1      46.544  29.269  29.642  1.00  0.00     0.064 A 
ATOM     59  C   UNL A   1      47.098  28.633  30.762  1.00  0.00     0.173 A 
ATOM     60  C   UNL A   1      47.309  29.331  28.468  1.00  0.00     0.173 A 
ATOM     61  F   UNL A   1      46.406  28.559  31.909  1.00  0.00    -0.203 F 
ATOM     62  C   UNL A   1      48.377  28.084  30.709  1.00  0.00     0.198 A 
ATOM     63  C   UNL A   1      48.582  28.770  28.416  1.00  0.00     0.198 A 
ATOM     64  F   UNL A   1      46.817  29.927  27.373  1.00  0.00    -0.203 F 
ATOM     65  F   UNL A   1      48.898  27.496  31.795  1.00  0.00    -0.200 F 
ATOM     66  C   UNL A   1      49.114  28.149  29.535  1.00  0.00     0.200 A 
ATOM     67  F   UNL A   1      49.292  28.828  27.281  1.00  0.00    -0.200 F 
ATOM     68  F   UNL A   1      50.343  27.614  29.485  1.00  0.00    -0.200 F 
ENDBRANCH  38  58
BRANCH  41  69
ATOM     69  C   UNL A   1      37.150  32.536  29.777  1.00  0.00     0.064 A 
ATOM     70  C   UNL A   1      36.316  32.345  30.885  1.00  0.00     0.173 A 
ATOM     71  C   UNL A   1      36.639  33.234  28.675  1.00  0.00     0.173 A 
ATOM     72  F   UNL A   1      36.764  31.667  31.952  1.00  0.00    -0.203 F 
ATOM     73  C   UNL A   1      35.012  32.836  30.891  1.00  0.00     0.198 A 
ATOM     74  C   UNL A   1      35.339  33.736  28.688  1.00  0.00     0.198 A 
ATOM     75  F   UNL A   1      37.406  33.438  27.594  1.00  0.00    -0.203 F 
ATOM     76  F   UNL A   1      34.225  32.626  31.955  1.00  0.00    -0.200 F 
ATOM     77  C   UNL A   1      34.528  33.535  29.795  1.00  0.00     0.200 A 
ATOM     78  F   UNL A   1      34.876  34.416  27.632  1.00  0.00    -0.200 F 
ATOM     79  F   UNL A   1      33.276  34.012  29.805  1.00  0.00    -0.200 F 
ENDBRANCH  41  69
BRANCH  56  80
ATOM     80  C   UNL A   1      43.272  35.477  31.249  1.00  0.00     0.064 A 
ATOM     81  C   UNL A   1      43.314  35.792  32.614  1.00  0.00     0.173 A 
ATOM     82  C   UNL A   1      43.614  36.474  30.326  1.00  0.00     0.173 A 
ATOM     83  F   UNL A   1      42.979  34.872  33.530  1.00  0.00    -0.203 F 
ATOM     84  C   UNL A   1      43.673  37.068  33.040  1.00  0.00     0.198 A 
ATOM     85  C   UNL A   1      43.984  37.745  30.756  1.00  0.00     0.198 A 
ATOM     86  F   UNL A   1      43.584  36.216  29.010  1.00  0.00    -0.203 F 
ATOM     87  F   UNL A   1      43.681  37.359  34.348  1.00  0.00    -0.200 F 
ATOM     88  C   UNL A   1      44.011  38.042  32.112  1.00  0.00     0.200 A 
ATOM     89  F   UNL A   1      44.310  38.686  29.859  1.00  0.00    -0.200 F 
ATOM     90  F   UNL A   1      44.354  39.270  32.523  1.00  0.00    -0.200 F 
ENDBRANCH  56  80
ENDBRANCH  21  24
ENDBRANCH  12  14
ENDBRANCH   7  10
ENDBRANCH   4   7
ENDBRANCH   1   4
BRANCH   1  91
ATOM     91  C   UNL A   1      34.155  24.591  23.764  1.00  0.00    -0.052 C 
ATOM     92  H   UNL A   1      34.693  25.406  24.200  1.00  0.00     0.027 H 
ATOM     93  H   UNL A   1      33.441  24.131  24.415  1.00  0.00     0.027 H 
BRANCH  91  94
ATOM     94  C   UNL A   1      33.337  25.146  22.590  1.00  0.00    -0.036 C 
ATOM     95  H   UNL A   1      32.514  24.483  22.424  1.00  0.00     0.028 H 
ATOM     96  H   UNL A   1      34.021  25.214  21.771  1.00  0.00     0.028 H 
BRANCH  94  97
ATOM     97  C   UNL A   1      32.770  26.556  22.765  1.00  0.00     0.018 C 
ATOM     98  H   UNL A   1      33.082  27.155  21.936  1.00  0.00     0.049 H 
ATOM     99  H   UNL A   1      33.139  26.938  23.694  1.00  0.00     0.049 H 
BRANCH  97 100
ATOM    100  N   UNL A   1      31.319  26.578  22.831  1.00  0.00    -0.352 N 
ATOM    101  C   UNL A   1      30.510  27.181  23.755  1.00  0.00     0.253 C 
ATOM    102  H   UNL A   1      30.855  26.091  22.113  1.00  0.00     0.163 HD
ATOM    103  O   UNL A   1      29.288  27.159  23.614  1.00  0.00    -0.269 OA
BRANCH 101 104
ATOM    104  C   UNL A   1      31.070  27.837  24.945  1.00  0.00     0.065 A 
ATOM    105  C   UNL A   1      31.282  29.224  24.867  1.00  0.00    -0.047 A 
ATOM    106  C   UNL A   1      31.445  27.132  26.092  1.00  0.00     0.076 A 
ATOM    107  C   UNL A   1      31.841  29.915  25.944  1.00  0.00    -0.061 A 
ATOM    108  H   UNL A   1      31.023  29.734  24.008  1.00  0.00     0.063 H 
ATOM    109  C   UNL A   1      32.018  27.845  27.158  1.00  0.00    -0.036 A 
ATOM    110  C   UNL A   1      32.217  29.223  27.089  1.00  0.00    -0.060 A 
ATOM    111  H   UNL A   1      31.973  30.937  25.889  1.00  0.00     0.062 H 
ATOM    112  H   UNL A   1      32.298  27.338  28.012  1.00  0.00     0.065 H 
ATOM    113  H   UNL A   1      32.640  29.727  27.885  1.00  0.00     0.062 H 
BRANCH 106 114
ATOM    114  N   UNL A   1      31.157  25.800  26.372  1.00  0.00    -0.255 NA
ATOM    115  C   UNL A   1      32.045  24.865  26.463  1.00  0.00     0.042 C 
ATOM    116  H   UNL A   1      33.035  25.008  26.206  1.00  0.00     0.085 H 
BRANCH 115 117
ATOM    117  C   UNL A   1      31.529  23.569  26.967  1.00  0.00     0.076 A 
ATOM    118  C   UNL A   1      30.608  23.072  26.120  1.00  0.00     0.104 A 
ATOM    119  C   UNL A   1      32.513  22.567  27.450  1.00  0.00     0.201 A 
ATOM    120  O   UNL A   1      30.656  21.778  25.611  1.00  0.00    -0.463 OA
ATOM    121  H   UNL A   1      29.825  23.682  25.833  1.00  0.00     0.105 H 
ATOM    122  C   UNL A   1      32.925  21.630  26.398  1.00  0.00     0.065 A 
ATOM    123  O   UNL A   1      33.008  22.587  28.565  1.00  0.00    -0.288 OA
ATOM    124  C   UNL A   1      31.944  21.298  25.462  1.00  0.00     0.137 A 
ATOM    125  C   UNL A   1      34.258  21.270  26.222  1.00  0.00    -0.047 A 
ATOM    126  C   UNL A   1      32.290  20.579  24.326  1.00  0.00    -0.019 A 
ATOM    127  C   UNL A   1      34.613  20.584  25.062  1.00  0.00    -0.061 A 
ATOM    128  H   UNL A   1      34.968  21.506  26.934  1.00  0.00     0.063 H 
ATOM    129  C   UNL A   1      33.634  20.241  24.119  1.00  0.00    -0.059 A 
ATOM    130  H   UNL A   1      31.569  20.299  23.643  1.00  0.00     0.066 H 
ATOM    131  H   UNL A   1      35.599  20.328  24.896  1.00  0.00     0.062 H 
ATOM    132  H   UNL A   1      33.906  19.732  23.263  1.00  0.00     0.062 H 
ENDBRANCH 115 117
ENDBRANCH 106 114
ENDBRANCH 101 104
ENDBRANCH  97 100
ENDBRANCH  94  97
ENDBRANCH  91  94
ENDBRANCH   1  91
TORSDOF 15
ENDMDL
MODEL 9
REMARK VINA RESULT:     -12.2      3.046      8.634
REMARK SMILES O=C(NCCCCCCNC(=O)c1ccccc1/N=C/c1coc2ccccc2c1=O)c1ccc(-c2c3nc(c(-c4c(F)c(F)c(F)c(F)c4F)c4ccc([nH]4)c(-c4c(F)c(F)c(F)c(F)c4F)c4nc(c(-c5c(F)c(F)c(F)c(F)c5F)c5ccc2[nH]5)C=C4)C=C3)cc1
REMARK SMILES IDX 6 1 5 4 4 7 3 10 1 11 2 12 32 14 33 15 94 16 34 17 93 19
REMARK SMILES IDX 35 21 36 24 37 25 87 26 38 27 92 28 86 29 88 30 39 31 91 32
REMARK SMILES IDX 85 34 84 36 40 38 72 41 52 42 71 43 53 44 56 45 70 46 89 47
REMARK SMILES IDX 54 48 55 50 69 52 90 53 57 56 41 58 42 59 50 60 43 61 44 62
REMARK SMILES IDX 48 63 51 64 45 65 46 66 49 67 47 68 73 69 74 70 82 71 75 72
REMARK SMILES IDX 76 73 80 74 83 75 77 76 78 77 81 78 79 79 58 80 59 81 67 82
REMARK SMILES IDX 60 83 61 84 65 85 68 86 62 87 63 88 66 89 64 90 7 91 8 94
REMARK SMILES IDX 9 97 10 100 11 101 12 103 13 104 14 105 18 106 15 107 17 109
REMARK SMILES IDX 16 110 19 114 20 115 21 117 22 118 30 119 23 120 29 122
REMARK SMILES IDX 31 123 24 124 28 125 25 126 27 127 26 129
REMARK H PARENT 6 2 6 3 5 5 5 6 4 8 4 9 3 13 33 18 94 20 34 22 93 23 92 33
REMARK H PARENT 86 35 88 37 91 39 85 40 53 49 56 51 89 54 54 55 90 57 7 92
REMARK H PARENT 7 93 8 95 8 96 9 98 9 99 10 102 14 108 15 111 17 112 16 113
REMARK H PARENT 20 116 22 121 28 128 25 130 27 131 26 132
REMARK Flexibility Score: inf
ROOT
ATOM      1  C   UNL A   1      32.472  26.218  26.300  1.00  0.00    -0.052 C 
ATOM      2  H   UNL A   1      32.934  25.478  26.920  1.00  0.00     0.027 H 
ATOM      3  H   UNL A   1      32.967  26.372  25.364  1.00  0.00     0.027 H 
ENDROOT
BRANCH   1   4
ATOM      4  C   UNL A   1      32.546  27.556  27.034  1.00  0.00    -0.036 C 
ATOM      5  H   UNL A   1      31.788  28.193  26.628  1.00  0.00     0.028 H 
ATOM      6  H   UNL A   1      32.417  27.319  28.069  1.00  0.00     0.028 H 
BRANCH   4   7
ATOM      7  C   UNL A   1      33.872  28.300  26.950  1.00  0.00     0.018 C 
ATOM      8  H   UNL A   1      34.530  27.905  27.697  1.00  0.00     0.049 H 
ATOM      9  H   UNL A   1      34.252  28.158  25.960  1.00  0.00     0.049 H 
BRANCH   7  10
ATOM     10  N   UNL A   1      33.746  29.731  27.160  1.00  0.00    -0.352 N 
ATOM     11  O   UNL A   1      34.245  31.785  27.927  1.00  0.00    -0.269 OA
ATOM     12  C   UNL A   1      34.601  30.617  27.767  1.00  0.00     0.251 C 
ATOM     13  H   UNL A   1      32.916  30.130  26.810  1.00  0.00     0.163 HD
BRANCH  12  14
ATOM     14  C   UNL A   1      35.936  30.195  28.259  1.00  0.00     0.039 A 
ATOM     15  C   UNL A   1      36.129  29.688  29.546  1.00  0.00    -0.049 A 
ATOM     16  C   UNL A   1      37.021  30.253  27.373  1.00  0.00    -0.049 A 
ATOM     17  C   UNL A   1      37.411  29.350  29.980  1.00  0.00    -0.053 A 
ATOM     18  H   UNL A   1      35.322  29.563  30.177  1.00  0.00     0.063 H 
ATOM     19  C   UNL A   1      38.297  29.856  27.788  1.00  0.00    -0.053 A 
ATOM     20  H   UNL A   1      36.877  30.591  26.409  1.00  0.00     0.063 H 
ATOM     21  C   UNL A   1      38.507  29.425  29.106  1.00  0.00    -0.014 A 
ATOM     22  H   UNL A   1      37.555  29.042  30.955  1.00  0.00     0.063 H 
ATOM     23  H   UNL A   1      39.085  29.881  27.124  1.00  0.00     0.063 H 
BRANCH  21  24
ATOM     24  C   UNL A   1      39.850  29.001  29.575  1.00  0.00     0.031 A 
ATOM     25  C   UNL A   1      40.500  27.755  29.046  1.00  0.00     0.074 A 
ATOM     26  C   UNL A   1      40.504  29.772  30.465  1.00  0.00     0.049 A 
ATOM     27  N   UNL A   1      41.686  27.266  29.316  1.00  0.00    -0.248 NA
ATOM     28  C   UNL A   1      39.720  26.947  28.098  1.00  0.00    -0.034 C 
ATOM     29  C   UNL A   1      39.973  30.994  31.070  1.00  0.00    -0.036 A 
ATOM     30  N   UNL A   1      41.764  29.657  30.994  1.00  0.00    -0.354 N 
ATOM     31  C   UNL A   1      41.786  26.088  28.588  1.00  0.00     0.074 A 
ATOM     32  C   UNL A   1      40.538  25.928  27.872  1.00  0.00    -0.034 C 
ATOM     33  H   UNL A   1      38.781  27.127  27.708  1.00  0.00     0.065 H 
ATOM     34  C   UNL A   1      40.919  31.543  31.848  1.00  0.00    -0.036 A 
ATOM     35  H   UNL A   1      39.023  31.371  30.924  1.00  0.00     0.065 H 
ATOM     36  C   UNL A   1      42.109  30.699  31.818  1.00  0.00     0.049 A 
ATOM     37  H   UNL A   1      42.364  28.900  30.801  1.00  0.00     0.167 HD
ATOM     38  C   UNL A   1      42.827  25.224  28.522  1.00  0.00     0.037 A 
ATOM     39  H   UNL A   1      40.315  25.123  27.264  1.00  0.00     0.065 H 
ATOM     40  H   UNL A   1      40.820  32.422  32.381  1.00  0.00     0.065 H 
ATOM     41  C   UNL A   1      43.259  30.952  32.469  1.00  0.00     0.037 A 
ATOM     42  C   UNL A   1      44.079  25.389  29.210  1.00  0.00     0.049 A 
ATOM     43  C   UNL A   1      44.408  29.998  32.344  1.00  0.00     0.074 A 
ATOM     44  C   UNL A   1      45.194  24.566  29.189  1.00  0.00    -0.036 A 
ATOM     45  N   UNL A   1      44.389  26.457  30.037  1.00  0.00    -0.354 N 
ATOM     46  N   UNL A   1      44.490  28.893  31.648  1.00  0.00    -0.248 NA
ATOM     47  C   UNL A   1      45.626  30.327  33.101  1.00  0.00    -0.034 C 
ATOM     48  C   UNL A   1      46.173  25.131  30.013  1.00  0.00    -0.036 A 
ATOM     49  H   UNL A   1      45.285  23.686  28.656  1.00  0.00     0.065 H 
ATOM     50  C   UNL A   1      45.674  26.314  30.534  1.00  0.00     0.049 A 
ATOM     51  H   UNL A   1      43.784  27.206  30.242  1.00  0.00     0.167 HD
ATOM     52  C   UNL A   1      45.760  28.389  31.885  1.00  0.00     0.074 A 
ATOM     53  C   UNL A   1      46.425  29.322  32.769  1.00  0.00    -0.034 C 
ATOM     54  H   UNL A   1      45.809  31.128  33.725  1.00  0.00     0.065 H 
ATOM     55  H   UNL A   1      47.107  24.734  30.202  1.00  0.00     0.065 H 
ATOM     56  C   UNL A   1      46.319  27.248  31.416  1.00  0.00     0.037 A 
ATOM     57  H   UNL A   1      47.398  29.219  33.101  1.00  0.00     0.065 H 
BRANCH  38  58
ATOM     58  C   UNL A   1      42.653  24.005  27.670  1.00  0.00     0.064 A 
ATOM     59  C   UNL A   1      42.975  24.019  26.306  1.00  0.00     0.173 A 
ATOM     60  C   UNL A   1      42.211  22.800  28.234  1.00  0.00     0.173 A 
ATOM     61  F   UNL A   1      43.393  25.153  25.722  1.00  0.00    -0.203 F 
ATOM     62  C   UNL A   1      42.851  22.868  25.532  1.00  0.00     0.198 A 
ATOM     63  C   UNL A   1      42.101  21.647  27.460  1.00  0.00     0.198 A 
ATOM     64  F   UNL A   1      41.895  22.739  29.536  1.00  0.00    -0.203 F 
ATOM     65  F   UNL A   1      43.146  22.906  24.225  1.00  0.00    -0.200 F 
ATOM     66  C   UNL A   1      42.420  21.683  26.111  1.00  0.00     0.200 A 
ATOM     67  F   UNL A   1      41.688  20.502  28.021  1.00  0.00    -0.200 F 
ATOM     68  F   UNL A   1      42.307  20.575  25.366  1.00  0.00    -0.200 F 
ENDBRANCH  38  58
BRANCH  41  69
ATOM     69  C   UNL A   1      43.379  32.188  33.276  1.00  0.00     0.064 A 
ATOM     70  C   UNL A   1      43.007  32.197  34.626  1.00  0.00     0.173 A 
ATOM     71  C   UNL A   1      43.895  33.368  32.725  1.00  0.00     0.173 A 
ATOM     72  F   UNL A   1      42.493  31.092  35.186  1.00  0.00    -0.203 F 
ATOM     73  C   UNL A   1      43.146  33.348  35.399  1.00  0.00     0.198 A 
ATOM     74  C   UNL A   1      44.046  34.514  33.502  1.00  0.00     0.198 A 
ATOM     75  F   UNL A   1      44.264  33.402  31.436  1.00  0.00    -0.203 F 
ATOM     76  F   UNL A   1      42.766  33.338  36.684  1.00  0.00    -0.200 F 
ATOM     77  C   UNL A   1      43.670  34.503  34.837  1.00  0.00     0.200 A 
ATOM     78  F   UNL A   1      44.559  35.626  32.960  1.00  0.00    -0.200 F 
ATOM     79  F   UNL A   1      43.809  35.607  35.584  1.00  0.00    -0.200 F 
ENDBRANCH  41  69
BRANCH  56  80
ATOM     80  C   UNL A   1      47.716  26.946  31.860  1.00  0.00     0.064 A 
ATOM     81  C   UNL A   1      47.958  26.130  32.972  1.00  0.00     0.173 A 
ATOM     82  C   UNL A   1      48.815  27.455  31.156  1.00  0.00     0.173 A 
ATOM     83  F   UNL A   1      46.934  25.635  33.683  1.00  0.00    -0.203 F 
ATOM     84  C   UNL A   1      49.259  25.842  33.375  1.00  0.00     0.198 A 
ATOM     85  C   UNL A   1      50.115  27.157  31.554  1.00  0.00     0.198 A 
ATOM     86  F   UNL A   1      48.629  28.244  30.087  1.00  0.00    -0.203 F 
ATOM     87  F   UNL A   1      49.472  25.082  34.457  1.00  0.00    -0.200 F 
ATOM     88  C   UNL A   1      50.336  26.353  32.664  1.00  0.00     0.200 A 
ATOM     89  F   UNL A   1      51.155  27.650  30.869  1.00  0.00    -0.200 F 
ATOM     90  F   UNL A   1      51.588  26.078  33.055  1.00  0.00    -0.200 F 
ENDBRANCH  56  80
ENDBRANCH  21  24
ENDBRANCH  12  14
ENDBRANCH   7  10
ENDBRANCH   4   7
ENDBRANCH   1   4
BRANCH   1  91
ATOM     91  C   UNL A   1      31.066  25.726  25.950  1.00  0.00    -0.052 C 
ATOM     92  H   UNL A   1      30.536  26.545  25.508  1.00  0.00     0.027 H 
ATOM     93  H   UNL A   1      30.651  25.375  26.872  1.00  0.00     0.027 H 
BRANCH  91  94
ATOM     94  C   UNL A   1      30.977  24.536  24.984  1.00  0.00    -0.036 C 
ATOM     95  H   UNL A   1      31.389  24.846  24.047  1.00  0.00     0.028 H 
ATOM     96  H   UNL A   1      29.939  24.276  24.946  1.00  0.00     0.028 H 
BRANCH  94  97
ATOM     97  C   UNL A   1      31.702  23.260  25.412  1.00  0.00     0.018 C 
ATOM     98  H   UNL A   1      31.294  22.931  26.345  1.00  0.00     0.049 H 
ATOM     99  H   UNL A   1      32.743  23.493  25.492  1.00  0.00     0.049 H 
BRANCH  97 100
ATOM    100  N   UNL A   1      31.570  22.184  24.446  1.00  0.00    -0.352 N 
ATOM    101  C   UNL A   1      32.551  21.449  23.838  1.00  0.00     0.253 C 
ATOM    102  H   UNL A   1      30.647  21.952  24.193  1.00  0.00     0.163 HD
ATOM    103  O   UNL A   1      32.253  20.517  23.093  1.00  0.00    -0.269 OA
BRANCH 101 104
ATOM    104  C   UNL A   1      33.973  21.770  24.032  1.00  0.00     0.065 A 
ATOM    105  C   UNL A   1      34.750  20.824  24.721  1.00  0.00    -0.047 A 
ATOM    106  C   UNL A   1      34.538  22.979  23.619  1.00  0.00     0.076 A 
ATOM    107  C   UNL A   1      36.102  21.070  24.973  1.00  0.00    -0.061 A 
ATOM    108  H   UNL A   1      34.320  19.944  25.043  1.00  0.00     0.063 H 
ATOM    109  C   UNL A   1      35.896  23.211  23.895  1.00  0.00    -0.036 A 
ATOM    110  C   UNL A   1      36.674  22.270  24.566  1.00  0.00    -0.060 A 
ATOM    111  H   UNL A   1      36.673  20.362  25.460  1.00  0.00     0.062 H 
ATOM    112  H   UNL A   1      36.327  24.099  23.594  1.00  0.00     0.065 H 
ATOM    113  H   UNL A   1      37.670  22.461  24.758  1.00  0.00     0.062 H 
BRANCH 106 114
ATOM    114  N   UNL A   1      33.941  23.931  22.799  1.00  0.00    -0.255 NA
ATOM    115  C   UNL A   1      33.936  25.202  23.040  1.00  0.00     0.042 C 
ATOM    116  H   UNL A   1      34.267  25.601  23.933  1.00  0.00     0.085 H 
BRANCH 115 117
ATOM    117  C   UNL A   1      33.419  26.039  21.931  1.00  0.00     0.076 A 
ATOM    118  C   UNL A   1      32.231  25.569  21.506  1.00  0.00     0.104 A 
ATOM    119  C   UNL A   1      33.464  27.516  22.092  1.00  0.00     0.201 A 
ATOM    120  O   UNL A   1      31.095  26.363  21.376  1.00  0.00    -0.463 OA
ATOM    121  H   UNL A   1      32.159  24.568  21.262  1.00  0.00     0.105 H 
ATOM    122  C   UNL A   1      32.224  28.059  22.656  1.00  0.00     0.065 A 
ATOM    123  O   UNL A   1      34.460  28.188  21.883  1.00  0.00    -0.288 OA
ATOM    124  C   UNL A   1      31.049  27.401  22.288  1.00  0.00     0.137 A 
ATOM    125  C   UNL A   1      32.239  29.025  23.659  1.00  0.00    -0.047 A 
ATOM    126  C   UNL A   1      29.855  27.715  22.922  1.00  0.00    -0.019 A 
ATOM    127  C   UNL A   1      31.048  29.312  24.322  1.00  0.00    -0.061 A 
ATOM    128  H   UNL A   1      33.114  29.516  23.905  1.00  0.00     0.063 H 
ATOM    129  C   UNL A   1      29.862  28.660  23.956  1.00  0.00    -0.059 A 
ATOM    130  H   UNL A   1      28.973  27.260  22.636  1.00  0.00     0.066 H 
ATOM    131  H   UNL A   1      31.038  30.006  25.086  1.00  0.00     0.062 H 
ATOM    132  H   UNL A   1      28.985  28.880  24.453  1.00  0.00     0.062 H 
ENDBRANCH 115 117
ENDBRANCH 106 114
ENDBRANCH 101 104
ENDBRANCH  97 100
ENDBRANCH  94  97
ENDBRANCH  91  94
ENDBRANCH   1  91
TORSDOF 15
ENDMDL
MODEL 10
REMARK VINA RESULT:     -12.1      0.987      1.622
REMARK SMILES O=C(NCCCCCCNC(=O)c1ccccc1/N=C/c1coc2ccccc2c1=O)c1ccc(-c2c3nc(c(-c4c(F)c(F)c(F)c(F)c4F)c4ccc([nH]4)c(-c4c(F)c(F)c(F)c(F)c4F)c4nc(c(-c5c(F)c(F)c(F)c(F)c5F)c5ccc2[nH]5)C=C4)C=C3)cc1
REMARK SMILES IDX 6 1 5 4 4 7 3 10 1 11 2 12 32 14 33 15 94 16 34 17 93 19
REMARK SMILES IDX 35 21 36 24 37 25 87 26 38 27 92 28 86 29 88 30 39 31 91 32
REMARK SMILES IDX 85 34 84 36 40 38 72 41 52 42 71 43 53 44 56 45 70 46 89 47
REMARK SMILES IDX 54 48 55 50 69 52 90 53 57 56 41 58 42 59 50 60 43 61 44 62
REMARK SMILES IDX 48 63 51 64 45 65 46 66 49 67 47 68 73 69 74 70 82 71 75 72
REMARK SMILES IDX 76 73 80 74 83 75 77 76 78 77 81 78 79 79 58 80 59 81 67 82
REMARK SMILES IDX 60 83 61 84 65 85 68 86 62 87 63 88 66 89 64 90 7 91 8 94
REMARK SMILES IDX 9 97 10 100 11 101 12 103 13 104 14 105 18 106 15 107 17 109
REMARK SMILES IDX 16 110 19 114 20 115 21 117 22 118 30 119 23 120 29 122
REMARK SMILES IDX 31 123 24 124 28 125 25 126 27 127 26 129
REMARK H PARENT 6 2 6 3 5 5 5 6 4 8 4 9 3 13 33 18 94 20 34 22 93 23 92 33
REMARK H PARENT 86 35 88 37 91 39 85 40 53 49 56 51 89 54 54 55 90 57 7 92
REMARK H PARENT 7 93 8 95 8 96 9 98 9 99 10 102 14 108 15 111 17 112 16 113
REMARK H PARENT 20 116 22 121 28 128 25 130 27 131 26 132
REMARK Flexibility Score: inf
ROOT
ATOM      1  C   UNL A   1      31.394  30.789  26.068  1.00  0.00    -0.052 C 
ATOM      2  H   UNL A   1      31.601  30.786  25.018  1.00  0.00     0.027 H 
ATOM      3  H   UNL A   1      30.462  30.333  26.329  1.00  0.00     0.027 H 
ENDROOT
BRANCH   1   4
ATOM      4  C   UNL A   1      31.284  32.245  26.520  1.00  0.00    -0.036 C 
ATOM      5  H   UNL A   1      30.888  32.811  25.703  1.00  0.00     0.028 H 
ATOM      6  H   UNL A   1      30.661  32.227  27.389  1.00  0.00     0.028 H 
BRANCH   4   7
ATOM      7  C   UNL A   1      32.578  32.914  26.964  1.00  0.00     0.018 C 
ATOM      8  H   UNL A   1      33.086  32.256  27.639  1.00  0.00     0.049 H 
ATOM      9  H   UNL A   1      33.151  33.109  26.081  1.00  0.00     0.049 H 
BRANCH   7  10
ATOM     10  N   UNL A   1      32.372  34.186  27.631  1.00  0.00    -0.352 N 
ATOM     11  O   UNL A   1      32.639  35.815  29.158  1.00  0.00    -0.269 OA
ATOM     12  C   UNL A   1      33.052  34.760  28.677  1.00  0.00     0.251 C 
ATOM     13  H   UNL A   1      31.627  34.724  27.277  1.00  0.00     0.163 HD
BRANCH  12  14
ATOM     14  C   UNL A   1      34.260  34.125  29.259  1.00  0.00     0.039 A 
ATOM     15  C   UNL A   1      35.550  34.573  28.967  1.00  0.00    -0.049 A 
ATOM     16  C   UNL A   1      34.087  33.081  30.179  1.00  0.00    -0.049 A 
ATOM     17  C   UNL A   1      36.658  33.913  29.500  1.00  0.00    -0.053 A 
ATOM     18  H   UNL A   1      35.685  35.393  28.356  1.00  0.00     0.063 H 
ATOM     19  C   UNL A   1      35.196  32.458  30.762  1.00  0.00    -0.053 A 
ATOM     20  H   UNL A   1      33.135  32.770  30.427  1.00  0.00     0.063 H 
ATOM     21  C   UNL A   1      36.493  32.854  30.406  1.00  0.00    -0.014 A 
ATOM     22  H   UNL A   1      37.609  34.206  29.224  1.00  0.00     0.063 H 
ATOM     23  H   UNL A   1      35.059  31.707  31.455  1.00  0.00     0.063 H 
BRANCH  21  24
ATOM     24  C   UNL A   1      37.688  32.208  31.005  1.00  0.00     0.031 A 
ATOM     25  C   UNL A   1      38.122  32.527  32.408  1.00  0.00     0.074 A 
ATOM     26  C   UNL A   1      38.369  31.298  30.284  1.00  0.00     0.049 A 
ATOM     27  N   UNL A   1      39.114  32.020  33.099  1.00  0.00    -0.248 NA
ATOM     28  C   UNL A   1      37.349  33.548  33.129  1.00  0.00    -0.034 C 
ATOM     29  C   UNL A   1      38.064  30.916  28.905  1.00  0.00    -0.036 A 
ATOM     30  N   UNL A   1      39.441  30.510  30.620  1.00  0.00    -0.354 N 
ATOM     31  C   UNL A   1      39.097  32.674  34.323  1.00  0.00     0.074 A 
ATOM     32  C   UNL A   1      38.003  33.621  34.280  1.00  0.00    -0.034 C 
ATOM     33  H   UNL A   1      36.515  34.072  32.819  1.00  0.00     0.065 H 
ATOM     34  C   UNL A   1      38.894  29.932  28.529  1.00  0.00    -0.036 A 
ATOM     35  H   UNL A   1      37.328  31.338  28.317  1.00  0.00     0.065 H 
ATOM     36  C   UNL A   1      39.808  29.634  29.628  1.00  0.00     0.049 A 
ATOM     37  H   UNL A   1      39.903  30.566  31.487  1.00  0.00     0.167 HD
ATOM     38  C   UNL A   1      39.917  32.495  35.386  1.00  0.00     0.037 A 
ATOM     39  H   UNL A   1      37.763  34.269  35.048  1.00  0.00     0.065 H 
ATOM     40  H   UNL A   1      38.888  29.460  27.610  1.00  0.00     0.065 H 
ATOM     41  C   UNL A   1      40.765  28.689  29.609  1.00  0.00     0.037 A 
ATOM     42  C   UNL A   1      40.990  31.539  35.447  1.00  0.00     0.049 A 
ATOM     43  C   UNL A   1      41.631  28.486  30.815  1.00  0.00     0.074 A 
ATOM     44  C   UNL A   1      41.864  31.283  36.491  1.00  0.00    -0.036 A 
ATOM     45  N   UNL A   1      41.330  30.671  34.420  1.00  0.00    -0.354 N 
ATOM     46  N   UNL A   1      41.600  29.107  31.967  1.00  0.00    -0.248 NA
ATOM     47  C   UNL A   1      42.671  27.451  30.716  1.00  0.00    -0.034 C 
ATOM     48  C   UNL A   1      42.741  30.268  36.091  1.00  0.00    -0.036 A 
ATOM     49  H   UNL A   1      41.868  31.760  37.406  1.00  0.00     0.065 H 
ATOM     50  C   UNL A   1      42.402  29.881  34.805  1.00  0.00     0.049 A 
ATOM     51  H   UNL A   1      40.879  30.625  33.547  1.00  0.00     0.167 HD
ATOM     52  C   UNL A   1      42.613  28.546  32.728  1.00  0.00     0.074 A 
ATOM     53  C   UNL A   1      43.229  27.516  31.917  1.00  0.00    -0.034 C 
ATOM     54  H   UNL A   1      42.906  26.836  29.921  1.00  0.00     0.065 H 
ATOM     55  H   UNL A   1      43.510  29.875  36.657  1.00  0.00     0.065 H 
ATOM     56  C   UNL A   1      43.004  28.866  33.985  1.00  0.00     0.037 A 
ATOM     57  H   UNL A   1      44.003  26.910  32.234  1.00  0.00     0.065 H 
BRANCH  38  58
ATOM     58  C   UNL A   1      39.688  33.363  36.584  1.00  0.00     0.064 A 
ATOM     59  C   UNL A   1      40.314  34.611  36.709  1.00  0.00     0.173 A 
ATOM     60  C   UNL A   1      38.795  32.966  37.590  1.00  0.00     0.173 A 
ATOM     61  F   UNL A   1      41.183  35.027  35.775  1.00  0.00    -0.203 F 
ATOM     62  C   UNL A   1      40.060  35.429  37.806  1.00  0.00     0.198 A 
ATOM     63  C   UNL A   1      38.534  33.793  38.680  1.00  0.00     0.198 A 
ATOM     64  F   UNL A   1      38.171  31.782  37.511  1.00  0.00    -0.203 F 
ATOM     65  F   UNL A   1      40.683  36.611  37.918  1.00  0.00    -0.200 F 
ATOM     66  C   UNL A   1      39.167  35.022  38.787  1.00  0.00     0.200 A 
ATOM     67  F   UNL A   1      37.667  33.401  39.624  1.00  0.00    -0.200 F 
ATOM     68  F   UNL A   1      38.920  35.814  39.840  1.00  0.00    -0.200 F 
ENDBRANCH  38  58
BRANCH  41  69
ATOM     69  C   UNL A   1      40.927  27.844  28.403  1.00  0.00     0.064 A 
ATOM     70  C   UNL A   1      41.744  28.261  27.345  1.00  0.00     0.173 A 
ATOM     71  C   UNL A   1      40.298  26.596  28.302  1.00  0.00     0.173 A 
ATOM     72  F   UNL A   1      42.350  29.456  27.398  1.00  0.00    -0.203 F 
ATOM     73  C   UNL A   1      41.925  27.457  26.222  1.00  0.00     0.198 A 
ATOM     74  C   UNL A   1      40.491  25.788  27.184  1.00  0.00     0.198 A 
ATOM     75  F   UNL A   1      39.508  26.160  29.293  1.00  0.00    -0.203 F 
ATOM     76  F   UNL A   1      42.696  27.884  25.213  1.00  0.00    -0.200 F 
ATOM     77  C   UNL A   1      41.302  26.219  26.145  1.00  0.00     0.200 A 
ATOM     78  F   UNL A   1      39.894  24.590  27.115  1.00  0.00    -0.200 F 
ATOM     79  F   UNL A   1      41.483  25.445  25.067  1.00  0.00    -0.200 F 
ENDBRANCH  41  69
BRANCH  56  80
ATOM     80  C   UNL A   1      44.156  28.096  34.552  1.00  0.00     0.064 A 
ATOM     81  C   UNL A   1      45.466  28.582  34.452  1.00  0.00     0.173 A 
ATOM     82  C   UNL A   1      43.946  26.883  35.219  1.00  0.00     0.173 A 
ATOM     83  F   UNL A   1      45.713  29.732  33.807  1.00  0.00    -0.203 F 
ATOM     84  C   UNL A   1      46.533  27.869  34.991  1.00  0.00     0.198 A 
ATOM     85  C   UNL A   1      45.013  26.177  35.767  1.00  0.00     0.198 A 
ATOM     86  F   UNL A   1      42.707  26.380  35.336  1.00  0.00    -0.203 F 
ATOM     87  F   UNL A   1      47.783  28.334  34.861  1.00  0.00    -0.200 F 
ATOM     88  C   UNL A   1      46.306  26.669  35.650  1.00  0.00     0.200 A 
ATOM     89  F   UNL A   1      44.794  25.019  36.404  1.00  0.00    -0.200 F 
ATOM     90  F   UNL A   1      47.334  25.982  36.166  1.00  0.00    -0.200 F 
ENDBRANCH  56  80
ENDBRANCH  21  24
ENDBRANCH  12  14
ENDBRANCH   7  10
ENDBRANCH   4   7
ENDBRANCH   1   4
BRANCH   1  91
ATOM     91  C   UNL A   1      32.473  29.955  26.762  1.00  0.00    -0.052 C 
ATOM     92  H   UNL A   1      32.952  30.581  27.486  1.00  0.00     0.027 H 
ATOM     93  H   UNL A   1      33.115  29.613  25.977  1.00  0.00     0.027 H 
BRANCH  91  94
ATOM     94  C   UNL A   1      32.000  28.685  27.482  1.00  0.00    -0.036 C 
ATOM     95  H   UNL A   1      30.930  28.689  27.480  1.00  0.00     0.028 H 
ATOM     96  H   UNL A   1      32.439  28.729  28.457  1.00  0.00     0.028 H 
BRANCH  94  97
ATOM     97  C   UNL A   1      32.461  27.355  26.886  1.00  0.00     0.018 C 
ATOM     98  H   UNL A   1      33.284  26.988  27.463  1.00  0.00     0.049 H 
ATOM     99  H   UNL A   1      32.738  27.537  25.869  1.00  0.00     0.049 H 
BRANCH  97 100
ATOM    100  N   UNL A   1      31.417  26.346  26.878  1.00  0.00    -0.352 N 
ATOM    101  C   UNL A   1      30.641  25.920  25.835  1.00  0.00     0.253 C 
ATOM    102  H   UNL A   1      31.243  25.909  27.743  1.00  0.00     0.163 HD
ATOM    103  O   UNL A   1      29.847  24.994  25.994  1.00  0.00    -0.269 OA
BRANCH 101 104
ATOM    104  C   UNL A   1      30.711  26.570  24.519  1.00  0.00     0.065 A 
ATOM    105  C   UNL A   1      30.023  27.785  24.372  1.00  0.00    -0.047 A 
ATOM    106  C   UNL A   1      31.371  25.999  23.427  1.00  0.00     0.076 A 
ATOM    107  C   UNL A   1      30.015  28.449  23.144  1.00  0.00    -0.061 A 
ATOM    108  H   UNL A   1      29.520  28.190  25.177  1.00  0.00     0.063 H 
ATOM    109  C   UNL A   1      31.339  26.677  22.197  1.00  0.00    -0.036 A 
ATOM    110  C   UNL A   1      30.668  27.890  22.051  1.00  0.00    -0.060 A 
ATOM    111  H   UNL A   1      29.526  29.353  23.048  1.00  0.00     0.062 H 
ATOM    112  H   UNL A   1      31.823  26.267  21.382  1.00  0.00     0.065 H 
ATOM    113  H   UNL A   1      30.657  28.371  21.138  1.00  0.00     0.062 H 
BRANCH 106 114
ATOM    114  N   UNL A   1      32.215  24.894  23.459  1.00  0.00    -0.255 NA
ATOM    115  C   UNL A   1      31.982  23.779  22.847  1.00  0.00     0.042 C 
ATOM    116  H   UNL A   1      31.081  23.573  22.387  1.00  0.00     0.085 H 
BRANCH 115 117
ATOM    117  C   UNL A   1      33.113  22.819  22.859  1.00  0.00     0.076 A 
ATOM    118  C   UNL A   1      34.282  23.477  22.964  1.00  0.00     0.104 A 
ATOM    119  C   UNL A   1      33.006  21.627  23.740  1.00  0.00     0.201 A 
ATOM    120  O   UNL A   1      35.249  23.172  23.918  1.00  0.00    -0.463 OA
ATOM    121  H   UNL A   1      34.474  24.247  22.302  1.00  0.00     0.105 H 
ATOM    122  C   UNL A   1      33.598  21.849  25.063  1.00  0.00     0.065 A 
ATOM    123  O   UNL A   1      32.397  20.614  23.436  1.00  0.00    -0.288 OA
ATOM    124  C   UNL A   1      34.717  22.684  25.096  1.00  0.00     0.137 A 
ATOM    125  C   UNL A   1      32.958  21.435  26.228  1.00  0.00    -0.047 A 
ATOM    126  C   UNL A   1      35.224  23.109  26.316  1.00  0.00    -0.019 A 
ATOM    127  C   UNL A   1      33.443  21.894  27.451  1.00  0.00    -0.061 A 
ATOM    128  H   UNL A   1      32.143  20.801  26.186  1.00  0.00     0.063 H 
ATOM    129  C   UNL A   1      34.570  22.727  27.494  1.00  0.00    -0.059 A 
ATOM    130  H   UNL A   1      36.071  23.699  26.356  1.00  0.00     0.066 H 
ATOM    131  H   UNL A   1      32.971  21.621  28.328  1.00  0.00     0.062 H 
ATOM    132  H   UNL A   1      34.921  23.062  28.406  1.00  0.00     0.062 H 
ENDBRANCH 115 117
ENDBRANCH 106 114
ENDBRANCH 101 104
ENDBRANCH  97 100
ENDBRANCH  94  97
ENDBRANCH  91  94
ENDBRANCH   1  91
TORSDOF 15
ENDMDL
