MODEL 1
REMARK VINA RESULT:     -13.1      0.000      0.000
REMARK SMILES O=C(NCCCCCCNC(=O)c1cc(/C=C/c2cc(O)cc(O)c2)ccc1O)c1ccc(-c2c3nc(c(-c4c(F)c(F)c(F)c(F)c4F)c4ccc([nH]4)c(-c4c(F)c(F)c(F)c(F)c4F)c4nc(c(-c5c(F)c(F)c(F)c(F)c5F)c5ccc2[nH]5)C=C4)C=C3)cc1
REMARK SMILES IDX 7 1 6 4 5 7 4 10 3 13 1 14 2 15 30 17 31 18 92 19 32 20
REMARK SMILES IDX 91 22 33 24 34 27 35 28 85 29 36 30 90 31 84 32 86 33 37 34
REMARK SMILES IDX 89 35 83 37 82 39 38 41 70 44 50 45 69 46 51 47 54 48 68 49
REMARK SMILES IDX 87 50 52 51 53 53 67 55 88 56 55 59 39 61 40 62 48 63 41 64
REMARK SMILES IDX 42 65 46 66 49 67 43 68 44 69 47 70 45 71 71 72 72 73 80 74
REMARK SMILES IDX 73 75 74 76 78 77 81 78 75 79 76 80 79 81 77 82 56 83 57 84
REMARK SMILES IDX 65 85 58 86 59 87 63 88 66 89 60 90 61 91 64 92 62 93 8 94
REMARK SMILES IDX 9 97 10 100 11 101 12 103 13 104 14 105 28 106 15 107 27 109
REMARK SMILES IDX 26 110 29 113 16 115 17 116 18 119 19 120 25 121 20 122
REMARK SMILES IDX 23 124 22 126 21 128 24 130
REMARK H PARENT 7 2 7 3 6 5 6 6 5 8 5 9 4 11 4 12 3 16 31 21 92 23 32 25 91 26
REMARK H PARENT 90 36 84 38 86 40 89 42 83 43 51 52 54 54 87 57 52 58 88 60
REMARK H PARENT 8 95 8 96 9 98 9 99 10 102 14 108 27 111 26 112 29 114 16 117
REMARK H PARENT 17 118 19 123 25 125 22 127 21 129 24 131
REMARK Flexibility Score: inf
ROOT
ATOM      1  C   UNL A   1      32.407  29.933  26.900  1.00  0.00    -0.052 C 
ATOM      2  H   UNL A   1      32.710  30.521  27.741  1.00  0.00     0.027 H 
ATOM      3  H   UNL A   1      33.222  29.621  26.279  1.00  0.00     0.027 H 
ENDROOT
BRANCH   1   4
ATOM      4  C   UNL A   1      31.509  30.802  26.014  1.00  0.00    -0.052 C 
ATOM      5  H   UNL A   1      31.950  30.850  25.040  1.00  0.00     0.027 H 
ATOM      6  H   UNL A   1      30.544  30.340  26.022  1.00  0.00     0.027 H 
BRANCH   4   7
ATOM      7  C   UNL A   1      31.301  32.233  26.508  1.00  0.00    -0.036 C 
ATOM      8  H   UNL A   1      31.097  32.854  25.661  1.00  0.00     0.028 H 
ATOM      9  H   UNL A   1      30.489  32.199  27.206  1.00  0.00     0.028 H 
BRANCH   7  10
ATOM     10  C   UNL A   1      32.489  32.820  27.254  1.00  0.00     0.018 C 
ATOM     11  H   UNL A   1      32.650  32.254  28.147  1.00  0.00     0.049 H 
ATOM     12  H   UNL A   1      33.337  32.777  26.604  1.00  0.00     0.049 H 
BRANCH  10  13
ATOM     13  N   UNL A   1      32.278  34.212  27.616  1.00  0.00    -0.352 N 
ATOM     14  O   UNL A   1      32.516  36.067  28.887  1.00  0.00    -0.269 OA
ATOM     15  C   UNL A   1      32.925  34.953  28.571  1.00  0.00     0.251 C 
ATOM     16  H   UNL A   1      31.579  34.685  27.109  1.00  0.00     0.163 HD
BRANCH  15  17
ATOM     17  C   UNL A   1      34.122  34.392  29.229  1.00  0.00     0.039 A 
ATOM     18  C   UNL A   1      33.996  33.662  30.415  1.00  0.00    -0.049 A 
ATOM     19  C   UNL A   1      35.377  34.581  28.645  1.00  0.00    -0.049 A 
ATOM     20  C   UNL A   1      35.132  33.211  31.073  1.00  0.00    -0.053 A 
ATOM     21  H   UNL A   1      33.060  33.460  30.800  1.00  0.00     0.063 H 
ATOM     22  C   UNL A   1      36.512  34.048  29.261  1.00  0.00    -0.053 A 
ATOM     23  H   UNL A   1      35.466  35.111  27.765  1.00  0.00     0.063 H 
ATOM     24  C   UNL A   1      36.396  33.360  30.479  1.00  0.00    -0.014 A 
ATOM     25  H   UNL A   1      35.047  32.765  31.999  1.00  0.00     0.063 H 
ATOM     26  H   UNL A   1      37.438  34.161  28.820  1.00  0.00     0.063 H 
BRANCH  24  27
ATOM     27  C   UNL A   1      37.556  32.654  31.073  1.00  0.00     0.031 A 
ATOM     28  C   UNL A   1      38.230  31.516  30.368  1.00  0.00     0.074 A 
ATOM     29  C   UNL A   1      37.979  33.059  32.287  1.00  0.00     0.049 A 
ATOM     30  N   UNL A   1      39.231  30.776  30.778  1.00  0.00    -0.248 NA
ATOM     31  C   UNL A   1      37.720  31.151  29.039  1.00  0.00    -0.034 C 
ATOM     32  C   UNL A   1      37.376  34.144  33.068  1.00  0.00    -0.036 A 
ATOM     33  N   UNL A   1      39.004  32.614  33.081  1.00  0.00    -0.354 N 
ATOM     34  C   UNL A   1      39.457  29.850  29.769  1.00  0.00     0.074 A 
ATOM     35  C   UNL A   1      38.483  30.108  28.731  1.00  0.00    -0.034 C 
ATOM     36  H   UNL A   1      36.965  31.590  28.489  1.00  0.00     0.065 H 
ATOM     37  C   UNL A   1      38.054  34.295  34.213  1.00  0.00    -0.036 A 
ATOM     38  H   UNL A   1      36.557  34.703  32.781  1.00  0.00     0.065 H 
ATOM     39  C   UNL A   1      39.088  33.272  34.284  1.00  0.00     0.049 A 
ATOM     40  H   UNL A   1      39.621  31.894  32.815  1.00  0.00     0.167 HD
ATOM     41  C   UNL A   1      40.396  28.874  29.728  1.00  0.00     0.037 A 
ATOM     42  H   UNL A   1      38.394  29.556  27.864  1.00  0.00     0.065 H 
ATOM     43  H   UNL A   1      37.874  35.018  34.928  1.00  0.00     0.065 H 
ATOM     44  C   UNL A   1      39.879  33.047  35.350  1.00  0.00     0.037 A 
ATOM     45  C   UNL A   1      41.370  28.643  30.765  1.00  0.00     0.049 A 
ATOM     46  C   UNL A   1      40.880  31.929  35.280  1.00  0.00     0.074 A 
ATOM     47  C   UNL A   1      42.415  27.734  30.777  1.00  0.00    -0.036 A 
ATOM     48  N   UNL A   1      41.411  29.312  31.980  1.00  0.00    -0.354 N 
ATOM     49  N   UNL A   1      41.138  31.113  34.288  1.00  0.00    -0.248 NA
ATOM     50  C   UNL A   1      41.692  31.696  36.480  1.00  0.00    -0.034 C 
ATOM     51  C   UNL A   1      43.041  27.803  32.026  1.00  0.00    -0.036 A 
ATOM     52  H   UNL A   1      42.684  27.112  29.999  1.00  0.00     0.065 H 
ATOM     53  C   UNL A   1      42.428  28.798  32.768  1.00  0.00     0.049 A 
ATOM     54  H   UNL A   1      40.806  30.043  32.243  1.00  0.00     0.167 HD
ATOM     55  C   UNL A   1      42.148  30.277  34.739  1.00  0.00     0.074 A 
ATOM     56  C   UNL A   1      42.480  30.708  36.081  1.00  0.00    -0.034 C 
ATOM     57  H   UNL A   1      41.659  32.174  37.394  1.00  0.00     0.065 H 
ATOM     58  H   UNL A   1      43.826  27.211  32.339  1.00  0.00     0.065 H 
ATOM     59  C   UNL A   1      42.741  29.237  34.104  1.00  0.00     0.037 A 
ATOM     60  H   UNL A   1      43.235  30.299  36.653  1.00  0.00     0.065 H 
BRANCH  41  61
ATOM     61  C   UNL A   1      40.424  27.956  28.541  1.00  0.00     0.064 A 
ATOM     62  C   UNL A   1      41.166  28.255  27.391  1.00  0.00     0.173 A 
ATOM     63  C   UNL A   1      39.791  26.704  28.607  1.00  0.00     0.173 A 
ATOM     64  F   UNL A   1      41.785  29.440  27.275  1.00  0.00    -0.203 F 
ATOM     65  C   UNL A   1      41.272  27.337  26.348  1.00  0.00     0.198 A 
ATOM     66  C   UNL A   1      39.921  25.778  27.575  1.00  0.00     0.198 A 
ATOM     67  F   UNL A   1      39.075  26.364  29.689  1.00  0.00    -0.203 F 
ATOM     68  F   UNL A   1      41.973  27.650  25.250  1.00  0.00    -0.200 F 
ATOM     69  C   UNL A   1      40.660  26.096  26.446  1.00  0.00     0.200 A 
ATOM     70  F   UNL A   1      39.342  24.574  27.680  1.00  0.00    -0.200 F 
ATOM     71  F   UNL A   1      40.786  25.203  25.454  1.00  0.00    -0.200 F 
ENDBRANCH  41  61
BRANCH  44  72
ATOM     72  C   UNL A   1      39.717  33.858  36.584  1.00  0.00     0.064 A 
ATOM     73  C   UNL A   1      38.898  33.426  37.636  1.00  0.00     0.173 A 
ATOM     74  C   UNL A   1      40.356  35.100  36.726  1.00  0.00     0.173 A 
ATOM     75  F   UNL A   1      38.252  32.254  37.543  1.00  0.00    -0.203 F 
ATOM     76  C   UNL A   1      38.698  34.218  38.764  1.00  0.00     0.198 A 
ATOM     77  C   UNL A   1      40.188  35.872  37.871  1.00  0.00     0.198 A 
ATOM     78  F   UNL A   1      41.157  35.559  35.753  1.00  0.00    -0.203 F 
ATOM     79  F   UNL A   1      37.858  33.809  39.725  1.00  0.00    -0.200 F 
ATOM     80  C   UNL A   1      39.346  35.438  38.882  1.00  0.00     0.200 A 
ATOM     81  F   UNL A   1      40.833  37.041  37.989  1.00  0.00    -0.200 F 
ATOM     82  F   UNL A   1      39.151  36.201  39.967  1.00  0.00    -0.200 F 
ENDBRANCH  44  72
BRANCH  59  83
ATOM     83  C   UNL A   1      43.811  28.502  34.854  1.00  0.00     0.064 A 
ATOM     84  C   UNL A   1      43.519  27.361  35.616  1.00  0.00     0.173 A 
ATOM     85  C   UNL A   1      45.149  28.921  34.783  1.00  0.00     0.173 A 
ATOM     86  F   UNL A   1      42.252  26.933  35.731  1.00  0.00    -0.203 F 
ATOM     87  C   UNL A   1      44.522  26.680  36.300  1.00  0.00     0.198 A 
ATOM     88  C   UNL A   1      46.154  28.217  35.440  1.00  0.00     0.198 A 
ATOM     89  F   UNL A   1      45.482  30.003  34.065  1.00  0.00    -0.203 F 
ATOM     90  F   UNL A   1      44.211  25.624  37.063  1.00  0.00    -0.200 F 
ATOM     91  C   UNL A   1      45.840  27.103  36.203  1.00  0.00     0.200 A 
ATOM     92  F   UNL A   1      47.428  28.618  35.333  1.00  0.00    -0.200 F 
ATOM     93  F   UNL A   1      46.806  26.440  36.852  1.00  0.00    -0.200 F 
ENDBRANCH  59  83
ENDBRANCH  24  27
ENDBRANCH  15  17
ENDBRANCH  10  13
ENDBRANCH   7  10
ENDBRANCH   4   7
ENDBRANCH   1   4
BRANCH   1  94
ATOM     94  C   UNL A   1      31.762  28.647  27.427  1.00  0.00    -0.036 C 
ATOM     95  H   UNL A   1      30.728  28.657  27.149  1.00  0.00     0.028 H 
ATOM     96  H   UNL A   1      31.914  28.647  28.485  1.00  0.00     0.028 H 
BRANCH  94  97
ATOM     97  C   UNL A   1      32.382  27.358  26.903  1.00  0.00     0.018 C 
ATOM     98  H   UNL A   1      33.317  27.197  27.397  1.00  0.00     0.049 H 
ATOM     99  H   UNL A   1      32.515  27.461  25.846  1.00  0.00     0.049 H 
BRANCH  97 100
ATOM    100  N   UNL A   1      31.528  26.210  27.135  1.00  0.00    -0.352 N 
ATOM    101  C   UNL A   1      30.896  25.419  26.210  1.00  0.00     0.255 C 
ATOM    102  H   UNL A   1      31.383  25.967  28.077  1.00  0.00     0.163 HD
ATOM    103  O   UNL A   1      30.126  24.534  26.576  1.00  0.00    -0.269 OA
BRANCH 101 104
ATOM    104  C   UNL A   1      31.064  25.692  24.769  1.00  0.00     0.082 A 
ATOM    105  C   UNL A   1      30.595  26.928  24.304  1.00  0.00    -0.038 A 
ATOM    106  C   UNL A   1      31.644  24.781  23.884  1.00  0.00     0.128 A 
ATOM    107  C   UNL A   1      30.738  27.287  22.959  1.00  0.00    -0.025 A 
ATOM    108  H   UNL A   1      30.139  27.581  24.961  1.00  0.00     0.064 H 
ATOM    109  C   UNL A   1      31.803  25.126  22.546  1.00  0.00    -0.019 A 
ATOM    110  C   UNL A   1      31.359  26.374  22.092  1.00  0.00    -0.051 A 
ATOM    111  H   UNL A   1      32.248  24.464  21.890  1.00  0.00     0.066 H 
ATOM    112  H   UNL A   1      31.492  26.627  21.101  1.00  0.00     0.063 H 
BRANCH 106 113
ATOM    113  O   UNL A   1      32.066  23.557  24.321  1.00  0.00    -0.507 OA
ATOM    114  H   UNL A   1      31.970  23.324  25.224  1.00  0.00     0.293 HD
ENDBRANCH 106 113
BRANCH 107 115
ATOM    115  C   UNL A   1      30.262  28.570  22.408  1.00  0.00    -0.054 C 
ATOM    116  C   UNL A   1      29.362  29.385  22.981  1.00  0.00    -0.054 C 
ATOM    117  H   UNL A   1      30.658  28.867  21.502  1.00  0.00     0.063 H 
ATOM    118  H   UNL A   1      28.973  29.120  23.899  1.00  0.00     0.063 H 
BRANCH 116 119
ATOM    119  C   UNL A   1      28.905  30.638  22.363  1.00  0.00    -0.018 A 
ATOM    120  C   UNL A   1      28.303  30.653  21.097  1.00  0.00    -0.013 A 
ATOM    121  C   UNL A   1      29.010  31.832  23.089  1.00  0.00    -0.013 A 
ATOM    122  C   UNL A   1      27.838  31.855  20.567  1.00  0.00     0.119 A 
ATOM    123  H   UNL A   1      28.206  29.778  20.560  1.00  0.00     0.067 H 
ATOM    124  C   UNL A   1      28.540  33.022  22.538  1.00  0.00     0.119 A 
ATOM    125  H   UNL A   1      29.435  31.830  24.030  1.00  0.00     0.067 H 
ATOM    126  C   UNL A   1      27.956  33.042  21.277  1.00  0.00     0.022 A 
ATOM    127  H   UNL A   1      27.614  33.928  20.874  1.00  0.00     0.070 H 
BRANCH 122 128
ATOM    128  O   UNL A   1      27.243  31.903  19.339  1.00  0.00    -0.508 OA
ATOM    129  H   UNL A   1      27.619  32.422  18.656  1.00  0.00     0.293 HD
ENDBRANCH 122 128
BRANCH 124 130
ATOM    130  O   UNL A   1      28.631  34.202  23.216  1.00  0.00    -0.508 OA
ATOM    131  H   UNL A   1      28.173  34.957  22.905  1.00  0.00     0.293 HD
ENDBRANCH 124 130
ENDBRANCH 116 119
ENDBRANCH 107 115
ENDBRANCH 101 104
ENDBRANCH  97 100
ENDBRANCH  94  97
ENDBRANCH   1  94
TORSDOF 18
ENDMDL
MODEL 2
REMARK VINA RESULT:     -12.9      6.192     11.996
REMARK SMILES O=C(NCCCCCCNC(=O)c1cc(/C=C/c2cc(O)cc(O)c2)ccc1O)c1ccc(-c2c3nc(c(-c4c(F)c(F)c(F)c(F)c4F)c4ccc([nH]4)c(-c4c(F)c(F)c(F)c(F)c4F)c4nc(c(-c5c(F)c(F)c(F)c(F)c5F)c5ccc2[nH]5)C=C4)C=C3)cc1
REMARK SMILES IDX 7 1 6 4 5 7 4 10 3 13 1 14 2 15 30 17 31 18 92 19 32 20
REMARK SMILES IDX 91 22 33 24 34 27 35 28 85 29 36 30 90 31 84 32 86 33 37 34
REMARK SMILES IDX 89 35 83 37 82 39 38 41 70 44 50 45 69 46 51 47 54 48 68 49
REMARK SMILES IDX 87 50 52 51 53 53 67 55 88 56 55 59 39 61 40 62 48 63 41 64
REMARK SMILES IDX 42 65 46 66 49 67 43 68 44 69 47 70 45 71 71 72 72 73 80 74
REMARK SMILES IDX 73 75 74 76 78 77 81 78 75 79 76 80 79 81 77 82 56 83 57 84
REMARK SMILES IDX 65 85 58 86 59 87 63 88 66 89 60 90 61 91 64 92 62 93 8 94
REMARK SMILES IDX 9 97 10 100 11 101 12 103 13 104 14 105 28 106 15 107 27 109
REMARK SMILES IDX 26 110 29 113 16 115 17 116 18 119 19 120 25 121 20 122
REMARK SMILES IDX 23 124 22 126 21 128 24 130
REMARK H PARENT 7 2 7 3 6 5 6 6 5 8 5 9 4 11 4 12 3 16 31 21 92 23 32 25 91 26
REMARK H PARENT 90 36 84 38 86 40 89 42 83 43 51 52 54 54 87 57 52 58 88 60
REMARK H PARENT 8 95 8 96 9 98 9 99 10 102 14 108 27 111 26 112 29 114 16 117
REMARK H PARENT 17 118 19 123 25 125 22 127 21 129 24 131
REMARK Flexibility Score: inf
ROOT
ATOM      1  C   UNL A   1      37.019  22.078  24.317  1.00  0.00    -0.052 C 
ATOM      2  H   UNL A   1      36.223  22.241  23.621  1.00  0.00     0.027 H 
ATOM      3  H   UNL A   1      37.983  22.011  23.858  1.00  0.00     0.027 H 
ENDROOT
BRANCH   1   4
ATOM      4  C   UNL A   1      36.781  20.727  24.999  1.00  0.00    -0.052 C 
ATOM      5  H   UNL A   1      36.539  20.911  26.025  1.00  0.00     0.027 H 
ATOM      6  H   UNL A   1      35.991  20.253  24.454  1.00  0.00     0.027 H 
BRANCH   4   7
ATOM      7  C   UNL A   1      37.965  19.763  24.958  1.00  0.00    -0.036 C 
ATOM      8  H   UNL A   1      37.645  18.822  25.355  1.00  0.00     0.028 H 
ATOM      9  H   UNL A   1      38.272  19.700  23.934  1.00  0.00     0.028 H 
BRANCH   7  10
ATOM     10  C   UNL A   1      39.180  20.223  25.748  1.00  0.00     0.018 C 
ATOM     11  H   UNL A   1      39.621  21.058  25.245  1.00  0.00     0.049 H 
ATOM     12  H   UNL A   1      38.851  20.487  26.730  1.00  0.00     0.049 H 
BRANCH  10  13
ATOM     13  N   UNL A   1      40.180  19.177  25.880  1.00  0.00    -0.352 N 
ATOM     14  O   UNL A   1      42.275  18.336  26.000  1.00  0.00    -0.269 OA
ATOM     15  C   UNL A   1      41.529  19.307  26.088  1.00  0.00     0.251 C 
ATOM     16  H   UNL A   1      39.844  18.253  25.813  1.00  0.00     0.163 HD
BRANCH  15  17
ATOM     17  C   UNL A   1      42.083  20.638  26.411  1.00  0.00     0.039 A 
ATOM     18  C   UNL A   1      42.395  21.537  25.386  1.00  0.00    -0.049 A 
ATOM     19  C   UNL A   1      42.274  20.994  27.747  1.00  0.00    -0.049 A 
ATOM     20  C   UNL A   1      42.994  22.751  25.691  1.00  0.00    -0.053 A 
ATOM     21  H   UNL A   1      42.180  21.297  24.405  1.00  0.00     0.063 H 
ATOM     22  C   UNL A   1      42.793  22.254  28.058  1.00  0.00    -0.053 A 
ATOM     23  H   UNL A   1      42.033  20.333  28.501  1.00  0.00     0.063 H 
ATOM     24  C   UNL A   1      43.157  23.140  27.031  1.00  0.00    -0.014 A 
ATOM     25  H   UNL A   1      43.320  23.369  24.932  1.00  0.00     0.063 H 
ATOM     26  H   UNL A   1      42.910  22.534  29.044  1.00  0.00     0.063 H 
BRANCH  24  27
ATOM     27  C   UNL A   1      43.563  24.533  27.330  1.00  0.00     0.031 A 
ATOM     28  C   UNL A   1      42.584  25.545  27.846  1.00  0.00     0.074 A 
ATOM     29  C   UNL A   1      44.848  24.872  27.105  1.00  0.00     0.049 A 
ATOM     30  N   UNL A   1      42.782  26.811  28.118  1.00  0.00    -0.248 NA
ATOM     31  C   UNL A   1      41.207  25.088  28.084  1.00  0.00    -0.034 C 
ATOM     32  C   UNL A   1      45.876  23.966  26.582  1.00  0.00    -0.036 A 
ATOM     33  N   UNL A   1      45.513  26.057  27.279  1.00  0.00    -0.354 N 
ATOM     34  C   UNL A   1      41.555  27.306  28.539  1.00  0.00     0.074 A 
ATOM     35  C   UNL A   1      40.613  26.209  28.476  1.00  0.00    -0.034 C 
ATOM     36  H   UNL A   1      40.807  24.143  27.975  1.00  0.00     0.065 H 
ATOM     37  C   UNL A   1      47.042  24.619  26.501  1.00  0.00    -0.036 A 
ATOM     38  H   UNL A   1      45.724  22.979  26.318  1.00  0.00     0.065 H 
ATOM     39  C   UNL A   1      46.830  26.007  26.891  1.00  0.00     0.049 A 
ATOM     40  H   UNL A   1      45.089  26.866  27.648  1.00  0.00     0.167 HD
ATOM     41  C   UNL A   1      41.256  28.565  28.937  1.00  0.00     0.037 A 
ATOM     42  H   UNL A   1      39.610  26.288  28.708  1.00  0.00     0.065 H 
ATOM     43  H   UNL A   1      47.943  24.208  26.210  1.00  0.00     0.065 H 
ATOM     44  C   UNL A   1      47.756  26.980  26.811  1.00  0.00     0.037 A 
ATOM     45  C   UNL A   1      42.213  29.641  29.009  1.00  0.00     0.049 A 
ATOM     46  C   UNL A   1      47.373  28.372  27.223  1.00  0.00     0.074 A 
ATOM     47  C   UNL A   1      42.025  30.930  29.479  1.00  0.00    -0.036 A 
ATOM     48  N   UNL A   1      43.532  29.561  28.585  1.00  0.00    -0.354 N 
ATOM     49  N   UNL A   1      46.232  28.809  27.697  1.00  0.00    -0.248 NA
ATOM     50  C   UNL A   1      48.402  29.409  27.081  1.00  0.00    -0.034 C 
ATOM     51  C   UNL A   1      43.206  31.648  29.272  1.00  0.00    -0.036 A 
ATOM     52  H   UNL A   1      41.160  31.297  29.907  1.00  0.00     0.065 H 
ATOM     53  C   UNL A   1      44.151  30.792  28.733  1.00  0.00     0.049 A 
ATOM     54  H   UNL A   1      43.962  28.750  28.231  1.00  0.00     0.167 HD
ATOM     55  C   UNL A   1      46.408  30.166  27.919  1.00  0.00     0.074 A 
ATOM     56  C   UNL A   1      47.777  30.474  27.562  1.00  0.00    -0.034 C 
ATOM     57  H   UNL A   1      49.361  29.331  26.706  1.00  0.00     0.065 H 
ATOM     58  H   UNL A   1      43.349  32.648  29.486  1.00  0.00     0.065 H 
ATOM     59  C   UNL A   1      45.514  31.080  28.368  1.00  0.00     0.037 A 
ATOM     60  H   UNL A   1      48.211  31.404  27.669  1.00  0.00     0.065 H 
BRANCH  41  61
ATOM     61  C   UNL A   1      39.837  28.881  29.311  1.00  0.00     0.064 A 
ATOM     62  C   UNL A   1      38.897  29.305  28.362  1.00  0.00     0.173 A 
ATOM     63  C   UNL A   1      39.387  28.644  30.621  1.00  0.00     0.173 A 
ATOM     64  F   UNL A   1      39.276  29.552  27.099  1.00  0.00    -0.203 F 
ATOM     65  C   UNL A   1      37.559  29.481  28.709  1.00  0.00     0.198 A 
ATOM     66  C   UNL A   1      38.045  28.796  30.957  1.00  0.00     0.198 A 
ATOM     67  F   UNL A   1      40.245  28.230  31.566  1.00  0.00    -0.203 F 
ATOM     68  F   UNL A   1      36.680  29.902  27.790  1.00  0.00    -0.200 F 
ATOM     69  C   UNL A   1      37.132  29.215  30.002  1.00  0.00     0.200 A 
ATOM     70  F   UNL A   1      37.632  28.522  32.203  1.00  0.00    -0.200 F 
ATOM     71  F   UNL A   1      35.840  29.359  30.326  1.00  0.00    -0.200 F 
ENDBRANCH  41  61
BRANCH  44  72
ATOM     72  C   UNL A   1      49.108  26.682  26.272  1.00  0.00     0.064 A 
ATOM     73  C   UNL A   1      49.424  26.923  24.928  1.00  0.00     0.173 A 
ATOM     74  C   UNL A   1      50.107  26.122  27.085  1.00  0.00     0.173 A 
ATOM     75  F   UNL A   1      48.500  27.443  24.106  1.00  0.00    -0.203 F 
ATOM     76  C   UNL A   1      50.673  26.584  24.411  1.00  0.00     0.198 A 
ATOM     77  C   UNL A   1      51.366  25.820  26.577  1.00  0.00     0.198 A 
ATOM     78  F   UNL A   1      49.860  25.876  28.380  1.00  0.00    -0.203 F 
ATOM     79  F   UNL A   1      50.925  26.764  23.108  1.00  0.00    -0.200 F 
ATOM     80  C   UNL A   1      51.643  26.037  25.236  1.00  0.00     0.200 A 
ATOM     81  F   UNL A   1      52.307  25.311  27.383  1.00  0.00    -0.200 F 
ATOM     82  F   UNL A   1      52.843  25.708  24.737  1.00  0.00    -0.200 F 
ENDBRANCH  44  72
BRANCH  59  83
ATOM     83  C   UNL A   1      45.994  32.494  28.502  1.00  0.00     0.064 A 
ATOM     84  C   UNL A   1      45.841  33.421  27.460  1.00  0.00     0.173 A 
ATOM     85  C   UNL A   1      46.583  32.938  29.696  1.00  0.00     0.173 A 
ATOM     86  F   UNL A   1      45.303  33.039  26.291  1.00  0.00    -0.203 F 
ATOM     87  C   UNL A   1      46.281  34.734  27.599  1.00  0.00     0.198 A 
ATOM     88  C   UNL A   1      46.990  34.261  29.844  1.00  0.00     0.198 A 
ATOM     89  F   UNL A   1      46.749  32.092  30.724  1.00  0.00    -0.203 F 
ATOM     90  F   UNL A   1      46.170  35.588  26.573  1.00  0.00    -0.200 F 
ATOM     91  C   UNL A   1      46.846  35.155  28.795  1.00  0.00     0.200 A 
ATOM     92  F   UNL A   1      47.522  34.669  31.004  1.00  0.00    -0.200 F 
ATOM     93  F   UNL A   1      47.259  36.422  28.931  1.00  0.00    -0.200 F 
ENDBRANCH  59  83
ENDBRANCH  24  27
ENDBRANCH  15  17
ENDBRANCH  10  13
ENDBRANCH   7  10
ENDBRANCH   4   7
ENDBRANCH   1   4
BRANCH   1  94
ATOM     94  C   UNL A   1      37.082  23.285  25.258  1.00  0.00    -0.036 C 
ATOM     95  H   UNL A   1      37.859  23.936  24.910  1.00  0.00     0.028 H 
ATOM     96  H   UNL A   1      37.266  22.894  26.236  1.00  0.00     0.028 H 
BRANCH  94  97
ATOM     97  C   UNL A   1      35.793  24.093  25.351  1.00  0.00     0.018 C 
ATOM     98  H   UNL A   1      35.960  24.939  25.984  1.00  0.00     0.049 H 
ATOM     99  H   UNL A   1      35.032  23.455  25.750  1.00  0.00     0.049 H 
BRANCH  97 100
ATOM    100  N   UNL A   1      35.349  24.561  24.053  1.00  0.00    -0.352 N 
ATOM    101  C   UNL A   1      34.137  24.359  23.445  1.00  0.00     0.255 C 
ATOM    102  H   UNL A   1      36.002  25.092  23.543  1.00  0.00     0.163 HD
ATOM    103  O   UNL A   1      33.950  24.748  22.295  1.00  0.00    -0.269 OA
BRANCH 101 104
ATOM    104  C   UNL A   1      33.085  23.590  24.137  1.00  0.00     0.082 A 
ATOM    105  C   UNL A   1      33.333  22.225  24.338  1.00  0.00    -0.038 A 
ATOM    106  C   UNL A   1      31.885  24.158  24.571  1.00  0.00     0.128 A 
ATOM    107  C   UNL A   1      32.406  21.421  25.011  1.00  0.00    -0.025 A 
ATOM    108  H   UNL A   1      34.208  21.808  23.985  1.00  0.00     0.064 H 
ATOM    109  C   UNL A   1      30.957  23.376  25.251  1.00  0.00    -0.019 A 
ATOM    110  C   UNL A   1      31.222  22.019  25.474  1.00  0.00    -0.051 A 
ATOM    111  H   UNL A   1      30.077  23.794  25.590  1.00  0.00     0.066 H 
ATOM    112  H   UNL A   1      30.535  21.448  25.990  1.00  0.00     0.063 H 
BRANCH 106 113
ATOM    113  O   UNL A   1      31.617  25.479  24.343  1.00  0.00    -0.507 OA
ATOM    114  H   UNL A   1      30.738  25.756  24.176  1.00  0.00     0.293 HD
ENDBRANCH 106 113
BRANCH 107 115
ATOM    115  C   UNL A   1      32.607  19.980  25.250  1.00  0.00    -0.054 C 
ATOM    116  C   UNL A   1      33.386  19.163  24.523  1.00  0.00    -0.054 C 
ATOM    117  H   UNL A   1      32.103  19.562  26.048  1.00  0.00     0.063 H 
ATOM    118  H   UNL A   1      33.919  19.565  23.736  1.00  0.00     0.063 H 
BRANCH 116 119
ATOM    119  C   UNL A   1      33.519  17.725  24.795  1.00  0.00    -0.018 A 
ATOM    120  C   UNL A   1      34.774  17.105  24.858  1.00  0.00    -0.013 A 
ATOM    121  C   UNL A   1      32.366  16.976  25.068  1.00  0.00    -0.013 A 
ATOM    122  C   UNL A   1      34.861  15.749  25.168  1.00  0.00     0.119 A 
ATOM    123  H   UNL A   1      35.631  17.649  24.674  1.00  0.00     0.067 H 
ATOM    124  C   UNL A   1      32.477  15.622  25.374  1.00  0.00     0.119 A 
ATOM    125  H   UNL A   1      31.439  17.427  25.043  1.00  0.00     0.067 H 
ATOM    126  C   UNL A   1      33.719  15.001  25.422  1.00  0.00     0.022 A 
ATOM    127  H   UNL A   1      33.792  13.996  25.645  1.00  0.00     0.070 H 
BRANCH 122 128
ATOM    128  O   UNL A   1      36.068  15.116  25.241  1.00  0.00    -0.508 OA
ATOM    129  H   UNL A   1      36.103  14.184  25.335  1.00  0.00     0.293 HD
ENDBRANCH 122 128
BRANCH 124 130
ATOM    130  O   UNL A   1      31.375  14.863  25.640  1.00  0.00    -0.508 OA
ATOM    131  H   UNL A   1      30.530  15.148  25.353  1.00  0.00     0.293 HD
ENDBRANCH 124 130
ENDBRANCH 116 119
ENDBRANCH 107 115
ENDBRANCH 101 104
ENDBRANCH  97 100
ENDBRANCH  94  97
ENDBRANCH   1  94
TORSDOF 18
ENDMDL
MODEL 3
REMARK VINA RESULT:     -12.9      5.637     10.771
REMARK SMILES O=C(NCCCCCCNC(=O)c1cc(/C=C/c2cc(O)cc(O)c2)ccc1O)c1ccc(-c2c3nc(c(-c4c(F)c(F)c(F)c(F)c4F)c4ccc([nH]4)c(-c4c(F)c(F)c(F)c(F)c4F)c4nc(c(-c5c(F)c(F)c(F)c(F)c5F)c5ccc2[nH]5)C=C4)C=C3)cc1
REMARK SMILES IDX 7 1 6 4 5 7 4 10 3 13 1 14 2 15 30 17 31 18 92 19 32 20
REMARK SMILES IDX 91 22 33 24 34 27 35 28 85 29 36 30 90 31 84 32 86 33 37 34
REMARK SMILES IDX 89 35 83 37 82 39 38 41 70 44 50 45 69 46 51 47 54 48 68 49
REMARK SMILES IDX 87 50 52 51 53 53 67 55 88 56 55 59 39 61 40 62 48 63 41 64
REMARK SMILES IDX 42 65 46 66 49 67 43 68 44 69 47 70 45 71 71 72 72 73 80 74
REMARK SMILES IDX 73 75 74 76 78 77 81 78 75 79 76 80 79 81 77 82 56 83 57 84
REMARK SMILES IDX 65 85 58 86 59 87 63 88 66 89 60 90 61 91 64 92 62 93 8 94
REMARK SMILES IDX 9 97 10 100 11 101 12 103 13 104 14 105 28 106 15 107 27 109
REMARK SMILES IDX 26 110 29 113 16 115 17 116 18 119 19 120 25 121 20 122
REMARK SMILES IDX 23 124 22 126 21 128 24 130
REMARK H PARENT 7 2 7 3 6 5 6 6 5 8 5 9 4 11 4 12 3 16 31 21 92 23 32 25 91 26
REMARK H PARENT 90 36 84 38 86 40 89 42 83 43 51 52 54 54 87 57 52 58 88 60
REMARK H PARENT 8 95 8 96 9 98 9 99 10 102 14 108 27 111 26 112 29 114 16 117
REMARK H PARENT 17 118 19 123 25 125 22 127 21 129 24 131
REMARK Flexibility Score: inf
ROOT
ATOM      1  C   UNL A   1      36.717  21.980  24.346  1.00  0.00    -0.052 C 
ATOM      2  H   UNL A   1      35.719  22.104  23.981  1.00  0.00     0.027 H 
ATOM      3  H   UNL A   1      37.458  21.976  23.574  1.00  0.00     0.027 H 
ENDROOT
BRANCH   1   4
ATOM      4  C   UNL A   1      36.805  20.610  25.025  1.00  0.00    -0.052 C 
ATOM      5  H   UNL A   1      36.667  20.751  26.076  1.00  0.00     0.027 H 
ATOM      6  H   UNL A   1      36.048  20.003  24.573  1.00  0.00     0.027 H 
BRANCH   4   7
ATOM      7  C   UNL A   1      38.125  19.868  24.817  1.00  0.00    -0.036 C 
ATOM      8  H   UNL A   1      37.935  18.818  24.896  1.00  0.00     0.028 H 
ATOM      9  H   UNL A   1      38.487  20.155  23.851  1.00  0.00     0.028 H 
BRANCH   7  10
ATOM     10  C   UNL A   1      39.214  20.231  25.814  1.00  0.00     0.018 C 
ATOM     11  H   UNL A   1      39.688  21.135  25.493  1.00  0.00     0.049 H 
ATOM     12  H   UNL A   1      38.755  20.348  26.772  1.00  0.00     0.049 H 
BRANCH  10  13
ATOM     13  N   UNL A   1      40.223  19.191  25.928  1.00  0.00    -0.352 N 
ATOM     14  O   UNL A   1      42.326  18.364  26.019  1.00  0.00    -0.269 OA
ATOM     15  C   UNL A   1      41.574  19.329  26.121  1.00  0.00     0.251 C 
ATOM     16  H   UNL A   1      39.894  18.265  25.860  1.00  0.00     0.163 HD
BRANCH  15  17
ATOM     17  C   UNL A   1      42.122  20.662  26.445  1.00  0.00     0.039 A 
ATOM     18  C   UNL A   1      42.450  21.556  25.420  1.00  0.00    -0.049 A 
ATOM     19  C   UNL A   1      42.290  21.027  27.782  1.00  0.00    -0.049 A 
ATOM     20  C   UNL A   1      43.044  22.772  25.728  1.00  0.00    -0.053 A 
ATOM     21  H   UNL A   1      42.251  21.310  24.437  1.00  0.00     0.063 H 
ATOM     22  C   UNL A   1      42.804  22.289  28.093  1.00  0.00    -0.053 A 
ATOM     23  H   UNL A   1      42.038  20.371  28.536  1.00  0.00     0.063 H 
ATOM     24  C   UNL A   1      43.184  23.169  27.067  1.00  0.00    -0.014 A 
ATOM     25  H   UNL A   1      43.381  23.385  24.970  1.00  0.00     0.063 H 
ATOM     26  H   UNL A   1      42.905  22.575  29.080  1.00  0.00     0.063 H 
BRANCH  24  27
ATOM     27  C   UNL A   1      43.585  24.564  27.364  1.00  0.00     0.031 A 
ATOM     28  C   UNL A   1      42.603  25.572  27.883  1.00  0.00     0.074 A 
ATOM     29  C   UNL A   1      44.868  24.909  27.135  1.00  0.00     0.049 A 
ATOM     30  N   UNL A   1      42.795  26.839  28.154  1.00  0.00    -0.248 NA
ATOM     31  C   UNL A   1      41.229  25.109  28.126  1.00  0.00    -0.034 C 
ATOM     32  C   UNL A   1      45.898  24.008  26.609  1.00  0.00    -0.036 A 
ATOM     33  N   UNL A   1      45.528  26.098  27.307  1.00  0.00    -0.354 N 
ATOM     34  C   UNL A   1      41.568  27.328  28.578  1.00  0.00     0.074 A 
ATOM     35  C   UNL A   1      40.631  26.227  28.520  1.00  0.00    -0.034 C 
ATOM     36  H   UNL A   1      40.833  24.162  28.018  1.00  0.00     0.065 H 
ATOM     37  C   UNL A   1      47.061  24.666  26.524  1.00  0.00    -0.036 A 
ATOM     38  H   UNL A   1      45.750  23.020  26.346  1.00  0.00     0.065 H 
ATOM     39  C   UNL A   1      46.844  26.053  26.914  1.00  0.00     0.049 A 
ATOM     40  H   UNL A   1      45.101  26.905  27.676  1.00  0.00     0.167 HD
ATOM     41  C   UNL A   1      41.264  28.586  28.977  1.00  0.00     0.037 A 
ATOM     42  H   UNL A   1      39.628  26.301  28.754  1.00  0.00     0.065 H 
ATOM     43  H   UNL A   1      47.963  24.259  26.230  1.00  0.00     0.065 H 
ATOM     44  C   UNL A   1      47.765  27.030  26.831  1.00  0.00     0.037 A 
ATOM     45  C   UNL A   1      42.216  29.667  29.045  1.00  0.00     0.049 A 
ATOM     46  C   UNL A   1      47.376  28.421  27.244  1.00  0.00     0.074 A 
ATOM     47  C   UNL A   1      42.024  30.955  29.515  1.00  0.00    -0.036 A 
ATOM     48  N   UNL A   1      43.534  29.592  28.617  1.00  0.00    -0.354 N 
ATOM     49  N   UNL A   1      46.235  28.853  27.721  1.00  0.00    -0.248 NA
ATOM     50  C   UNL A   1      48.401  29.463  27.098  1.00  0.00    -0.034 C 
ATOM     51  C   UNL A   1      43.201  31.679  29.305  1.00  0.00    -0.036 A 
ATOM     52  H   UNL A   1      41.159  31.318  29.946  1.00  0.00     0.065 H 
ATOM     53  C   UNL A   1      44.148  30.826  28.763  1.00  0.00     0.049 A 
ATOM     54  H   UNL A   1      43.968  28.783  28.262  1.00  0.00     0.167 HD
ATOM     55  C   UNL A   1      46.406  30.210  27.942  1.00  0.00     0.074 A 
ATOM     56  C   UNL A   1      47.772  30.524  27.580  1.00  0.00    -0.034 C 
ATOM     57  H   UNL A   1      49.358  29.388  26.719  1.00  0.00     0.065 H 
ATOM     58  H   UNL A   1      43.340  32.679  29.518  1.00  0.00     0.065 H 
ATOM     59  C   UNL A   1      45.509  31.120  28.393  1.00  0.00     0.037 A 
ATOM     60  H   UNL A   1      48.202  31.457  27.686  1.00  0.00     0.065 H 
BRANCH  41  61
ATOM     61  C   UNL A   1      39.845  28.896  29.356  1.00  0.00     0.064 A 
ATOM     62  C   UNL A   1      38.899  29.311  28.409  1.00  0.00     0.173 A 
ATOM     63  C   UNL A   1      39.401  28.661  30.668  1.00  0.00     0.173 A 
ATOM     64  F   UNL A   1      39.272  29.555  27.144  1.00  0.00    -0.203 F 
ATOM     65  C   UNL A   1      37.562  29.481  28.761  1.00  0.00     0.198 A 
ATOM     66  C   UNL A   1      38.060  28.806  31.009  1.00  0.00     0.198 A 
ATOM     67  F   UNL A   1      40.265  28.255  31.611  1.00  0.00    -0.203 F 
ATOM     68  F   UNL A   1      36.676  29.894  27.843  1.00  0.00    -0.200 F 
ATOM     69  C   UNL A   1      37.141  29.217  30.056  1.00  0.00     0.200 A 
ATOM     70  F   UNL A   1      37.653  28.535  32.257  1.00  0.00    -0.200 F 
ATOM     71  F   UNL A   1      35.849  29.356  30.385  1.00  0.00    -0.200 F 
ENDBRANCH  41  61
BRANCH  44  72
ATOM     72  C   UNL A   1      49.117  26.738  26.288  1.00  0.00     0.064 A 
ATOM     73  C   UNL A   1      49.426  26.976  24.942  1.00  0.00     0.173 A 
ATOM     74  C   UNL A   1      50.122  26.188  27.099  1.00  0.00     0.173 A 
ATOM     75  F   UNL A   1      48.495  27.486  24.121  1.00  0.00    -0.203 F 
ATOM     76  C   UNL A   1      50.674  26.642  24.421  1.00  0.00     0.198 A 
ATOM     77  C   UNL A   1      51.381  25.892  26.587  1.00  0.00     0.198 A 
ATOM     78  F   UNL A   1      49.882  25.946  28.396  1.00  0.00    -0.203 F 
ATOM     79  F   UNL A   1      50.920  26.819  23.116  1.00  0.00    -0.200 F 
ATOM     80  C   UNL A   1      51.651  26.104  25.245  1.00  0.00     0.200 A 
ATOM     81  F   UNL A   1      52.329  25.392  27.392  1.00  0.00    -0.200 F 
ATOM     82  F   UNL A   1      52.851  25.781  24.742  1.00  0.00    -0.200 F 
ENDBRANCH  44  72
BRANCH  59  83
ATOM     83  C   UNL A   1      45.983  32.537  28.525  1.00  0.00     0.064 A 
ATOM     84  C   UNL A   1      45.822  33.463  27.483  1.00  0.00     0.173 A 
ATOM     85  C   UNL A   1      46.573  32.984  29.717  1.00  0.00     0.173 A 
ATOM     86  F   UNL A   1      45.282  33.078  26.316  1.00  0.00    -0.203 F 
ATOM     87  C   UNL A   1      46.256  34.778  27.621  1.00  0.00     0.198 A 
ATOM     88  C   UNL A   1      46.974  34.309  29.864  1.00  0.00     0.198 A 
ATOM     89  F   UNL A   1      46.746  32.140  30.745  1.00  0.00    -0.203 F 
ATOM     90  F   UNL A   1      46.139  35.630  26.594  1.00  0.00    -0.200 F 
ATOM     91  C   UNL A   1      46.823  35.202  28.814  1.00  0.00     0.200 A 
ATOM     92  F   UNL A   1      47.508  34.721  31.021  1.00  0.00    -0.200 F 
ATOM     93  F   UNL A   1      47.231  36.471  28.949  1.00  0.00    -0.200 F 
ENDBRANCH  59  83
ENDBRANCH  24  27
ENDBRANCH  15  17
ENDBRANCH  10  13
ENDBRANCH   7  10
ENDBRANCH   4   7
ENDBRANCH   1   4
BRANCH   1  94
ATOM     94  C   UNL A   1      37.046  23.179  25.242  1.00  0.00    -0.036 C 
ATOM     95  H   UNL A   1      37.647  23.860  24.676  1.00  0.00     0.028 H 
ATOM     96  H   UNL A   1      37.549  22.783  26.099  1.00  0.00     0.028 H 
BRANCH  94  97
ATOM     97  C   UNL A   1      35.834  23.938  25.767  1.00  0.00     0.018 C 
ATOM     98  H   UNL A   1      35.145  24.090  24.963  1.00  0.00     0.049 H 
ATOM     99  H   UNL A   1      36.175  24.871  26.166  1.00  0.00     0.049 H 
BRANCH  97 100
ATOM    100  N   UNL A   1      35.160  23.219  26.830  1.00  0.00    -0.352 N 
ATOM    101  C   UNL A   1      33.950  22.575  26.787  1.00  0.00     0.255 C 
ATOM    102  H   UNL A   1      35.631  23.189  27.693  1.00  0.00     0.163 HD
ATOM    103  O   UNL A   1      33.472  22.088  27.808  1.00  0.00    -0.269 OA
BRANCH 101 104
ATOM    104  C   UNL A   1      33.174  22.548  25.532  1.00  0.00     0.082 A 
ATOM    105  C   UNL A   1      32.624  23.766  25.107  1.00  0.00    -0.038 A 
ATOM    106  C   UNL A   1      32.967  21.385  24.789  1.00  0.00     0.128 A 
ATOM    107  C   UNL A   1      31.897  23.844  23.913  1.00  0.00    -0.025 A 
ATOM    108  H   UNL A   1      32.756  24.614  25.680  1.00  0.00     0.064 H 
ATOM    109  C   UNL A   1      32.256  21.447  23.594  1.00  0.00    -0.019 A 
ATOM    110  C   UNL A   1      31.732  22.671  23.159  1.00  0.00    -0.051 A 
ATOM    111  H   UNL A   1      32.114  20.594  23.030  1.00  0.00     0.066 H 
ATOM    112  H   UNL A   1      31.217  22.711  22.266  1.00  0.00     0.063 H 
BRANCH 106 113
ATOM    113  O   UNL A   1      33.464  20.186  25.217  1.00  0.00    -0.507 OA
ATOM    114  H   UNL A   1      34.387  20.080  25.340  1.00  0.00     0.293 HD
ENDBRANCH 106 113
BRANCH 107 115
ATOM    115  C   UNL A   1      31.291  25.093  23.414  1.00  0.00    -0.054 C 
ATOM    116  C   UNL A   1      30.403  25.854  24.075  1.00  0.00    -0.054 C 
ATOM    117  H   UNL A   1      31.576  25.410  22.474  1.00  0.00     0.063 H 
ATOM    118  H   UNL A   1      30.124  25.569  25.026  1.00  0.00     0.063 H 
BRANCH 116 119
ATOM    119  C   UNL A   1      29.811  27.073  23.507  1.00  0.00    -0.018 A 
ATOM    120  C   UNL A   1      30.589  28.011  22.815  1.00  0.00    -0.013 A 
ATOM    121  C   UNL A   1      28.425  27.263  23.600  1.00  0.00    -0.013 A 
ATOM    122  C   UNL A   1      29.982  29.130  22.248  1.00  0.00     0.119 A 
ATOM    123  H   UNL A   1      31.608  27.874  22.726  1.00  0.00     0.067 H 
ATOM    124  C   UNL A   1      27.841  28.390  23.027  1.00  0.00     0.119 A 
ATOM    125  H   UNL A   1      27.840  26.569  24.091  1.00  0.00     0.067 H 
ATOM    126  C   UNL A   1      28.612  29.328  22.354  1.00  0.00     0.022 A 
ATOM    127  H   UNL A   1      28.171  30.163  21.936  1.00  0.00     0.070 H 
BRANCH 122 128
ATOM    128  O   UNL A   1      30.711  30.060  21.564  1.00  0.00    -0.508 OA
ATOM    129  H   UNL A   1      30.356  30.459  20.794  1.00  0.00     0.293 HD
ENDBRANCH 122 128
BRANCH 124 130
ATOM    130  O   UNL A   1      26.496  28.606  23.104  1.00  0.00    -0.508 OA
ATOM    131  H   UNL A   1      26.003  28.771  22.324  1.00  0.00     0.293 HD
ENDBRANCH 124 130
ENDBRANCH 116 119
ENDBRANCH 107 115
ENDBRANCH 101 104
ENDBRANCH  97 100
ENDBRANCH  94  97
ENDBRANCH   1  94
TORSDOF 18
ENDMDL
MODEL 4
REMARK VINA RESULT:     -12.9      1.978      4.784
REMARK SMILES O=C(NCCCCCCNC(=O)c1cc(/C=C/c2cc(O)cc(O)c2)ccc1O)c1ccc(-c2c3nc(c(-c4c(F)c(F)c(F)c(F)c4F)c4ccc([nH]4)c(-c4c(F)c(F)c(F)c(F)c4F)c4nc(c(-c5c(F)c(F)c(F)c(F)c5F)c5ccc2[nH]5)C=C4)C=C3)cc1
REMARK SMILES IDX 7 1 6 4 5 7 4 10 3 13 1 14 2 15 30 17 31 18 92 19 32 20
REMARK SMILES IDX 91 22 33 24 34 27 35 28 85 29 36 30 90 31 84 32 86 33 37 34
REMARK SMILES IDX 89 35 83 37 82 39 38 41 70 44 50 45 69 46 51 47 54 48 68 49
REMARK SMILES IDX 87 50 52 51 53 53 67 55 88 56 55 59 39 61 40 62 48 63 41 64
REMARK SMILES IDX 42 65 46 66 49 67 43 68 44 69 47 70 45 71 71 72 72 73 80 74
REMARK SMILES IDX 73 75 74 76 78 77 81 78 75 79 76 80 79 81 77 82 56 83 57 84
REMARK SMILES IDX 65 85 58 86 59 87 63 88 66 89 60 90 61 91 64 92 62 93 8 94
REMARK SMILES IDX 9 97 10 100 11 101 12 103 13 104 14 105 28 106 15 107 27 109
REMARK SMILES IDX 26 110 29 113 16 115 17 116 18 119 19 120 25 121 20 122
REMARK SMILES IDX 23 124 22 126 21 128 24 130
REMARK H PARENT 7 2 7 3 6 5 6 6 5 8 5 9 4 11 4 12 3 16 31 21 92 23 32 25 91 26
REMARK H PARENT 90 36 84 38 86 40 89 42 83 43 51 52 54 54 87 57 52 58 88 60
REMARK H PARENT 8 95 8 96 9 98 9 99 10 102 14 108 27 111 26 112 29 114 16 117
REMARK H PARENT 17 118 19 123 25 125 22 127 21 129 24 131
REMARK Flexibility Score: inf
ROOT
ATOM      1  C   UNL A   1      32.796  30.029  26.886  1.00  0.00    -0.052 C 
ATOM      2  H   UNL A   1      32.960  30.505  27.830  1.00  0.00     0.027 H 
ATOM      3  H   UNL A   1      33.620  30.124  26.209  1.00  0.00     0.027 H 
ENDROOT
BRANCH   1   4
ATOM      4  C   UNL A   1      31.609  30.721  26.207  1.00  0.00    -0.052 C 
ATOM      5  H   UNL A   1      31.723  30.612  25.149  1.00  0.00     0.027 H 
ATOM      6  H   UNL A   1      30.729  30.249  26.592  1.00  0.00     0.027 H 
BRANCH   4   7
ATOM      7  C   UNL A   1      31.464  32.210  26.516  1.00  0.00    -0.036 C 
ATOM      8  H   UNL A   1      31.344  32.734  25.591  1.00  0.00     0.028 H 
ATOM      9  H   UNL A   1      30.616  32.306  27.162  1.00  0.00     0.028 H 
BRANCH   7  10
ATOM     10  C   UNL A   1      32.644  32.817  27.257  1.00  0.00     0.018 C 
ATOM     11  H   UNL A   1      32.821  32.250  28.147  1.00  0.00     0.049 H 
ATOM     12  H   UNL A   1      33.490  32.792  26.603  1.00  0.00     0.049 H 
BRANCH  10  13
ATOM     13  N   UNL A   1      32.409  34.203  27.627  1.00  0.00    -0.352 N 
ATOM     14  O   UNL A   1      32.582  36.044  28.928  1.00  0.00    -0.269 OA
ATOM     15  C   UNL A   1      33.011  34.937  28.616  1.00  0.00     0.251 C 
ATOM     16  H   UNL A   1      31.728  34.677  27.096  1.00  0.00     0.163 HD
BRANCH  15  17
ATOM     17  C   UNL A   1      34.185  34.376  29.315  1.00  0.00     0.039 A 
ATOM     18  C   UNL A   1      34.017  33.649  30.498  1.00  0.00    -0.049 A 
ATOM     19  C   UNL A   1      35.459  34.562  28.774  1.00  0.00    -0.049 A 
ATOM     20  C   UNL A   1      35.129  33.199  31.196  1.00  0.00    -0.053 A 
ATOM     21  H   UNL A   1      33.068  33.450  30.852  1.00  0.00     0.063 H 
ATOM     22  C   UNL A   1      36.571  34.030  29.430  1.00  0.00    -0.053 A 
ATOM     23  H   UNL A   1      35.579  35.090  27.896  1.00  0.00     0.063 H 
ATOM     24  C   UNL A   1      36.413  33.345  30.645  1.00  0.00    -0.014 A 
ATOM     25  H   UNL A   1      35.012  32.755  32.120  1.00  0.00     0.063 H 
ATOM     26  H   UNL A   1      37.513  34.140  29.020  1.00  0.00     0.063 H 
BRANCH  24  27
ATOM     27  C   UNL A   1      37.551  32.639  31.281  1.00  0.00     0.031 A 
ATOM     28  C   UNL A   1      38.239  31.489  30.608  1.00  0.00     0.074 A 
ATOM     29  C   UNL A   1      37.942  33.055  32.502  1.00  0.00     0.049 A 
ATOM     30  N   UNL A   1      39.223  30.748  31.054  1.00  0.00    -0.248 NA
ATOM     31  C   UNL A   1      37.765  31.112  29.268  1.00  0.00    -0.034 C 
ATOM     32  C   UNL A   1      37.323  34.152  33.253  1.00  0.00    -0.036 A 
ATOM     33  N   UNL A   1      38.941  32.613  33.329  1.00  0.00    -0.354 N 
ATOM     34  C   UNL A   1      39.472  29.809  30.063  1.00  0.00     0.074 A 
ATOM     35  C   UNL A   1      38.530  30.062  28.995  1.00  0.00    -0.034 C 
ATOM     36  H   UNL A   1      37.029  31.549  28.692  1.00  0.00     0.065 H 
ATOM     37  C   UNL A   1      37.969  34.313  34.415  1.00  0.00    -0.036 A 
ATOM     38  H   UNL A   1      36.517  34.714  32.935  1.00  0.00     0.065 H 
ATOM     39  C   UNL A   1      38.994  33.284  34.527  1.00  0.00     0.049 A 
ATOM     40  H   UNL A   1      39.560  31.887  33.089  1.00  0.00     0.167 HD
ATOM     41  C   UNL A   1      40.406  28.828  30.060  1.00  0.00     0.037 A 
ATOM     42  H   UNL A   1      38.462  29.499  28.132  1.00  0.00     0.065 H 
ATOM     43  H   UNL A   1      37.773  35.045  35.116  1.00  0.00     0.065 H 
ATOM     44  C   UNL A   1      39.752  33.068  35.617  1.00  0.00     0.037 A 
ATOM     45  C   UNL A   1      41.349  28.603  31.127  1.00  0.00     0.049 A 
ATOM     46  C   UNL A   1      40.748  31.943  35.589  1.00  0.00     0.074 A 
ATOM     47  C   UNL A   1      42.387  27.688  31.180  1.00  0.00    -0.036 A 
ATOM     48  N   UNL A   1      41.358  29.286  32.335  1.00  0.00    -0.354 N 
ATOM     49  N   UNL A   1      41.030  31.115  34.614  1.00  0.00    -0.248 NA
ATOM     50  C   UNL A   1      41.525  31.718  36.814  1.00  0.00    -0.034 C 
ATOM     51  C   UNL A   1      42.977  27.767  32.445  1.00  0.00    -0.036 A 
ATOM     52  H   UNL A   1      42.674  27.056  30.416  1.00  0.00     0.065 H 
ATOM     53  C   UNL A   1      42.349  28.775  33.158  1.00  0.00     0.049 A 
ATOM     54  H   UNL A   1      40.751  30.023  32.573  1.00  0.00     0.167 HD
ATOM     55  C   UNL A   1      42.022  30.278  35.103  1.00  0.00     0.074 A 
ATOM     56  C   UNL A   1      42.317  30.722  36.449  1.00  0.00    -0.034 C 
ATOM     57  H   UNL A   1      41.468  32.207  37.722  1.00  0.00     0.065 H 
ATOM     58  H   UNL A   1      43.749  27.175  32.788  1.00  0.00     0.065 H 
ATOM     59  C   UNL A   1      42.626  29.227  34.497  1.00  0.00     0.037 A 
ATOM     60  H   UNL A   1      43.053  30.315  37.048  1.00  0.00     0.065 H 
BRANCH  41  61
ATOM     61  C   UNL A   1      40.463  27.896  28.885  1.00  0.00     0.064 A 
ATOM     62  C   UNL A   1      39.681  26.735  28.823  1.00  0.00     0.173 A 
ATOM     63  C   UNL A   1      41.227  28.234  27.756  1.00  0.00     0.173 A 
ATOM     64  F   UNL A   1      38.938  26.363  29.876  1.00  0.00    -0.203 F 
ATOM     65  C   UNL A   1      39.662  25.945  27.675  1.00  0.00     0.198 A 
ATOM     66  C   UNL A   1      41.186  27.458  26.602  1.00  0.00     0.198 A 
ATOM     67  F   UNL A   1      41.987  29.340  27.761  1.00  0.00    -0.203 F 
ATOM     68  F   UNL A   1      38.919  24.830  27.642  1.00  0.00    -0.200 F 
ATOM     69  C   UNL A   1      40.404  26.313  26.562  1.00  0.00     0.200 A 
ATOM     70  F   UNL A   1      41.891  27.825  25.523  1.00  0.00    -0.200 F 
ATOM     71  F   UNL A   1      40.364  25.567  25.449  1.00  0.00    -0.200 F 
ENDBRANCH  41  61
BRANCH  44  72
ATOM     72  C   UNL A   1      39.560  33.894  36.838  1.00  0.00     0.064 A 
ATOM     73  C   UNL A   1      38.782  33.437  37.909  1.00  0.00     0.173 A 
ATOM     74  C   UNL A   1      40.128  35.173  36.945  1.00  0.00     0.173 A 
ATOM     75  F   UNL A   1      38.203  32.228  37.849  1.00  0.00    -0.203 F 
ATOM     76  C   UNL A   1      38.551  34.239  39.024  1.00  0.00     0.198 A 
ATOM     77  C   UNL A   1      39.930  35.958  38.077  1.00  0.00     0.198 A 
ATOM     78  F   UNL A   1      40.888  35.657  35.951  1.00  0.00    -0.203 F 
ATOM     79  F   UNL A   1      37.749  33.803  40.005  1.00  0.00    -0.200 F 
ATOM     80  C   UNL A   1      39.128  35.497  39.109  1.00  0.00     0.200 A 
ATOM     81  F   UNL A   1      40.508  37.164  38.162  1.00  0.00    -0.200 F 
ATOM     82  F   UNL A   1      38.904  36.270  40.180  1.00  0.00    -0.200 F 
ENDBRANCH  44  72
BRANCH  59  83
ATOM     83  C   UNL A   1      43.670  28.494  35.286  1.00  0.00     0.064 A 
ATOM     84  C   UNL A   1      45.029  28.833  35.193  1.00  0.00     0.173 A 
ATOM     85  C   UNL A   1      43.307  27.466  36.169  1.00  0.00     0.173 A 
ATOM     86  F   UNL A   1      45.428  29.796  34.348  1.00  0.00    -0.203 F 
ATOM     87  C   UNL A   1      45.988  28.153  35.938  1.00  0.00     0.198 A 
ATOM     88  C   UNL A   1      44.266  26.812  36.937  1.00  0.00     0.198 A 
ATOM     89  F   UNL A   1      42.021  27.106  36.297  1.00  0.00    -0.203 F 
ATOM     90  F   UNL A   1      47.285  28.459  35.794  1.00  0.00    -0.200 F 
ATOM     91  C   UNL A   1      45.605  27.150  36.816  1.00  0.00     0.200 A 
ATOM     92  F   UNL A   1      43.892  25.853  37.796  1.00  0.00    -0.200 F 
ATOM     93  F   UNL A   1      46.528  26.504  37.540  1.00  0.00    -0.200 F 
ENDBRANCH  59  83
ENDBRANCH  24  27
ENDBRANCH  15  17
ENDBRANCH  10  13
ENDBRANCH   7  10
ENDBRANCH   4   7
ENDBRANCH   1   4
BRANCH   1  94
ATOM     94  C   UNL A   1      32.625  28.527  27.135  1.00  0.00    -0.036 C 
ATOM     95  H   UNL A   1      31.671  28.233  26.747  1.00  0.00     0.028 H 
ATOM     96  H   UNL A   1      32.712  28.387  28.192  1.00  0.00     0.028 H 
BRANCH  94  97
ATOM     97  C   UNL A   1      33.691  27.646  26.494  1.00  0.00     0.018 C 
ATOM     98  H   UNL A   1      33.321  26.644  26.435  1.00  0.00     0.049 H 
ATOM     99  H   UNL A   1      34.572  27.700  27.099  1.00  0.00     0.049 H 
BRANCH  97 100
ATOM    100  N   UNL A   1      34.037  28.095  25.160  1.00  0.00    -0.352 N 
ATOM    101  C   UNL A   1      33.428  27.782  23.972  1.00  0.00     0.255 C 
ATOM    102  H   UNL A   1      34.809  28.703  25.099  1.00  0.00     0.163 HD
ATOM    103  O   UNL A   1      33.905  28.175  22.911  1.00  0.00    -0.269 OA
BRANCH 101 104
ATOM    104  C   UNL A   1      32.252  26.891  23.960  1.00  0.00     0.082 A 
ATOM    105  C   UNL A   1      32.495  25.526  24.168  1.00  0.00    -0.038 A 
ATOM    106  C   UNL A   1      30.951  27.349  23.741  1.00  0.00     0.128 A 
ATOM    107  C   UNL A   1      31.438  24.609  24.203  1.00  0.00    -0.025 A 
ATOM    108  H   UNL A   1      33.463  25.193  24.297  1.00  0.00     0.064 H 
ATOM    109  C   UNL A   1      29.888  26.452  23.782  1.00  0.00    -0.019 A 
ATOM    110  C   UNL A   1      30.133  25.094  24.019  1.00  0.00    -0.051 A 
ATOM    111  H   UNL A   1      28.922  26.787  23.639  1.00  0.00     0.066 H 
ATOM    112  H   UNL A   1      29.338  24.438  24.061  1.00  0.00     0.063 H 
BRANCH 106 113
ATOM    113  O   UNL A   1      30.710  28.672  23.496  1.00  0.00    -0.507 OA
ATOM    114  H   UNL A   1      30.537  29.255  24.208  1.00  0.00     0.293 HD
ENDBRANCH 106 113
BRANCH 107 115
ATOM    115  C   UNL A   1      31.628  23.162  24.414  1.00  0.00    -0.054 C 
ATOM    116  C   UNL A   1      32.229  22.316  23.562  1.00  0.00    -0.054 C 
ATOM    117  H   UNL A   1      31.267  22.765  25.295  1.00  0.00     0.063 H 
ATOM    118  H   UNL A   1      32.620  22.696  22.686  1.00  0.00     0.063 H 
BRANCH 116 119
ATOM    119  C   UNL A   1      32.359  20.875  23.817  1.00  0.00    -0.018 A 
ATOM    120  C   UNL A   1      32.604  20.378  25.105  1.00  0.00    -0.013 A 
ATOM    121  C   UNL A   1      32.160  19.976  22.760  1.00  0.00    -0.013 A 
ATOM    122  C   UNL A   1      32.670  19.003  25.316  1.00  0.00     0.119 A 
ATOM    123  H   UNL A   1      32.736  21.030  25.894  1.00  0.00     0.067 H 
ATOM    124  C   UNL A   1      32.232  18.605  22.994  1.00  0.00     0.119 A 
ATOM    125  H   UNL A   1      31.960  20.330  21.812  1.00  0.00     0.067 H 
ATOM    126  C   UNL A   1      32.490  18.111  24.267  1.00  0.00     0.022 A 
ATOM    127  H   UNL A   1      32.547  17.093  24.431  1.00  0.00     0.070 H 
BRANCH 122 128
ATOM    128  O   UNL A   1      32.903  18.488  26.558  1.00  0.00    -0.508 OA
ATOM    129  H   UNL A   1      32.184  18.242  27.106  1.00  0.00     0.293 HD
ENDBRANCH 122 128
BRANCH 124 130
ATOM    130  O   UNL A   1      32.048  17.704  21.987  1.00  0.00    -0.508 OA
ATOM    131  H   UNL A   1      31.970  16.791  22.183  1.00  0.00     0.293 HD
ENDBRANCH 124 130
ENDBRANCH 116 119
ENDBRANCH 107 115
ENDBRANCH 101 104
ENDBRANCH  97 100
ENDBRANCH  94  97
ENDBRANCH   1  94
TORSDOF 18
ENDMDL
MODEL 5
REMARK VINA RESULT:     -12.8      6.106     11.832
REMARK SMILES O=C(NCCCCCCNC(=O)c1cc(/C=C/c2cc(O)cc(O)c2)ccc1O)c1ccc(-c2c3nc(c(-c4c(F)c(F)c(F)c(F)c4F)c4ccc([nH]4)c(-c4c(F)c(F)c(F)c(F)c4F)c4nc(c(-c5c(F)c(F)c(F)c(F)c5F)c5ccc2[nH]5)C=C4)C=C3)cc1
REMARK SMILES IDX 7 1 6 4 5 7 4 10 3 13 1 14 2 15 30 17 31 18 92 19 32 20
REMARK SMILES IDX 91 22 33 24 34 27 35 28 85 29 36 30 90 31 84 32 86 33 37 34
REMARK SMILES IDX 89 35 83 37 82 39 38 41 70 44 50 45 69 46 51 47 54 48 68 49
REMARK SMILES IDX 87 50 52 51 53 53 67 55 88 56 55 59 39 61 40 62 48 63 41 64
REMARK SMILES IDX 42 65 46 66 49 67 43 68 44 69 47 70 45 71 71 72 72 73 80 74
REMARK SMILES IDX 73 75 74 76 78 77 81 78 75 79 76 80 79 81 77 82 56 83 57 84
REMARK SMILES IDX 65 85 58 86 59 87 63 88 66 89 60 90 61 91 64 92 62 93 8 94
REMARK SMILES IDX 9 97 10 100 11 101 12 103 13 104 14 105 28 106 15 107 27 109
REMARK SMILES IDX 26 110 29 113 16 115 17 116 18 119 19 120 25 121 20 122
REMARK SMILES IDX 23 124 22 126 21 128 24 130
REMARK H PARENT 7 2 7 3 6 5 6 6 5 8 5 9 4 11 4 12 3 16 31 21 92 23 32 25 91 26
REMARK H PARENT 90 36 84 38 86 40 89 42 83 43 51 52 54 54 87 57 52 58 88 60
REMARK H PARENT 8 95 8 96 9 98 9 99 10 102 14 108 27 111 26 112 29 114 16 117
REMARK H PARENT 17 118 19 123 25 125 22 127 21 129 24 131
REMARK Flexibility Score: inf
ROOT
ATOM      1  C   UNL A   1      36.965  22.022  24.203  1.00  0.00    -0.052 C 
ATOM      2  H   UNL A   1      36.158  22.165  23.515  1.00  0.00     0.027 H 
ATOM      3  H   UNL A   1      37.917  21.904  23.729  1.00  0.00     0.027 H 
ENDROOT
BRANCH   1   4
ATOM      4  C   UNL A   1      36.709  20.719  24.967  1.00  0.00    -0.052 C 
ATOM      5  H   UNL A   1      36.486  20.969  25.984  1.00  0.00     0.027 H 
ATOM      6  H   UNL A   1      35.901  20.231  24.462  1.00  0.00     0.027 H 
BRANCH   4   7
ATOM      7  C   UNL A   1      37.872  19.729  24.968  1.00  0.00    -0.036 C 
ATOM      8  H   UNL A   1      37.531  18.812  25.402  1.00  0.00     0.028 H 
ATOM      9  H   UNL A   1      38.179  19.618  23.948  1.00  0.00     0.028 H 
BRANCH   7  10
ATOM     10  C   UNL A   1      39.096  20.195  25.740  1.00  0.00     0.018 C 
ATOM     11  H   UNL A   1      39.525  21.034  25.233  1.00  0.00     0.049 H 
ATOM     12  H   UNL A   1      38.780  20.456  26.728  1.00  0.00     0.049 H 
BRANCH  10  13
ATOM     13  N   UNL A   1      40.103  19.155  25.856  1.00  0.00    -0.352 N 
ATOM     14  O   UNL A   1      42.205  18.328  25.976  1.00  0.00    -0.269 OA
ATOM     15  C   UNL A   1      41.449  19.290  26.081  1.00  0.00     0.251 C 
ATOM     16  H   UNL A   1      39.777  18.230  25.761  1.00  0.00     0.163 HD
BRANCH  15  17
ATOM     17  C   UNL A   1      41.987  20.617  26.445  1.00  0.00     0.039 A 
ATOM     18  C   UNL A   1      42.330  21.534  25.447  1.00  0.00    -0.049 A 
ATOM     19  C   UNL A   1      42.133  20.951  27.793  1.00  0.00    -0.049 A 
ATOM     20  C   UNL A   1      42.915  22.745  25.792  1.00  0.00    -0.053 A 
ATOM     21  H   UNL A   1      42.149  21.311  24.455  1.00  0.00     0.063 H 
ATOM     22  C   UNL A   1      42.638  22.207  28.142  1.00  0.00    -0.053 A 
ATOM     23  H   UNL A   1      41.870  20.277  28.528  1.00  0.00     0.063 H 
ATOM     24  C   UNL A   1      43.032  23.111  27.143  1.00  0.00    -0.014 A 
ATOM     25  H   UNL A   1      43.264  23.377  25.055  1.00  0.00     0.063 H 
ATOM     26  H   UNL A   1      42.721  22.470  29.136  1.00  0.00     0.063 H 
BRANCH  24  27
ATOM     27  C   UNL A   1      43.424  24.500  27.478  1.00  0.00     0.031 A 
ATOM     28  C   UNL A   1      42.416  25.516  27.927  1.00  0.00     0.074 A 
ATOM     29  C   UNL A   1      44.724  24.832  27.351  1.00  0.00     0.049 A 
ATOM     30  N   UNL A   1      42.600  26.779  28.219  1.00  0.00    -0.248 NA
ATOM     31  C   UNL A   1      41.022  25.067  28.060  1.00  0.00    -0.034 C 
ATOM     32  C   UNL A   1      45.782  23.922  26.900  1.00  0.00    -0.036 A 
ATOM     33  N   UNL A   1      45.382  26.012  27.580  1.00  0.00    -0.354 N 
ATOM     34  C   UNL A   1      41.349  27.280  28.551  1.00  0.00     0.074 A 
ATOM     35  C   UNL A   1      40.408  26.190  28.414  1.00  0.00    -0.034 C 
ATOM     36  H   UNL A   1      40.626  24.125  27.917  1.00  0.00     0.065 H 
ATOM     37  C   UNL A   1      46.955  24.568  26.908  1.00  0.00    -0.036 A 
ATOM     38  H   UNL A   1      45.645  22.938  26.620  1.00  0.00     0.065 H 
ATOM     39  C   UNL A   1      46.723  25.955  27.289  1.00  0.00     0.049 A 
ATOM     40  H   UNL A   1      44.937  26.822  27.921  1.00  0.00     0.167 HD
ATOM     41  C   UNL A   1      41.029  28.539  28.933  1.00  0.00     0.037 A 
ATOM     42  H   UNL A   1      39.391  26.274  28.571  1.00  0.00     0.065 H 
ATOM     43  H   UNL A   1      47.873  24.152  26.682  1.00  0.00     0.065 H 
ATOM     44  C   UNL A   1      47.658  26.922  27.284  1.00  0.00     0.037 A 
ATOM     45  C   UNL A   1      41.985  29.608  29.082  1.00  0.00     0.049 A 
ATOM     46  C   UNL A   1      47.254  28.315  27.674  1.00  0.00     0.074 A 
ATOM     47  C   UNL A   1      41.770  30.896  29.544  1.00  0.00    -0.036 A 
ATOM     48  N   UNL A   1      43.330  29.522  28.756  1.00  0.00    -0.354 N 
ATOM     49  N   UNL A   1      46.084  28.757  28.065  1.00  0.00    -0.248 NA
ATOM     50  C   UNL A   1      48.298  29.346  27.614  1.00  0.00    -0.034 C 
ATOM     51  C   UNL A   1      42.968  31.608  29.429  1.00  0.00    -0.036 A 
ATOM     52  H   UNL A   1      40.879  31.266  29.909  1.00  0.00     0.065 H 
ATOM     53  C   UNL A   1      43.945  30.748  28.956  1.00  0.00     0.049 A 
ATOM     54  H   UNL A   1      43.781  28.710  28.430  1.00  0.00     0.167 HD
ATOM     55  C   UNL A   1      46.252  30.111  28.307  1.00  0.00     0.074 A 
ATOM     56  C   UNL A   1      47.645  30.412  28.053  1.00  0.00    -0.034 C 
ATOM     57  H   UNL A   1      49.281  29.263  27.310  1.00  0.00     0.065 H 
ATOM     58  H   UNL A   1      43.101  32.605  29.658  1.00  0.00     0.065 H 
ATOM     59  C   UNL A   1      45.333  31.029  28.694  1.00  0.00     0.037 A 
ATOM     60  H   UNL A   1      48.076  31.339  28.198  1.00  0.00     0.065 H 
BRANCH  41  61
ATOM     61  C   UNL A   1      39.589  28.862  29.204  1.00  0.00     0.064 A 
ATOM     62  C   UNL A   1      39.028  28.732  30.482  1.00  0.00     0.173 A 
ATOM     63  C   UNL A   1      38.791  29.421  28.192  1.00  0.00     0.173 A 
ATOM     64  F   UNL A   1      39.745  28.199  31.483  1.00  0.00    -0.203 F 
ATOM     65  C   UNL A   1      37.723  29.147  30.737  1.00  0.00     0.198 A 
ATOM     66  C   UNL A   1      37.496  29.858  28.456  1.00  0.00     0.198 A 
ATOM     67  F   UNL A   1      39.282  29.575  26.953  1.00  0.00    -0.203 F 
ATOM     68  F   UNL A   1      37.201  28.999  31.962  1.00  0.00    -0.200 F 
ATOM     69  C   UNL A   1      36.963  29.720  29.728  1.00  0.00     0.200 A 
ATOM     70  F   UNL A   1      36.770  30.426  27.483  1.00  0.00    -0.200 F 
ATOM     71  F   UNL A   1      35.716  30.143  29.982  1.00  0.00    -0.200 F 
ENDBRANCH  41  61
BRANCH  44  72
ATOM     72  C   UNL A   1      49.045  26.618  26.844  1.00  0.00     0.064 A 
ATOM     73  C   UNL A   1      50.028  26.222  27.760  1.00  0.00     0.173 A 
ATOM     74  C   UNL A   1      49.424  26.746  25.498  1.00  0.00     0.173 A 
ATOM     75  F   UNL A   1      49.721  26.101  29.061  1.00  0.00    -0.203 F 
ATOM     76  C   UNL A   1      51.342  26.000  27.355  1.00  0.00     0.198 A 
ATOM     77  C   UNL A   1      50.727  26.485  25.087  1.00  0.00     0.198 A 
ATOM     78  F   UNL A   1      48.521  27.115  24.577  1.00  0.00    -0.203 F 
ATOM     79  F   UNL A   1      52.276  25.687  28.263  1.00  0.00    -0.200 F 
ATOM     80  C   UNL A   1      51.689  26.128  26.018  1.00  0.00     0.200 A 
ATOM     81  F   UNL A   1      51.052  26.589  23.791  1.00  0.00    -0.200 F 
ATOM     82  F   UNL A   1      52.954  25.917  25.629  1.00  0.00    -0.200 F 
ENDBRANCH  44  72
BRANCH  59  83
ATOM     83  C   UNL A   1      45.810  32.439  28.871  1.00  0.00     0.064 A 
ATOM     84  C   UNL A   1      46.345  32.883  30.090  1.00  0.00     0.173 A 
ATOM     85  C   UNL A   1      45.765  33.348  27.803  1.00  0.00     0.173 A 
ATOM     86  F   UNL A   1      46.390  32.058  31.147  1.00  0.00    -0.203 F 
ATOM     87  C   UNL A   1      46.795  34.192  30.241  1.00  0.00     0.198 A 
ATOM     88  C   UNL A   1      46.248  34.646  27.947  1.00  0.00     0.198 A 
ATOM     89  F   UNL A   1      45.267  32.973  26.615  1.00  0.00    -0.203 F 
ATOM     90  F   UNL A   1      47.253  34.608  31.428  1.00  0.00    -0.200 F 
ATOM     91  C   UNL A   1      46.755  35.068  29.166  1.00  0.00     0.200 A 
ATOM     92  F   UNL A   1      46.223  35.487  26.904  1.00  0.00    -0.200 F 
ATOM     93  F   UNL A   1      47.198  36.324  29.309  1.00  0.00    -0.200 F 
ENDBRANCH  59  83
ENDBRANCH  24  27
ENDBRANCH  15  17
ENDBRANCH  10  13
ENDBRANCH   7  10
ENDBRANCH   4   7
ENDBRANCH   1   4
BRANCH   1  94
ATOM     94  C   UNL A   1      37.078  23.280  25.070  1.00  0.00    -0.036 C 
ATOM     95  H   UNL A   1      37.822  23.916  24.637  1.00  0.00     0.028 H 
ATOM     96  H   UNL A   1      37.330  22.945  26.054  1.00  0.00     0.028 H 
BRANCH  94  97
ATOM     97  C   UNL A   1      35.789  24.081  25.206  1.00  0.00     0.018 C 
ATOM     98  H   UNL A   1      35.976  24.938  25.820  1.00  0.00     0.049 H 
ATOM     99  H   UNL A   1      35.048  23.445  25.645  1.00  0.00     0.049 H 
BRANCH  97 100
ATOM    100  N   UNL A   1      35.288  24.529  23.921  1.00  0.00    -0.352 N 
ATOM    101  C   UNL A   1      34.047  24.326  23.375  1.00  0.00     0.255 C 
ATOM    102  H   UNL A   1      35.920  25.044  23.371  1.00  0.00     0.163 HD
ATOM    103  O   UNL A   1      33.810  24.694  22.227  1.00  0.00    -0.269 OA
BRANCH 101 104
ATOM    104  C   UNL A   1      33.022  23.579  24.130  1.00  0.00     0.082 A 
ATOM    105  C   UNL A   1      33.253  22.209  24.317  1.00  0.00    -0.038 A 
ATOM    106  C   UNL A   1      31.864  24.173  24.634  1.00  0.00     0.128 A 
ATOM    107  C   UNL A   1      32.352  21.425  25.046  1.00  0.00    -0.025 A 
ATOM    108  H   UNL A   1      34.097  21.773  23.912  1.00  0.00     0.064 H 
ATOM    109  C   UNL A   1      30.962  23.410  25.370  1.00  0.00    -0.019 A 
ATOM    110  C   UNL A   1      31.211  22.048  25.578  1.00  0.00    -0.051 A 
ATOM    111  H   UNL A   1      30.113  23.847  25.761  1.00  0.00     0.066 H 
ATOM    112  H   UNL A   1      30.544  21.492  26.136  1.00  0.00     0.063 H 
BRANCH 106 113
ATOM    113  O   UNL A   1      31.611  25.499  24.421  1.00  0.00    -0.507 OA
ATOM    114  H   UNL A   1      30.859  25.758  23.926  1.00  0.00     0.293 HD
ENDBRANCH 106 113
BRANCH 107 115
ATOM    115  C   UNL A   1      32.535  19.980  25.274  1.00  0.00    -0.054 C 
ATOM    116  C   UNL A   1      33.346  19.170  24.572  1.00  0.00    -0.054 C 
ATOM    117  H   UNL A   1      31.993  19.553  26.041  1.00  0.00     0.063 H 
ATOM    118  H   UNL A   1      33.916  19.581  23.817  1.00  0.00     0.063 H 
BRANCH 116 119
ATOM    119  C   UNL A   1      33.460  17.728  24.830  1.00  0.00    -0.018 A 
ATOM    120  C   UNL A   1      34.706  17.088  24.871  1.00  0.00    -0.013 A 
ATOM    121  C   UNL A   1      32.300  16.994  25.112  1.00  0.00    -0.013 A 
ATOM    122  C   UNL A   1      34.777  15.729  25.168  1.00  0.00     0.119 A 
ATOM    123  H   UNL A   1      35.569  17.621  24.680  1.00  0.00     0.067 H 
ATOM    124  C   UNL A   1      32.395  15.635  25.405  1.00  0.00     0.119 A 
ATOM    125  H   UNL A   1      31.379  17.459  25.103  1.00  0.00     0.067 H 
ATOM    126  C   UNL A   1      33.627  14.996  25.431  1.00  0.00     0.022 A 
ATOM    127  H   UNL A   1      33.688  13.987  25.644  1.00  0.00     0.070 H 
BRANCH 122 128
ATOM    128  O   UNL A   1      35.975  15.077  25.220  1.00  0.00    -0.508 OA
ATOM    129  H   UNL A   1      36.772  15.548  25.078  1.00  0.00     0.293 HD
ENDBRANCH 122 128
BRANCH 124 130
ATOM    130  O   UNL A   1      31.285  14.891  25.679  1.00  0.00    -0.508 OA
ATOM    131  H   UNL A   1      30.554  14.906  25.093  1.00  0.00     0.293 HD
ENDBRANCH 124 130
ENDBRANCH 116 119
ENDBRANCH 107 115
ENDBRANCH 101 104
ENDBRANCH  97 100
ENDBRANCH  94  97
ENDBRANCH   1  94
TORSDOF 18
ENDMDL
MODEL 6
REMARK VINA RESULT:     -12.7      0.775      2.158
REMARK SMILES O=C(NCCCCCCNC(=O)c1cc(/C=C/c2cc(O)cc(O)c2)ccc1O)c1ccc(-c2c3nc(c(-c4c(F)c(F)c(F)c(F)c4F)c4ccc([nH]4)c(-c4c(F)c(F)c(F)c(F)c4F)c4nc(c(-c5c(F)c(F)c(F)c(F)c5F)c5ccc2[nH]5)C=C4)C=C3)cc1
REMARK SMILES IDX 7 1 6 4 5 7 4 10 3 13 1 14 2 15 30 17 31 18 92 19 32 20
REMARK SMILES IDX 91 22 33 24 34 27 35 28 85 29 36 30 90 31 84 32 86 33 37 34
REMARK SMILES IDX 89 35 83 37 82 39 38 41 70 44 50 45 69 46 51 47 54 48 68 49
REMARK SMILES IDX 87 50 52 51 53 53 67 55 88 56 55 59 39 61 40 62 48 63 41 64
REMARK SMILES IDX 42 65 46 66 49 67 43 68 44 69 47 70 45 71 71 72 72 73 80 74
REMARK SMILES IDX 73 75 74 76 78 77 81 78 75 79 76 80 79 81 77 82 56 83 57 84
REMARK SMILES IDX 65 85 58 86 59 87 63 88 66 89 60 90 61 91 64 92 62 93 8 94
REMARK SMILES IDX 9 97 10 100 11 101 12 103 13 104 14 105 28 106 15 107 27 109
REMARK SMILES IDX 26 110 29 113 16 115 17 116 18 119 19 120 25 121 20 122
REMARK SMILES IDX 23 124 22 126 21 128 24 130
REMARK H PARENT 7 2 7 3 6 5 6 6 5 8 5 9 4 11 4 12 3 16 31 21 92 23 32 25 91 26
REMARK H PARENT 90 36 84 38 86 40 89 42 83 43 51 52 54 54 87 57 52 58 88 60
REMARK H PARENT 8 95 8 96 9 98 9 99 10 102 14 108 27 111 26 112 29 114 16 117
REMARK H PARENT 17 118 19 123 25 125 22 127 21 129 24 131
REMARK Flexibility Score: inf
ROOT
ATOM      1  C   UNL A   1      33.077  30.047  26.764  1.00  0.00    -0.052 C 
ATOM      2  H   UNL A   1      32.944  29.638  27.743  1.00  0.00     0.027 H 
ATOM      3  H   UNL A   1      33.778  30.856  26.728  1.00  0.00     0.027 H 
ENDROOT
BRANCH   1   4
ATOM      4  C   UNL A   1      31.736  30.630  26.308  1.00  0.00    -0.052 C 
ATOM      5  H   UNL A   1      31.677  30.535  25.244  1.00  0.00     0.027 H 
ATOM      6  H   UNL A   1      30.979  30.079  26.827  1.00  0.00     0.027 H 
BRANCH   4   7
ATOM      7  C   UNL A   1      31.513  32.099  26.664  1.00  0.00    -0.036 C 
ATOM      8  H   UNL A   1      31.207  32.616  25.778  1.00  0.00     0.028 H 
ATOM      9  H   UNL A   1      30.769  32.116  27.435  1.00  0.00     0.028 H 
BRANCH   7  10
ATOM     10  C   UNL A   1      32.737  32.803  27.227  1.00  0.00     0.018 C 
ATOM     11  H   UNL A   1      33.079  32.265  28.086  1.00  0.00     0.049 H 
ATOM     12  H   UNL A   1      33.481  32.829  26.460  1.00  0.00     0.049 H 
BRANCH  10  13
ATOM     13  N   UNL A   1      32.453  34.173  27.618  1.00  0.00    -0.352 N 
ATOM     14  O   UNL A   1      32.543  35.992  28.959  1.00  0.00    -0.269 OA
ATOM     15  C   UNL A   1      33.012  34.904  28.635  1.00  0.00     0.251 C 
ATOM     16  H   UNL A   1      31.770  34.639  27.082  1.00  0.00     0.163 HD
BRANCH  15  17
ATOM     17  C   UNL A   1      34.186  34.363  29.349  1.00  0.00     0.039 A 
ATOM     18  C   UNL A   1      34.014  33.620  30.522  1.00  0.00    -0.049 A 
ATOM     19  C   UNL A   1      35.464  34.585  28.834  1.00  0.00    -0.049 A 
ATOM     20  C   UNL A   1      35.124  33.188  31.234  1.00  0.00    -0.053 A 
ATOM     21  H   UNL A   1      33.064  33.394  30.856  1.00  0.00     0.063 H 
ATOM     22  C   UNL A   1      36.577  34.071  29.504  1.00  0.00    -0.053 A 
ATOM     23  H   UNL A   1      35.587  35.125  27.964  1.00  0.00     0.063 H 
ATOM     24  C   UNL A   1      36.413  33.370  30.709  1.00  0.00    -0.014 A 
ATOM     25  H   UNL A   1      35.001  32.731  32.151  1.00  0.00     0.063 H 
ATOM     26  H   UNL A   1      37.523  34.208  29.113  1.00  0.00     0.063 H 
BRANCH  24  27
ATOM     27  C   UNL A   1      37.556  32.684  31.357  1.00  0.00     0.031 A 
ATOM     28  C   UNL A   1      38.243  31.518  30.712  1.00  0.00     0.074 A 
ATOM     29  C   UNL A   1      37.952  33.134  32.565  1.00  0.00     0.049 A 
ATOM     30  N   UNL A   1      39.231  30.792  31.173  1.00  0.00    -0.248 NA
ATOM     31  C   UNL A   1      37.764  31.104  29.386  1.00  0.00    -0.034 C 
ATOM     32  C   UNL A   1      37.334  34.249  33.289  1.00  0.00    -0.036 A 
ATOM     33  N   UNL A   1      38.956  32.716  33.399  1.00  0.00    -0.354 N 
ATOM     34  C   UNL A   1      39.478  29.827  30.207  1.00  0.00     0.074 A 
ATOM     35  C   UNL A   1      38.530  30.049  29.136  1.00  0.00    -0.034 C 
ATOM     36  H   UNL A   1      37.024  31.524  28.801  1.00  0.00     0.065 H 
ATOM     37  C   UNL A   1      37.985  34.442  34.444  1.00  0.00    -0.036 A 
ATOM     38  H   UNL A   1      36.524  34.799  32.961  1.00  0.00     0.065 H 
ATOM     39  C   UNL A   1      39.013  33.419  34.578  1.00  0.00     0.049 A 
ATOM     40  H   UNL A   1      39.576  31.985  33.176  1.00  0.00     0.167 HD
ATOM     41  C   UNL A   1      40.414  28.849  30.225  1.00  0.00     0.037 A 
ATOM     42  H   UNL A   1      38.460  29.464  28.289  1.00  0.00     0.065 H 
ATOM     43  H   UNL A   1      37.790  35.192  35.126  1.00  0.00     0.065 H 
ATOM     44  C   UNL A   1      39.777  33.234  35.670  1.00  0.00     0.037 A 
ATOM     45  C   UNL A   1      41.363  28.654  31.294  1.00  0.00     0.049 A 
ATOM     46  C   UNL A   1      40.775  32.111  35.667  1.00  0.00     0.074 A 
ATOM     47  C   UNL A   1      42.403  27.743  31.365  1.00  0.00    -0.036 A 
ATOM     48  N   UNL A   1      41.377  29.369  32.483  1.00  0.00    -0.354 N 
ATOM     49  N   UNL A   1      41.055  31.257  34.714  1.00  0.00    -0.248 NA
ATOM     50  C   UNL A   1      41.558  31.921  36.894  1.00  0.00    -0.034 C 
ATOM     51  C   UNL A   1      42.999  27.858  32.625  1.00  0.00    -0.036 A 
ATOM     52  H   UNL A   1      42.689  27.092  30.618  1.00  0.00     0.065 H 
ATOM     53  C   UNL A   1      42.373  28.882  33.314  1.00  0.00     0.049 A 
ATOM     54  H   UNL A   1      40.768  30.110  32.703  1.00  0.00     0.167 HD
ATOM     55  C   UNL A   1      42.051  30.436  35.220  1.00  0.00     0.074 A 
ATOM     56  C   UNL A   1      42.352  30.917  36.552  1.00  0.00    -0.034 C 
ATOM     57  H   UNL A   1      41.505  32.434  37.789  1.00  0.00     0.065 H 
ATOM     58  H   UNL A   1      43.775  27.277  32.980  1.00  0.00     0.065 H 
ATOM     59  C   UNL A   1      42.655  29.371  34.639  1.00  0.00     0.037 A 
ATOM     60  H   UNL A   1      43.091  30.528  37.158  1.00  0.00     0.065 H 
BRANCH  41  61
ATOM     61  C   UNL A   1      40.468  27.885  29.075  1.00  0.00     0.064 A 
ATOM     62  C   UNL A   1      39.670  26.734  29.036  1.00  0.00     0.173 A 
ATOM     63  C   UNL A   1      41.247  28.183  27.945  1.00  0.00     0.173 A 
ATOM     64  F   UNL A   1      38.913  26.400  30.092  1.00  0.00    -0.203 F 
ATOM     65  C   UNL A   1      39.650  25.915  27.909  1.00  0.00     0.198 A 
ATOM     66  C   UNL A   1      41.204  27.378  26.811  1.00  0.00     0.198 A 
ATOM     67  F   UNL A   1      42.022  29.278  27.928  1.00  0.00    -0.203 F 
ATOM     68  F   UNL A   1      38.892  24.810  27.898  1.00  0.00    -0.200 F 
ATOM     69  C   UNL A   1      40.407  26.244  26.793  1.00  0.00     0.200 A 
ATOM     70  F   UNL A   1      41.923  27.707  25.728  1.00  0.00    -0.200 F 
ATOM     71  F   UNL A   1      40.365  25.469  25.700  1.00  0.00    -0.200 F 
ENDBRANCH  41  61
BRANCH  44  72
ATOM     72  C   UNL A   1      39.588  34.091  36.869  1.00  0.00     0.064 A 
ATOM     73  C   UNL A   1      40.215  35.340  36.975  1.00  0.00     0.173 A 
ATOM     74  C   UNL A   1      38.797  33.666  37.948  1.00  0.00     0.173 A 
ATOM     75  F   UNL A   1      40.995  35.785  35.978  1.00  0.00    -0.203 F 
ATOM     76  C   UNL A   1      40.088  36.113  38.127  1.00  0.00     0.198 A 
ATOM     77  C   UNL A   1      38.638  34.458  39.082  1.00  0.00     0.198 A 
ATOM     78  F   UNL A   1      38.169  32.483  37.896  1.00  0.00    -0.203 F 
ATOM     79  F   UNL A   1      40.751  37.272  38.229  1.00  0.00    -0.200 F 
ATOM     80  C   UNL A   1      39.296  35.673  39.177  1.00  0.00     0.200 A 
ATOM     81  F   UNL A   1      37.855  34.037  40.085  1.00  0.00    -0.200 F 
ATOM     82  F   UNL A   1      39.176  36.416  40.286  1.00  0.00    -0.200 F 
ENDBRANCH  44  72
BRANCH  59  83
ATOM     83  C   UNL A   1      43.705  28.662  35.442  1.00  0.00     0.064 A 
ATOM     84  C   UNL A   1      45.064  28.991  35.322  1.00  0.00     0.173 A 
ATOM     85  C   UNL A   1      43.347  27.668  36.365  1.00  0.00     0.173 A 
ATOM     86  F   UNL A   1      45.458  29.920  34.437  1.00  0.00    -0.203 F 
ATOM     87  C   UNL A   1      46.029  28.333  36.079  1.00  0.00     0.198 A 
ATOM     88  C   UNL A   1      44.311  27.037  37.146  1.00  0.00     0.198 A 
ATOM     89  F   UNL A   1      42.061  27.320  36.521  1.00  0.00    -0.203 F 
ATOM     90  F   UNL A   1      47.324  28.628  35.911  1.00  0.00    -0.200 F 
ATOM     91  C   UNL A   1      45.650  27.364  36.998  1.00  0.00     0.200 A 
ATOM     92  F   UNL A   1      43.943  26.112  38.043  1.00  0.00    -0.200 F 
ATOM     93  F   UNL A   1      46.579  26.740  37.734  1.00  0.00    -0.200 F 
ENDBRANCH  59  83
ENDBRANCH  24  27
ENDBRANCH  15  17
ENDBRANCH  10  13
ENDBRANCH   7  10
ENDBRANCH   4   7
ENDBRANCH   1   4
BRANCH   1  94
ATOM     94  C   UNL A   1      33.655  28.949  25.865  1.00  0.00    -0.036 C 
ATOM     95  H   UNL A   1      34.678  29.190  25.662  1.00  0.00     0.028 H 
ATOM     96  H   UNL A   1      33.044  28.928  24.987  1.00  0.00     0.028 H 
BRANCH  94  97
ATOM     97  C   UNL A   1      33.606  27.545  26.457  1.00  0.00     0.018 C 
ATOM     98  H   UNL A   1      32.586  27.281  26.639  1.00  0.00     0.049 H 
ATOM     99  H   UNL A   1      34.174  27.549  27.364  1.00  0.00     0.049 H 
BRANCH  97 100
ATOM    100  N   UNL A   1      34.191  26.560  25.569  1.00  0.00    -0.352 N 
ATOM    101  C   UNL A   1      33.561  25.764  24.648  1.00  0.00     0.255 C 
ATOM    102  H   UNL A   1      35.167  26.449  25.635  1.00  0.00     0.163 HD
ATOM    103  O   UNL A   1      34.193  24.908  24.035  1.00  0.00    -0.269 OA
BRANCH 101 104
ATOM    104  C   UNL A   1      32.100  25.868  24.461  1.00  0.00     0.082 A 
ATOM    105  C   UNL A   1      31.630  27.016  23.809  1.00  0.00    -0.038 A 
ATOM    106  C   UNL A   1      31.203  24.897  24.911  1.00  0.00     0.128 A 
ATOM    107  C   UNL A   1      30.264  27.188  23.559  1.00  0.00    -0.025 A 
ATOM    108  H   UNL A   1      32.299  27.743  23.508  1.00  0.00     0.064 H 
ATOM    109  C   UNL A   1      29.843  25.048  24.662  1.00  0.00    -0.019 A 
ATOM    110  C   UNL A   1      29.380  26.183  23.985  1.00  0.00    -0.051 A 
ATOM    111  H   UNL A   1      29.176  24.325  24.976  1.00  0.00     0.066 H 
ATOM    112  H   UNL A   1      28.372  26.281  23.793  1.00  0.00     0.063 H 
BRANCH 106 113
ATOM    113  O   UNL A   1      31.649  23.795  25.584  1.00  0.00    -0.507 OA
ATOM    114  H   UNL A   1      32.347  23.876  26.205  1.00  0.00     0.293 HD
ENDBRANCH 106 113
BRANCH 107 115
ATOM    115  C   UNL A   1      29.707  28.374  22.882  1.00  0.00    -0.054 C 
ATOM    116  C   UNL A   1      29.778  29.639  23.326  1.00  0.00    -0.054 C 
ATOM    117  H   UNL A   1      29.220  28.217  21.986  1.00  0.00     0.063 H 
ATOM    118  H   UNL A   1      30.283  29.822  24.208  1.00  0.00     0.063 H 
BRANCH 116 119
ATOM    119  C   UNL A   1      29.173  30.775  22.618  1.00  0.00    -0.018 A 
ATOM    120  C   UNL A   1      28.578  30.620  21.358  1.00  0.00    -0.013 A 
ATOM    121  C   UNL A   1      29.129  32.025  23.251  1.00  0.00    -0.013 A 
ATOM    122  C   UNL A   1      27.970  31.711  20.741  1.00  0.00     0.119 A 
ATOM    123  H   UNL A   1      28.591  29.701  20.890  1.00  0.00     0.067 H 
ATOM    124  C   UNL A   1      28.517  33.102  22.613  1.00  0.00     0.119 A 
ATOM    125  H   UNL A   1      29.547  32.146  24.186  1.00  0.00     0.067 H 
ATOM    126  C   UNL A   1      27.940  32.954  21.359  1.00  0.00     0.022 A 
ATOM    127  H   UNL A   1      27.492  33.759  20.891  1.00  0.00     0.070 H 
BRANCH 122 128
ATOM    128  O   UNL A   1      27.378  31.592  19.517  1.00  0.00    -0.508 OA
ATOM    129  H   UNL A   1      26.634  32.119  19.303  1.00  0.00     0.293 HD
ENDBRANCH 122 128
BRANCH 124 130
ATOM    130  O   UNL A   1      28.461  34.333  23.199  1.00  0.00    -0.508 OA
ATOM    131  H   UNL A   1      29.175  34.634  23.725  1.00  0.00     0.293 HD
ENDBRANCH 124 130
ENDBRANCH 116 119
ENDBRANCH 107 115
ENDBRANCH 101 104
ENDBRANCH  97 100
ENDBRANCH  94  97
ENDBRANCH   1  94
TORSDOF 18
ENDMDL
MODEL 7
REMARK VINA RESULT:     -12.6      2.341      3.570
REMARK SMILES O=C(NCCCCCCNC(=O)c1cc(/C=C/c2cc(O)cc(O)c2)ccc1O)c1ccc(-c2c3nc(c(-c4c(F)c(F)c(F)c(F)c4F)c4ccc([nH]4)c(-c4c(F)c(F)c(F)c(F)c4F)c4nc(c(-c5c(F)c(F)c(F)c(F)c5F)c5ccc2[nH]5)C=C4)C=C3)cc1
REMARK SMILES IDX 7 1 6 4 5 7 4 10 3 13 1 14 2 15 30 17 31 18 92 19 32 20
REMARK SMILES IDX 91 22 33 24 34 27 35 28 85 29 36 30 90 31 84 32 86 33 37 34
REMARK SMILES IDX 89 35 83 37 82 39 38 41 70 44 50 45 69 46 51 47 54 48 68 49
REMARK SMILES IDX 87 50 52 51 53 53 67 55 88 56 55 59 39 61 40 62 48 63 41 64
REMARK SMILES IDX 42 65 46 66 49 67 43 68 44 69 47 70 45 71 71 72 72 73 80 74
REMARK SMILES IDX 73 75 74 76 78 77 81 78 75 79 76 80 79 81 77 82 56 83 57 84
REMARK SMILES IDX 65 85 58 86 59 87 63 88 66 89 60 90 61 91 64 92 62 93 8 94
REMARK SMILES IDX 9 97 10 100 11 101 12 103 13 104 14 105 28 106 15 107 27 109
REMARK SMILES IDX 26 110 29 113 16 115 17 116 18 119 19 120 25 121 20 122
REMARK SMILES IDX 23 124 22 126 21 128 24 130
REMARK H PARENT 7 2 7 3 6 5 6 6 5 8 5 9 4 11 4 12 3 16 31 21 92 23 32 25 91 26
REMARK H PARENT 90 36 84 38 86 40 89 42 83 43 51 52 54 54 87 57 52 58 88 60
REMARK H PARENT 8 95 8 96 9 98 9 99 10 102 14 108 27 111 26 112 29 114 16 117
REMARK H PARENT 17 118 19 123 25 125 22 127 21 129 24 131
REMARK Flexibility Score: inf
ROOT
ATOM      1  C   UNL A   1      34.654  25.077  25.369  1.00  0.00    -0.052 C 
ATOM      2  H   UNL A   1      33.887  24.573  25.919  1.00  0.00     0.027 H 
ATOM      3  H   UNL A   1      35.447  25.451  25.983  1.00  0.00     0.027 H 
ENDROOT
BRANCH   1   4
ATOM      4  C   UNL A   1      34.026  26.302  24.696  1.00  0.00    -0.052 C 
ATOM      5  H   UNL A   1      34.726  26.684  23.983  1.00  0.00     0.027 H 
ATOM      6  H   UNL A   1      33.111  25.964  24.256  1.00  0.00     0.027 H 
BRANCH   4   7
ATOM      7  C   UNL A   1      33.649  27.439  25.644  1.00  0.00    -0.036 C 
ATOM      8  H   UNL A   1      32.581  27.489  25.699  1.00  0.00     0.028 H 
ATOM      9  H   UNL A   1      34.105  27.215  26.586  1.00  0.00     0.028 H 
BRANCH   7  10
ATOM     10  C   UNL A   1      34.168  28.806  25.225  1.00  0.00     0.018 C 
ATOM     11  H   UNL A   1      35.137  28.952  25.654  1.00  0.00     0.049 H 
ATOM     12  H   UNL A   1      34.205  28.829  24.157  1.00  0.00     0.049 H 
BRANCH  10  13
ATOM     13  N   UNL A   1      33.297  29.883  25.663  1.00  0.00    -0.352 N 
ATOM     14  O   UNL A   1      32.502  31.429  27.111  1.00  0.00    -0.269 OA
ATOM     15  C   UNL A   1      33.413  30.677  26.775  1.00  0.00     0.251 C 
ATOM     16  H   UNL A   1      32.521  30.069  25.086  1.00  0.00     0.163 HD
BRANCH  15  17
ATOM     17  C   UNL A   1      34.651  30.612  27.579  1.00  0.00     0.039 A 
ATOM     18  C   UNL A   1      34.965  29.452  28.294  1.00  0.00    -0.049 A 
ATOM     19  C   UNL A   1      35.511  31.712  27.602  1.00  0.00    -0.049 A 
ATOM     20  C   UNL A   1      36.084  29.429  29.115  1.00  0.00    -0.053 A 
ATOM     21  H   UNL A   1      34.366  28.617  28.212  1.00  0.00     0.063 H 
ATOM     22  C   UNL A   1      36.685  31.654  28.357  1.00  0.00    -0.053 A 
ATOM     23  H   UNL A   1      35.282  32.563  27.066  1.00  0.00     0.063 H 
ATOM     24  C   UNL A   1      36.979  30.511  29.119  1.00  0.00    -0.014 A 
ATOM     25  H   UNL A   1      36.260  28.613  29.722  1.00  0.00     0.063 H 
ATOM     26  H   UNL A   1      37.339  32.453  28.356  1.00  0.00     0.063 H 
BRANCH  24  27
ATOM     27  C   UNL A   1      38.285  30.361  29.802  1.00  0.00     0.031 A 
ATOM     28  C   UNL A   1      39.423  29.617  29.171  1.00  0.00     0.074 A 
ATOM     29  C   UNL A   1      38.415  30.905  31.029  1.00  0.00     0.049 A 
ATOM     30  N   UNL A   1      40.612  29.369  29.662  1.00  0.00    -0.248 NA
ATOM     31  C   UNL A   1      39.206  29.072  27.823  1.00  0.00    -0.034 C 
ATOM     32  C   UNL A   1      37.359  31.632  31.741  1.00  0.00    -0.036 A 
ATOM     33  N   UNL A   1      39.476  30.935  31.896  1.00  0.00    -0.354 N 
ATOM     34  C   UNL A   1      41.276  28.627  28.695  1.00  0.00     0.074 A 
ATOM     35  C   UNL A   1      40.356  28.451  27.592  1.00  0.00    -0.034 C 
ATOM     36  H   UNL A   1      38.375  29.152  27.215  1.00  0.00     0.065 H 
ATOM     37  C   UNL A   1      37.831  32.054  32.921  1.00  0.00    -0.036 A 
ATOM     38  H   UNL A   1      36.402  31.793  31.388  1.00  0.00     0.065 H 
ATOM     39  C   UNL A   1      39.193  31.564  33.084  1.00  0.00     0.049 A 
ATOM     40  H   UNL A   1      40.355  30.543  31.688  1.00  0.00     0.167 HD
ATOM     41  C   UNL A   1      42.539  28.141  28.738  1.00  0.00     0.037 A 
ATOM     42  H   UNL A   1      40.567  27.913  26.736  1.00  0.00     0.065 H 
ATOM     43  H   UNL A   1      37.315  32.632  33.603  1.00  0.00     0.065 H 
ATOM     44  C   UNL A   1      39.930  31.694  34.202  1.00  0.00     0.037 A 
ATOM     45  C   UNL A   1      43.448  28.341  29.839  1.00  0.00     0.049 A 
ATOM     46  C   UNL A   1      41.312  31.104  34.224  1.00  0.00     0.074 A 
ATOM     47  C   UNL A   1      44.775  27.959  29.941  1.00  0.00    -0.036 A 
ATOM     48  N   UNL A   1      43.120  28.963  31.036  1.00  0.00    -0.354 N 
ATOM     49  N   UNL A   1      41.957  30.476  33.273  1.00  0.00    -0.248 NA
ATOM     50  C   UNL A   1      42.064  31.234  35.478  1.00  0.00    -0.034 C 
ATOM     51  C   UNL A   1      45.227  28.284  31.223  1.00  0.00    -0.036 A 
ATOM     52  H   UNL A   1      45.333  27.511  29.197  1.00  0.00     0.065 H 
ATOM     53  C   UNL A   1      44.204  28.926  31.899  1.00  0.00     0.049 A 
ATOM     54  H   UNL A   1      42.247  29.369  31.241  1.00  0.00     0.167 HD
ATOM     55  C   UNL A   1      43.193  30.145  33.807  1.00  0.00     0.074 A 
ATOM     56  C   UNL A   1      43.220  30.673  35.155  1.00  0.00    -0.034 C 
ATOM     57  H   UNL A   1      41.771  31.652  36.375  1.00  0.00     0.065 H 
ATOM     58  H   UNL A   1      46.166  28.080  31.601  1.00  0.00     0.065 H 
ATOM     59  C   UNL A   1      44.210  29.454  33.239  1.00  0.00     0.037 A 
ATOM     60  H   UNL A   1      44.037  30.621  35.784  1.00  0.00     0.065 H 
BRANCH  41  61
ATOM     61  C   UNL A   1      43.033  27.322  27.581  1.00  0.00     0.064 A 
ATOM     62  C   UNL A   1      43.836  27.873  26.573  1.00  0.00     0.173 A 
ATOM     63  C   UNL A   1      42.792  25.938  27.545  1.00  0.00     0.173 A 
ATOM     64  F   UNL A   1      44.091  29.190  26.557  1.00  0.00    -0.203 F 
ATOM     65  C   UNL A   1      44.378  27.071  25.571  1.00  0.00     0.198 A 
ATOM     66  C   UNL A   1      43.357  25.136  26.558  1.00  0.00     0.198 A 
ATOM     67  F   UNL A   1      42.037  25.360  28.491  1.00  0.00    -0.203 F 
ATOM     68  F   UNL A   1      45.130  27.621  24.607  1.00  0.00    -0.200 F 
ATOM     69  C   UNL A   1      44.149  25.703  25.571  1.00  0.00     0.200 A 
ATOM     70  F   UNL A   1      43.148  23.812  26.570  1.00  0.00    -0.200 F 
ATOM     71  F   UNL A   1      44.694  24.929  24.622  1.00  0.00    -0.200 F 
ENDBRANCH  41  61
BRANCH  44  72
ATOM     72  C   UNL A   1      39.358  32.358  35.401  1.00  0.00     0.064 A 
ATOM     73  C   UNL A   1      39.575  33.720  35.651  1.00  0.00     0.173 A 
ATOM     74  C   UNL A   1      38.604  31.636  36.340  1.00  0.00     0.173 A 
ATOM     75  F   UNL A   1      40.303  34.450  34.793  1.00  0.00    -0.203 F 
ATOM     76  C   UNL A   1      39.091  34.325  36.809  1.00  0.00     0.198 A 
ATOM     77  C   UNL A   1      38.086  32.251  37.476  1.00  0.00     0.198 A 
ATOM     78  F   UNL A   1      38.360  30.332  36.147  1.00  0.00    -0.203 F 
ATOM     79  F   UNL A   1      39.370  35.611  37.055  1.00  0.00    -0.200 F 
ATOM     80  C   UNL A   1      38.344  33.591  37.718  1.00  0.00     0.200 A 
ATOM     81  F   UNL A   1      37.348  31.542  38.341  1.00  0.00    -0.200 F 
ATOM     82  F   UNL A   1      37.881  34.172  38.833  1.00  0.00    -0.200 F 
ENDBRANCH  44  72
BRANCH  59  83
ATOM     83  C   UNL A   1      45.438  29.240  34.073  1.00  0.00     0.064 A 
ATOM     84  C   UNL A   1      45.592  28.093  34.868  1.00  0.00     0.173 A 
ATOM     85  C   UNL A   1      46.487  30.172  34.053  1.00  0.00     0.173 A 
ATOM     86  F   UNL A   1      44.608  27.183  34.936  1.00  0.00    -0.203 F 
ATOM     87  C   UNL A   1      46.740  27.899  35.630  1.00  0.00     0.198 A 
ATOM     88  C   UNL A   1      47.648  29.957  34.790  1.00  0.00     0.198 A 
ATOM     89  F   UNL A   1      46.391  31.282  33.307  1.00  0.00    -0.203 F 
ATOM     90  F   UNL A   1      46.842  26.823  36.420  1.00  0.00    -0.200 F 
ATOM     91  C   UNL A   1      47.771  28.827  35.583  1.00  0.00     0.200 A 
ATOM     92  F   UNL A   1      48.649  30.847  34.732  1.00  0.00    -0.200 F 
ATOM     93  F   UNL A   1      48.880  28.633  36.308  1.00  0.00    -0.200 F 
ENDBRANCH  59  83
ENDBRANCH  24  27
ENDBRANCH  15  17
ENDBRANCH  10  13
ENDBRANCH   7  10
ENDBRANCH   4   7
ENDBRANCH   1   4
BRANCH   1  94
ATOM     94  C   UNL A   1      35.298  24.064  24.417  1.00  0.00    -0.036 C 
ATOM     95  H   UNL A   1      36.325  24.338  24.287  1.00  0.00     0.028 H 
ATOM     96  H   UNL A   1      34.732  24.102  23.510  1.00  0.00     0.028 H 
BRANCH  94  97
ATOM     97  C   UNL A   1      35.250  22.617  24.894  1.00  0.00     0.018 C 
ATOM     98  H   UNL A   1      34.830  22.590  25.877  1.00  0.00     0.049 H 
ATOM     99  H   UNL A   1      36.249  22.233  24.888  1.00  0.00     0.049 H 
BRANCH  97 100
ATOM    100  N   UNL A   1      34.447  21.784  24.021  1.00  0.00    -0.352 N 
ATOM    101  C   UNL A   1      33.081  21.683  23.962  1.00  0.00     0.255 C 
ATOM    102  H   UNL A   1      34.946  21.218  23.389  1.00  0.00     0.163 HD
ATOM    103  O   UNL A   1      32.553  20.855  23.223  1.00  0.00    -0.269 OA
BRANCH 101 104
ATOM    104  C   UNL A   1      32.242  22.503  24.856  1.00  0.00     0.082 A 
ATOM    105  C   UNL A   1      31.544  23.566  24.265  1.00  0.00    -0.038 A 
ATOM    106  C   UNL A   1      32.137  22.270  26.229  1.00  0.00     0.128 A 
ATOM    107  C   UNL A   1      30.699  24.380  25.029  1.00  0.00    -0.025 A 
ATOM    108  H   UNL A   1      31.653  23.749  23.255  1.00  0.00     0.064 H 
ATOM    109  C   UNL A   1      31.294  23.063  27.001  1.00  0.00    -0.019 A 
ATOM    110  C   UNL A   1      30.577  24.105  26.401  1.00  0.00    -0.051 A 
ATOM    111  H   UNL A   1      31.198  22.885  28.013  1.00  0.00     0.066 H 
ATOM    112  H   UNL A   1      29.944  24.681  26.977  1.00  0.00     0.063 H 
BRANCH 106 113
ATOM    113  O   UNL A   1      32.846  21.263  26.821  1.00  0.00    -0.507 OA
ATOM    114  H   UNL A   1      32.839  20.403  26.447  1.00  0.00     0.293 HD
ENDBRANCH 106 113
BRANCH 107 115
ATOM    115  C   UNL A   1      29.942  25.513  24.467  1.00  0.00    -0.054 C 
ATOM    116  C   UNL A   1      30.471  26.592  23.866  1.00  0.00    -0.054 C 
ATOM    117  H   UNL A   1      28.913  25.474  24.542  1.00  0.00     0.063 H 
ATOM    118  H   UNL A   1      31.496  26.640  23.758  1.00  0.00     0.063 H 
BRANCH 116 119
ATOM    119  C   UNL A   1      29.660  27.705  23.354  1.00  0.00    -0.018 A 
ATOM    120  C   UNL A   1      30.247  28.803  22.710  1.00  0.00    -0.013 A 
ATOM    121  C   UNL A   1      28.264  27.630  23.450  1.00  0.00    -0.013 A 
ATOM    122  C   UNL A   1      29.441  29.815  22.194  1.00  0.00     0.119 A 
ATOM    123  H   UNL A   1      31.274  28.862  22.619  1.00  0.00     0.067 H 
ATOM    124  C   UNL A   1      27.478  28.655  22.929  1.00  0.00     0.119 A 
ATOM    125  H   UNL A   1      27.820  26.817  23.906  1.00  0.00     0.067 H 
ATOM    126  C   UNL A   1      28.058  29.751  22.303  1.00  0.00     0.022 A 
ATOM    127  H   UNL A   1      27.469  30.508  21.923  1.00  0.00     0.070 H 
BRANCH 122 128
ATOM    128  O   UNL A   1      29.981  30.895  21.558  1.00  0.00    -0.508 OA
ATOM    129  H   UNL A   1      30.124  31.693  22.028  1.00  0.00     0.293 HD
ENDBRANCH 122 128
BRANCH 124 130
ATOM    130  O   UNL A   1      26.117  28.614  23.010  1.00  0.00    -0.508 OA
ATOM    131  H   UNL A   1      25.647  27.888  22.649  1.00  0.00     0.293 HD
ENDBRANCH 124 130
ENDBRANCH 116 119
ENDBRANCH 107 115
ENDBRANCH 101 104
ENDBRANCH  97 100
ENDBRANCH  94  97
ENDBRANCH   1  94
TORSDOF 18
ENDMDL
MODEL 8
REMARK VINA RESULT:     -12.5      2.041      8.599
REMARK SMILES O=C(NCCCCCCNC(=O)c1cc(/C=C/c2cc(O)cc(O)c2)ccc1O)c1ccc(-c2c3nc(c(-c4c(F)c(F)c(F)c(F)c4F)c4ccc([nH]4)c(-c4c(F)c(F)c(F)c(F)c4F)c4nc(c(-c5c(F)c(F)c(F)c(F)c5F)c5ccc2[nH]5)C=C4)C=C3)cc1
REMARK SMILES IDX 7 1 6 4 5 7 4 10 3 13 1 14 2 15 30 17 31 18 92 19 32 20
REMARK SMILES IDX 91 22 33 24 34 27 35 28 85 29 36 30 90 31 84 32 86 33 37 34
REMARK SMILES IDX 89 35 83 37 82 39 38 41 70 44 50 45 69 46 51 47 54 48 68 49
REMARK SMILES IDX 87 50 52 51 53 53 67 55 88 56 55 59 39 61 40 62 48 63 41 64
REMARK SMILES IDX 42 65 46 66 49 67 43 68 44 69 47 70 45 71 71 72 72 73 80 74
REMARK SMILES IDX 73 75 74 76 78 77 81 78 75 79 76 80 79 81 77 82 56 83 57 84
REMARK SMILES IDX 65 85 58 86 59 87 63 88 66 89 60 90 61 91 64 92 62 93 8 94
REMARK SMILES IDX 9 97 10 100 11 101 12 103 13 104 14 105 28 106 15 107 27 109
REMARK SMILES IDX 26 110 29 113 16 115 17 116 18 119 19 120 25 121 20 122
REMARK SMILES IDX 23 124 22 126 21 128 24 130
REMARK H PARENT 7 2 7 3 6 5 6 6 5 8 5 9 4 11 4 12 3 16 31 21 92 23 32 25 91 26
REMARK H PARENT 90 36 84 38 86 40 89 42 83 43 51 52 54 54 87 57 52 58 88 60
REMARK H PARENT 8 95 8 96 9 98 9 99 10 102 14 108 27 111 26 112 29 114 16 117
REMARK H PARENT 17 118 19 123 25 125 22 127 21 129 24 131
REMARK Flexibility Score: inf
ROOT
ATOM      1  C   UNL A   1      31.938  29.969  25.589  1.00  0.00    -0.052 C 
ATOM      2  H   UNL A   1      32.655  30.539  25.036  1.00  0.00     0.027 H 
ATOM      3  H   UNL A   1      31.007  29.839  25.078  1.00  0.00     0.027 H 
ENDROOT
BRANCH   1   4
ATOM      4  C   UNL A   1      31.611  30.738  26.873  1.00  0.00    -0.052 C 
ATOM      5  H   UNL A   1      30.650  30.418  27.216  1.00  0.00     0.027 H 
ATOM      6  H   UNL A   1      32.402  30.522  27.560  1.00  0.00     0.027 H 
BRANCH   4   7
ATOM      7  C   UNL A   1      31.578  32.259  26.727  1.00  0.00    -0.036 C 
ATOM      8  H   UNL A   1      31.448  32.492  25.690  1.00  0.00     0.028 H 
ATOM      9  H   UNL A   1      30.770  32.606  27.337  1.00  0.00     0.028 H 
BRANCH   7  10
ATOM     10  C   UNL A   1      32.830  32.966  27.220  1.00  0.00     0.018 C 
ATOM     11  H   UNL A   1      33.244  32.407  28.034  1.00  0.00     0.049 H 
ATOM     12  H   UNL A   1      33.515  33.030  26.402  1.00  0.00     0.049 H 
BRANCH  10  13
ATOM     13  N   UNL A   1      32.555  34.318  27.676  1.00  0.00    -0.352 N 
ATOM     14  O   UNL A   1      32.632  36.061  29.115  1.00  0.00    -0.269 OA
ATOM     15  C   UNL A   1      33.093  34.984  28.747  1.00  0.00     0.251 C 
ATOM     16  H   UNL A   1      31.896  34.823  27.146  1.00  0.00     0.163 HD
BRANCH  15  17
ATOM     17  C   UNL A   1      34.236  34.385  29.466  1.00  0.00     0.039 A 
ATOM     18  C   UNL A   1      34.023  33.649  30.636  1.00  0.00    -0.049 A 
ATOM     19  C   UNL A   1      35.527  34.547  28.957  1.00  0.00    -0.049 A 
ATOM     20  C   UNL A   1      35.107  33.163  31.353  1.00  0.00    -0.053 A 
ATOM     21  H   UNL A   1      33.062  33.469  30.965  1.00  0.00     0.063 H 
ATOM     22  C   UNL A   1      36.610  33.979  29.632  1.00  0.00    -0.053 A 
ATOM     23  H   UNL A   1      35.680  35.082  28.089  1.00  0.00     0.063 H 
ATOM     24  C   UNL A   1      36.407  33.283  30.835  1.00  0.00    -0.014 A 
ATOM     25  H   UNL A   1      34.958  32.711  32.269  1.00  0.00     0.063 H 
ATOM     26  H   UNL A   1      37.563  34.070  29.245  1.00  0.00     0.063 H 
BRANCH  24  27
ATOM     27  C   UNL A   1      37.512  32.542  31.487  1.00  0.00     0.031 A 
ATOM     28  C   UNL A   1      38.018  32.918  32.847  1.00  0.00     0.074 A 
ATOM     29  C   UNL A   1      38.066  31.519  30.805  1.00  0.00     0.049 A 
ATOM     30  N   UNL A   1      39.002  32.388  33.530  1.00  0.00    -0.248 NA
ATOM     31  C   UNL A   1      37.345  34.032  33.530  1.00  0.00    -0.034 C 
ATOM     32  C   UNL A   1      37.660  31.086  29.464  1.00  0.00    -0.036 A 
ATOM     33  N   UNL A   1      39.082  30.660  31.134  1.00  0.00    -0.354 N 
ATOM     34  C   UNL A   1      39.079  33.113  34.711  1.00  0.00     0.074 A 
ATOM     35  C   UNL A   1      38.052  34.131  34.651  1.00  0.00    -0.034 C 
ATOM     36  H   UNL A   1      36.535  34.592  33.220  1.00  0.00     0.065 H 
ATOM     37  C   UNL A   1      38.401  30.033  29.096  1.00  0.00    -0.036 A 
ATOM     38  H   UNL A   1      36.919  31.524  28.894  1.00  0.00     0.065 H 
ATOM     39  C   UNL A   1      39.383  29.764  30.137  1.00  0.00     0.049 A 
ATOM     40  H   UNL A   1      39.551  30.683  32.000  1.00  0.00     0.167 HD
ATOM     41  C   UNL A   1      39.937  32.936  35.744  1.00  0.00     0.037 A 
ATOM     42  H   UNL A   1      37.889  34.839  35.383  1.00  0.00     0.065 H 
ATOM     43  H   UNL A   1      38.294  29.499  28.219  1.00  0.00     0.065 H 
ATOM     44  C   UNL A   1      40.372  28.855  30.048  1.00  0.00     0.037 A 
ATOM     45  C   UNL A   1      40.943  31.905  35.794  1.00  0.00     0.049 A 
ATOM     46  C   UNL A   1      41.328  28.718  31.199  1.00  0.00     0.074 A 
ATOM     47  C   UNL A   1      41.805  31.593  36.832  1.00  0.00    -0.036 A 
ATOM     48  N   UNL A   1      41.237  31.031  34.757  1.00  0.00    -0.354 N 
ATOM     49  N   UNL A   1      41.339  29.354  32.344  1.00  0.00    -0.248 NA
ATOM     50  C   UNL A   1      42.414  27.743  31.041  1.00  0.00    -0.034 C 
ATOM     51  C   UNL A   1      42.665  30.580  36.398  1.00  0.00    -0.036 A 
ATOM     52  H   UNL A   1      41.810  32.033  37.766  1.00  0.00     0.065 H 
ATOM     53  C   UNL A   1      42.300  30.216  35.113  1.00  0.00     0.049 A 
ATOM     54  H   UNL A   1      40.760  30.995  33.897  1.00  0.00     0.167 HD
ATOM     55  C   UNL A   1      42.423  28.851  33.046  1.00  0.00     0.074 A 
ATOM     56  C   UNL A   1      43.025  27.832  32.213  1.00  0.00    -0.034 C 
ATOM     57  H   UNL A   1      42.643  27.146  30.230  1.00  0.00     0.065 H 
ATOM     58  H   UNL A   1      43.441  30.173  36.944  1.00  0.00     0.065 H 
ATOM     59  C   UNL A   1      42.888  29.209  34.268  1.00  0.00     0.037 A 
ATOM     60  H   UNL A   1      43.827  27.247  32.497  1.00  0.00     0.065 H 
BRANCH  41  61
ATOM     61  C   UNL A   1      39.860  33.878  36.910  1.00  0.00     0.064 A 
ATOM     62  C   UNL A   1      40.502  35.124  36.900  1.00  0.00     0.173 A 
ATOM     63  C   UNL A   1      39.035  33.574  38.006  1.00  0.00     0.173 A 
ATOM     64  F   UNL A   1      41.306  35.461  35.880  1.00  0.00    -0.203 F 
ATOM     65  C   UNL A   1      40.322  36.030  37.943  1.00  0.00     0.198 A 
ATOM     66  C   UNL A   1      38.837  34.492  39.033  1.00  0.00     0.198 A 
ATOM     67  F   UNL A   1      38.392  32.398  38.061  1.00  0.00    -0.203 F 
ATOM     68  F   UNL A   1      40.958  37.210  37.920  1.00  0.00    -0.200 F 
ATOM     69  C   UNL A   1      39.482  35.719  39.002  1.00  0.00     0.200 A 
ATOM     70  F   UNL A   1      38.012  34.195  40.046  1.00  0.00    -0.200 F 
ATOM     71  F   UNL A   1      39.290  36.603  39.990  1.00  0.00    -0.200 F 
ENDBRANCH  41  61
BRANCH  44  72
ATOM     72  C   UNL A   1      40.537  28.050  28.810  1.00  0.00     0.064 A 
ATOM     73  C   UNL A   1      41.325  28.508  27.746  1.00  0.00     0.173 A 
ATOM     74  C   UNL A   1      39.887  26.816  28.655  1.00  0.00     0.173 A 
ATOM     75  F   UNL A   1      41.954  29.690  27.838  1.00  0.00    -0.203 F 
ATOM     76  C   UNL A   1      41.427  27.782  26.561  1.00  0.00     0.198 A 
ATOM     77  C   UNL A   1      40.022  26.071  27.487  1.00  0.00     0.198 A 
ATOM     78  F   UNL A   1      39.127  26.327  29.646  1.00  0.00    -0.203 F 
ATOM     79  F   UNL A   1      42.132  28.275  25.535  1.00  0.00    -0.200 F 
ATOM     80  C   UNL A   1      40.779  26.562  26.435  1.00  0.00     0.200 A 
ATOM     81  F   UNL A   1      39.411  24.884  27.378  1.00  0.00    -0.200 F 
ATOM     82  F   UNL A   1      40.875  25.864  25.295  1.00  0.00    -0.200 F 
ENDBRANCH  44  72
BRANCH  59  83
ATOM     83  C   UNL A   1      44.100  28.486  34.775  1.00  0.00     0.064 A 
ATOM     84  C   UNL A   1      45.393  28.995  34.574  1.00  0.00     0.173 A 
ATOM     85  C   UNL A   1      43.968  27.291  35.497  1.00  0.00     0.173 A 
ATOM     86  F   UNL A   1      45.572  30.124  33.870  1.00  0.00    -0.203 F 
ATOM     87  C   UNL A   1      46.510  28.320  35.057  1.00  0.00     0.198 A 
ATOM     88  C   UNL A   1      45.086  26.638  36.009  1.00  0.00     0.198 A 
ATOM     89  F   UNL A   1      42.755  26.765  35.720  1.00  0.00    -0.203 F 
ATOM     90  F   UNL A   1      47.737  28.798  34.809  1.00  0.00    -0.200 F 
ATOM     91  C   UNL A   1      46.355  27.148  35.782  1.00  0.00     0.200 A 
ATOM     92  F   UNL A   1      44.934  25.514  36.722  1.00  0.00    -0.200 F 
ATOM     93  F   UNL A   1      47.431  26.506  36.257  1.00  0.00    -0.200 F 
ENDBRANCH  59  83
ENDBRANCH  24  27
ENDBRANCH  15  17
ENDBRANCH  10  13
ENDBRANCH   7  10
ENDBRANCH   4   7
ENDBRANCH   1   4
BRANCH   1  94
ATOM     94  C   UNL A   1      32.507  28.561  25.795  1.00  0.00    -0.036 C 
ATOM     95  H   UNL A   1      33.069  28.561  26.706  1.00  0.00     0.028 H 
ATOM     96  H   UNL A   1      33.101  28.349  24.931  1.00  0.00     0.028 H 
BRANCH  94  97
ATOM     97  C   UNL A   1      31.462  27.455  25.881  1.00  0.00     0.018 C 
ATOM     98  H   UNL A   1      31.107  27.391  26.888  1.00  0.00     0.049 H 
ATOM     99  H   UNL A   1      31.924  26.539  25.574  1.00  0.00     0.049 H 
BRANCH  97 100
ATOM    100  N   UNL A   1      30.335  27.701  25.004  1.00  0.00    -0.352 N 
ATOM    101  C   UNL A   1      30.147  27.268  23.717  1.00  0.00     0.255 C 
ATOM    102  H   UNL A   1      29.611  28.251  25.381  1.00  0.00     0.163 HD
ATOM    103  O   UNL A   1      29.171  27.644  23.074  1.00  0.00    -0.269 OA
BRANCH 101 104
ATOM    104  C   UNL A   1      31.169  26.423  23.068  1.00  0.00     0.082 A 
ATOM    105  C   UNL A   1      31.095  25.045  23.315  1.00  0.00    -0.038 A 
ATOM    106  C   UNL A   1      32.180  26.939  22.255  1.00  0.00     0.128 A 
ATOM    107  C   UNL A   1      32.002  24.162  22.718  1.00  0.00    -0.025 A 
ATOM    108  H   UNL A   1      30.363  24.677  23.943  1.00  0.00     0.064 H 
ATOM    109  C   UNL A   1      33.084  26.074  21.646  1.00  0.00    -0.019 A 
ATOM    110  C   UNL A   1      32.988  24.695  21.872  1.00  0.00    -0.051 A 
ATOM    111  H   UNL A   1      33.823  26.447  21.029  1.00  0.00     0.066 H 
ATOM    112  H   UNL A   1      33.654  24.060  21.407  1.00  0.00     0.063 H 
BRANCH 106 113
ATOM    113  O   UNL A   1      32.284  28.285  22.042  1.00  0.00    -0.507 OA
ATOM    114  H   UNL A   1      32.603  28.605  21.222  1.00  0.00     0.293 HD
ENDBRANCH 106 113
BRANCH 107 115
ATOM    115  C   UNL A   1      31.979  22.704  22.941  1.00  0.00    -0.054 C 
ATOM    116  C   UNL A   1      32.631  22.047  23.913  1.00  0.00    -0.054 C 
ATOM    117  H   UNL A   1      31.409  22.139  22.291  1.00  0.00     0.063 H 
ATOM    118  H   UNL A   1      33.186  22.595  24.589  1.00  0.00     0.063 H 
BRANCH 116 119
ATOM    119  C   UNL A   1      32.592  20.586  24.062  1.00  0.00    -0.018 A 
ATOM    120  C   UNL A   1      32.760  19.972  25.310  1.00  0.00    -0.013 A 
ATOM    121  C   UNL A   1      32.309  19.796  22.939  1.00  0.00    -0.013 A 
ATOM    122  C   UNL A   1      32.666  18.586  25.418  1.00  0.00     0.119 A 
ATOM    123  H   UNL A   1      32.953  20.544  26.147  1.00  0.00     0.067 H 
ATOM    124  C   UNL A   1      32.221  18.412  23.071  1.00  0.00     0.119 A 
ATOM    125  H   UNL A   1      32.165  20.239  22.018  1.00  0.00     0.067 H 
ATOM    126  C   UNL A   1      32.402  17.800  24.304  1.00  0.00     0.022 A 
ATOM    127  H   UNL A   1      32.340  16.773  24.393  1.00  0.00     0.070 H 
BRANCH 122 128
ATOM    128  O   UNL A   1      32.820  17.958  26.620  1.00  0.00    -0.508 OA
ATOM    129  H   UNL A   1      32.109  17.474  26.991  1.00  0.00     0.293 HD
ENDBRANCH 122 128
BRANCH 124 130
ATOM    130  O   UNL A   1      31.952  17.614  21.997  1.00  0.00    -0.508 OA
ATOM    131  H   UNL A   1      31.982  16.682  22.087  1.00  0.00     0.293 HD
ENDBRANCH 124 130
ENDBRANCH 116 119
ENDBRANCH 107 115
ENDBRANCH 101 104
ENDBRANCH  97 100
ENDBRANCH  94  97
ENDBRANCH   1  94
TORSDOF 18
ENDMDL
MODEL 9
REMARK VINA RESULT:     -12.5      6.058     10.856
REMARK SMILES O=C(NCCCCCCNC(=O)c1cc(/C=C/c2cc(O)cc(O)c2)ccc1O)c1ccc(-c2c3nc(c(-c4c(F)c(F)c(F)c(F)c4F)c4ccc([nH]4)c(-c4c(F)c(F)c(F)c(F)c4F)c4nc(c(-c5c(F)c(F)c(F)c(F)c5F)c5ccc2[nH]5)C=C4)C=C3)cc1
REMARK SMILES IDX 7 1 6 4 5 7 4 10 3 13 1 14 2 15 30 17 31 18 92 19 32 20
REMARK SMILES IDX 91 22 33 24 34 27 35 28 85 29 36 30 90 31 84 32 86 33 37 34
REMARK SMILES IDX 89 35 83 37 82 39 38 41 70 44 50 45 69 46 51 47 54 48 68 49
REMARK SMILES IDX 87 50 52 51 53 53 67 55 88 56 55 59 39 61 40 62 48 63 41 64
REMARK SMILES IDX 42 65 46 66 49 67 43 68 44 69 47 70 45 71 71 72 72 73 80 74
REMARK SMILES IDX 73 75 74 76 78 77 81 78 75 79 76 80 79 81 77 82 56 83 57 84
REMARK SMILES IDX 65 85 58 86 59 87 63 88 66 89 60 90 61 91 64 92 62 93 8 94
REMARK SMILES IDX 9 97 10 100 11 101 12 103 13 104 14 105 28 106 15 107 27 109
REMARK SMILES IDX 26 110 29 113 16 115 17 116 18 119 19 120 25 121 20 122
REMARK SMILES IDX 23 124 22 126 21 128 24 130
REMARK H PARENT 7 2 7 3 6 5 6 6 5 8 5 9 4 11 4 12 3 16 31 21 92 23 32 25 91 26
REMARK H PARENT 90 36 84 38 86 40 89 42 83 43 51 52 54 54 87 57 52 58 88 60
REMARK H PARENT 8 95 8 96 9 98 9 99 10 102 14 108 27 111 26 112 29 114 16 117
REMARK H PARENT 17 118 19 123 25 125 22 127 21 129 24 131
REMARK Flexibility Score: inf
ROOT
ATOM      1  C   UNL A   1      36.949  21.959  24.107  1.00  0.00    -0.052 C 
ATOM      2  H   UNL A   1      36.110  22.019  23.446  1.00  0.00     0.027 H 
ATOM      3  H   UNL A   1      37.885  21.836  23.603  1.00  0.00     0.027 H 
ENDROOT
BRANCH   1   4
ATOM      4  C   UNL A   1      36.773  20.712  24.981  1.00  0.00    -0.052 C 
ATOM      5  H   UNL A   1      36.597  21.034  25.986  1.00  0.00     0.027 H 
ATOM      6  H   UNL A   1      35.956  20.165  24.559  1.00  0.00     0.027 H 
BRANCH   4   7
ATOM      7  C   UNL A   1      37.965  19.756  24.992  1.00  0.00    -0.036 C 
ATOM      8  H   UNL A   1      37.640  18.821  25.397  1.00  0.00     0.028 H 
ATOM      9  H   UNL A   1      38.302  19.677  23.979  1.00  0.00     0.028 H 
BRANCH   7  10
ATOM     10  C   UNL A   1      39.153  20.241  25.808  1.00  0.00     0.018 C 
ATOM     11  H   UNL A   1      39.572  21.101  25.330  1.00  0.00     0.049 H 
ATOM     12  H   UNL A   1      38.803  20.471  26.791  1.00  0.00     0.049 H 
BRANCH  10  13
ATOM     13  N   UNL A   1      40.186  19.226  25.931  1.00  0.00    -0.352 N 
ATOM     14  O   UNL A   1      42.309  18.450  26.016  1.00  0.00    -0.269 OA
ATOM     15  C   UNL A   1      41.535  19.399  26.108  1.00  0.00     0.251 C 
ATOM     16  H   UNL A   1      39.878  18.292  25.882  1.00  0.00     0.163 HD
BRANCH  15  17
ATOM     17  C   UNL A   1      42.055  20.750  26.404  1.00  0.00     0.039 A 
ATOM     18  C   UNL A   1      42.466  21.588  25.363  1.00  0.00    -0.049 A 
ATOM     19  C   UNL A   1      42.115  21.186  27.729  1.00  0.00    -0.049 A 
ATOM     20  C   UNL A   1      43.033  22.821  25.652  1.00  0.00    -0.053 A 
ATOM     21  H   UNL A   1      42.347  21.290  24.382  1.00  0.00     0.063 H 
ATOM     22  C   UNL A   1      42.602  22.464  28.013  1.00  0.00    -0.053 A 
ATOM     23  H   UNL A   1      41.803  20.569  28.495  1.00  0.00     0.063 H 
ATOM     24  C   UNL A   1      43.065  23.290  26.976  1.00  0.00    -0.014 A 
ATOM     25  H   UNL A   1      43.431  23.396  24.893  1.00  0.00     0.063 H 
ATOM     26  H   UNL A   1      42.623  22.803  28.988  1.00  0.00     0.063 H 
BRANCH  24  27
ATOM     27  C   UNL A   1      43.440  24.701  27.230  1.00  0.00     0.031 A 
ATOM     28  C   UNL A   1      44.836  25.198  27.002  1.00  0.00     0.074 A 
ATOM     29  C   UNL A   1      42.482  25.528  27.693  1.00  0.00     0.049 A 
ATOM     30  N   UNL A   1      45.324  26.394  27.215  1.00  0.00    -0.248 NA
ATOM     31  C   UNL A   1      45.815  24.235  26.476  1.00  0.00    -0.034 C 
ATOM     32  C   UNL A   1      41.096  25.138  27.969  1.00  0.00    -0.036 A 
ATOM     33  N   UNL A   1      42.518  26.860  28.016  1.00  0.00    -0.354 N 
ATOM     34  C   UNL A   1      46.666  26.325  26.868  1.00  0.00     0.074 A 
ATOM     35  C   UNL A   1      46.923  24.966  26.442  1.00  0.00    -0.034 C 
ATOM     36  H   UNL A   1      45.676  23.249  26.204  1.00  0.00     0.065 H 
ATOM     37  C   UNL A   1      40.411  26.206  28.396  1.00  0.00    -0.036 A 
ATOM     38  H   UNL A   1      40.708  24.188  27.852  1.00  0.00     0.065 H 
ATOM     39  C   UNL A   1      41.323  27.337  28.498  1.00  0.00     0.049 A 
ATOM     40  H   UNL A   1      43.322  27.420  27.913  1.00  0.00     0.167 HD
ATOM     41  C   UNL A   1      47.591  27.314  26.909  1.00  0.00     0.037 A 
ATOM     42  H   UNL A   1      47.847  24.611  26.150  1.00  0.00     0.065 H 
ATOM     43  H   UNL A   1      39.403  26.226  28.617  1.00  0.00     0.065 H 
ATOM     44  C   UNL A   1      41.006  28.540  29.011  1.00  0.00     0.037 A 
ATOM     45  C   UNL A   1      47.311  28.667  27.320  1.00  0.00     0.049 A 
ATOM     46  C   UNL A   1      42.070  29.598  29.077  1.00  0.00     0.074 A 
ATOM     47  C   UNL A   1      48.161  29.761  27.316  1.00  0.00    -0.036 A 
ATOM     48  N   UNL A   1      46.097  29.110  27.824  1.00  0.00    -0.354 N 
ATOM     49  N   UNL A   1      43.314  29.543  28.669  1.00  0.00    -0.248 NA
ATOM     50  C   UNL A   1      41.689  30.880  29.681  1.00  0.00    -0.034 C 
ATOM     51  C   UNL A   1      47.485  30.844  27.884  1.00  0.00    -0.036 A 
ATOM     52  H   UNL A   1      49.129  29.773  26.956  1.00  0.00     0.065 H 
ATOM     53  C   UNL A   1      46.193  30.445  28.184  1.00  0.00     0.049 A 
ATOM     54  H   UNL A   1      45.288  28.557  27.914  1.00  0.00     0.167 HD
ATOM     55  C   UNL A   1      43.862  30.784  28.957  1.00  0.00     0.074 A 
ATOM     56  C   UNL A   1      42.804  31.582  29.542  1.00  0.00    -0.034 C 
ATOM     57  H   UNL A   1      40.790  31.162  30.103  1.00  0.00     0.065 H 
ATOM     58  H   UNL A   1      47.881  31.782  28.051  1.00  0.00     0.065 H 
ATOM     59  C   UNL A   1      45.130  31.221  28.767  1.00  0.00     0.037 A 
ATOM     60  H   UNL A   1      42.905  32.573  29.814  1.00  0.00     0.065 H 
BRANCH  41  61
ATOM     61  C   UNL A   1      49.005  26.991  26.522  1.00  0.00     0.064 A 
ATOM     62  C   UNL A   1      49.922  26.464  27.442  1.00  0.00     0.173 A 
ATOM     63  C   UNL A   1      49.410  27.105  25.182  1.00  0.00     0.173 A 
ATOM     64  F   UNL A   1      49.587  26.340  28.735  1.00  0.00    -0.203 F 
ATOM     65  C   UNL A   1      51.193  26.063  27.035  1.00  0.00     0.198 A 
ATOM     66  C   UNL A   1      50.671  26.679  24.775  1.00  0.00     0.198 A 
ATOM     67  F   UNL A   1      48.568  27.596  24.261  1.00  0.00    -0.203 F 
ATOM     68  F   UNL A   1      52.060  25.576  27.934  1.00  0.00    -0.200 F 
ATOM     69  C   UNL A   1      51.562  26.160  25.701  1.00  0.00     0.200 A 
ATOM     70  F   UNL A   1      51.019  26.758  23.483  1.00  0.00    -0.200 F 
ATOM     71  F   UNL A   1      52.776  25.749  25.308  1.00  0.00    -0.200 F 
ENDBRANCH  41  61
BRANCH  44  72
ATOM     72  C   UNL A   1      39.643  28.786  29.550  1.00  0.00     0.064 A 
ATOM     73  C   UNL A   1      38.638  29.354  28.755  1.00  0.00     0.173 A 
ATOM     74  C   UNL A   1      39.324  28.484  30.883  1.00  0.00     0.173 A 
ATOM     75  F   UNL A   1      38.897  29.676  27.478  1.00  0.00    -0.203 F 
ATOM     76  C   UNL A   1      37.381  29.642  29.281  1.00  0.00     0.198 A 
ATOM     77  C   UNL A   1      38.056  28.735  31.397  1.00  0.00     0.198 A 
ATOM     78  F   UNL A   1      40.246  27.932  31.687  1.00  0.00    -0.203 F 
ATOM     79  F   UNL A   1      36.461  30.245  28.517  1.00  0.00    -0.200 F 
ATOM     80  C   UNL A   1      37.090  29.328  30.600  1.00  0.00     0.200 A 
ATOM     81  F   UNL A   1      37.773  28.411  32.666  1.00  0.00    -0.200 F 
ATOM     82  F   UNL A   1      35.881  29.608  31.107  1.00  0.00    -0.200 F 
ENDBRANCH  44  72
BRANCH  59  83
ATOM     83  C   UNL A   1      45.436  32.628  29.189  1.00  0.00     0.064 A 
ATOM     84  C   UNL A   1      45.945  32.914  30.466  1.00  0.00     0.173 A 
ATOM     85  C   UNL A   1      45.253  33.696  28.299  1.00  0.00     0.173 A 
ATOM     86  F   UNL A   1      46.118  31.929  31.360  1.00  0.00    -0.203 F 
ATOM     87  C   UNL A   1      46.235  34.222  30.843  1.00  0.00     0.198 A 
ATOM     88  C   UNL A   1      45.577  34.999  28.668  1.00  0.00     0.198 A 
ATOM     89  F   UNL A   1      44.773  33.475  27.066  1.00  0.00    -0.203 F 
ATOM     90  F   UNL A   1      46.671  34.477  32.084  1.00  0.00    -0.200 F 
ATOM     91  C   UNL A   1      46.060  35.261  29.941  1.00  0.00     0.200 A 
ATOM     92  F   UNL A   1      45.422  35.999  27.791  1.00  0.00    -0.200 F 
ATOM     93  F   UNL A   1      46.351  36.518  30.302  1.00  0.00    -0.200 F 
ENDBRANCH  59  83
ENDBRANCH  24  27
ENDBRANCH  15  17
ENDBRANCH  10  13
ENDBRANCH   7  10
ENDBRANCH   4   7
ENDBRANCH   1   4
BRANCH   1  94
ATOM     94  C   UNL A   1      37.050  23.284  24.869  1.00  0.00    -0.036 C 
ATOM     95  H   UNL A   1      37.759  23.905  24.360  1.00  0.00     0.028 H 
ATOM     96  H   UNL A   1      37.346  23.036  25.866  1.00  0.00     0.028 H 
BRANCH  94  97
ATOM     97  C   UNL A   1      35.742  24.056  24.988  1.00  0.00     0.018 C 
ATOM     98  H   UNL A   1      35.913  24.941  25.564  1.00  0.00     0.049 H 
ATOM     99  H   UNL A   1      35.023  23.418  25.460  1.00  0.00     0.049 H 
BRANCH  97 100
ATOM    100  N   UNL A   1      35.216  24.438  23.692  1.00  0.00    -0.352 N 
ATOM    101  C   UNL A   1      33.964  24.211  23.182  1.00  0.00     0.255 C 
ATOM    102  H   UNL A   1      35.838  24.922  23.103  1.00  0.00     0.163 HD
ATOM    103  O   UNL A   1      33.703  24.520  22.022  1.00  0.00    -0.269 OA
BRANCH 101 104
ATOM    104  C   UNL A   1      32.953  23.507  23.995  1.00  0.00     0.082 A 
ATOM    105  C   UNL A   1      33.163  22.138  24.212  1.00  0.00    -0.038 A 
ATOM    106  C   UNL A   1      31.826  24.139  24.525  1.00  0.00     0.128 A 
ATOM    107  C   UNL A   1      32.274  21.394  24.996  1.00  0.00    -0.025 A 
ATOM    108  H   UNL A   1      33.982  21.674  23.790  1.00  0.00     0.064 H 
ATOM    109  C   UNL A   1      30.938  23.416  25.315  1.00  0.00    -0.019 A 
ATOM    110  C   UNL A   1      31.167  22.055  25.553  1.00  0.00    -0.051 A 
ATOM    111  H   UNL A   1      30.112  23.882  25.725  1.00  0.00     0.066 H 
ATOM    112  H   UNL A   1      30.511  21.529  26.150  1.00  0.00     0.063 H 
BRANCH 106 113
ATOM    113  O   UNL A   1      31.592  25.464  24.284  1.00  0.00    -0.507 OA
ATOM    114  H   UNL A   1      30.927  25.718  23.675  1.00  0.00     0.293 HD
ENDBRANCH 106 113
BRANCH 107 115
ATOM    115  C   UNL A   1      32.437  19.952  25.258  1.00  0.00    -0.054 C 
ATOM    116  C   UNL A   1      33.355  19.150  24.694  1.00  0.00    -0.054 C 
ATOM    117  H   UNL A   1      31.789  19.522  25.936  1.00  0.00     0.063 H 
ATOM    118  H   UNL A   1      34.030  19.564  24.033  1.00  0.00     0.063 H 
BRANCH 116 119
ATOM    119  C   UNL A   1      33.445  17.710  24.975  1.00  0.00    -0.018 A 
ATOM    120  C   UNL A   1      32.298  16.932  25.188  1.00  0.00    -0.013 A 
ATOM    121  C   UNL A   1      34.703  17.091  24.957  1.00  0.00    -0.013 A 
ATOM    122  C   UNL A   1      32.422  15.561  25.401  1.00  0.00     0.119 A 
ATOM    123  H   UNL A   1      31.366  17.374  25.188  1.00  0.00     0.067 H 
ATOM    124  C   UNL A   1      34.802  15.719  25.174  1.00  0.00     0.119 A 
ATOM    125  H   UNL A   1      35.551  17.651  24.782  1.00  0.00     0.067 H 
ATOM    126  C   UNL A   1      33.668  14.949  25.400  1.00  0.00     0.022 A 
ATOM    127  H   UNL A   1      33.751  13.933  25.565  1.00  0.00     0.070 H 
BRANCH 122 128
ATOM    128  O   UNL A   1      31.325  14.775  25.607  1.00  0.00    -0.508 OA
ATOM    129  H   UNL A   1      30.491  15.036  25.268  1.00  0.00     0.293 HD
ENDBRANCH 122 128
BRANCH 124 130
ATOM    130  O   UNL A   1      36.011  15.086  25.167  1.00  0.00    -0.508 OA
ATOM    131  H   UNL A   1      36.651  15.307  24.520  1.00  0.00     0.293 HD
ENDBRANCH 124 130
ENDBRANCH 116 119
ENDBRANCH 107 115
ENDBRANCH 101 104
ENDBRANCH  97 100
ENDBRANCH  94  97
ENDBRANCH   1  94
TORSDOF 18
ENDMDL
MODEL 10
REMARK VINA RESULT:     -12.5      1.657      2.562
REMARK SMILES O=C(NCCCCCCNC(=O)c1cc(/C=C/c2cc(O)cc(O)c2)ccc1O)c1ccc(-c2c3nc(c(-c4c(F)c(F)c(F)c(F)c4F)c4ccc([nH]4)c(-c4c(F)c(F)c(F)c(F)c4F)c4nc(c(-c5c(F)c(F)c(F)c(F)c5F)c5ccc2[nH]5)C=C4)C=C3)cc1
REMARK SMILES IDX 7 1 6 4 5 7 4 10 3 13 1 14 2 15 30 17 31 18 92 19 32 20
REMARK SMILES IDX 91 22 33 24 34 27 35 28 85 29 36 30 90 31 84 32 86 33 37 34
REMARK SMILES IDX 89 35 83 37 82 39 38 41 70 44 50 45 69 46 51 47 54 48 68 49
REMARK SMILES IDX 87 50 52 51 53 53 67 55 88 56 55 59 39 61 40 62 48 63 41 64
REMARK SMILES IDX 42 65 46 66 49 67 43 68 44 69 47 70 45 71 71 72 72 73 80 74
REMARK SMILES IDX 73 75 74 76 78 77 81 78 75 79 76 80 79 81 77 82 56 83 57 84
REMARK SMILES IDX 65 85 58 86 59 87 63 88 66 89 60 90 61 91 64 92 62 93 8 94
REMARK SMILES IDX 9 97 10 100 11 101 12 103 13 104 14 105 28 106 15 107 27 109
REMARK SMILES IDX 26 110 29 113 16 115 17 116 18 119 19 120 25 121 20 122
REMARK SMILES IDX 23 124 22 126 21 128 24 130
REMARK H PARENT 7 2 7 3 6 5 6 6 5 8 5 9 4 11 4 12 3 16 31 21 92 23 32 25 91 26
REMARK H PARENT 90 36 84 38 86 40 89 42 83 43 51 52 54 54 87 57 52 58 88 60
REMARK H PARENT 8 95 8 96 9 98 9 99 10 102 14 108 27 111 26 112 29 114 16 117
REMARK H PARENT 17 118 19 123 25 125 22 127 21 129 24 131
REMARK Flexibility Score: inf
ROOT
ATOM      1  C   UNL A   1      32.254  26.694  26.634  1.00  0.00    -0.052 C 
ATOM      2  H   UNL A   1      31.527  26.375  25.918  1.00  0.00     0.027 H 
ATOM      3  H   UNL A   1      32.271  26.097  27.523  1.00  0.00     0.027 H 
ENDROOT
BRANCH   1   4
ATOM      4  C   UNL A   1      31.886  28.112  27.084  1.00  0.00    -0.052 C 
ATOM      5  H   UNL A   1      30.963  28.060  27.621  1.00  0.00     0.027 H 
ATOM      6  H   UNL A   1      32.706  28.458  27.678  1.00  0.00     0.027 H 
BRANCH   4   7
ATOM      7  C   UNL A   1      31.720  29.126  25.954  1.00  0.00    -0.036 C 
ATOM      8  H   UNL A   1      31.601  28.589  25.036  1.00  0.00     0.028 H 
ATOM      9  H   UNL A   1      30.865  29.721  26.202  1.00  0.00     0.028 H 
BRANCH   7  10
ATOM     10  C   UNL A   1      32.886  30.089  25.795  1.00  0.00     0.018 C 
ATOM     11  H   UNL A   1      33.715  29.723  26.364  1.00  0.00     0.049 H 
ATOM     12  H   UNL A   1      33.122  30.148  24.754  1.00  0.00     0.049 H 
BRANCH  10  13
ATOM     13  N   UNL A   1      32.561  31.428  26.254  1.00  0.00    -0.352 N 
ATOM     14  O   UNL A   1      32.667  33.212  27.641  1.00  0.00    -0.269 OA
ATOM     15  C   UNL A   1      33.166  32.163  27.242  1.00  0.00     0.251 C 
ATOM     16  H   UNL A   1      31.808  31.867  25.796  1.00  0.00     0.163 HD
BRANCH  15  17
ATOM     17  C   UNL A   1      34.428  31.673  27.832  1.00  0.00     0.039 A 
ATOM     18  C   UNL A   1      35.508  32.544  28.004  1.00  0.00    -0.049 A 
ATOM     19  C   UNL A   1      34.525  30.339  28.233  1.00  0.00    -0.049 A 
ATOM     20  C   UNL A   1      36.719  32.058  28.479  1.00  0.00    -0.053 A 
ATOM     21  H   UNL A   1      35.406  33.545  27.777  1.00  0.00     0.063 H 
ATOM     22  C   UNL A   1      35.715  29.872  28.796  1.00  0.00    -0.053 A 
ATOM     23  H   UNL A   1      33.723  29.701  28.115  1.00  0.00     0.063 H 
ATOM     24  C   UNL A   1      36.820  30.729  28.923  1.00  0.00    -0.014 A 
ATOM     25  H   UNL A   1      37.545  32.675  28.508  1.00  0.00     0.063 H 
ATOM     26  H   UNL A   1      35.783  28.894  29.121  1.00  0.00     0.063 H 
BRANCH  24  27
ATOM     27  C   UNL A   1      38.037  30.307  29.654  1.00  0.00     0.031 A 
ATOM     28  C   UNL A   1      39.008  29.326  29.068  1.00  0.00     0.074 A 
ATOM     29  C   UNL A   1      38.239  30.824  30.883  1.00  0.00     0.049 A 
ATOM     30  N   UNL A   1      40.097  28.832  29.603  1.00  0.00    -0.248 NA
ATOM     31  C   UNL A   1      38.724  28.826  27.715  1.00  0.00    -0.034 C 
ATOM     32  C   UNL A   1      37.342  31.771  31.553  1.00  0.00    -0.036 A 
ATOM     33  N   UNL A   1      39.250  30.632  31.788  1.00  0.00    -0.354 N 
ATOM     34  C   UNL A   1      40.617  27.952  28.664  1.00  0.00     0.074 A 
ATOM     35  C   UNL A   1      39.720  27.968  27.528  1.00  0.00    -0.034 C 
ATOM     36  H   UNL A   1      37.953  29.078  27.077  1.00  0.00     0.065 H 
ATOM     37  C   UNL A   1      37.852  32.093  32.749  1.00  0.00    -0.036 A 
ATOM     38  H   UNL A   1      36.456  32.132  31.165  1.00  0.00     0.065 H 
ATOM     39  C   UNL A   1      39.069  31.322  32.963  1.00  0.00     0.049 A 
ATOM     40  H   UNL A   1      40.030  30.057  31.614  1.00  0.00     0.167 HD
ATOM     41  C   UNL A   1      41.742  27.204  28.755  1.00  0.00     0.037 A 
ATOM     42  H   UNL A   1      39.839  27.388  26.683  1.00  0.00     0.065 H 
ATOM     43  H   UNL A   1      37.451  32.777  33.409  1.00  0.00     0.065 H 
ATOM     44  C   UNL A   1      39.777  31.301  34.107  1.00  0.00     0.037 A 
ATOM     45  C   UNL A   1      42.633  27.215  29.888  1.00  0.00     0.049 A 
ATOM     46  C   UNL A   1      40.996  30.426  34.182  1.00  0.00     0.074 A 
ATOM     47  C   UNL A   1      43.841  26.555  30.040  1.00  0.00    -0.036 A 
ATOM     48  N   UNL A   1      42.406  27.906  31.070  1.00  0.00    -0.354 N 
ATOM     49  N   UNL A   1      41.522  29.661  33.257  1.00  0.00    -0.248 NA
ATOM     50  C   UNL A   1      41.714  30.403  35.462  1.00  0.00    -0.034 C 
ATOM     51  C   UNL A   1      44.308  26.789  31.336  1.00  0.00    -0.036 A 
ATOM     52  H   UNL A   1      44.314  25.988  29.319  1.00  0.00     0.065 H 
ATOM     53  C   UNL A   1      43.425  27.645  31.972  1.00  0.00     0.049 A 
ATOM     54  H   UNL A   1      41.636  28.494  31.241  1.00  0.00     0.167 HD
ATOM     55  C   UNL A   1      42.636  29.076  33.838  1.00  0.00     0.074 A 
ATOM     56  C   UNL A   1      42.731  29.601  35.184  1.00  0.00    -0.034 C 
ATOM     57  H   UNL A   1      41.487  30.885  36.347  1.00  0.00     0.065 H 
ATOM     58  H   UNL A   1      45.166  26.390  31.749  1.00  0.00     0.065 H 
ATOM     59  C   UNL A   1      43.499  28.175  33.310  1.00  0.00     0.037 A 
ATOM     60  H   UNL A   1      43.494  29.380  35.843  1.00  0.00     0.065 H 
BRANCH  41  61
ATOM     61  C   UNL A   1      42.086  26.284  27.619  1.00  0.00     0.064 A 
ATOM     62  C   UNL A   1      43.056  26.619  26.664  1.00  0.00     0.173 A 
ATOM     63  C   UNL A   1      41.517  25.002  27.556  1.00  0.00     0.173 A 
ATOM     64  F   UNL A   1      43.625  27.833  26.676  1.00  0.00    -0.203 F 
ATOM     65  C   UNL A   1      43.442  25.704  25.687  1.00  0.00     0.198 A 
ATOM     66  C   UNL A   1      41.925  24.082  26.595  1.00  0.00     0.198 A 
ATOM     67  F   UNL A   1      40.590  24.629  28.452  1.00  0.00    -0.203 F 
ATOM     68  F   UNL A   1      44.360  26.049  24.773  1.00  0.00    -0.200 F 
ATOM     69  C   UNL A   1      42.886  24.433  25.660  1.00  0.00     0.200 A 
ATOM     70  F   UNL A   1      41.398  22.849  26.582  1.00  0.00    -0.200 F 
ATOM     71  F   UNL A   1      43.279  23.546  24.736  1.00  0.00    -0.200 F 
ENDBRANCH  41  61
BRANCH  44  72
ATOM     72  C   UNL A   1      39.321  32.087  35.282  1.00  0.00     0.064 A 
ATOM     73  C   UNL A   1      38.511  31.513  36.271  1.00  0.00     0.173 A 
ATOM     74  C   UNL A   1      39.663  33.441  35.427  1.00  0.00     0.173 A 
ATOM     75  F   UNL A   1      38.143  30.226  36.171  1.00  0.00    -0.203 F 
ATOM     76  C   UNL A   1      38.033  32.270  37.338  1.00  0.00     0.198 A 
ATOM     77  C   UNL A   1      39.218  34.186  36.515  1.00  0.00     0.198 A 
ATOM     78  F   UNL A   1      40.442  34.039  34.513  1.00  0.00    -0.203 F 
ATOM     79  F   UNL A   1      37.207  31.712  38.233  1.00  0.00    -0.200 F 
ATOM     80  C   UNL A   1      38.390  33.604  37.461  1.00  0.00     0.200 A 
ATOM     81  F   UNL A   1      39.584  35.469  36.639  1.00  0.00    -0.200 F 
ATOM     82  F   UNL A   1      37.928  34.332  38.486  1.00  0.00    -0.200 F 
ENDBRANCH  44  72
BRANCH  59  83
ATOM     83  C   UNL A   1      44.621  27.708  34.189  1.00  0.00     0.064 A 
ATOM     84  C   UNL A   1      44.489  26.572  35.002  1.00  0.00     0.173 A 
ATOM     85  C   UNL A   1      45.851  28.383  34.195  1.00  0.00     0.173 A 
ATOM     86  F   UNL A   1      43.325  25.905  35.047  1.00  0.00    -0.203 F 
ATOM     87  C   UNL A   1      45.540  26.142  35.807  1.00  0.00     0.198 A 
ATOM     88  C   UNL A   1      46.911  27.929  34.975  1.00  0.00     0.198 A 
ATOM     89  F   UNL A   1      46.030  29.472  33.434  1.00  0.00    -0.203 F 
ATOM     90  F   UNL A   1      45.375  25.085  36.613  1.00  0.00    -0.200 F 
ATOM     91  C   UNL A   1      46.753  26.816  35.785  1.00  0.00     0.200 A 
ATOM     92  F   UNL A   1      48.087  28.572  34.942  1.00  0.00    -0.200 F 
ATOM     93  F   UNL A   1      47.767  26.394  36.552  1.00  0.00    -0.200 F 
ENDBRANCH  59  83
ENDBRANCH  24  27
ENDBRANCH  15  17
ENDBRANCH  10  13
ENDBRANCH   7  10
ENDBRANCH   4   7
ENDBRANCH   1   4
BRANCH   1  94
ATOM     94  C   UNL A   1      33.641  26.546  26.000  1.00  0.00    -0.036 C 
ATOM     95  H   UNL A   1      34.359  26.970  26.672  1.00  0.00     0.028 H 
ATOM     96  H   UNL A   1      33.596  27.050  25.058  1.00  0.00     0.028 H 
BRANCH  94  97
ATOM     97  C   UNL A   1      34.059  25.111  25.701  1.00  0.00     0.018 C 
ATOM     98  H   UNL A   1      33.246  24.457  25.938  1.00  0.00     0.049 H 
ATOM     99  H   UNL A   1      34.922  24.888  26.294  1.00  0.00     0.049 H 
BRANCH  97 100
ATOM    100  N   UNL A   1      34.415  24.928  24.308  1.00  0.00    -0.352 N 
ATOM    101  C   UNL A   1      33.618  25.064  23.202  1.00  0.00     0.255 C 
ATOM    102  H   UNL A   1      35.350  24.672  24.135  1.00  0.00     0.163 HD
ATOM    103  O   UNL A   1      34.052  24.780  22.088  1.00  0.00    -0.269 OA
BRANCH 101 104
ATOM    104  C   UNL A   1      32.204  25.460  23.356  1.00  0.00     0.082 A 
ATOM    105  C   UNL A   1      31.852  26.731  22.882  1.00  0.00    -0.038 A 
ATOM    106  C   UNL A   1      31.244  24.640  23.952  1.00  0.00     0.128 A 
ATOM    107  C   UNL A   1      30.529  27.181  22.957  1.00  0.00    -0.025 A 
ATOM    108  H   UNL A   1      32.576  27.342  22.472  1.00  0.00     0.064 H 
ATOM    109  C   UNL A   1      29.922  25.068  24.026  1.00  0.00    -0.019 A 
ATOM    110  C   UNL A   1      29.569  26.327  23.525  1.00  0.00    -0.051 A 
ATOM    111  H   UNL A   1      29.204  24.459  24.449  1.00  0.00     0.066 H 
ATOM    112  H   UNL A   1      28.585  26.631  23.572  1.00  0.00     0.063 H 
BRANCH 106 113
ATOM    113  O   UNL A   1      31.587  23.416  24.454  1.00  0.00    -0.507 OA
ATOM    114  H   UNL A   1      30.919  22.819  24.728  1.00  0.00     0.293 HD
ENDBRANCH 106 113
BRANCH 107 115
ATOM    115  C   UNL A   1      30.096  28.507  22.480  1.00  0.00    -0.054 C 
ATOM    116  C   UNL A   1      29.105  29.246  23.004  1.00  0.00    -0.054 C 
ATOM    117  H   UNL A   1      30.602  28.903  21.672  1.00  0.00     0.063 H 
ATOM    118  H   UNL A   1      28.603  28.881  23.828  1.00  0.00     0.063 H 
BRANCH 116 119
ATOM    119  C   UNL A   1      28.700  30.550  22.460  1.00  0.00    -0.018 A 
ATOM    120  C   UNL A   1      28.907  31.738  23.175  1.00  0.00    -0.013 A 
ATOM    121  C   UNL A   1      28.162  30.610  21.167  1.00  0.00    -0.013 A 
ATOM    122  C   UNL A   1      28.557  32.959  22.605  1.00  0.00     0.119 A 
ATOM    123  H   UNL A   1      29.318  31.707  24.121  1.00  0.00     0.067 H 
ATOM    124  C   UNL A   1      27.817  31.843  20.618  1.00  0.00     0.119 A 
ATOM    125  H   UNL A   1      28.023  29.744  20.624  1.00  0.00     0.067 H 
ATOM    126  C   UNL A   1      28.007  33.020  21.331  1.00  0.00     0.022 A 
ATOM    127  H   UNL A   1      27.745  33.929  20.918  1.00  0.00     0.070 H 
BRANCH 122 128
ATOM    128  O   UNL A   1      28.749  34.134  23.273  1.00  0.00    -0.508 OA
ATOM    129  H   UNL A   1      28.352  34.922  22.959  1.00  0.00     0.293 HD
ENDBRANCH 122 128
BRANCH 124 130
ATOM    130  O   UNL A   1      27.287  31.936  19.364  1.00  0.00    -0.508 OA
ATOM    131  H   UNL A   1      26.688  32.627  19.159  1.00  0.00     0.293 HD
ENDBRANCH 124 130
ENDBRANCH 116 119
ENDBRANCH 107 115
ENDBRANCH 101 104
ENDBRANCH  97 100
ENDBRANCH  94  97
ENDBRANCH   1  94
TORSDOF 18
ENDMDL
