MODEL 1
REMARK VINA RESULT:     -12.5      0.000      0.000
REMARK SMILES Cc1ccc2c(c1)c(-c1ccnc3c(C)cccc13)c(C)n2CC(=O)NCCCCCCNC(=O)c1ccc(-c2c3nc(c(-c4c(F)c(F)c(F)c(F)c4F)c4ccc([nH]4)c(-c4c(F)c(F)c(F)c(F)c4F)c4nc(c(-c5c(F)c(F)c(F)c(F)c5F)c5ccc2[nH]5)C=C4)C=C3)cc1
REMARK SMILES IDX 29 1 28 4 27 7 26 10 24 11 25 12 23 14 22 17 2 18 3 19 7 20
REMARK SMILES IDX 4 21 6 23 5 25 8 27 20 28 1 29 9 33 10 34 19 35 11 36 13 38
REMARK SMILES IDX 18 39 12 40 14 42 17 43 16 45 15 48 21 52 30 56 31 59 32 62
REMARK SMILES IDX 33 65 34 66 35 68 36 69 37 70 98 71 38 72 97 74 39 76 40 79
REMARK SMILES IDX 41 80 91 81 42 82 96 83 90 84 92 85 43 86 95 87 89 89 88 91
REMARK SMILES IDX 44 93 76 96 56 97 75 98 57 99 60 100 74 101 93 102 58 103
REMARK SMILES IDX 59 105 73 107 94 108 61 111 45 113 46 114 54 115 47 116
REMARK SMILES IDX 48 117 52 118 55 119 49 120 50 121 53 122 51 123 77 124
REMARK SMILES IDX 78 125 86 126 79 127 80 128 84 129 87 130 81 131 82 132
REMARK SMILES IDX 85 133 83 134 62 135 63 136 71 137 64 138 65 139 69 140
REMARK SMILES IDX 72 141 66 142 67 143 70 144 68 145
REMARK H PARENT 29 2 29 3 28 5 28 6 27 8 27 9 26 13 23 15 23 16 3 22 7 24 4 26
REMARK H PARENT 1 30 1 31 1 32 10 37 11 41 18 44 17 46 16 47 15 49 15 50 15 51
REMARK H PARENT 21 53 21 54 21 55 30 57 30 58 31 60 31 61 32 63 32 64 33 67
REMARK H PARENT 37 73 98 75 38 77 97 78 96 88 90 90 92 92 95 94 89 95 57 104
REMARK H PARENT 60 106 93 109 58 110 94 112
REMARK Flexibility Score: inf
ROOT
ATOM      1  C   UNL A   1      41.583  20.648  27.529  1.00  0.00    -0.052 C 
ATOM      2  H   UNL A   1      41.144  20.869  28.479  1.00  0.00     0.027 H 
ATOM      3  H   UNL A   1      42.365  21.328  27.259  1.00  0.00     0.027 H 
ENDROOT
BRANCH   1   4
ATOM      4  C   UNL A   1      40.497  20.789  26.455  1.00  0.00    -0.036 C 
ATOM      5  H   UNL A   1      40.974  20.825  25.498  1.00  0.00     0.028 H 
ATOM      6  H   UNL A   1      39.847  19.947  26.562  1.00  0.00     0.028 H 
BRANCH   4   7
ATOM      7  C   UNL A   1      39.630  22.036  26.605  1.00  0.00     0.017 C 
ATOM      8  H   UNL A   1      38.932  21.883  27.401  1.00  0.00     0.049 H 
ATOM      9  H   UNL A   1      40.269  22.869  26.817  1.00  0.00     0.049 H 
BRANCH   7  10
ATOM     10  N   UNL A   1      38.899  22.321  25.385  1.00  0.00    -0.355 N 
ATOM     11  C   UNL A   1      37.666  21.887  24.991  1.00  0.00     0.239 C 
ATOM     12  O   UNL A   1      37.272  22.228  23.871  1.00  0.00    -0.273 OA
ATOM     13  H   UNL A   1      39.360  22.913  24.748  1.00  0.00     0.163 HD
BRANCH  11  14
ATOM     14  C   UNL A   1      36.778  21.087  25.925  1.00  0.00     0.102 C 
ATOM     15  H   UNL A   1      37.072  20.060  25.871  1.00  0.00     0.060 H 
ATOM     16  H   UNL A   1      36.906  21.502  26.903  1.00  0.00     0.060 H 
BRANCH  14  17
ATOM     17  N   UNL A   1      35.354  21.173  25.614  1.00  0.00    -0.335 N 
ATOM     18  C   UNL A   1      32.805  18.620  23.542  1.00  0.00    -0.050 A 
ATOM     19  C   UNL A   1      34.067  18.116  23.856  1.00  0.00    -0.057 A 
ATOM     20  C   UNL A   1      32.442  19.902  23.985  1.00  0.00    -0.049 A 
ATOM     21  C   UNL A   1      34.987  18.869  24.591  1.00  0.00    -0.037 A 
ATOM     22  H   UNL A   1      34.328  17.169  23.540  1.00  0.00     0.063 H 
ATOM     23  C   UNL A   1      33.358  20.687  24.721  1.00  0.00     0.008 A 
ATOM     24  H   UNL A   1      31.503  20.273  23.771  1.00  0.00     0.063 H 
ATOM     25  C   UNL A   1      34.627  20.170  24.987  1.00  0.00     0.049 A 
ATOM     26  H   UNL A   1      35.911  18.479  24.837  1.00  0.00     0.065 H 
ATOM     27  C   UNL A   1      33.304  21.988  25.301  1.00  0.00     0.011 A 
ATOM     28  C   UNL A   1      34.532  22.248  25.893  1.00  0.00     0.024 A 
BRANCH  18  29
ATOM     29  C   UNL A   1      31.868  17.803  22.702  1.00  0.00    -0.040 C 
ATOM     30  H   UNL A   1      30.961  17.633  23.242  1.00  0.00     0.028 H 
ATOM     31  H   UNL A   1      32.325  16.864  22.469  1.00  0.00     0.028 H 
ATOM     32  H   UNL A   1      31.651  18.329  21.796  1.00  0.00     0.028 H 
ENDBRANCH  18  29
BRANCH  27  33
ATOM     33  C   UNL A   1      32.203  22.945  25.307  1.00  0.00    -0.005 A 
ATOM     34  C   UNL A   1      31.337  22.936  26.396  1.00  0.00    -0.035 A 
ATOM     35  C   UNL A   1      32.019  23.887  24.261  1.00  0.00     0.008 A 
ATOM     36  C   UNL A   1      30.331  23.874  26.423  1.00  0.00     0.028 A 
ATOM     37  H   UNL A   1      31.445  22.247  27.159  1.00  0.00     0.065 H 
ATOM     38  C   UNL A   1      30.965  24.818  24.391  1.00  0.00     0.074 A 
ATOM     39  C   UNL A   1      32.839  23.933  23.110  1.00  0.00    -0.052 A 
ATOM     40  N   UNL A   1      30.140  24.800  25.460  1.00  0.00    -0.256 NA
ATOM     41  H   UNL A   1      29.685  23.871  27.228  1.00  0.00     0.084 H 
ATOM     42  C   UNL A   1      30.794  25.778  23.380  1.00  0.00    -0.025 A 
ATOM     43  C   UNL A   1      32.643  24.873  22.106  1.00  0.00    -0.061 A 
ATOM     44  H   UNL A   1      33.605  23.250  23.013  1.00  0.00     0.063 H 
ATOM     45  C   UNL A   1      31.623  25.797  22.243  1.00  0.00    -0.057 A 
ATOM     46  H   UNL A   1      33.249  24.881  21.271  1.00  0.00     0.062 H 
ATOM     47  H   UNL A   1      31.470  26.504  21.508  1.00  0.00     0.063 H 
BRANCH  42  48
ATOM     48  C   UNL A   1      29.720  26.831  23.466  1.00  0.00    -0.038 C 
ATOM     49  H   UNL A   1      28.894  26.453  24.032  1.00  0.00     0.028 H 
ATOM     50  H   UNL A   1      29.389  27.085  22.480  1.00  0.00     0.028 H 
ATOM     51  H   UNL A   1      30.113  27.702  23.946  1.00  0.00     0.028 H 
ENDBRANCH  42  48
ENDBRANCH  27  33
BRANCH  28  52
ATOM     52  C   UNL A   1      34.972  23.462  26.649  1.00  0.00    -0.024 C 
ATOM     53  H   UNL A   1      34.256  23.685  27.412  1.00  0.00     0.030 H 
ATOM     54  H   UNL A   1      35.048  24.291  25.977  1.00  0.00     0.030 H 
ATOM     55  H   UNL A   1      35.925  23.276  27.097  1.00  0.00     0.030 H 
ENDBRANCH  28  52
ENDBRANCH  14  17
ENDBRANCH  11  14
ENDBRANCH   7  10
ENDBRANCH   4   7
ENDBRANCH   1   4
BRANCH   1  56
ATOM     56  C   UNL A   1      42.226  19.260  27.610  1.00  0.00    -0.052 C 
ATOM     57  H   UNL A   1      41.545  18.610  28.117  1.00  0.00     0.027 H 
ATOM     58  H   UNL A   1      43.154  19.391  28.124  1.00  0.00     0.027 H 
BRANCH  56  59
ATOM     59  C   UNL A   1      42.570  18.627  26.259  1.00  0.00    -0.036 C 
ATOM     60  H   UNL A   1      42.120  19.216  25.489  1.00  0.00     0.028 H 
ATOM     61  H   UNL A   1      42.197  17.624  26.289  1.00  0.00     0.028 H 
BRANCH  59  62
ATOM     62  C   UNL A   1      44.070  18.525  25.970  1.00  0.00     0.018 C 
ATOM     63  H   UNL A   1      44.341  17.490  25.956  1.00  0.00     0.049 H 
ATOM     64  H   UNL A   1      44.572  19.072  26.741  1.00  0.00     0.049 H 
BRANCH  62  65
ATOM     65  N   UNL A   1      44.468  19.117  24.709  1.00  0.00    -0.352 N 
ATOM     66  C   UNL A   1      44.658  20.400  24.261  1.00  0.00     0.251 C 
ATOM     67  H   UNL A   1      44.644  18.442  24.014  1.00  0.00     0.163 HD
ATOM     68  O   UNL A   1      45.132  20.523  23.140  1.00  0.00    -0.269 OA
BRANCH  66  69
ATOM     69  C   UNL A   1      44.260  21.628  25.010  1.00  0.00     0.039 A 
ATOM     70  C   UNL A   1      43.178  22.448  24.706  1.00  0.00    -0.049 A 
ATOM     71  C   UNL A   1      45.101  22.000  26.078  1.00  0.00    -0.049 A 
ATOM     72  C   UNL A   1      43.012  23.664  25.357  1.00  0.00    -0.053 A 
ATOM     73  H   UNL A   1      42.494  22.151  23.993  1.00  0.00     0.063 H 
ATOM     74  C   UNL A   1      44.918  23.201  26.762  1.00  0.00    -0.053 A 
ATOM     75  H   UNL A   1      45.868  21.370  26.360  1.00  0.00     0.063 H 
ATOM     76  C   UNL A   1      43.899  24.056  26.364  1.00  0.00    -0.014 A 
ATOM     77  H   UNL A   1      42.229  24.283  25.094  1.00  0.00     0.063 H 
ATOM     78  H   UNL A   1      45.531  23.450  27.553  1.00  0.00     0.063 H 
BRANCH  76  79
ATOM     79  C   UNL A   1      43.620  25.325  27.032  1.00  0.00     0.031 A 
ATOM     80  C   UNL A   1      44.631  26.390  26.776  1.00  0.00     0.074 A 
ATOM     81  C   UNL A   1      42.533  25.572  27.789  1.00  0.00     0.049 A 
ATOM     82  N   UNL A   1      45.414  26.966  27.631  1.00  0.00    -0.248 NA
ATOM     83  C   UNL A   1      44.880  26.775  25.379  1.00  0.00    -0.034 C 
ATOM     84  C   UNL A   1      41.328  24.755  27.941  1.00  0.00    -0.036 A 
ATOM     85  N   UNL A   1      42.256  26.676  28.543  1.00  0.00    -0.354 N 
ATOM     86  C   UNL A   1      46.158  27.896  26.907  1.00  0.00     0.074 A 
ATOM     87  C   UNL A   1      45.872  27.655  25.518  1.00  0.00    -0.034 C 
ATOM     88  H   UNL A   1      44.411  26.450  24.520  1.00  0.00     0.065 H 
ATOM     89  C   UNL A   1      40.372  25.481  28.565  1.00  0.00    -0.036 A 
ATOM     90  H   UNL A   1      41.224  23.780  27.622  1.00  0.00     0.065 H 
ATOM     91  C   UNL A   1      40.942  26.753  28.983  1.00  0.00     0.049 A 
ATOM     92  H   UNL A   1      42.931  27.361  28.756  1.00  0.00     0.167 HD
ATOM     93  C   UNL A   1      46.812  28.918  27.526  1.00  0.00     0.037 A 
ATOM     94  H   UNL A   1      46.369  28.105  24.732  1.00  0.00     0.065 H 
ATOM     95  H   UNL A   1      39.397  25.182  28.720  1.00  0.00     0.065 H 
ATOM     96  C   UNL A   1      40.359  27.806  29.605  1.00  0.00     0.037 A 
ATOM     97  C   UNL A   1      47.015  28.637  28.922  1.00  0.00     0.049 A 
ATOM     98  C   UNL A   1      41.438  28.625  30.202  1.00  0.00     0.074 A 
ATOM     99  C   UNL A   1      47.743  27.714  29.642  1.00  0.00    -0.036 A 
ATOM    100  N   UNL A   1      46.138  29.205  29.810  1.00  0.00    -0.354 N 
ATOM    101  N   UNL A   1      42.168  28.253  31.215  1.00  0.00    -0.248 NA
ATOM    102  C   UNL A   1      41.956  29.750  29.438  1.00  0.00    -0.034 C 
ATOM    103  C   UNL A   1      46.977  27.464  30.818  1.00  0.00    -0.036 A 
ATOM    104  H   UNL A   1      48.650  27.292  29.385  1.00  0.00     0.065 H 
ATOM    105  C   UNL A   1      45.841  28.274  30.768  1.00  0.00     0.049 A 
ATOM    106  H   UNL A   1      45.784  30.121  29.765  1.00  0.00     0.167 HD
ATOM    107  C   UNL A   1      43.416  28.794  30.961  1.00  0.00     0.074 A 
ATOM    108  C   UNL A   1      43.189  29.812  29.942  1.00  0.00    -0.034 C 
ATOM    109  H   UNL A   1      41.500  30.330  28.717  1.00  0.00     0.065 H 
ATOM    110  H   UNL A   1      47.218  26.802  31.572  1.00  0.00     0.065 H 
ATOM    111  C   UNL A   1      44.546  28.168  31.399  1.00  0.00     0.037 A 
ATOM    112  H   UNL A   1      43.900  30.499  29.645  1.00  0.00     0.065 H 
BRANCH  93 113
ATOM    113  C   UNL A   1      46.936  30.317  26.967  1.00  0.00     0.064 A 
ATOM    114  C   UNL A   1      48.190  30.966  27.007  1.00  0.00     0.173 A 
ATOM    115  C   UNL A   1      45.833  31.154  26.693  1.00  0.00     0.173 A 
ATOM    116  F   UNL A   1      49.310  30.277  27.273  1.00  0.00    -0.203 F 
ATOM    117  C   UNL A   1      48.312  32.352  26.875  1.00  0.00     0.198 A 
ATOM    118  C   UNL A   1      45.966  32.530  26.511  1.00  0.00     0.198 A 
ATOM    119  F   UNL A   1      44.574  30.701  26.702  1.00  0.00    -0.203 F 
ATOM    120  F   UNL A   1      49.505  32.935  27.054  1.00  0.00    -0.200 F 
ATOM    121  C   UNL A   1      47.198  33.135  26.636  1.00  0.00     0.200 A 
ATOM    122  F   UNL A   1      44.871  33.274  26.298  1.00  0.00    -0.200 F 
ATOM    123  F   UNL A   1      47.301  34.468  26.575  1.00  0.00    -0.200 F 
ENDBRANCH  93 113
BRANCH  96 124
ATOM    124  C   UNL A   1      38.971  28.315  29.488  1.00  0.00     0.064 A 
ATOM    125  C   UNL A   1      38.183  28.523  30.635  1.00  0.00     0.173 A 
ATOM    126  C   UNL A   1      38.505  28.900  28.297  1.00  0.00     0.173 A 
ATOM    127  F   UNL A   1      38.572  28.031  31.821  1.00  0.00    -0.203 F 
ATOM    128  C   UNL A   1      37.029  29.313  30.600  1.00  0.00     0.198 A 
ATOM    129  C   UNL A   1      37.347  29.680  28.262  1.00  0.00     0.198 A 
ATOM    130  F   UNL A   1      39.216  28.814  27.164  1.00  0.00    -0.203 F 
ATOM    131  F   UNL A   1      36.351  29.555  31.731  1.00  0.00    -0.200 F 
ATOM    132  C   UNL A   1      36.622  29.903  29.417  1.00  0.00     0.200 A 
ATOM    133  F   UNL A   1      36.982  30.274  27.117  1.00  0.00    -0.200 F 
ATOM    134  F   UNL A   1      35.560  30.720  29.397  1.00  0.00    -0.200 F 
ENDBRANCH  96 124
BRANCH 111 135
ATOM    135  C   UNL A   1      44.393  27.109  32.454  1.00  0.00     0.064 A 
ATOM    136  C   UNL A   1      44.233  25.740  32.181  1.00  0.00     0.173 A 
ATOM    137  C   UNL A   1      44.557  27.488  33.793  1.00  0.00     0.173 A 
ATOM    138  F   UNL A   1      44.163  25.288  30.922  1.00  0.00    -0.203 F 
ATOM    139  C   UNL A   1      44.205  24.800  33.211  1.00  0.00     0.198 A 
ATOM    140  C   UNL A   1      44.569  26.544  34.814  1.00  0.00     0.198 A 
ATOM    141  F   UNL A   1      44.763  28.777  34.106  1.00  0.00    -0.203 F 
ATOM    142  F   UNL A   1      44.045  23.498  32.930  1.00  0.00    -0.200 F 
ATOM    143  C   UNL A   1      44.385  25.202  34.524  1.00  0.00     0.200 A 
ATOM    144  F   UNL A   1      44.793  26.933  36.077  1.00  0.00    -0.200 F 
ATOM    145  F   UNL A   1      44.410  24.293  35.509  1.00  0.00    -0.200 F 
ENDBRANCH 111 135
ENDBRANCH  76  79
ENDBRANCH  66  69
ENDBRANCH  62  65
ENDBRANCH  59  62
ENDBRANCH  56  59
ENDBRANCH   1  56
TORSDOF 18
ENDMDL
MODEL 2
REMARK VINA RESULT:     -12.4      4.660     10.393
REMARK SMILES Cc1ccc2c(c1)c(-c1ccnc3c(C)cccc13)c(C)n2CC(=O)NCCCCCCNC(=O)c1ccc(-c2c3nc(c(-c4c(F)c(F)c(F)c(F)c4F)c4ccc([nH]4)c(-c4c(F)c(F)c(F)c(F)c4F)c4nc(c(-c5c(F)c(F)c(F)c(F)c5F)c5ccc2[nH]5)C=C4)C=C3)cc1
REMARK SMILES IDX 29 1 28 4 27 7 26 10 24 11 25 12 23 14 22 17 2 18 3 19 7 20
REMARK SMILES IDX 4 21 6 23 5 25 8 27 20 28 1 29 9 33 10 34 19 35 11 36 13 38
REMARK SMILES IDX 18 39 12 40 14 42 17 43 16 45 15 48 21 52 30 56 31 59 32 62
REMARK SMILES IDX 33 65 34 66 35 68 36 69 37 70 98 71 38 72 97 74 39 76 40 79
REMARK SMILES IDX 41 80 91 81 42 82 96 83 90 84 92 85 43 86 95 87 89 89 88 91
REMARK SMILES IDX 44 93 76 96 56 97 75 98 57 99 60 100 74 101 93 102 58 103
REMARK SMILES IDX 59 105 73 107 94 108 61 111 45 113 46 114 54 115 47 116
REMARK SMILES IDX 48 117 52 118 55 119 49 120 50 121 53 122 51 123 77 124
REMARK SMILES IDX 78 125 86 126 79 127 80 128 84 129 87 130 81 131 82 132
REMARK SMILES IDX 85 133 83 134 62 135 63 136 71 137 64 138 65 139 69 140
REMARK SMILES IDX 72 141 66 142 67 143 70 144 68 145
REMARK H PARENT 29 2 29 3 28 5 28 6 27 8 27 9 26 13 23 15 23 16 3 22 7 24 4 26
REMARK H PARENT 1 30 1 31 1 32 10 37 11 41 18 44 17 46 16 47 15 49 15 50 15 51
REMARK H PARENT 21 53 21 54 21 55 30 57 30 58 31 60 31 61 32 63 32 64 33 67
REMARK H PARENT 37 73 98 75 38 77 97 78 96 88 90 90 92 92 95 94 89 95 57 104
REMARK H PARENT 60 106 93 109 58 110 94 112
REMARK Flexibility Score: inf
ROOT
ATOM      1  C   UNL A   1      35.371  33.960  28.476  1.00  0.00    -0.052 C 
ATOM      2  H   UNL A   1      35.963  33.758  27.607  1.00  0.00     0.027 H 
ATOM      3  H   UNL A   1      35.941  33.964  29.381  1.00  0.00     0.027 H 
ENDROOT
BRANCH   1   4
ATOM      4  C   UNL A   1      34.335  32.839  28.621  1.00  0.00    -0.036 C 
ATOM      5  H   UNL A   1      34.269  32.575  29.656  1.00  0.00     0.028 H 
ATOM      6  H   UNL A   1      33.413  33.218  28.232  1.00  0.00     0.028 H 
BRANCH   4   7
ATOM      7  C   UNL A   1      34.664  31.578  27.826  1.00  0.00     0.017 C 
ATOM      8  H   UNL A   1      34.680  31.818  26.784  1.00  0.00     0.049 H 
ATOM      9  H   UNL A   1      35.620  31.217  28.146  1.00  0.00     0.049 H 
BRANCH   7  10
ATOM     10  N   UNL A   1      33.682  30.537  28.057  1.00  0.00    -0.355 N 
ATOM     11  C   UNL A   1      32.850  29.917  27.170  1.00  0.00     0.239 C 
ATOM     12  O   UNL A   1      32.054  29.086  27.618  1.00  0.00    -0.273 OA
ATOM     13  H   UNL A   1      33.604  30.233  28.990  1.00  0.00     0.163 HD
BRANCH  11  14
ATOM     14  C   UNL A   1      32.954  30.178  25.679  1.00  0.00     0.102 C 
ATOM     15  H   UNL A   1      32.466  31.106  25.465  1.00  0.00     0.060 H 
ATOM     16  H   UNL A   1      33.997  30.195  25.441  1.00  0.00     0.060 H 
BRANCH  14  17
ATOM     17  N   UNL A   1      32.350  29.140  24.848  1.00  0.00    -0.335 N 
ATOM     18  C   UNL A   1      28.644  28.891  22.973  1.00  0.00    -0.050 A 
ATOM     19  C   UNL A   1      28.990  30.135  23.501  1.00  0.00    -0.057 A 
ATOM     20  C   UNL A   1      29.563  27.832  23.039  1.00  0.00    -0.049 A 
ATOM     21  C   UNL A   1      30.230  30.345  24.111  1.00  0.00    -0.037 A 
ATOM     22  H   UNL A   1      28.318  30.915  23.441  1.00  0.00     0.063 H 
ATOM     23  C   UNL A   1      30.820  28.016  23.659  1.00  0.00     0.008 A 
ATOM     24  H   UNL A   1      29.319  26.915  22.634  1.00  0.00     0.063 H 
ATOM     25  C   UNL A   1      31.122  29.262  24.212  1.00  0.00     0.049 A 
ATOM     26  H   UNL A   1      30.486  31.276  24.479  1.00  0.00     0.065 H 
ATOM     27  C   UNL A   1      31.945  27.172  23.885  1.00  0.00     0.011 A 
ATOM     28  C   UNL A   1      32.902  27.902  24.577  1.00  0.00     0.024 A 
BRANCH  18  29
ATOM     29  C   UNL A   1      27.281  28.691  22.379  1.00  0.00    -0.040 C 
ATOM     30  H   UNL A   1      26.893  29.632  22.051  1.00  0.00     0.028 H 
ATOM     31  H   UNL A   1      26.628  28.273  23.117  1.00  0.00     0.028 H 
ATOM     32  H   UNL A   1      27.350  28.023  21.545  1.00  0.00     0.028 H 
ENDBRANCH  18  29
BRANCH  27  33
ATOM     33  C   UNL A   1      32.137  25.777  23.503  1.00  0.00    -0.005 A 
ATOM     34  C   UNL A   1      32.674  25.513  22.246  1.00  0.00    -0.035 A 
ATOM     35  C   UNL A   1      31.824  24.707  24.381  1.00  0.00     0.008 A 
ATOM     36  C   UNL A   1      32.902  24.198  21.911  1.00  0.00     0.028 A 
ATOM     37  H   UNL A   1      32.893  26.278  21.587  1.00  0.00     0.065 H 
ATOM     38  C   UNL A   1      32.110  23.394  23.947  1.00  0.00     0.074 A 
ATOM     39  C   UNL A   1      31.247  24.899  25.658  1.00  0.00    -0.052 A 
ATOM     40  N   UNL A   1      32.640  23.156  22.729  1.00  0.00    -0.256 NA
ATOM     41  H   UNL A   1      33.298  23.996  20.979  1.00  0.00     0.084 H 
ATOM     42  C   UNL A   1      31.837  22.328  24.821  1.00  0.00    -0.025 A 
ATOM     43  C   UNL A   1      30.960  23.834  26.502  1.00  0.00    -0.061 A 
ATOM     44  H   UNL A   1      31.033  25.858  25.971  1.00  0.00     0.063 H 
ATOM     45  C   UNL A   1      31.258  22.549  26.084  1.00  0.00    -0.057 A 
ATOM     46  H   UNL A   1      30.530  23.999  27.425  1.00  0.00     0.062 H 
ATOM     47  H   UNL A   1      31.056  21.749  26.703  1.00  0.00     0.063 H 
BRANCH  42  48
ATOM     48  C   UNL A   1      32.153  20.902  24.449  1.00  0.00    -0.038 C 
ATOM     49  H   UNL A   1      31.579  20.239  25.062  1.00  0.00     0.028 H 
ATOM     50  H   UNL A   1      33.196  20.716  24.601  1.00  0.00     0.028 H 
ATOM     51  H   UNL A   1      31.907  20.740  23.420  1.00  0.00     0.028 H 
ENDBRANCH  42  48
ENDBRANCH  27  33
BRANCH  28  52
ATOM     52  C   UNL A   1      34.262  27.477  25.029  1.00  0.00    -0.024 C 
ATOM     53  H   UNL A   1      34.985  27.745  24.287  1.00  0.00     0.030 H 
ATOM     54  H   UNL A   1      34.274  26.417  25.172  1.00  0.00     0.030 H 
ATOM     55  H   UNL A   1      34.499  27.965  25.951  1.00  0.00     0.030 H 
ENDBRANCH  28  52
ENDBRANCH  14  17
ENDBRANCH  11  14
ENDBRANCH   7  10
ENDBRANCH   4   7
ENDBRANCH   1   4
BRANCH   1  56
ATOM     56  C   UNL A   1      34.777  35.365  28.332  1.00  0.00    -0.052 C 
ATOM     57  H   UNL A   1      34.841  35.648  27.303  1.00  0.00     0.027 H 
ATOM     58  H   UNL A   1      35.343  35.996  28.984  1.00  0.00     0.027 H 
BRANCH  56  59
ATOM     59  C   UNL A   1      33.316  35.497  28.772  1.00  0.00    -0.036 C 
ATOM     60  H   UNL A   1      32.976  34.537  29.098  1.00  0.00     0.028 H 
ATOM     61  H   UNL A   1      32.776  35.865  27.924  1.00  0.00     0.028 H 
BRANCH  59  62
ATOM     62  C   UNL A   1      33.082  36.498  29.906  1.00  0.00     0.018 C 
ATOM     63  H   UNL A   1      32.442  37.274  29.543  1.00  0.00     0.049 H 
ATOM     64  H   UNL A   1      34.044  36.863  30.201  1.00  0.00     0.049 H 
BRANCH  62  65
ATOM     65  N   UNL A   1      32.473  35.919  31.086  1.00  0.00    -0.352 N 
ATOM     66  C   UNL A   1      32.927  35.158  32.133  1.00  0.00     0.251 C 
ATOM     67  H   UNL A   1      31.512  36.120  31.152  1.00  0.00     0.163 HD
ATOM     68  O   UNL A   1      32.136  34.952  33.043  1.00  0.00    -0.269 OA
BRANCH  66  69
ATOM     69  C   UNL A   1      34.273  34.516  32.194  1.00  0.00     0.039 A 
ATOM     70  C   UNL A   1      35.490  35.189  32.254  1.00  0.00    -0.049 A 
ATOM     71  C   UNL A   1      34.292  33.109  32.128  1.00  0.00    -0.049 A 
ATOM     72  C   UNL A   1      36.685  34.494  32.119  1.00  0.00    -0.053 A 
ATOM     73  H   UNL A   1      35.504  36.210  32.398  1.00  0.00     0.063 H 
ATOM     74  C   UNL A   1      35.489  32.402  32.032  1.00  0.00    -0.053 A 
ATOM     75  H   UNL A   1      33.399  32.591  32.151  1.00  0.00     0.063 H 
ATOM     76  C   UNL A   1      36.686  33.103  31.978  1.00  0.00    -0.014 A 
ATOM     77  H   UNL A   1      37.580  35.009  32.123  1.00  0.00     0.063 H 
ATOM     78  H   UNL A   1      35.486  31.370  32.002  1.00  0.00     0.063 H 
BRANCH  76  79
ATOM     79  C   UNL A   1      37.988  32.448  31.896  1.00  0.00     0.031 A 
ATOM     80  C   UNL A   1      38.769  32.470  33.166  1.00  0.00     0.074 A 
ATOM     81  C   UNL A   1      38.468  31.826  30.801  1.00  0.00     0.049 A 
ATOM     82  N   UNL A   1      39.904  33.048  33.393  1.00  0.00    -0.248 NA
ATOM     83  C   UNL A   1      38.149  31.874  34.359  1.00  0.00    -0.034 C 
ATOM     84  C   UNL A   1      37.759  31.483  29.568  1.00  0.00    -0.036 A 
ATOM     85  N   UNL A   1      39.712  31.300  30.600  1.00  0.00    -0.354 N 
ATOM     86  C   UNL A   1      40.222  32.767  34.720  1.00  0.00     0.074 A 
ATOM     87  C   UNL A   1      39.059  32.144  35.295  1.00  0.00    -0.034 C 
ATOM     88  H   UNL A   1      37.249  31.378  34.448  1.00  0.00     0.065 H 
ATOM     89  C   UNL A   1      38.517  30.631  28.840  1.00  0.00    -0.036 A 
ATOM     90  H   UNL A   1      36.828  31.834  29.298  1.00  0.00     0.065 H 
ATOM     91  C   UNL A   1      39.814  30.486  29.481  1.00  0.00     0.049 A 
ATOM     92  H   UNL A   1      40.473  31.483  31.198  1.00  0.00     0.167 HD
ATOM     93  C   UNL A   1      41.493  32.905  35.190  1.00  0.00     0.037 A 
ATOM     94  H   UNL A   1      38.945  31.934  36.300  1.00  0.00     0.065 H 
ATOM     95  H   UNL A   1      38.222  30.159  27.970  1.00  0.00     0.065 H 
ATOM     96  C   UNL A   1      40.874  29.715  29.137  1.00  0.00     0.037 A 
ATOM     97  C   UNL A   1      42.272  33.766  34.342  1.00  0.00     0.049 A 
ATOM     98  C   UNL A   1      42.066  30.266  29.821  1.00  0.00     0.074 A 
ATOM     99  C   UNL A   1      42.237  35.102  34.002  1.00  0.00    -0.036 A 
ATOM    100  N   UNL A   1      43.109  33.166  33.438  1.00  0.00    -0.354 N 
ATOM    101  N   UNL A   1      42.623  31.406  29.525  1.00  0.00    -0.248 NA
ATOM    102  C   UNL A   1      42.453  29.696  31.103  1.00  0.00    -0.034 C 
ATOM    103  C   UNL A   1      42.704  35.160  32.656  1.00  0.00    -0.036 A 
ATOM    104  H   UNL A   1      41.935  35.892  34.594  1.00  0.00     0.065 H 
ATOM    105  C   UNL A   1      43.034  33.863  32.262  1.00  0.00     0.049 A 
ATOM    106  H   UNL A   1      43.666  32.373  33.605  1.00  0.00     0.167 HD
ATOM    107  C   UNL A   1      43.074  31.897  30.738  1.00  0.00     0.074 A 
ATOM    108  C   UNL A   1      43.071  30.749  31.637  1.00  0.00    -0.034 C 
ATOM    109  H   UNL A   1      42.294  28.750  31.485  1.00  0.00     0.065 H 
ATOM    110  H   UNL A   1      42.786  36.010  32.078  1.00  0.00     0.065 H 
ATOM    111  C   UNL A   1      43.137  33.241  30.962  1.00  0.00     0.037 A 
ATOM    112  H   UNL A   1      43.497  30.753  32.577  1.00  0.00     0.065 H 
BRANCH  93 113
ATOM    113  C   UNL A   1      42.139  31.977  36.195  1.00  0.00     0.064 A 
ATOM    114  C   UNL A   1      42.736  32.523  37.352  1.00  0.00     0.173 A 
ATOM    115  C   UNL A   1      42.474  30.634  35.920  1.00  0.00     0.173 A 
ATOM    116  F   UNL A   1      42.504  33.795  37.708  1.00  0.00    -0.203 F 
ATOM    117  C   UNL A   1      43.663  31.808  38.116  1.00  0.00     0.198 A 
ATOM    118  C   UNL A   1      43.360  29.907  36.714  1.00  0.00     0.198 A 
ATOM    119  F   UNL A   1      42.052  30.004  34.818  1.00  0.00    -0.203 F 
ATOM    120  F   UNL A   1      44.302  32.414  39.125  1.00  0.00    -0.200 F 
ATOM    121  C   UNL A   1      43.982  30.503  37.791  1.00  0.00     0.200 A 
ATOM    122  F   UNL A   1      43.670  28.648  36.372  1.00  0.00    -0.200 F 
ATOM    123  F   UNL A   1      44.918  29.838  38.479  1.00  0.00    -0.200 F 
ENDBRANCH  93 113
BRANCH  96 124
ATOM    124  C   UNL A   1      40.895  28.380  28.492  1.00  0.00     0.064 A 
ATOM    125  C   UNL A   1      40.129  27.319  29.010  1.00  0.00     0.173 A 
ATOM    126  C   UNL A   1      41.408  28.203  27.194  1.00  0.00     0.173 A 
ATOM    127  F   UNL A   1      39.573  27.418  30.227  1.00  0.00    -0.203 F 
ATOM    128  C   UNL A   1      39.851  26.177  28.253  1.00  0.00     0.198 A 
ATOM    129  C   UNL A   1      41.136  27.058  26.444  1.00  0.00     0.198 A 
ATOM    130  F   UNL A   1      42.096  29.181  26.587  1.00  0.00    -0.203 F 
ATOM    131  F   UNL A   1      39.048  25.225  28.751  1.00  0.00    -0.200 F 
ATOM    132  C   UNL A   1      40.341  26.055  26.965  1.00  0.00     0.200 A 
ATOM    133  F   UNL A   1      41.590  26.967  25.185  1.00  0.00    -0.200 F 
ATOM    134  F   UNL A   1      40.013  24.996  26.212  1.00  0.00    -0.200 F 
ENDBRANCH  96 124
BRANCH 111 135
ATOM    135  C   UNL A   1      43.063  34.151  29.770  1.00  0.00     0.064 A 
ATOM    136  C   UNL A   1      44.160  34.473  28.951  1.00  0.00     0.173 A 
ATOM    137  C   UNL A   1      41.799  34.599  29.364  1.00  0.00     0.173 A 
ATOM    138  F   UNL A   1      45.385  34.004  29.221  1.00  0.00    -0.203 F 
ATOM    139  C   UNL A   1      43.996  35.239  27.798  1.00  0.00     0.198 A 
ATOM    140  C   UNL A   1      41.633  35.329  28.192  1.00  0.00     0.198 A 
ATOM    141  F   UNL A   1      40.710  34.279  30.081  1.00  0.00    -0.203 F 
ATOM    142  F   UNL A   1      45.056  35.541  27.034  1.00  0.00    -0.200 F 
ATOM    143  C   UNL A   1      42.732  35.656  27.414  1.00  0.00     0.200 A 
ATOM    144  F   UNL A   1      40.403  35.686  27.798  1.00  0.00    -0.200 F 
ATOM    145  F   UNL A   1      42.568  36.348  26.277  1.00  0.00    -0.200 F 
ENDBRANCH 111 135
ENDBRANCH  76  79
ENDBRANCH  66  69
ENDBRANCH  62  65
ENDBRANCH  59  62
ENDBRANCH  56  59
ENDBRANCH   1  56
TORSDOF 18
ENDMDL
MODEL 3
REMARK VINA RESULT:     -12.4      3.164      8.910
REMARK SMILES Cc1ccc2c(c1)c(-c1ccnc3c(C)cccc13)c(C)n2CC(=O)NCCCCCCNC(=O)c1ccc(-c2c3nc(c(-c4c(F)c(F)c(F)c(F)c4F)c4ccc([nH]4)c(-c4c(F)c(F)c(F)c(F)c4F)c4nc(c(-c5c(F)c(F)c(F)c(F)c5F)c5ccc2[nH]5)C=C4)C=C3)cc1
REMARK SMILES IDX 29 1 28 4 27 7 26 10 24 11 25 12 23 14 22 17 2 18 3 19 7 20
REMARK SMILES IDX 4 21 6 23 5 25 8 27 20 28 1 29 9 33 10 34 19 35 11 36 13 38
REMARK SMILES IDX 18 39 12 40 14 42 17 43 16 45 15 48 21 52 30 56 31 59 32 62
REMARK SMILES IDX 33 65 34 66 35 68 36 69 37 70 98 71 38 72 97 74 39 76 40 79
REMARK SMILES IDX 41 80 91 81 42 82 96 83 90 84 92 85 43 86 95 87 89 89 88 91
REMARK SMILES IDX 44 93 76 96 56 97 75 98 57 99 60 100 74 101 93 102 58 103
REMARK SMILES IDX 59 105 73 107 94 108 61 111 45 113 46 114 54 115 47 116
REMARK SMILES IDX 48 117 52 118 55 119 49 120 50 121 53 122 51 123 77 124
REMARK SMILES IDX 78 125 86 126 79 127 80 128 84 129 87 130 81 131 82 132
REMARK SMILES IDX 85 133 83 134 62 135 63 136 71 137 64 138 65 139 69 140
REMARK SMILES IDX 72 141 66 142 67 143 70 144 68 145
REMARK H PARENT 29 2 29 3 28 5 28 6 27 8 27 9 26 13 23 15 23 16 3 22 7 24 4 26
REMARK H PARENT 1 30 1 31 1 32 10 37 11 41 18 44 17 46 16 47 15 49 15 50 15 51
REMARK H PARENT 21 53 21 54 21 55 30 57 30 58 31 60 31 61 32 63 32 64 33 67
REMARK H PARENT 37 73 98 75 38 77 97 78 96 88 90 90 92 92 95 94 89 95 57 104
REMARK H PARENT 60 106 93 109 58 110 94 112
REMARK Flexibility Score: inf
ROOT
ATOM      1  C   UNL A   1      35.942  29.361  27.531  1.00  0.00    -0.052 C 
ATOM      2  H   UNL A   1      36.320  29.019  26.590  1.00  0.00     0.027 H 
ATOM      3  H   UNL A   1      36.424  28.903  28.369  1.00  0.00     0.027 H 
ENDROOT
BRANCH   1   4
ATOM      4  C   UNL A   1      34.460  28.978  27.620  1.00  0.00    -0.036 C 
ATOM      5  H   UNL A   1      34.325  28.361  28.484  1.00  0.00     0.028 H 
ATOM      6  H   UNL A   1      33.908  29.893  27.675  1.00  0.00     0.028 H 
BRANCH   4   7
ATOM      7  C   UNL A   1      33.937  28.220  26.403  1.00  0.00     0.017 C 
ATOM      8  H   UNL A   1      34.719  28.144  25.677  1.00  0.00     0.049 H 
ATOM      9  H   UNL A   1      33.620  27.248  26.721  1.00  0.00     0.049 H 
BRANCH   7  10
ATOM     10  N   UNL A   1      32.802  28.897  25.806  1.00  0.00    -0.355 N 
ATOM     11  C   UNL A   1      31.590  28.394  25.432  1.00  0.00     0.239 C 
ATOM     12  O   UNL A   1      30.793  29.166  24.891  1.00  0.00    -0.273 OA
ATOM     13  H   UNL A   1      32.925  29.861  25.647  1.00  0.00     0.163 HD
BRANCH  11  14
ATOM     14  C   UNL A   1      31.203  26.960  25.744  1.00  0.00     0.102 C 
ATOM     15  H   UNL A   1      31.391  26.779  26.781  1.00  0.00     0.060 H 
ATOM     16  H   UNL A   1      30.169  26.857  25.488  1.00  0.00     0.060 H 
BRANCH  14  17
ATOM     17  N   UNL A   1      31.930  25.962  24.964  1.00  0.00    -0.335 N 
ATOM     18  C   UNL A   1      32.497  25.514  20.867  1.00  0.00    -0.050 A 
ATOM     19  C   UNL A   1      31.938  26.721  21.288  1.00  0.00    -0.057 A 
ATOM     20  C   UNL A   1      32.892  24.564  21.823  1.00  0.00    -0.049 A 
ATOM     21  C   UNL A   1      31.746  26.998  22.644  1.00  0.00    -0.037 A 
ATOM     22  H   UNL A   1      31.659  27.422  20.585  1.00  0.00     0.063 H 
ATOM     23  C   UNL A   1      32.700  24.817  23.200  1.00  0.00     0.008 A 
ATOM     24  H   UNL A   1      33.322  23.677  21.518  1.00  0.00     0.063 H 
ATOM     25  C   UNL A   1      32.102  26.017  23.588  1.00  0.00     0.049 A 
ATOM     26  H   UNL A   1      31.352  27.903  22.947  1.00  0.00     0.065 H 
ATOM     27  C   UNL A   1      32.981  24.084  24.389  1.00  0.00     0.011 A 
ATOM     28  C   UNL A   1      32.544  24.833  25.473  1.00  0.00     0.024 A 
BRANCH  18  29
ATOM     29  C   UNL A   1      32.633  25.230  19.400  1.00  0.00    -0.040 C 
ATOM     30  H   UNL A   1      33.362  24.463  19.251  1.00  0.00     0.028 H 
ATOM     31  H   UNL A   1      32.942  26.120  18.893  1.00  0.00     0.028 H 
ATOM     32  H   UNL A   1      31.689  24.907  19.011  1.00  0.00     0.028 H 
ENDBRANCH  18  29
BRANCH  27  33
ATOM     33  C   UNL A   1      33.603  22.772  24.533  1.00  0.00    -0.005 A 
ATOM     34  C   UNL A   1      32.789  21.649  24.420  1.00  0.00    -0.035 A 
ATOM     35  C   UNL A   1      34.997  22.620  24.750  1.00  0.00     0.008 A 
ATOM     36  C   UNL A   1      33.388  20.412  24.505  1.00  0.00     0.028 A 
ATOM     37  H   UNL A   1      31.769  21.739  24.279  1.00  0.00     0.065 H 
ATOM     38  C   UNL A   1      35.516  21.307  24.807  1.00  0.00     0.074 A 
ATOM     39  C   UNL A   1      35.878  23.714  24.907  1.00  0.00    -0.052 A 
ATOM     40  N   UNL A   1      34.713  20.229  24.686  1.00  0.00    -0.256 NA
ATOM     41  H   UNL A   1      32.788  19.576  24.424  1.00  0.00     0.084 H 
ATOM     42  C   UNL A   1      36.899  21.143  24.987  1.00  0.00    -0.025 A 
ATOM     43  C   UNL A   1      37.241  23.537  25.107  1.00  0.00    -0.061 A 
ATOM     44  H   UNL A   1      35.498  24.672  24.871  1.00  0.00     0.063 H 
ATOM     45  C   UNL A   1      37.751  22.252  25.144  1.00  0.00    -0.057 A 
ATOM     46  H   UNL A   1      37.863  24.352  25.228  1.00  0.00     0.062 H 
ATOM     47  H   UNL A   1      38.763  22.106  25.286  1.00  0.00     0.063 H 
BRANCH  42  48
ATOM     48  C   UNL A   1      37.535  19.778  25.015  1.00  0.00    -0.038 C 
ATOM     49  H   UNL A   1      37.783  19.521  26.024  1.00  0.00     0.028 H 
ATOM     50  H   UNL A   1      38.425  19.785  24.421  1.00  0.00     0.028 H 
ATOM     51  H   UNL A   1      36.849  19.057  24.622  1.00  0.00     0.028 H 
ENDBRANCH  42  48
ENDBRANCH  27  33
BRANCH  28  52
ATOM     52  C   UNL A   1      32.632  24.515  26.931  1.00  0.00    -0.024 C 
ATOM     53  H   UNL A   1      31.701  24.105  27.263  1.00  0.00     0.030 H 
ATOM     54  H   UNL A   1      32.843  25.410  27.479  1.00  0.00     0.030 H 
ATOM     55  H   UNL A   1      33.414  23.804  27.094  1.00  0.00     0.030 H 
ENDBRANCH  28  52
ENDBRANCH  14  17
ENDBRANCH  11  14
ENDBRANCH   7  10
ENDBRANCH   4   7
ENDBRANCH   1   4
BRANCH   1  56
ATOM     56  C   UNL A   1      36.222  30.863  27.638  1.00  0.00    -0.052 C 
ATOM     57  H   UNL A   1      36.755  31.165  26.762  1.00  0.00     0.027 H 
ATOM     58  H   UNL A   1      36.776  30.999  28.543  1.00  0.00     0.027 H 
BRANCH  56  59
ATOM     59  C   UNL A   1      34.976  31.746  27.763  1.00  0.00    -0.036 C 
ATOM     60  H   UNL A   1      34.205  31.171  28.230  1.00  0.00     0.028 H 
ATOM     61  H   UNL A   1      34.724  32.058  26.771  1.00  0.00     0.028 H 
BRANCH  59  62
ATOM     62  C   UNL A   1      35.183  33.023  28.581  1.00  0.00     0.018 C 
ATOM     63  H   UNL A   1      34.589  33.800  28.148  1.00  0.00     0.049 H 
ATOM     64  H   UNL A   1      36.230  33.242  28.556  1.00  0.00     0.049 H 
BRANCH  62  65
ATOM     65  N   UNL A   1      34.816  32.894  29.977  1.00  0.00    -0.352 N 
ATOM     66  C   UNL A   1      35.415  32.354  31.088  1.00  0.00     0.251 C 
ATOM     67  H   UNL A   1      33.935  33.285  30.174  1.00  0.00     0.163 HD
ATOM     68  O   UNL A   1      34.854  32.544  32.158  1.00  0.00    -0.269 OA
BRANCH  66  69
ATOM     69  C   UNL A   1      36.642  31.505  31.062  1.00  0.00     0.039 A 
ATOM     70  C   UNL A   1      37.945  31.968  30.908  1.00  0.00    -0.049 A 
ATOM     71  C   UNL A   1      36.433  30.114  31.146  1.00  0.00    -0.049 A 
ATOM     72  C   UNL A   1      38.990  31.074  30.711  1.00  0.00    -0.053 A 
ATOM     73  H   UNL A   1      38.136  32.981  30.939  1.00  0.00     0.063 H 
ATOM     74  C   UNL A   1      37.483  29.211  30.989  1.00  0.00    -0.053 A 
ATOM     75  H   UNL A   1      35.482  29.756  31.327  1.00  0.00     0.063 H 
ATOM     76  C   UNL A   1      38.757  29.696  30.722  1.00  0.00    -0.014 A 
ATOM     77  H   UNL A   1      39.947  31.431  30.557  1.00  0.00     0.063 H 
ATOM     78  H   UNL A   1      37.317  28.196  31.070  1.00  0.00     0.063 H 
BRANCH  76  79
ATOM     79  C   UNL A   1      39.920  28.828  30.561  1.00  0.00     0.031 A 
ATOM     80  C   UNL A   1      40.712  28.624  31.808  1.00  0.00     0.074 A 
ATOM     81  C   UNL A   1      40.264  28.207  29.415  1.00  0.00     0.049 A 
ATOM     82  N   UNL A   1      41.936  28.974  32.039  1.00  0.00    -0.248 NA
ATOM     83  C   UNL A   1      40.016  28.066  32.976  1.00  0.00    -0.034 C 
ATOM     84  C   UNL A   1      39.485  28.080  28.183  1.00  0.00    -0.036 A 
ATOM     85  N   UNL A   1      41.390  27.485  29.146  1.00  0.00    -0.354 N 
ATOM     86  C   UNL A   1      42.220  28.551  33.336  1.00  0.00     0.074 A 
ATOM     87  C   UNL A   1      40.974  28.106  33.902  1.00  0.00    -0.034 C 
ATOM     88  H   UNL A   1      39.043  27.732  33.058  1.00  0.00     0.065 H 
ATOM     89  C   UNL A   1      40.066  27.160  27.380  1.00  0.00    -0.036 A 
ATOM     90  H   UNL A   1      38.627  28.609  27.962  1.00  0.00     0.065 H 
ATOM     91  C   UNL A   1      41.327  26.744  27.974  1.00  0.00     0.049 A 
ATOM     92  H   UNL A   1      42.181  27.488  29.733  1.00  0.00     0.167 HD
ATOM     93  C   UNL A   1      43.502  28.429  33.778  1.00  0.00     0.037 A 
ATOM     94  H   UNL A   1      40.841  27.850  34.894  1.00  0.00     0.065 H 
ATOM     95  H   UNL A   1      39.678  26.809  26.490  1.00  0.00     0.065 H 
ATOM     96  C   UNL A   1      42.227  25.824  27.551  1.00  0.00     0.037 A 
ATOM     97  C   UNL A   1      44.409  29.195  32.966  1.00  0.00     0.049 A 
ATOM     98  C   UNL A   1      43.509  26.106  28.235  1.00  0.00     0.074 A 
ATOM     99  C   UNL A   1      44.607  30.537  32.714  1.00  0.00    -0.036 A 
ATOM    100  N   UNL A   1      45.111  28.520  32.002  1.00  0.00    -0.354 N 
ATOM    101  N   UNL A   1      44.256  27.148  27.999  1.00  0.00    -0.248 NA
ATOM    102  C   UNL A   1      43.809  25.390  29.466  1.00  0.00    -0.034 C 
ATOM    103  C   UNL A   1      45.056  30.603  31.363  1.00  0.00    -0.036 A 
ATOM    104  H   UNL A   1      44.460  31.325  33.365  1.00  0.00     0.065 H 
ATOM    105  C   UNL A   1      45.142  29.298  30.876  1.00  0.00     0.049 A 
ATOM    106  H   UNL A   1      45.520  27.631  32.101  1.00  0.00     0.167 HD
ATOM    107  C   UNL A   1      44.807  27.466  29.227  1.00  0.00     0.074 A 
ATOM    108  C   UNL A   1      44.613  26.278  30.050  1.00  0.00    -0.034 C 
ATOM    109  H   UNL A   1      43.490  24.463  29.790  1.00  0.00     0.065 H 
ATOM    110  H   UNL A   1      45.279  31.463  30.838  1.00  0.00     0.065 H 
ATOM    111  C   UNL A   1      45.112  28.759  29.536  1.00  0.00     0.037 A 
ATOM    112  H   UNL A   1      45.048  26.142  30.976  1.00  0.00     0.065 H 
BRANCH  93 113
ATOM    113  C   UNL A   1      43.989  27.335  34.702  1.00  0.00     0.064 A 
ATOM    114  C   UNL A   1      43.941  25.993  34.265  1.00  0.00     0.173 A 
ATOM    115  C   UNL A   1      44.195  27.510  36.087  1.00  0.00     0.173 A 
ATOM    116  F   UNL A   1      43.736  25.701  32.972  1.00  0.00    -0.203 F 
ATOM    117  C   UNL A   1      44.001  24.919  35.157  1.00  0.00     0.198 A 
ATOM    118  C   UNL A   1      44.306  26.435  36.968  1.00  0.00     0.198 A 
ATOM    119  F   UNL A   1      44.184  28.717  36.663  1.00  0.00    -0.203 F 
ATOM    120  F   UNL A   1      43.817  23.670  34.709  1.00  0.00    -0.200 F 
ATOM    121  C   UNL A   1      44.175  25.141  36.510  1.00  0.00     0.200 A 
ATOM    122  F   UNL A   1      44.457  26.672  38.279  1.00  0.00    -0.200 F 
ATOM    123  F   UNL A   1      44.167  24.120  37.376  1.00  0.00    -0.200 F 
ENDBRANCH  93 113
BRANCH  96 124
ATOM    124  C   UNL A   1      42.000  24.553  26.821  1.00  0.00     0.064 A 
ATOM    125  C   UNL A   1      42.876  24.144  25.798  1.00  0.00     0.173 A 
ATOM    126  C   UNL A   1      41.117  23.575  27.314  1.00  0.00     0.173 A 
ATOM    127  F   UNL A   1      43.775  25.003  25.295  1.00  0.00    -0.203 F 
ATOM    128  C   UNL A   1      42.903  22.824  25.338  1.00  0.00     0.198 A 
ATOM    129  C   UNL A   1      41.139  22.260  26.846  1.00  0.00     0.198 A 
ATOM    130  F   UNL A   1      40.287  23.847  28.331  1.00  0.00    -0.203 F 
ATOM    131  F   UNL A   1      43.809  22.454  24.422  1.00  0.00    -0.200 F 
ATOM    132  C   UNL A   1      42.045  21.879  25.874  1.00  0.00     0.200 A 
ATOM    133  F   UNL A   1      40.326  21.347  27.397  1.00  0.00    -0.200 F 
ATOM    134  F   UNL A   1      42.120  20.599  25.488  1.00  0.00    -0.200 F 
ENDBRANCH  96 124
BRANCH 111 135
ATOM    135  C   UNL A   1      45.182  29.748  28.408  1.00  0.00     0.064 A 
ATOM    136  C   UNL A   1      44.077  30.460  27.911  1.00  0.00     0.173 A 
ATOM    137  C   UNL A   1      46.448  30.088  27.911  1.00  0.00     0.173 A 
ATOM    138  F   UNL A   1      42.847  30.259  28.402  1.00  0.00    -0.203 F 
ATOM    139  C   UNL A   1      44.234  31.442  26.934  1.00  0.00     0.198 A 
ATOM    140  C   UNL A   1      46.606  31.096  26.966  1.00  0.00     0.198 A 
ATOM    141  F   UNL A   1      47.544  29.475  28.386  1.00  0.00    -0.203 F 
ATOM    142  F   UNL A   1      43.165  32.105  26.468  1.00  0.00    -0.200 F 
ATOM    143  C   UNL A   1      45.499  31.767  26.472  1.00  0.00     0.200 A 
ATOM    144  F   UNL A   1      47.835  31.440  26.559  1.00  0.00    -0.200 F 
ATOM    145  F   UNL A   1      45.655  32.747  25.571  1.00  0.00    -0.200 F 
ENDBRANCH 111 135
ENDBRANCH  76  79
ENDBRANCH  66  69
ENDBRANCH  62  65
ENDBRANCH  59  62
ENDBRANCH  56  59
ENDBRANCH   1  56
TORSDOF 18
ENDMDL
MODEL 4
REMARK VINA RESULT:     -12.3      2.474      3.887
REMARK SMILES Cc1ccc2c(c1)c(-c1ccnc3c(C)cccc13)c(C)n2CC(=O)NCCCCCCNC(=O)c1ccc(-c2c3nc(c(-c4c(F)c(F)c(F)c(F)c4F)c4ccc([nH]4)c(-c4c(F)c(F)c(F)c(F)c4F)c4nc(c(-c5c(F)c(F)c(F)c(F)c5F)c5ccc2[nH]5)C=C4)C=C3)cc1
REMARK SMILES IDX 29 1 28 4 27 7 26 10 24 11 25 12 23 14 22 17 2 18 3 19 7 20
REMARK SMILES IDX 4 21 6 23 5 25 8 27 20 28 1 29 9 33 10 34 19 35 11 36 13 38
REMARK SMILES IDX 18 39 12 40 14 42 17 43 16 45 15 48 21 52 30 56 31 59 32 62
REMARK SMILES IDX 33 65 34 66 35 68 36 69 37 70 98 71 38 72 97 74 39 76 40 79
REMARK SMILES IDX 41 80 91 81 42 82 96 83 90 84 92 85 43 86 95 87 89 89 88 91
REMARK SMILES IDX 44 93 76 96 56 97 75 98 57 99 60 100 74 101 93 102 58 103
REMARK SMILES IDX 59 105 73 107 94 108 61 111 45 113 46 114 54 115 47 116
REMARK SMILES IDX 48 117 52 118 55 119 49 120 50 121 53 122 51 123 77 124
REMARK SMILES IDX 78 125 86 126 79 127 80 128 84 129 87 130 81 131 82 132
REMARK SMILES IDX 85 133 83 134 62 135 63 136 71 137 64 138 65 139 69 140
REMARK SMILES IDX 72 141 66 142 67 143 70 144 68 145
REMARK H PARENT 29 2 29 3 28 5 28 6 27 8 27 9 26 13 23 15 23 16 3 22 7 24 4 26
REMARK H PARENT 1 30 1 31 1 32 10 37 11 41 18 44 17 46 16 47 15 49 15 50 15 51
REMARK H PARENT 21 53 21 54 21 55 30 57 30 58 31 60 31 61 32 63 32 64 33 67
REMARK H PARENT 37 73 98 75 38 77 97 78 96 88 90 90 92 92 95 94 89 95 57 104
REMARK H PARENT 60 106 93 109 58 110 94 112
REMARK Flexibility Score: inf
ROOT
ATOM      1  C   UNL A   1      38.687  24.279  26.475  1.00  0.00    -0.052 C 
ATOM      2  H   UNL A   1      38.806  25.213  26.983  1.00  0.00     0.027 H 
ATOM      3  H   UNL A   1      39.109  24.278  25.492  1.00  0.00     0.027 H 
ENDROOT
BRANCH   1   4
ATOM      4  C   UNL A   1      37.186  24.014  26.304  1.00  0.00    -0.036 C 
ATOM      5  H   UNL A   1      36.916  23.196  26.938  1.00  0.00     0.028 H 
ATOM      6  H   UNL A   1      36.682  24.921  26.561  1.00  0.00     0.028 H 
BRANCH   4   7
ATOM      7  C   UNL A   1      36.773  23.670  24.875  1.00  0.00     0.017 C 
ATOM      8  H   UNL A   1      36.082  24.408  24.525  1.00  0.00     0.049 H 
ATOM      9  H   UNL A   1      37.651  23.654  24.264  1.00  0.00     0.049 H 
BRANCH   7  10
ATOM     10  N   UNL A   1      36.145  22.365  24.807  1.00  0.00    -0.355 N 
ATOM     11  C   UNL A   1      35.003  21.984  24.163  1.00  0.00     0.239 C 
ATOM     12  O   UNL A   1      34.636  20.812  24.295  1.00  0.00    -0.273 OA
ATOM     13  H   UNL A   1      36.610  21.649  25.297  1.00  0.00     0.163 HD
BRANCH  11  14
ATOM     14  C   UNL A   1      34.256  22.941  23.254  1.00  0.00     0.102 C 
ATOM     15  H   UNL A   1      34.973  23.542  22.735  1.00  0.00     0.060 H 
ATOM     16  H   UNL A   1      33.664  22.341  22.593  1.00  0.00     0.060 H 
BRANCH  14  17
ATOM     17  N   UNL A   1      33.333  23.831  23.952  1.00  0.00    -0.335 N 
ATOM     18  C   UNL A   1      30.245  23.076  26.637  1.00  0.00    -0.050 A 
ATOM     19  C   UNL A   1      31.084  22.002  26.338  1.00  0.00    -0.057 A 
ATOM     20  C   UNL A   1      30.515  24.339  26.085  1.00  0.00    -0.049 A 
ATOM     21  C   UNL A   1      32.181  22.154  25.485  1.00  0.00    -0.037 A 
ATOM     22  H   UNL A   1      30.891  21.078  26.753  1.00  0.00     0.063 H 
ATOM     23  C   UNL A   1      31.612  24.516  25.213  1.00  0.00     0.008 A 
ATOM     24  H   UNL A   1      29.907  25.141  26.317  1.00  0.00     0.063 H 
ATOM     25  C   UNL A   1      32.411  23.414  24.903  1.00  0.00     0.049 A 
ATOM     26  H   UNL A   1      32.809  21.359  25.288  1.00  0.00     0.065 H 
ATOM     27  C   UNL A   1      32.145  25.633  24.506  1.00  0.00     0.011 A 
ATOM     28  C   UNL A   1      33.240  25.198  23.773  1.00  0.00     0.024 A 
BRANCH  18  29
ATOM     29  C   UNL A   1      29.044  22.859  27.510  1.00  0.00    -0.040 C 
ATOM     30  H   UNL A   1      29.352  22.429  28.439  1.00  0.00     0.028 H 
ATOM     31  H   UNL A   1      28.362  22.197  27.018  1.00  0.00     0.028 H 
ATOM     32  H   UNL A   1      28.562  23.797  27.693  1.00  0.00     0.028 H 
ENDBRANCH  18  29
BRANCH  27  33
ATOM     33  C   UNL A   1      31.678  27.016  24.490  1.00  0.00    -0.005 A 
ATOM     34  C   UNL A   1      30.726  27.371  23.539  1.00  0.00    -0.035 A 
ATOM     35  C   UNL A   1      32.144  27.977  25.424  1.00  0.00     0.008 A 
ATOM     36  C   UNL A   1      30.251  28.663  23.561  1.00  0.00     0.028 A 
ATOM     37  H   UNL A   1      30.388  26.689  22.841  1.00  0.00     0.065 H 
ATOM     38  C   UNL A   1      31.581  29.272  25.372  1.00  0.00     0.074 A 
ATOM     39  C   UNL A   1      33.132  27.696  26.395  1.00  0.00    -0.052 A 
ATOM     40  N   UNL A   1      30.651  29.597  24.449  1.00  0.00    -0.256 NA
ATOM     41  H   UNL A   1      29.546  28.932  22.857  1.00  0.00     0.084 H 
ATOM     42  C   UNL A   1      32.008  30.223  26.313  1.00  0.00    -0.025 A 
ATOM     43  C   UNL A   1      33.562  28.653  27.304  1.00  0.00    -0.061 A 
ATOM     44  H   UNL A   1      33.546  26.752  26.429  1.00  0.00     0.063 H 
ATOM     45  C   UNL A   1      32.997  29.916  27.265  1.00  0.00    -0.057 A 
ATOM     46  H   UNL A   1      34.292  28.427  27.998  1.00  0.00     0.062 H 
ATOM     47  H   UNL A   1      33.303  30.634  27.939  1.00  0.00     0.063 H 
BRANCH  42  48
ATOM     48  C   UNL A   1      31.426  31.612  26.350  1.00  0.00    -0.038 C 
ATOM     49  H   UNL A   1      32.218  32.331  26.329  1.00  0.00     0.028 H 
ATOM     50  H   UNL A   1      30.856  31.737  27.247  1.00  0.00     0.028 H 
ATOM     51  H   UNL A   1      30.791  31.755  25.501  1.00  0.00     0.028 H 
ENDBRANCH  42  48
ENDBRANCH  27  33
BRANCH  28  52
ATOM     52  C   UNL A   1      34.151  25.988  22.889  1.00  0.00    -0.024 C 
ATOM     53  H   UNL A   1      34.204  26.997  23.241  1.00  0.00     0.030 H 
ATOM     54  H   UNL A   1      33.772  25.979  21.888  1.00  0.00     0.030 H 
ATOM     55  H   UNL A   1      35.129  25.552  22.905  1.00  0.00     0.030 H 
ENDBRANCH  28  52
ENDBRANCH  14  17
ENDBRANCH  11  14
ENDBRANCH   7  10
ENDBRANCH   4   7
ENDBRANCH   1   4
BRANCH   1  56
ATOM     56  C   UNL A   1      39.439  23.206  27.268  1.00  0.00    -0.052 C 
ATOM     57  H   UNL A   1      38.864  22.973  28.139  1.00  0.00     0.027 H 
ATOM     58  H   UNL A   1      40.401  23.617  27.490  1.00  0.00     0.027 H 
BRANCH  56  59
ATOM     59  C   UNL A   1      39.697  21.901  26.508  1.00  0.00    -0.036 C 
ATOM     60  H   UNL A   1      40.033  22.149  25.523  1.00  0.00     0.028 H 
ATOM     61  H   UNL A   1      38.774  21.359  26.511  1.00  0.00     0.028 H 
BRANCH  59  62
ATOM     62  C   UNL A   1      40.741  20.987  27.154  1.00  0.00     0.018 C 
ATOM     63  H   UNL A   1      40.403  19.975  27.065  1.00  0.00     0.049 H 
ATOM     64  H   UNL A   1      40.841  21.300  28.172  1.00  0.00     0.049 H 
BRANCH  62  65
ATOM     65  N   UNL A   1      42.057  21.080  26.555  1.00  0.00    -0.352 N 
ATOM     66  C   UNL A   1      43.058  22.019  26.564  1.00  0.00     0.251 C 
ATOM     67  H   UNL A   1      42.286  20.287  26.019  1.00  0.00     0.163 HD
ATOM     68  O   UNL A   1      44.114  21.698  26.037  1.00  0.00    -0.269 OA
BRANCH  66  69
ATOM     69  C   UNL A   1      42.916  23.405  27.100  1.00  0.00     0.039 A 
ATOM     70  C   UNL A   1      43.094  23.783  28.427  1.00  0.00    -0.049 A 
ATOM     71  C   UNL A   1      42.512  24.388  26.174  1.00  0.00    -0.049 A 
ATOM     72  C   UNL A   1      42.755  25.064  28.845  1.00  0.00    -0.053 A 
ATOM     73  H   UNL A   1      43.480  23.108  29.105  1.00  0.00     0.063 H 
ATOM     74  C   UNL A   1      42.207  25.686  26.580  1.00  0.00    -0.053 A 
ATOM     75  H   UNL A   1      42.440  24.140  25.174  1.00  0.00     0.063 H 
ATOM     76  C   UNL A   1      42.283  26.008  27.928  1.00  0.00    -0.014 A 
ATOM     77  H   UNL A   1      42.853  25.320  29.840  1.00  0.00     0.063 H 
ATOM     78  H   UNL A   1      41.929  26.398  25.886  1.00  0.00     0.063 H 
BRANCH  76  79
ATOM     79  C   UNL A   1      42.001  27.345  28.443  1.00  0.00     0.031 A 
ATOM     80  C   UNL A   1      43.060  28.353  28.152  1.00  0.00     0.074 A 
ATOM     81  C   UNL A   1      40.874  27.696  29.094  1.00  0.00     0.049 A 
ATOM     82  N   UNL A   1      43.802  28.994  28.996  1.00  0.00    -0.248 NA
ATOM     83  C   UNL A   1      43.413  28.585  26.743  1.00  0.00    -0.034 C 
ATOM     84  C   UNL A   1      39.636  26.929  29.244  1.00  0.00    -0.036 A 
ATOM     85  N   UNL A   1      40.583  28.878  29.711  1.00  0.00    -0.354 N 
ATOM     86  C   UNL A   1      44.622  29.825  28.235  1.00  0.00     0.074 A 
ATOM     87  C   UNL A   1      44.421  29.450  26.861  1.00  0.00    -0.034 C 
ATOM     88  H   UNL A   1      42.992  28.185  25.891  1.00  0.00     0.065 H 
ATOM     89  C   UNL A   1      38.665  27.740  29.724  1.00  0.00    -0.036 A 
ATOM     90  H   UNL A   1      39.523  25.929  29.019  1.00  0.00     0.065 H 
ATOM     91  C   UNL A   1      39.246  29.033  30.049  1.00  0.00     0.049 A 
ATOM     92  H   UNL A   1      41.264  29.564  29.900  1.00  0.00     0.167 HD
ATOM     93  C   UNL A   1      45.266  30.889  28.791  1.00  0.00     0.037 A 
ATOM     94  H   UNL A   1      44.983  29.803  26.070  1.00  0.00     0.065 H 
ATOM     95  H   UNL A   1      37.672  27.482  29.840  1.00  0.00     0.065 H 
ATOM     96  C   UNL A   1      38.657  30.159  30.519  1.00  0.00     0.037 A 
ATOM     97  C   UNL A   1      45.366  30.749  30.218  1.00  0.00     0.049 A 
ATOM     98  C   UNL A   1      39.720  31.007  31.104  1.00  0.00     0.074 A 
ATOM     99  C   UNL A   1      46.016  29.887  31.078  1.00  0.00    -0.036 A 
ATOM    100  N   UNL A   1      44.452  31.427  30.982  1.00  0.00    -0.354 N 
ATOM    101  N   UNL A   1      40.369  30.725  32.198  1.00  0.00    -0.248 NA
ATOM    102  C   UNL A   1      40.323  32.034  30.268  1.00  0.00    -0.034 C 
ATOM    103  C   UNL A   1      45.165  29.778  32.216  1.00  0.00    -0.036 A 
ATOM    104  H   UNL A   1      46.924  29.419  30.928  1.00  0.00     0.065 H 
ATOM    105  C   UNL A   1      44.062  30.607  32.007  1.00  0.00     0.049 A 
ATOM    106  H   UNL A   1      44.130  32.342  30.820  1.00  0.00     0.167 HD
ATOM    107  C   UNL A   1      41.647  31.205  31.977  1.00  0.00     0.074 A 
ATOM    108  C   UNL A   1      41.521  32.117  30.847  1.00  0.00    -0.034 C 
ATOM    109  H   UNL A   1      39.934  32.548  29.462  1.00  0.00     0.065 H 
ATOM    110  H   UNL A   1      45.335  29.192  33.048  1.00  0.00     0.065 H 
ATOM    111  C   UNL A   1      42.725  30.600  32.554  1.00  0.00     0.037 A 
ATOM    112  H   UNL A   1      42.271  32.752  30.532  1.00  0.00     0.065 H 
BRANCH  93 113
ATOM    113  C   UNL A   1      45.471  32.220  28.103  1.00  0.00     0.064 A 
ATOM    114  C   UNL A   1      44.346  33.009  27.779  1.00  0.00     0.173 A 
ATOM    115  C   UNL A   1      46.675  32.600  27.473  1.00  0.00     0.173 A 
ATOM    116  F   UNL A   1      43.143  32.735  28.305  1.00  0.00    -0.203 F 
ATOM    117  C   UNL A   1      44.407  34.033  26.831  1.00  0.00     0.198 A 
ATOM    118  C   UNL A   1      46.743  33.656  26.565  1.00  0.00     0.198 A 
ATOM    119  F   UNL A   1      47.808  31.902  27.617  1.00  0.00    -0.203 F 
ATOM    120  F   UNL A   1      43.284  34.664  26.459  1.00  0.00    -0.200 F 
ATOM    121  C   UNL A   1      45.604  34.351  26.217  1.00  0.00     0.200 A 
ATOM    122  F   UNL A   1      47.909  33.937  25.968  1.00  0.00    -0.200 F 
ATOM    123  F   UNL A   1      45.653  35.286  25.261  1.00  0.00    -0.200 F 
ENDBRANCH  93 113
BRANCH  96 124
ATOM    124  C   UNL A   1      37.297  30.687  30.256  1.00  0.00     0.064 A 
ATOM    125  C   UNL A   1      36.482  31.136  31.313  1.00  0.00     0.173 A 
ATOM    126  C   UNL A   1      36.894  31.055  28.960  1.00  0.00     0.173 A 
ATOM    127  F   UNL A   1      36.812  30.861  32.584  1.00  0.00    -0.203 F 
ATOM    128  C   UNL A   1      35.366  31.946  31.086  1.00  0.00     0.198 A 
ATOM    129  C   UNL A   1      35.773  31.857  28.735  1.00  0.00     0.198 A 
ATOM    130  F   UNL A   1      37.636  30.732  27.891  1.00  0.00    -0.203 F 
ATOM    131  F   UNL A   1      34.664  32.421  32.125  1.00  0.00    -0.200 F 
ATOM    132  C   UNL A   1      35.022  32.319  29.799  1.00  0.00     0.200 A 
ATOM    133  F   UNL A   1      35.471  32.238  27.486  1.00  0.00    -0.200 F 
ATOM    134  F   UNL A   1      33.998  33.156  29.586  1.00  0.00    -0.200 F 
ENDBRANCH  96 124
BRANCH 111 135
ATOM    135  C   UNL A   1      42.468  29.659  33.697  1.00  0.00     0.064 A 
ATOM    136  C   UNL A   1      42.154  28.298  33.545  1.00  0.00     0.173 A 
ATOM    137  C   UNL A   1      42.691  30.131  34.997  1.00  0.00     0.173 A 
ATOM    138  F   UNL A   1      42.018  27.750  32.329  1.00  0.00    -0.203 F 
ATOM    139  C   UNL A   1      42.035  27.460  34.652  1.00  0.00     0.198 A 
ATOM    140  C   UNL A   1      42.611  29.284  36.096  1.00  0.00     0.198 A 
ATOM    141  F   UNL A   1      43.043  31.411  35.197  1.00  0.00    -0.203 F 
ATOM    142  F   UNL A   1      41.727  26.164  34.486  1.00  0.00    -0.200 F 
ATOM    143  C   UNL A   1      42.275  27.951  35.925  1.00  0.00     0.200 A 
ATOM    144  F   UNL A   1      42.893  29.752  37.320  1.00  0.00    -0.200 F 
ATOM    145  F   UNL A   1      42.211  27.132  36.986  1.00  0.00    -0.200 F 
ENDBRANCH 111 135
ENDBRANCH  76  79
ENDBRANCH  66  69
ENDBRANCH  62  65
ENDBRANCH  59  62
ENDBRANCH  56  59
ENDBRANCH   1  56
TORSDOF 18
ENDMDL
MODEL 5
REMARK VINA RESULT:     -12.2      2.911      8.944
REMARK SMILES Cc1ccc2c(c1)c(-c1ccnc3c(C)cccc13)c(C)n2CC(=O)NCCCCCCNC(=O)c1ccc(-c2c3nc(c(-c4c(F)c(F)c(F)c(F)c4F)c4ccc([nH]4)c(-c4c(F)c(F)c(F)c(F)c4F)c4nc(c(-c5c(F)c(F)c(F)c(F)c5F)c5ccc2[nH]5)C=C4)C=C3)cc1
REMARK SMILES IDX 29 1 28 4 27 7 26 10 24 11 25 12 23 14 22 17 2 18 3 19 7 20
REMARK SMILES IDX 4 21 6 23 5 25 8 27 20 28 1 29 9 33 10 34 19 35 11 36 13 38
REMARK SMILES IDX 18 39 12 40 14 42 17 43 16 45 15 48 21 52 30 56 31 59 32 62
REMARK SMILES IDX 33 65 34 66 35 68 36 69 37 70 98 71 38 72 97 74 39 76 40 79
REMARK SMILES IDX 41 80 91 81 42 82 96 83 90 84 92 85 43 86 95 87 89 89 88 91
REMARK SMILES IDX 44 93 76 96 56 97 75 98 57 99 60 100 74 101 93 102 58 103
REMARK SMILES IDX 59 105 73 107 94 108 61 111 45 113 46 114 54 115 47 116
REMARK SMILES IDX 48 117 52 118 55 119 49 120 50 121 53 122 51 123 77 124
REMARK SMILES IDX 78 125 86 126 79 127 80 128 84 129 87 130 81 131 82 132
REMARK SMILES IDX 85 133 83 134 62 135 63 136 71 137 64 138 65 139 69 140
REMARK SMILES IDX 72 141 66 142 67 143 70 144 68 145
REMARK H PARENT 29 2 29 3 28 5 28 6 27 8 27 9 26 13 23 15 23 16 3 22 7 24 4 26
REMARK H PARENT 1 30 1 31 1 32 10 37 11 41 18 44 17 46 16 47 15 49 15 50 15 51
REMARK H PARENT 21 53 21 54 21 55 30 57 30 58 31 60 31 61 32 63 32 64 33 67
REMARK H PARENT 37 73 98 75 38 77 97 78 96 88 90 90 92 92 95 94 89 95 57 104
REMARK H PARENT 60 106 93 109 58 110 94 112
REMARK Flexibility Score: inf
ROOT
ATOM      1  C   UNL A   1      30.986  29.469  24.520  1.00  0.00    -0.052 C 
ATOM      2  H   UNL A   1      30.012  29.070  24.713  1.00  0.00     0.027 H 
ATOM      3  H   UNL A   1      30.999  30.538  24.461  1.00  0.00     0.027 H 
ENDROOT
BRANCH   1   4
ATOM      4  C   UNL A   1      31.454  28.954  23.154  1.00  0.00    -0.036 C 
ATOM      5  H   UNL A   1      31.266  29.715  22.426  1.00  0.00     0.028 H 
ATOM      6  H   UNL A   1      32.494  28.723  23.251  1.00  0.00     0.028 H 
BRANCH   4   7
ATOM      7  C   UNL A   1      30.759  27.673  22.699  1.00  0.00     0.017 C 
ATOM      8  H   UNL A   1      30.586  27.049  23.550  1.00  0.00     0.049 H 
ATOM      9  H   UNL A   1      29.834  27.939  22.231  1.00  0.00     0.049 H 
BRANCH   7  10
ATOM     10  N   UNL A   1      31.566  26.948  21.737  1.00  0.00    -0.355 N 
ATOM     11  C   UNL A   1      32.748  26.289  21.917  1.00  0.00     0.239 C 
ATOM     12  O   UNL A   1      33.278  25.784  20.922  1.00  0.00    -0.273 OA
ATOM     13  H   UNL A   1      31.209  26.928  20.820  1.00  0.00     0.163 HD
BRANCH  11  14
ATOM     14  C   UNL A   1      33.348  26.113  23.299  1.00  0.00     0.102 C 
ATOM     15  H   UNL A   1      34.394  26.330  23.242  1.00  0.00     0.060 H 
ATOM     16  H   UNL A   1      32.823  26.780  23.951  1.00  0.00     0.060 H 
BRANCH  14  17
ATOM     17  N   UNL A   1      33.187  24.772  23.853  1.00  0.00    -0.335 N 
ATOM     18  C   UNL A   1      30.402  23.177  26.500  1.00  0.00    -0.050 A 
ATOM     19  C   UNL A   1      30.123  24.448  25.997  1.00  0.00    -0.057 A 
ATOM     20  C   UNL A   1      31.541  22.490  26.051  1.00  0.00    -0.049 A 
ATOM     21  C   UNL A   1      30.965  25.061  25.065  1.00  0.00    -0.037 A 
ATOM     22  H   UNL A   1      29.279  24.946  26.319  1.00  0.00     0.063 H 
ATOM     23  C   UNL A   1      32.414  23.091  25.117  1.00  0.00     0.008 A 
ATOM     24  H   UNL A   1      31.742  21.542  26.407  1.00  0.00     0.063 H 
ATOM     25  C   UNL A   1      32.128  24.380  24.661  1.00  0.00     0.049 A 
ATOM     26  H   UNL A   1      30.739  25.992  24.682  1.00  0.00     0.065 H 
ATOM     27  C   UNL A   1      33.618  22.677  24.477  1.00  0.00     0.011 A 
ATOM     28  C   UNL A   1      34.052  23.711  23.660  1.00  0.00     0.024 A 
BRANCH  18  29
ATOM     29  C   UNL A   1      29.504  22.578  27.543  1.00  0.00    -0.040 C 
ATOM     30  H   UNL A   1      28.485  22.806  27.309  1.00  0.00     0.028 H 
ATOM     31  H   UNL A   1      29.750  22.985  28.501  1.00  0.00     0.028 H 
ATOM     32  H   UNL A   1      29.637  21.516  27.561  1.00  0.00     0.028 H 
ENDBRANCH  18  29
BRANCH  27  33
ATOM     33  C   UNL A   1      34.339  21.415  24.609  1.00  0.00    -0.005 A 
ATOM     34  C   UNL A   1      35.596  21.442  25.207  1.00  0.00    -0.035 A 
ATOM     35  C   UNL A   1      33.783  20.183  24.178  1.00  0.00     0.008 A 
ATOM     36  C   UNL A   1      36.251  20.244  25.377  1.00  0.00     0.028 A 
ATOM     37  H   UNL A   1      36.024  22.332  25.511  1.00  0.00     0.065 H 
ATOM     38  C   UNL A   1      34.530  19.006  24.412  1.00  0.00     0.074 A 
ATOM     39  C   UNL A   1      32.528  20.084  23.536  1.00  0.00    -0.052 A 
ATOM     40  N   UNL A   1      35.743  19.050  25.002  1.00  0.00    -0.256 NA
ATOM     41  H   UNL A   1      37.184  20.258  25.817  1.00  0.00     0.084 H 
ATOM     42  C   UNL A   1      33.976  17.776  24.022  1.00  0.00    -0.025 A 
ATOM     43  C   UNL A   1      32.003  18.862  23.134  1.00  0.00    -0.061 A 
ATOM     44  H   UNL A   1      31.986  20.943  23.360  1.00  0.00     0.063 H 
ATOM     45  C   UNL A   1      32.726  17.709  23.380  1.00  0.00    -0.057 A 
ATOM     46  H   UNL A   1      31.089  18.817  22.658  1.00  0.00     0.062 H 
ATOM     47  H   UNL A   1      32.345  16.794  23.092  1.00  0.00     0.063 H 
BRANCH  42  48
ATOM     48  C   UNL A   1      34.690  16.474  24.275  1.00  0.00    -0.038 C 
ATOM     49  H   UNL A   1      35.701  16.672  24.563  1.00  0.00     0.028 H 
ATOM     50  H   UNL A   1      34.684  15.883  23.382  1.00  0.00     0.028 H 
ATOM     51  H   UNL A   1      34.193  15.941  25.058  1.00  0.00     0.028 H 
ENDBRANCH  42  48
ENDBRANCH  27  33
BRANCH  28  52
ATOM     52  C   UNL A   1      35.249  23.762  22.765  1.00  0.00    -0.024 C 
ATOM     53  H   UNL A   1      35.194  22.967  22.051  1.00  0.00     0.030 H 
ATOM     54  H   UNL A   1      36.137  23.653  23.353  1.00  0.00     0.030 H 
ATOM     55  H   UNL A   1      35.271  24.701  22.254  1.00  0.00     0.030 H 
ENDBRANCH  28  52
ENDBRANCH  14  17
ENDBRANCH  11  14
ENDBRANCH   7  10
ENDBRANCH   4   7
ENDBRANCH   1   4
BRANCH   1  56
ATOM     56  C   UNL A   1      31.897  29.090  25.692  1.00  0.00    -0.052 C 
ATOM     57  H   UNL A   1      32.840  28.783  25.293  1.00  0.00     0.027 H 
ATOM     58  H   UNL A   1      31.387  28.317  26.228  1.00  0.00     0.027 H 
BRANCH  56  59
ATOM     59  C   UNL A   1      32.152  30.213  26.703  1.00  0.00    -0.036 C 
ATOM     60  H   UNL A   1      31.479  30.084  27.524  1.00  0.00     0.028 H 
ATOM     61  H   UNL A   1      31.999  31.134  26.179  1.00  0.00     0.028 H 
BRANCH  59  62
ATOM     62  C   UNL A   1      33.578  30.257  27.255  1.00  0.00     0.018 C 
ATOM     63  H   UNL A   1      34.240  29.866  26.511  1.00  0.00     0.049 H 
ATOM     64  H   UNL A   1      33.581  29.677  28.154  1.00  0.00     0.049 H 
BRANCH  62  65
ATOM     65  N   UNL A   1      34.030  31.586  27.613  1.00  0.00    -0.352 N 
ATOM     66  C   UNL A   1      35.231  32.127  28.001  1.00  0.00     0.251 C 
ATOM     67  H   UNL A   1      33.311  32.256  27.566  1.00  0.00     0.163 HD
ATOM     68  O   UNL A   1      35.275  33.345  28.101  1.00  0.00    -0.269 OA
BRANCH  66  69
ATOM     69  C   UNL A   1      36.438  31.332  28.372  1.00  0.00     0.039 A 
ATOM     70  C   UNL A   1      37.536  31.809  29.083  1.00  0.00    -0.049 A 
ATOM     71  C   UNL A   1      36.473  30.003  27.904  1.00  0.00    -0.049 A 
ATOM     72  C   UNL A   1      38.682  31.035  29.209  1.00  0.00    -0.053 A 
ATOM     73  H   UNL A   1      37.498  32.744  29.517  1.00  0.00     0.063 H 
ATOM     74  C   UNL A   1      37.605  29.207  28.062  1.00  0.00    -0.053 A 
ATOM     75  H   UNL A   1      35.641  29.612  27.434  1.00  0.00     0.063 H 
ATOM     76  C   UNL A   1      38.730  29.744  28.674  1.00  0.00    -0.014 A 
ATOM     77  H   UNL A   1      39.505  31.416  29.703  1.00  0.00     0.063 H 
ATOM     78  H   UNL A   1      37.607  28.230  27.729  1.00  0.00     0.063 H 
BRANCH  76  79
ATOM     79  C   UNL A   1      39.954  28.980  28.900  1.00  0.00     0.031 A 
ATOM     80  C   UNL A   1      40.302  28.787  30.337  1.00  0.00     0.074 A 
ATOM     81  C   UNL A   1      40.712  28.440  27.926  1.00  0.00     0.049 A 
ATOM     82  N   UNL A   1      41.343  29.224  30.969  1.00  0.00    -0.248 NA
ATOM     83  C   UNL A   1      39.310  28.125  31.197  1.00  0.00    -0.034 C 
ATOM     84  C   UNL A   1      40.402  28.304  26.503  1.00  0.00    -0.036 A 
ATOM     85  N   UNL A   1      41.925  27.822  28.039  1.00  0.00    -0.354 N 
ATOM     86  C   UNL A   1      41.217  28.770  32.280  1.00  0.00     0.074 A 
ATOM     87  C   UNL A   1      39.900  28.202  32.391  1.00  0.00    -0.034 C 
ATOM     88  H   UNL A   1      38.400  27.711  30.944  1.00  0.00     0.065 H 
ATOM     89  C   UNL A   1      41.297  27.469  25.928  1.00  0.00    -0.036 A 
ATOM     90  H   UNL A   1      39.622  28.771  26.015  1.00  0.00     0.065 H 
ATOM     91  C   UNL A   1      42.321  27.130  26.903  1.00  0.00     0.049 A 
ATOM     92  H   UNL A   1      42.472  27.864  28.857  1.00  0.00     0.167 HD
ATOM     93  C   UNL A   1      42.285  28.732  33.124  1.00  0.00     0.037 A 
ATOM     94  H   UNL A   1      39.468  27.894  33.277  1.00  0.00     0.065 H 
ATOM     95  H   UNL A   1      41.260  27.127  24.955  1.00  0.00     0.065 H 
ATOM     96  C   UNL A   1      43.390  26.304  26.793  1.00  0.00     0.037 A 
ATOM     97  C   UNL A   1      43.337  29.603  32.672  1.00  0.00     0.049 A 
ATOM     98  C   UNL A   1      44.341  26.659  27.871  1.00  0.00     0.074 A 
ATOM     99  C   UNL A   1      43.486  30.966  32.520  1.00  0.00    -0.036 A 
ATOM    100  N   UNL A   1      44.377  29.029  31.989  1.00  0.00    -0.354 N 
ATOM    101  N   UNL A   1      45.027  27.767  27.912  1.00  0.00    -0.248 NA
ATOM    102  C   UNL A   1      44.278  25.917  29.120  1.00  0.00    -0.034 C 
ATOM    103  C   UNL A   1      44.350  31.127  31.398  1.00  0.00    -0.036 A 
ATOM    104  H   UNL A   1      43.061  31.711  33.095  1.00  0.00     0.065 H 
ATOM    105  C   UNL A   1      44.710  29.855  30.949  1.00  0.00     0.049 A 
ATOM    106  H   UNL A   1      44.808  28.172  32.207  1.00  0.00     0.167 HD
ATOM    107  C   UNL A   1      45.108  28.075  29.258  1.00  0.00     0.074 A 
ATOM    108  C   UNL A   1      44.760  26.841  29.952  1.00  0.00    -0.034 C 
ATOM    109  H   UNL A   1      43.955  24.955  29.307  1.00  0.00     0.065 H 
ATOM    110  H   UNL A   1      44.656  32.024  30.990  1.00  0.00     0.065 H 
ATOM    111  C   UNL A   1      45.175  29.373  29.669  1.00  0.00     0.037 A 
ATOM    112  H   UNL A   1      44.873  26.700  30.968  1.00  0.00     0.065 H 
BRANCH  93 113
ATOM    113  C   UNL A   1      42.534  27.641  34.142  1.00  0.00     0.064 A 
ATOM    114  C   UNL A   1      43.119  26.427  33.720  1.00  0.00     0.173 A 
ATOM    115  C   UNL A   1      41.943  27.613  35.422  1.00  0.00     0.173 A 
ATOM    116  F   UNL A   1      43.699  26.328  32.515  1.00  0.00    -0.203 F 
ATOM    117  C   UNL A   1      43.034  25.259  34.483  1.00  0.00     0.198 A 
ATOM    118  C   UNL A   1      41.904  26.458  36.203  1.00  0.00     0.198 A 
ATOM    119  F   UNL A   1      41.280  28.661  35.926  1.00  0.00    -0.203 F 
ATOM    120  F   UNL A   1      43.486  24.102  33.981  1.00  0.00    -0.200 F 
ATOM    121  C   UNL A   1      42.418  25.273  35.720  1.00  0.00     0.200 A 
ATOM    122  F   UNL A   1      41.287  26.488  37.392  1.00  0.00    -0.200 F 
ATOM    123  F   UNL A   1      42.275  24.143  36.424  1.00  0.00    -0.200 F 
ENDBRANCH  93 113
BRANCH  96 124
ATOM    124  C   UNL A   1      43.533  25.053  26.011  1.00  0.00     0.064 A 
ATOM    125  C   UNL A   1      44.670  24.829  25.213  1.00  0.00     0.173 A 
ATOM    126  C   UNL A   1      42.725  23.931  26.272  1.00  0.00     0.173 A 
ATOM    127  F   UNL A   1      45.515  25.836  24.943  1.00  0.00    -0.203 F 
ATOM    128  C   UNL A   1      45.005  23.552  24.751  1.00  0.00     0.198 A 
ATOM    129  C   UNL A   1      43.056  22.658  25.803  1.00  0.00     0.198 A 
ATOM    130  F   UNL A   1      41.655  24.026  27.075  1.00  0.00    -0.203 F 
ATOM    131  F   UNL A   1      46.141  23.366  24.064  1.00  0.00    -0.200 F 
ATOM    132  C   UNL A   1      44.205  22.466  25.061  1.00  0.00     0.200 A 
ATOM    133  F   UNL A   1      42.291  21.609  26.138  1.00  0.00    -0.200 F 
ATOM    134  F   UNL A   1      44.564  21.231  24.684  1.00  0.00    -0.200 F 
ENDBRANCH  96 124
BRANCH 111 135
ATOM    135  C   UNL A   1      45.526  30.413  28.644  1.00  0.00     0.064 A 
ATOM    136  C   UNL A   1      44.595  31.021  27.784  1.00  0.00     0.173 A 
ATOM    137  C   UNL A   1      46.837  30.910  28.635  1.00  0.00     0.173 A 
ATOM    138  F   UNL A   1      43.304  30.666  27.800  1.00  0.00    -0.203 F 
ATOM    139  C   UNL A   1      44.974  32.056  26.930  1.00  0.00     0.198 A 
ATOM    140  C   UNL A   1      47.201  31.970  27.812  1.00  0.00     0.198 A 
ATOM    141  F   UNL A   1      47.755  30.400  29.471  1.00  0.00    -0.203 F 
ATOM    142  F   UNL A   1      44.072  32.619  26.113  1.00  0.00    -0.200 F 
ATOM    143  C   UNL A   1      46.273  32.537  26.954  1.00  0.00     0.200 A 
ATOM    144  F   UNL A   1      48.445  32.464  27.874  1.00  0.00    -0.200 F 
ATOM    145  F   UNL A   1      46.624  33.567  26.171  1.00  0.00    -0.200 F 
ENDBRANCH 111 135
ENDBRANCH  76  79
ENDBRANCH  66  69
ENDBRANCH  62  65
ENDBRANCH  59  62
ENDBRANCH  56  59
ENDBRANCH   1  56
TORSDOF 18
ENDMDL
MODEL 6
REMARK VINA RESULT:     -12.2      4.708      9.146
REMARK SMILES Cc1ccc2c(c1)c(-c1ccnc3c(C)cccc13)c(C)n2CC(=O)NCCCCCCNC(=O)c1ccc(-c2c3nc(c(-c4c(F)c(F)c(F)c(F)c4F)c4ccc([nH]4)c(-c4c(F)c(F)c(F)c(F)c4F)c4nc(c(-c5c(F)c(F)c(F)c(F)c5F)c5ccc2[nH]5)C=C4)C=C3)cc1
REMARK SMILES IDX 29 1 28 4 27 7 26 10 24 11 25 12 23 14 22 17 2 18 3 19 7 20
REMARK SMILES IDX 4 21 6 23 5 25 8 27 20 28 1 29 9 33 10 34 19 35 11 36 13 38
REMARK SMILES IDX 18 39 12 40 14 42 17 43 16 45 15 48 21 52 30 56 31 59 32 62
REMARK SMILES IDX 33 65 34 66 35 68 36 69 37 70 98 71 38 72 97 74 39 76 40 79
REMARK SMILES IDX 41 80 91 81 42 82 96 83 90 84 92 85 43 86 95 87 89 89 88 91
REMARK SMILES IDX 44 93 76 96 56 97 75 98 57 99 60 100 74 101 93 102 58 103
REMARK SMILES IDX 59 105 73 107 94 108 61 111 45 113 46 114 54 115 47 116
REMARK SMILES IDX 48 117 52 118 55 119 49 120 50 121 53 122 51 123 77 124
REMARK SMILES IDX 78 125 86 126 79 127 80 128 84 129 87 130 81 131 82 132
REMARK SMILES IDX 85 133 83 134 62 135 63 136 71 137 64 138 65 139 69 140
REMARK SMILES IDX 72 141 66 142 67 143 70 144 68 145
REMARK H PARENT 29 2 29 3 28 5 28 6 27 8 27 9 26 13 23 15 23 16 3 22 7 24 4 26
REMARK H PARENT 1 30 1 31 1 32 10 37 11 41 18 44 17 46 16 47 15 49 15 50 15 51
REMARK H PARENT 21 53 21 54 21 55 30 57 30 58 31 60 31 61 32 63 32 64 33 67
REMARK H PARENT 37 73 98 75 38 77 97 78 96 88 90 90 92 92 95 94 89 95 57 104
REMARK H PARENT 60 106 93 109 58 110 94 112
REMARK Flexibility Score: inf
ROOT
ATOM      1  C   UNL A   1      43.573  25.274  25.004  1.00  0.00    -0.052 C 
ATOM      2  H   UNL A   1      43.109  25.428  24.052  1.00  0.00     0.027 H 
ATOM      3  H   UNL A   1      42.870  25.102  25.791  1.00  0.00     0.027 H 
ENDROOT
BRANCH   1   4
ATOM      4  C   UNL A   1      44.339  26.549  25.377  1.00  0.00    -0.036 C 
ATOM      5  H   UNL A   1      44.027  27.332  24.716  1.00  0.00     0.028 H 
ATOM      6  H   UNL A   1      44.112  26.757  26.401  1.00  0.00     0.028 H 
BRANCH   4   7
ATOM      7  C   UNL A   1      45.856  26.417  25.280  1.00  0.00     0.017 C 
ATOM      8  H   UNL A   1      46.138  25.423  25.557  1.00  0.00     0.049 H 
ATOM      9  H   UNL A   1      46.151  26.627  24.273  1.00  0.00     0.049 H 
BRANCH   7  10
ATOM     10  N   UNL A   1      46.525  27.358  26.157  1.00  0.00    -0.355 N 
ATOM     11  C   UNL A   1      46.882  27.221  27.468  1.00  0.00     0.239 C 
ATOM     12  O   UNL A   1      47.402  28.193  28.023  1.00  0.00    -0.273 OA
ATOM     13  H   UNL A   1      46.755  28.223  25.747  1.00  0.00     0.163 HD
BRANCH  11  14
ATOM     14  C   UNL A   1      46.721  25.897  28.192  1.00  0.00     0.102 C 
ATOM     15  H   UNL A   1      45.729  25.537  28.019  1.00  0.00     0.060 H 
ATOM     16  H   UNL A   1      47.473  25.241  27.805  1.00  0.00     0.060 H 
BRANCH  14  17
ATOM     17  N   UNL A   1      46.935  25.977  29.634  1.00  0.00    -0.335 N 
ATOM     18  C   UNL A   1      50.262  25.163  31.996  1.00  0.00    -0.050 A 
ATOM     19  C   UNL A   1      50.475  25.205  30.618  1.00  0.00    -0.057 A 
ATOM     20  C   UNL A   1      48.988  25.454  32.508  1.00  0.00    -0.049 A 
ATOM     21  C   UNL A   1      49.439  25.516  29.733  1.00  0.00    -0.037 A 
ATOM     22  H   UNL A   1      51.415  25.002  30.244  1.00  0.00     0.063 H 
ATOM     23  C   UNL A   1      47.922  25.762  31.634  1.00  0.00     0.008 A 
ATOM     24  H   UNL A   1      48.830  25.442  33.528  1.00  0.00     0.063 H 
ATOM     25  C   UNL A   1      48.156  25.759  30.258  1.00  0.00     0.049 A 
ATOM     26  H   UNL A   1      49.611  25.566  28.716  1.00  0.00     0.065 H 
ATOM     27  C   UNL A   1      46.549  26.095  31.825  1.00  0.00     0.011 A 
ATOM     28  C   UNL A   1      45.970  26.274  30.577  1.00  0.00     0.024 A 
BRANCH  18  29
ATOM     29  C   UNL A   1      51.386  24.768  32.909  1.00  0.00    -0.040 C 
ATOM     30  H   UNL A   1      51.445  23.702  32.962  1.00  0.00     0.028 H 
ATOM     31  H   UNL A   1      51.208  25.165  33.886  1.00  0.00     0.028 H 
ATOM     32  H   UNL A   1      52.308  25.158  32.528  1.00  0.00     0.028 H 
ENDBRANCH  18  29
BRANCH  27  33
ATOM     33  C   UNL A   1      45.803  26.231  33.072  1.00  0.00    -0.005 A 
ATOM     34  C   UNL A   1      45.983  27.394  33.815  1.00  0.00    -0.035 A 
ATOM     35  C   UNL A   1      44.893  25.237  33.517  1.00  0.00     0.008 A 
ATOM     36  C   UNL A   1      45.239  27.543  34.963  1.00  0.00     0.028 A 
ATOM     37  H   UNL A   1      46.654  28.121  33.516  1.00  0.00     0.065 H 
ATOM     38  C   UNL A   1      44.166  25.493  34.701  1.00  0.00     0.074 A 
ATOM     39  C   UNL A   1      44.684  24.019  32.831  1.00  0.00    -0.052 A 
ATOM     40  N   UNL A   1      44.347  26.631  35.404  1.00  0.00    -0.256 NA
ATOM     41  H   UNL A   1      45.370  28.402  35.519  1.00  0.00     0.084 H 
ATOM     42  C   UNL A   1      43.237  24.532  35.133  1.00  0.00    -0.025 A 
ATOM     43  C   UNL A   1      43.779  23.067  33.283  1.00  0.00    -0.061 A 
ATOM     44  H   UNL A   1      45.219  23.831  31.970  1.00  0.00     0.063 H 
ATOM     45  C   UNL A   1      43.054  23.326  34.432  1.00  0.00    -0.057 A 
ATOM     46  H   UNL A   1      43.651  22.181  32.770  1.00  0.00     0.062 H 
ATOM     47  H   UNL A   1      42.374  22.631  34.776  1.00  0.00     0.063 H 
BRANCH  42  48
ATOM     48  C   UNL A   1      42.393  24.749  36.362  1.00  0.00    -0.038 C 
ATOM     49  H   UNL A   1      41.366  24.842  36.077  1.00  0.00     0.028 H 
ATOM     50  H   UNL A   1      42.707  25.644  36.858  1.00  0.00     0.028 H 
ATOM     51  H   UNL A   1      42.506  23.916  37.024  1.00  0.00     0.028 H 
ENDBRANCH  42  48
ENDBRANCH  27  33
BRANCH  28  52
ATOM     52  C   UNL A   1      44.563  26.655  30.241  1.00  0.00    -0.024 C 
ATOM     53  H   UNL A   1      44.469  27.720  30.252  1.00  0.00     0.030 H 
ATOM     54  H   UNL A   1      43.897  26.230  30.963  1.00  0.00     0.030 H 
ATOM     55  H   UNL A   1      44.318  26.285  29.267  1.00  0.00     0.030 H 
ENDBRANCH  28  52
ENDBRANCH  14  17
ENDBRANCH  11  14
ENDBRANCH   7  10
ENDBRANCH   4   7
ENDBRANCH   1   4
BRANCH   1  56
ATOM     56  C   UNL A   1      44.438  24.013  24.914  1.00  0.00    -0.052 C 
ATOM     57  H   UNL A   1      45.033  23.955  25.800  1.00  0.00     0.027 H 
ATOM     58  H   UNL A   1      45.015  24.110  24.018  1.00  0.00     0.027 H 
BRANCH  56  59
ATOM     59  C   UNL A   1      43.657  22.701  24.779  1.00  0.00    -0.036 C 
ATOM     60  H   UNL A   1      44.210  22.047  24.139  1.00  0.00     0.028 H 
ATOM     61  H   UNL A   1      42.696  22.959  24.384  1.00  0.00     0.028 H 
BRANCH  59  62
ATOM     62  C   UNL A   1      43.404  21.975  26.103  1.00  0.00     0.018 C 
ATOM     63  H   UNL A   1      43.797  22.576  26.896  1.00  0.00     0.049 H 
ATOM     64  H   UNL A   1      43.885  21.022  26.031  1.00  0.00     0.049 H 
BRANCH  62  65
ATOM     65  N   UNL A   1      42.004  21.719  26.375  1.00  0.00    -0.352 N 
ATOM     66  C   UNL A   1      40.932  22.497  26.734  1.00  0.00     0.251 C 
ATOM     67  H   UNL A   1      41.769  20.769  26.280  1.00  0.00     0.163 HD
ATOM     68  O   UNL A   1      39.840  21.946  26.755  1.00  0.00    -0.269 OA
BRANCH  66  69
ATOM     69  C   UNL A   1      41.024  23.923  27.164  1.00  0.00     0.039 A 
ATOM     70  C   UNL A   1      41.835  24.412  28.183  1.00  0.00    -0.049 A 
ATOM     71  C   UNL A   1      40.165  24.825  26.505  1.00  0.00    -0.049 A 
ATOM     72  C   UNL A   1      41.702  25.723  28.621  1.00  0.00    -0.053 A 
ATOM     73  H   UNL A   1      42.540  23.796  28.618  1.00  0.00     0.063 H 
ATOM     74  C   UNL A   1      40.054  26.153  26.912  1.00  0.00    -0.053 A 
ATOM     75  H   UNL A   1      39.605  24.494  25.702  1.00  0.00     0.063 H 
ATOM     76  C   UNL A   1      40.790  26.587  28.007  1.00  0.00    -0.014 A 
ATOM     77  H   UNL A   1      42.280  26.062  29.406  1.00  0.00     0.063 H 
ATOM     78  H   UNL A   1      39.433  26.805  26.407  1.00  0.00     0.063 H 
BRANCH  76  79
ATOM     79  C   UNL A   1      40.754  27.964  28.494  1.00  0.00     0.031 A 
ATOM     80  C   UNL A   1      41.863  28.824  27.992  1.00  0.00     0.074 A 
ATOM     81  C   UNL A   1      39.795  28.469  29.295  1.00  0.00     0.049 A 
ATOM     82  N   UNL A   1      42.801  29.393  28.677  1.00  0.00    -0.248 NA
ATOM     83  C   UNL A   1      42.009  28.970  26.536  1.00  0.00    -0.034 C 
ATOM     84  C   UNL A   1      38.517  27.866  29.674  1.00  0.00    -0.036 A 
ATOM     85  N   UNL A   1      39.748  29.697  29.892  1.00  0.00    -0.354 N 
ATOM     86  C   UNL A   1      43.579  30.095  27.758  1.00  0.00     0.074 A 
ATOM     87  C   UNL A   1      43.117  29.707  26.452  1.00  0.00    -0.034 C 
ATOM     88  H   UNL A   1      41.413  28.600  25.780  1.00  0.00     0.065 H 
ATOM     89  C   UNL A   1      37.737  28.804  30.259  1.00  0.00    -0.036 A 
ATOM     90  H   UNL A   1      38.252  26.882  29.518  1.00  0.00     0.065 H 
ATOM     91  C   UNL A   1      38.510  30.024  30.427  1.00  0.00     0.049 A 
ATOM     92  H   UNL A   1      40.526  30.299  29.938  1.00  0.00     0.167 HD
ATOM     93  C   UNL A   1      44.424  31.086  28.154  1.00  0.00     0.037 A 
ATOM     94  H   UNL A   1      43.582  29.965  25.567  1.00  0.00     0.065 H 
ATOM     95  H   UNL A   1      36.753  28.675  30.542  1.00  0.00     0.065 H 
ATOM     96  C   UNL A   1      38.140  31.228  30.928  1.00  0.00     0.037 A 
ATOM     97  C   UNL A   1      44.736  30.977  29.554  1.00  0.00     0.049 A 
ATOM     98  C   UNL A   1      39.376  31.956  31.297  1.00  0.00     0.074 A 
ATOM     99  C   UNL A   1      45.410  30.067  30.342  1.00  0.00    -0.036 A 
ATOM    100  N   UNL A   1      44.042  31.784  30.417  1.00  0.00    -0.354 N 
ATOM    101  N   UNL A   1      40.155  31.627  32.289  1.00  0.00    -0.248 NA
ATOM    102  C   UNL A   1      39.952  32.876  30.328  1.00  0.00    -0.034 C 
ATOM    103  C   UNL A   1      44.747  30.098  31.603  1.00  0.00    -0.036 A 
ATOM    104  H   UNL A   1      46.221  29.486  30.075  1.00  0.00     0.065 H 
ATOM    105  C   UNL A   1      43.729  31.050  31.529  1.00  0.00     0.049 A 
ATOM    106  H   UNL A   1      43.808  32.727  30.263  1.00  0.00     0.167 HD
ATOM    107  C   UNL A   1      41.428  31.940  31.847  1.00  0.00     0.074 A 
ATOM    108  C   UNL A   1      41.229  32.827  30.708  1.00  0.00    -0.034 C 
ATOM    109  H   UNL A   1      39.502  33.410  29.569  1.00  0.00     0.065 H 
ATOM    110  H   UNL A   1      44.979  29.520  32.426  1.00  0.00     0.065 H 
ATOM    111  C   UNL A   1      42.506  31.223  32.277  1.00  0.00     0.037 A 
ATOM    112  H   UNL A   1      41.988  33.355  30.250  1.00  0.00     0.065 H 
BRANCH  93 113
ATOM    113  C   UNL A   1      44.671  32.361  27.379  1.00  0.00     0.064 A 
ATOM    114  C   UNL A   1      45.893  32.523  26.690  1.00  0.00     0.173 A 
ATOM    115  C   UNL A   1      43.911  33.539  27.542  1.00  0.00     0.173 A 
ATOM    116  F   UNL A   1      46.709  31.478  26.487  1.00  0.00    -0.203 F 
ATOM    117  C   UNL A   1      46.355  33.778  26.284  1.00  0.00     0.198 A 
ATOM    118  C   UNL A   1      44.351  34.782  27.090  1.00  0.00     0.198 A 
ATOM    119  F   UNL A   1      42.770  33.561  28.242  1.00  0.00    -0.203 F 
ATOM    120  F   UNL A   1      47.580  33.898  25.756  1.00  0.00    -0.200 F 
ATOM    121  C   UNL A   1      45.587  34.909  26.492  1.00  0.00     0.200 A 
ATOM    122  F   UNL A   1      43.600  35.869  27.316  1.00  0.00    -0.200 F 
ATOM    123  F   UNL A   1      46.054  36.120  26.164  1.00  0.00    -0.200 F 
ENDBRANCH  93 113
BRANCH  96 124
ATOM    124  C   UNL A   1      36.827  31.912  30.855  1.00  0.00     0.064 A 
ATOM    125  C   UNL A   1      36.009  32.021  31.994  1.00  0.00     0.173 A 
ATOM    126  C   UNL A   1      36.493  32.738  29.766  1.00  0.00     0.173 A 
ATOM    127  F   UNL A   1      36.277  31.296  33.091  1.00  0.00    -0.203 F 
ATOM    128  C   UNL A   1      34.955  32.938  32.057  1.00  0.00     0.198 A 
ATOM    129  C   UNL A   1      35.434  33.646  29.827  1.00  0.00     0.198 A 
ATOM    130  F   UNL A   1      37.248  32.756  28.658  1.00  0.00    -0.203 F 
ATOM    131  F   UNL A   1      34.251  33.070  33.190  1.00  0.00    -0.200 F 
ATOM    132  C   UNL A   1      34.679  33.761  30.979  1.00  0.00     0.200 A 
ATOM    133  F   UNL A   1      35.199  34.461  28.789  1.00  0.00    -0.200 F 
ATOM    134  F   UNL A   1      33.719  34.692  31.065  1.00  0.00    -0.200 F 
ENDBRANCH  96 124
BRANCH 111 135
ATOM    135  C   UNL A   1      42.329  30.356  33.491  1.00  0.00     0.064 A 
ATOM    136  C   UNL A   1      42.437  30.816  34.814  1.00  0.00     0.173 A 
ATOM    137  C   UNL A   1      41.892  29.038  33.298  1.00  0.00     0.173 A 
ATOM    138  F   UNL A   1      42.758  32.089  35.080  1.00  0.00    -0.203 F 
ATOM    139  C   UNL A   1      42.154  29.979  35.892  1.00  0.00     0.198 A 
ATOM    140  C   UNL A   1      41.572  28.218  34.374  1.00  0.00     0.198 A 
ATOM    141  F   UNL A   1      41.723  28.561  32.054  1.00  0.00    -0.203 F 
ATOM    142  F   UNL A   1      42.270  30.436  37.148  1.00  0.00    -0.200 F 
ATOM    143  C   UNL A   1      41.710  28.685  35.671  1.00  0.00     0.200 A 
ATOM    144  F   UNL A   1      41.095  26.985  34.153  1.00  0.00    -0.200 F 
ATOM    145  F   UNL A   1      41.387  27.897  36.706  1.00  0.00    -0.200 F 
ENDBRANCH 111 135
ENDBRANCH  76  79
ENDBRANCH  66  69
ENDBRANCH  62  65
ENDBRANCH  59  62
ENDBRANCH  56  59
ENDBRANCH   1  56
TORSDOF 18
ENDMDL
MODEL 7
REMARK VINA RESULT:     -12.2      5.343     10.842
REMARK SMILES Cc1ccc2c(c1)c(-c1ccnc3c(C)cccc13)c(C)n2CC(=O)NCCCCCCNC(=O)c1ccc(-c2c3nc(c(-c4c(F)c(F)c(F)c(F)c4F)c4ccc([nH]4)c(-c4c(F)c(F)c(F)c(F)c4F)c4nc(c(-c5c(F)c(F)c(F)c(F)c5F)c5ccc2[nH]5)C=C4)C=C3)cc1
REMARK SMILES IDX 29 1 28 4 27 7 26 10 24 11 25 12 23 14 22 17 2 18 3 19 7 20
REMARK SMILES IDX 4 21 6 23 5 25 8 27 20 28 1 29 9 33 10 34 19 35 11 36 13 38
REMARK SMILES IDX 18 39 12 40 14 42 17 43 16 45 15 48 21 52 30 56 31 59 32 62
REMARK SMILES IDX 33 65 34 66 35 68 36 69 37 70 98 71 38 72 97 74 39 76 40 79
REMARK SMILES IDX 41 80 91 81 42 82 96 83 90 84 92 85 43 86 95 87 89 89 88 91
REMARK SMILES IDX 44 93 76 96 56 97 75 98 57 99 60 100 74 101 93 102 58 103
REMARK SMILES IDX 59 105 73 107 94 108 61 111 45 113 46 114 54 115 47 116
REMARK SMILES IDX 48 117 52 118 55 119 49 120 50 121 53 122 51 123 77 124
REMARK SMILES IDX 78 125 86 126 79 127 80 128 84 129 87 130 81 131 82 132
REMARK SMILES IDX 85 133 83 134 62 135 63 136 71 137 64 138 65 139 69 140
REMARK SMILES IDX 72 141 66 142 67 143 70 144 68 145
REMARK H PARENT 29 2 29 3 28 5 28 6 27 8 27 9 26 13 23 15 23 16 3 22 7 24 4 26
REMARK H PARENT 1 30 1 31 1 32 10 37 11 41 18 44 17 46 16 47 15 49 15 50 15 51
REMARK H PARENT 21 53 21 54 21 55 30 57 30 58 31 60 31 61 32 63 32 64 33 67
REMARK H PARENT 37 73 98 75 38 77 97 78 96 88 90 90 92 92 95 94 89 95 57 104
REMARK H PARENT 60 106 93 109 58 110 94 112
REMARK Flexibility Score: inf
ROOT
ATOM      1  C   UNL A   1      44.643  32.279  26.160  1.00  0.00    -0.052 C 
ATOM      2  H   UNL A   1      44.456  31.434  25.531  1.00  0.00     0.027 H 
ATOM      3  H   UNL A   1      45.682  32.519  26.243  1.00  0.00     0.027 H 
ENDROOT
BRANCH   1   4
ATOM      4  C   UNL A   1      44.162  31.939  27.576  1.00  0.00    -0.036 C 
ATOM      5  H   UNL A   1      44.706  32.545  28.269  1.00  0.00     0.028 H 
ATOM      6  H   UNL A   1      43.109  32.129  27.598  1.00  0.00     0.028 H 
BRANCH   4   7
ATOM      7  C   UNL A   1      44.354  30.476  27.965  1.00  0.00     0.017 C 
ATOM      8  H   UNL A   1      45.158  30.404  28.667  1.00  0.00     0.049 H 
ATOM      9  H   UNL A   1      43.442  30.118  28.397  1.00  0.00     0.049 H 
BRANCH   7  10
ATOM     10  N   UNL A   1      44.662  29.658  26.808  1.00  0.00    -0.355 N 
ATOM     11  C   UNL A   1      44.029  28.543  26.340  1.00  0.00     0.239 C 
ATOM     12  O   UNL A   1      44.514  27.982  25.352  1.00  0.00    -0.273 OA
ATOM     13  H   UNL A   1      45.443  29.949  26.284  1.00  0.00     0.163 HD
BRANCH  11  14
ATOM     14  C   UNL A   1      42.730  28.058  26.957  1.00  0.00     0.102 C 
ATOM     15  H   UNL A   1      42.483  28.705  27.772  1.00  0.00     0.060 H 
ATOM     16  H   UNL A   1      41.994  28.072  26.180  1.00  0.00     0.060 H 
BRANCH  14  17
ATOM     17  N   UNL A   1      42.784  26.688  27.460  1.00  0.00    -0.335 N 
ATOM     18  C   UNL A   1      44.198  25.095  31.033  1.00  0.00    -0.050 A 
ATOM     19  C   UNL A   1      44.086  26.484  30.975  1.00  0.00    -0.057 A 
ATOM     20  C   UNL A   1      43.779  24.320  29.941  1.00  0.00    -0.049 A 
ATOM     21  C   UNL A   1      43.578  27.124  29.841  1.00  0.00    -0.037 A 
ATOM     22  H   UNL A   1      44.384  27.051  31.784  1.00  0.00     0.063 H 
ATOM     23  C   UNL A   1      43.271  24.943  28.778  1.00  0.00     0.008 A 
ATOM     24  H   UNL A   1      43.843  23.291  29.986  1.00  0.00     0.063 H 
ATOM     25  C   UNL A   1      43.206  26.338  28.735  1.00  0.00     0.049 A 
ATOM     26  H   UNL A   1      43.478  28.151  29.815  1.00  0.00     0.065 H 
ATOM     27  C   UNL A   1      42.774  24.461  27.533  1.00  0.00     0.011 A 
ATOM     28  C   UNL A   1      42.430  25.555  26.751  1.00  0.00     0.024 A 
BRANCH  18  29
ATOM     29  C   UNL A   1      44.803  24.450  32.246  1.00  0.00    -0.040 C 
ATOM     30  H   UNL A   1      44.213  23.605  32.532  1.00  0.00     0.028 H 
ATOM     31  H   UNL A   1      44.828  25.156  33.050  1.00  0.00     0.028 H 
ATOM     32  H   UNL A   1      45.799  24.130  32.021  1.00  0.00     0.028 H 
ENDBRANCH  18  29
BRANCH  27  33
ATOM     33  C   UNL A   1      42.630  23.083  27.074  1.00  0.00    -0.005 A 
ATOM     34  C   UNL A   1      41.419  22.440  27.314  1.00  0.00    -0.035 A 
ATOM     35  C   UNL A   1      43.666  22.411  26.376  1.00  0.00     0.008 A 
ATOM     36  C   UNL A   1      41.268  21.159  26.834  1.00  0.00     0.028 A 
ATOM     37  H   UNL A   1      40.660  22.907  27.836  1.00  0.00     0.065 H 
ATOM     38  C   UNL A   1      43.405  21.102  25.911  1.00  0.00     0.074 A 
ATOM     39  C   UNL A   1      44.931  22.990  26.125  1.00  0.00    -0.052 A 
ATOM     40  N   UNL A   1      42.222  20.497  26.145  1.00  0.00    -0.256 NA
ATOM     41  H   UNL A   1      40.373  20.676  27.011  1.00  0.00     0.084 H 
ATOM     42  C   UNL A   1      44.410  20.439  25.188  1.00  0.00    -0.025 A 
ATOM     43  C   UNL A   1      45.924  22.313  25.429  1.00  0.00    -0.061 A 
ATOM     44  H   UNL A   1      45.122  23.943  26.469  1.00  0.00     0.063 H 
ATOM     45  C   UNL A   1      45.662  21.039  24.958  1.00  0.00    -0.057 A 
ATOM     46  H   UNL A   1      46.843  22.754  25.266  1.00  0.00     0.062 H 
ATOM     47  H   UNL A   1      46.388  20.527  24.434  1.00  0.00     0.063 H 
BRANCH  42  48
ATOM     48  C   UNL A   1      44.195  19.059  24.623  1.00  0.00    -0.038 C 
ATOM     49  H   UNL A   1      45.097  18.492  24.714  1.00  0.00     0.028 H 
ATOM     50  H   UNL A   1      43.924  19.134  23.590  1.00  0.00     0.028 H 
ATOM     51  H   UNL A   1      43.411  18.571  25.163  1.00  0.00     0.028 H 
ENDBRANCH  42  48
ENDBRANCH  27  33
BRANCH  28  52
ATOM     52  C   UNL A   1      41.844  25.580  25.376  1.00  0.00    -0.024 C 
ATOM     53  H   UNL A   1      42.389  26.271  24.768  1.00  0.00     0.030 H 
ATOM     54  H   UNL A   1      40.819  25.883  25.431  1.00  0.00     0.030 H 
ATOM     55  H   UNL A   1      41.904  24.602  24.946  1.00  0.00     0.030 H 
ENDBRANCH  28  52
ENDBRANCH  14  17
ENDBRANCH  11  14
ENDBRANCH   7  10
ENDBRANCH   4   7
ENDBRANCH   1   4
BRANCH   1  56
ATOM     56  C   UNL A   1      43.966  33.501  25.531  1.00  0.00    -0.052 C 
ATOM     57  H   UNL A   1      43.469  34.041  26.308  1.00  0.00     0.027 H 
ATOM     58  H   UNL A   1      43.302  33.122  24.783  1.00  0.00     0.027 H 
BRANCH  56  59
ATOM     59  C   UNL A   1      44.913  34.467  24.812  1.00  0.00    -0.036 C 
ATOM     60  H   UNL A   1      44.346  35.316  24.494  1.00  0.00     0.028 H 
ATOM     61  H   UNL A   1      45.342  33.922  23.997  1.00  0.00     0.028 H 
BRANCH  59  62
ATOM     62  C   UNL A   1      46.081  34.963  25.667  1.00  0.00     0.018 C 
ATOM     63  H   UNL A   1      46.968  34.946  25.068  1.00  0.00     0.049 H 
ATOM     64  H   UNL A   1      46.144  34.313  26.514  1.00  0.00     0.049 H 
BRANCH  62  65
ATOM     65  N   UNL A   1      45.905  36.306  26.182  1.00  0.00    -0.352 N 
ATOM     66  C   UNL A   1      45.173  36.863  27.200  1.00  0.00     0.251 C 
ATOM     67  H   UNL A   1      46.434  36.973  25.687  1.00  0.00     0.163 HD
ATOM     68  O   UNL A   1      45.372  38.046  27.434  1.00  0.00    -0.269 OA
BRANCH  66  69
ATOM     69  C   UNL A   1      44.117  36.147  27.974  1.00  0.00     0.039 A 
ATOM     70  C   UNL A   1      42.744  36.297  27.803  1.00  0.00    -0.049 A 
ATOM     71  C   UNL A   1      44.572  35.294  29.000  1.00  0.00    -0.049 A 
ATOM     72  C   UNL A   1      41.855  35.722  28.703  1.00  0.00    -0.053 A 
ATOM     73  H   UNL A   1      42.383  36.838  27.002  1.00  0.00     0.063 H 
ATOM     74  C   UNL A   1      43.685  34.683  29.883  1.00  0.00    -0.053 A 
ATOM     75  H   UNL A   1      45.585  35.119  29.098  1.00  0.00     0.063 H 
ATOM     76  C   UNL A   1      42.325  34.939  29.762  1.00  0.00    -0.014 A 
ATOM     77  H   UNL A   1      40.841  35.874  28.589  1.00  0.00     0.063 H 
ATOM     78  H   UNL A   1      44.033  34.047  30.618  1.00  0.00     0.063 H 
BRANCH  76  79
ATOM     79  C   UNL A   1      41.321  34.329  30.629  1.00  0.00     0.031 A 
ATOM     80  C   UNL A   1      41.820  33.961  31.985  1.00  0.00     0.074 A 
ATOM     81  C   UNL A   1      40.031  34.135  30.292  1.00  0.00     0.049 A 
ATOM     82  N   UNL A   1      41.909  32.780  32.506  1.00  0.00    -0.248 NA
ATOM     83  C   UNL A   1      42.398  35.029  32.813  1.00  0.00    -0.034 C 
ATOM     84  C   UNL A   1      39.308  34.654  29.129  1.00  0.00    -0.036 A 
ATOM     85  N   UNL A   1      39.062  33.469  30.986  1.00  0.00    -0.354 N 
ATOM     86  C   UNL A   1      42.419  32.962  33.790  1.00  0.00     0.074 A 
ATOM     87  C   UNL A   1      42.808  34.345  33.882  1.00  0.00    -0.034 C 
ATOM     88  H   UNL A   1      42.469  36.039  32.619  1.00  0.00     0.065 H 
ATOM     89  C   UNL A   1      37.981  34.460  29.305  1.00  0.00    -0.036 A 
ATOM     90  H   UNL A   1      39.743  35.099  28.307  1.00  0.00     0.065 H 
ATOM     91  C   UNL A   1      37.774  33.678  30.514  1.00  0.00     0.049 A 
ATOM     92  H   UNL A   1      39.261  32.888  31.757  1.00  0.00     0.167 HD
ATOM     93  C   UNL A   1      42.309  31.995  34.742  1.00  0.00     0.037 A 
ATOM     94  H   UNL A   1      43.334  34.753  34.671  1.00  0.00     0.065 H 
ATOM     95  H   UNL A   1      37.236  34.809  28.683  1.00  0.00     0.065 H 
ATOM     96  C   UNL A   1      36.623  33.275  31.104  1.00  0.00     0.037 A 
ATOM     97  C   UNL A   1      42.062  30.708  34.150  1.00  0.00     0.049 A 
ATOM     98  C   UNL A   1      36.956  32.155  32.013  1.00  0.00     0.074 A 
ATOM     99  C   UNL A   1      42.772  29.848  33.338  1.00  0.00    -0.036 A 
ATOM    100  N   UNL A   1      40.766  30.263  34.132  1.00  0.00    -0.354 N 
ATOM    101  N   UNL A   1      37.329  30.971  31.616  1.00  0.00    -0.248 NA
ATOM    102  C   UNL A   1      37.214  32.454  33.413  1.00  0.00    -0.034 C 
ATOM    103  C   UNL A   1      41.792  29.198  32.532  1.00  0.00    -0.036 A 
ATOM    104  H   UNL A   1      43.794  29.706  33.317  1.00  0.00     0.065 H 
ATOM    105  C   UNL A   1      40.537  29.668  32.920  1.00  0.00     0.049 A 
ATOM    106  H   UNL A   1      40.113  30.357  34.862  1.00  0.00     0.167 HD
ATOM    107  C   UNL A   1      38.239  30.555  32.571  1.00  0.00     0.074 A 
ATOM    108  C   UNL A   1      38.020  31.435  33.713  1.00  0.00    -0.034 C 
ATOM    109  H   UNL A   1      36.872  33.229  34.002  1.00  0.00     0.065 H 
ATOM    110  H   UNL A   1      41.978  28.502  31.792  1.00  0.00     0.065 H 
ATOM    111  C   UNL A   1      39.267  29.723  32.235  1.00  0.00     0.037 A 
ATOM    112  H   UNL A   1      38.441  31.286  34.644  1.00  0.00     0.065 H 
BRANCH  93 113
ATOM    113  C   UNL A   1      42.050  32.262  36.208  1.00  0.00     0.064 A 
ATOM    114  C   UNL A   1      40.864  32.929  36.588  1.00  0.00     0.173 A 
ATOM    115  C   UNL A   1      43.042  32.182  37.208  1.00  0.00     0.173 A 
ATOM    116  F   UNL A   1      39.855  33.081  35.717  1.00  0.00    -0.203 F 
ATOM    117  C   UNL A   1      40.726  33.544  37.835  1.00  0.00     0.198 A 
ATOM    118  C   UNL A   1      42.880  32.752  38.469  1.00  0.00     0.198 A 
ATOM    119  F   UNL A   1      44.249  31.652  36.975  1.00  0.00    -0.203 F 
ATOM    120  F   UNL A   1      39.637  34.278  38.098  1.00  0.00    -0.200 F 
ATOM    121  C   UNL A   1      41.738  33.463  38.772  1.00  0.00     0.200 A 
ATOM    122  F   UNL A   1      43.881  32.678  39.359  1.00  0.00    -0.200 F 
ATOM    123  F   UNL A   1      41.638  34.105  39.943  1.00  0.00    -0.200 F 
ENDBRANCH  93 113
BRANCH  96 124
ATOM    124  C   UNL A   1      35.307  33.956  31.160  1.00  0.00     0.064 A 
ATOM    125  C   UNL A   1      35.048  34.941  32.132  1.00  0.00     0.173 A 
ATOM    126  C   UNL A   1      34.402  33.888  30.086  1.00  0.00     0.173 A 
ATOM    127  F   UNL A   1      35.881  35.100  33.172  1.00  0.00    -0.203 F 
ATOM    128  C   UNL A   1      33.980  35.835  32.005  1.00  0.00     0.198 A 
ATOM    129  C   UNL A   1      33.330  34.775  29.967  1.00  0.00     0.198 A 
ATOM    130  F   UNL A   1      34.596  33.027  29.076  1.00  0.00    -0.203 F 
ATOM    131  F   UNL A   1      33.817  36.812  32.909  1.00  0.00    -0.200 F 
ATOM    132  C   UNL A   1      33.132  35.761  30.915  1.00  0.00     0.200 A 
ATOM    133  F   UNL A   1      32.536  34.714  28.888  1.00  0.00    -0.200 F 
ATOM    134  F   UNL A   1      32.155  36.663  30.753  1.00  0.00    -0.200 F 
ENDBRANCH  96 124
BRANCH 111 135
ATOM    135  C   UNL A   1      39.173  28.993  30.926  1.00  0.00     0.064 A 
ATOM    136  C   UNL A   1      39.531  29.547  29.684  1.00  0.00     0.173 A 
ATOM    137  C   UNL A   1      38.842  27.632  30.956  1.00  0.00     0.173 A 
ATOM    138  F   UNL A   1      39.949  30.816  29.588  1.00  0.00    -0.203 F 
ATOM    139  C   UNL A   1      39.521  28.776  28.523  1.00  0.00     0.198 A 
ATOM    140  C   UNL A   1      38.872  26.856  29.802  1.00  0.00     0.198 A 
ATOM    141  F   UNL A   1      38.542  27.038  32.122  1.00  0.00    -0.203 F 
ATOM    142  F   UNL A   1      39.859  29.326  27.347  1.00  0.00    -0.200 F 
ATOM    143  C   UNL A   1      39.203  27.429  28.585  1.00  0.00     0.200 A 
ATOM    144  F   UNL A   1      38.613  25.543  29.876  1.00  0.00    -0.200 F 
ATOM    145  F   UNL A   1      39.244  26.676  27.477  1.00  0.00    -0.200 F 
ENDBRANCH 111 135
ENDBRANCH  76  79
ENDBRANCH  66  69
ENDBRANCH  62  65
ENDBRANCH  59  62
ENDBRANCH  56  59
ENDBRANCH   1  56
TORSDOF 18
ENDMDL
MODEL 8
REMARK VINA RESULT:     -12.1      2.659      4.775
REMARK SMILES Cc1ccc2c(c1)c(-c1ccnc3c(C)cccc13)c(C)n2CC(=O)NCCCCCCNC(=O)c1ccc(-c2c3nc(c(-c4c(F)c(F)c(F)c(F)c4F)c4ccc([nH]4)c(-c4c(F)c(F)c(F)c(F)c4F)c4nc(c(-c5c(F)c(F)c(F)c(F)c5F)c5ccc2[nH]5)C=C4)C=C3)cc1
REMARK SMILES IDX 29 1 28 4 27 7 26 10 24 11 25 12 23 14 22 17 2 18 3 19 7 20
REMARK SMILES IDX 4 21 6 23 5 25 8 27 20 28 1 29 9 33 10 34 19 35 11 36 13 38
REMARK SMILES IDX 18 39 12 40 14 42 17 43 16 45 15 48 21 52 30 56 31 59 32 62
REMARK SMILES IDX 33 65 34 66 35 68 36 69 37 70 98 71 38 72 97 74 39 76 40 79
REMARK SMILES IDX 41 80 91 81 42 82 96 83 90 84 92 85 43 86 95 87 89 89 88 91
REMARK SMILES IDX 44 93 76 96 56 97 75 98 57 99 60 100 74 101 93 102 58 103
REMARK SMILES IDX 59 105 73 107 94 108 61 111 45 113 46 114 54 115 47 116
REMARK SMILES IDX 48 117 52 118 55 119 49 120 50 121 53 122 51 123 77 124
REMARK SMILES IDX 78 125 86 126 79 127 80 128 84 129 87 130 81 131 82 132
REMARK SMILES IDX 85 133 83 134 62 135 63 136 71 137 64 138 65 139 69 140
REMARK SMILES IDX 72 141 66 142 67 143 70 144 68 145
REMARK H PARENT 29 2 29 3 28 5 28 6 27 8 27 9 26 13 23 15 23 16 3 22 7 24 4 26
REMARK H PARENT 1 30 1 31 1 32 10 37 11 41 18 44 17 46 16 47 15 49 15 50 15 51
REMARK H PARENT 21 53 21 54 21 55 30 57 30 58 31 60 31 61 32 63 32 64 33 67
REMARK H PARENT 37 73 98 75 38 77 97 78 96 88 90 90 92 92 95 94 89 95 57 104
REMARK H PARENT 60 106 93 109 58 110 94 112
REMARK Flexibility Score: inf
ROOT
ATOM      1  C   UNL A   1      34.967  20.093  25.001  1.00  0.00    -0.052 C 
ATOM      2  H   UNL A   1      35.083  19.516  24.107  1.00  0.00     0.027 H 
ATOM      3  H   UNL A   1      35.582  19.748  25.806  1.00  0.00     0.027 H 
ENDROOT
BRANCH   1   4
ATOM      4  C   UNL A   1      33.515  19.955  25.475  1.00  0.00    -0.036 C 
ATOM      5  H   UNL A   1      33.187  18.959  25.265  1.00  0.00     0.028 H 
ATOM      6  H   UNL A   1      33.508  20.181  26.520  1.00  0.00     0.028 H 
BRANCH   4   7
ATOM      7  C   UNL A   1      32.546  20.929  24.808  1.00  0.00     0.017 C 
ATOM      8  H   UNL A   1      33.106  21.698  24.320  1.00  0.00     0.049 H 
ATOM      9  H   UNL A   1      31.954  20.385  24.102  1.00  0.00     0.049 H 
BRANCH   7  10
ATOM     10  N   UNL A   1      31.656  21.536  25.779  1.00  0.00    -0.355 N 
ATOM     11  C   UNL A   1      31.759  22.738  26.417  1.00  0.00     0.239 C 
ATOM     12  O   UNL A   1      30.892  23.018  27.251  1.00  0.00    -0.273 OA
ATOM     13  H   UNL A   1      30.862  21.002  26.012  1.00  0.00     0.163 HD
BRANCH  11  14
ATOM     14  C   UNL A   1      32.849  23.730  26.058  1.00  0.00     0.102 C 
ATOM     15  H   UNL A   1      33.228  24.156  26.962  1.00  0.00     0.060 H 
ATOM     16  H   UNL A   1      33.594  23.185  25.514  1.00  0.00     0.060 H 
BRANCH  14  17
ATOM     17  N   UNL A   1      32.406  24.816  25.189  1.00  0.00    -0.335 N 
ATOM     18  C   UNL A   1      32.528  25.295  21.058  1.00  0.00    -0.050 A 
ATOM     19  C   UNL A   1      32.829  24.023  21.545  1.00  0.00    -0.057 A 
ATOM     20  C   UNL A   1      32.145  26.305  21.954  1.00  0.00    -0.049 A 
ATOM     21  C   UNL A   1      32.773  23.736  22.911  1.00  0.00    -0.037 A 
ATOM     22  H   UNL A   1      33.099  23.279  20.883  1.00  0.00     0.063 H 
ATOM     23  C   UNL A   1      32.089  26.044  23.342  1.00  0.00     0.008 A 
ATOM     24  H   UNL A   1      31.904  27.244  21.598  1.00  0.00     0.063 H 
ATOM     25  C   UNL A   1      32.434  24.771  23.802  1.00  0.00     0.049 A 
ATOM     26  H   UNL A   1      32.976  22.786  23.260  1.00  0.00     0.065 H 
ATOM     27  C   UNL A   1      31.749  26.825  24.484  1.00  0.00     0.011 A 
ATOM     28  C   UNL A   1      31.901  26.031  25.612  1.00  0.00     0.024 A 
BRANCH  18  29
ATOM     29  C   UNL A   1      32.656  25.578  19.590  1.00  0.00    -0.040 C 
ATOM     30  H   UNL A   1      33.229  26.470  19.447  1.00  0.00     0.028 H 
ATOM     31  H   UNL A   1      31.682  25.707  19.166  1.00  0.00     0.028 H 
ATOM     32  H   UNL A   1      33.149  24.757  19.111  1.00  0.00     0.028 H 
ENDBRANCH  18  29
BRANCH  27  33
ATOM     33  C   UNL A   1      31.319  28.218  24.548  1.00  0.00    -0.005 A 
ATOM     34  C   UNL A   1      32.156  29.131  25.183  1.00  0.00    -0.035 A 
ATOM     35  C   UNL A   1      30.104  28.658  23.960  1.00  0.00     0.008 A 
ATOM     36  C   UNL A   1      31.772  30.452  25.195  1.00  0.00     0.028 A 
ATOM     37  H   UNL A   1      33.036  28.826  25.631  1.00  0.00     0.065 H 
ATOM     38  C   UNL A   1      29.809  30.038  24.014  1.00  0.00     0.074 A 
ATOM     39  C   UNL A   1      29.191  27.783  23.328  1.00  0.00    -0.052 A 
ATOM     40  N   UNL A   1      30.637  30.910  24.626  1.00  0.00    -0.256 NA
ATOM     41  H   UNL A   1      32.388  31.133  25.667  1.00  0.00     0.084 H 
ATOM     42  C   UNL A   1      28.626  30.492  23.406  1.00  0.00    -0.025 A 
ATOM     43  C   UNL A   1      28.014  28.242  22.751  1.00  0.00    -0.061 A 
ATOM     44  H   UNL A   1      29.405  26.775  23.294  1.00  0.00     0.063 H 
ATOM     45  C   UNL A   1      27.734  29.597  22.787  1.00  0.00    -0.057 A 
ATOM     46  H   UNL A   1      27.358  27.583  22.303  1.00  0.00     0.062 H 
ATOM     47  H   UNL A   1      26.866  29.952  22.357  1.00  0.00     0.063 H 
BRANCH  42  48
ATOM     48  C   UNL A   1      28.261  31.953  23.383  1.00  0.00    -0.038 C 
ATOM     49  H   UNL A   1      28.294  32.313  22.376  1.00  0.00     0.028 H 
ATOM     50  H   UNL A   1      28.957  32.504  23.981  1.00  0.00     0.028 H 
ATOM     51  H   UNL A   1      27.274  32.080  23.776  1.00  0.00     0.028 H 
ENDBRANCH  42  48
ENDBRANCH  27  33
BRANCH  28  52
ATOM     52  C   UNL A   1      31.648  26.377  27.045  1.00  0.00    -0.024 C 
ATOM     53  H   UNL A   1      32.555  26.273  27.603  1.00  0.00     0.030 H 
ATOM     54  H   UNL A   1      30.906  25.717  27.444  1.00  0.00     0.030 H 
ATOM     55  H   UNL A   1      31.301  27.387  27.112  1.00  0.00     0.030 H 
ENDBRANCH  28  52
ENDBRANCH  14  17
ENDBRANCH  11  14
ENDBRANCH   7  10
ENDBRANCH   4   7
ENDBRANCH   1   4
BRANCH   1  56
ATOM     56  C   UNL A   1      35.409  21.529  24.703  1.00  0.00    -0.052 C 
ATOM     57  H   UNL A   1      34.533  22.138  24.635  1.00  0.00     0.027 H 
ATOM     58  H   UNL A   1      35.971  21.485  23.794  1.00  0.00     0.027 H 
BRANCH  56  59
ATOM     59  C   UNL A   1      36.338  22.150  25.751  1.00  0.00    -0.036 C 
ATOM     60  H   UNL A   1      36.417  21.470  26.573  1.00  0.00     0.028 H 
ATOM     61  H   UNL A   1      35.903  23.088  26.025  1.00  0.00     0.028 H 
BRANCH  59  62
ATOM     62  C   UNL A   1      37.750  22.455  25.245  1.00  0.00     0.018 C 
ATOM     63  H   UNL A   1      37.927  23.505  25.357  1.00  0.00     0.049 H 
ATOM     64  H   UNL A   1      37.789  22.138  24.224  1.00  0.00     0.049 H 
BRANCH  62  65
ATOM     65  N   UNL A   1      38.795  21.739  25.948  1.00  0.00    -0.352 N 
ATOM     66  C   UNL A   1      39.755  22.086  26.865  1.00  0.00     0.251 C 
ATOM     67  H   UNL A   1      38.822  20.784  25.714  1.00  0.00     0.163 HD
ATOM     68  O   UNL A   1      40.403  21.170  27.352  1.00  0.00    -0.269 OA
BRANCH  66  69
ATOM     69  C   UNL A   1      40.101  23.487  27.242  1.00  0.00     0.039 A 
ATOM     70  C   UNL A   1      41.254  23.886  27.912  1.00  0.00    -0.049 A 
ATOM     71  C   UNL A   1      39.136  24.467  26.934  1.00  0.00    -0.049 A 
ATOM     72  C   UNL A   1      41.384  25.189  28.376  1.00  0.00    -0.053 A 
ATOM     73  H   UNL A   1      42.017  23.209  28.066  1.00  0.00     0.063 H 
ATOM     74  C   UNL A   1      39.278  25.786  27.362  1.00  0.00    -0.053 A 
ATOM     75  H   UNL A   1      38.307  24.202  26.379  1.00  0.00     0.063 H 
ATOM     76  C   UNL A   1      40.383  26.134  28.127  1.00  0.00    -0.014 A 
ATOM     77  H   UNL A   1      42.225  25.462  28.907  1.00  0.00     0.063 H 
ATOM     78  H   UNL A   1      38.571  26.495  27.112  1.00  0.00     0.063 H 
BRANCH  76  79
ATOM     79  C   UNL A   1      40.625  27.493  28.604  1.00  0.00     0.031 A 
ATOM     80  C   UNL A   1      41.876  28.114  28.082  1.00  0.00     0.074 A 
ATOM     81  C   UNL A   1      39.796  28.183  29.411  1.00  0.00     0.049 A 
ATOM     82  N   UNL A   1      42.917  28.490  28.752  1.00  0.00    -0.248 NA
ATOM     83  C   UNL A   1      42.030  28.220  26.623  1.00  0.00    -0.034 C 
ATOM     84  C   UNL A   1      38.428  27.847  29.809  1.00  0.00    -0.036 A 
ATOM     85  N   UNL A   1      39.999  29.398  29.998  1.00  0.00    -0.354 N 
ATOM     86  C   UNL A   1      43.806  29.019  27.818  1.00  0.00     0.074 A 
ATOM     87  C   UNL A   1      43.260  28.722  26.521  1.00  0.00    -0.034 C 
ATOM     88  H   UNL A   1      41.363  27.970  25.877  1.00  0.00     0.065 H 
ATOM     89  C   UNL A   1      37.857  28.923  30.396  1.00  0.00    -0.036 A 
ATOM     90  H   UNL A   1      37.972  26.933  29.665  1.00  0.00     0.065 H 
ATOM     91  C   UNL A   1      38.858  29.967  30.544  1.00  0.00     0.049 A 
ATOM     92  H   UNL A   1      40.881  29.835  30.031  1.00  0.00     0.167 HD
ATOM     93  C   UNL A   1      44.836  29.827  28.197  1.00  0.00     0.037 A 
ATOM     94  H   UNL A   1      43.756  28.878  25.628  1.00  0.00     0.065 H 
ATOM     95  H   UNL A   1      36.870  28.992  30.690  1.00  0.00     0.065 H 
ATOM     96  C   UNL A   1      38.739  31.223  31.040  1.00  0.00     0.037 A 
ATOM     97  C   UNL A   1      45.137  29.666  29.594  1.00  0.00     0.049 A 
ATOM     98  C   UNL A   1      40.098  31.695  31.389  1.00  0.00     0.074 A 
ATOM     99  C   UNL A   1      45.628  28.645  30.381  1.00  0.00    -0.036 A 
ATOM    100  N   UNL A   1      44.627  30.600  30.458  1.00  0.00    -0.354 N 
ATOM    101  N   UNL A   1      40.809  31.225  32.374  1.00  0.00    -0.248 NA
ATOM    102  C   UNL A   1      40.833  32.477  30.406  1.00  0.00    -0.034 C 
ATOM    103  C   UNL A   1      45.000  28.814  31.650  1.00  0.00    -0.036 A 
ATOM    104  H   UNL A   1      46.305  27.915  30.110  1.00  0.00     0.065 H 
ATOM    105  C   UNL A   1      44.190  29.948  31.579  1.00  0.00     0.049 A 
ATOM    106  H   UNL A   1      44.583  31.570  30.299  1.00  0.00     0.167 HD
ATOM    107  C   UNL A   1      42.114  31.277  31.916  1.00  0.00     0.074 A 
ATOM    108  C   UNL A   1      42.080  32.179  30.772  1.00  0.00    -0.034 C 
ATOM    109  H   UNL A   1      40.487  33.085  29.647  1.00  0.00     0.065 H 
ATOM    110  H   UNL A   1      45.124  28.207  32.475  1.00  0.00     0.065 H 
ATOM    111  C   UNL A   1      43.035  30.364  32.340  1.00  0.00     0.037 A 
ATOM    112  H   UNL A   1      42.922  32.544  30.301  1.00  0.00     0.065 H 
BRANCH  93 113
ATOM    113  C   UNL A   1      45.319  31.023  27.408  1.00  0.00     0.064 A 
ATOM    114  C   UNL A   1      46.686  31.114  27.063  1.00  0.00     0.173 A 
ATOM    115  C   UNL A   1      44.579  32.215  27.257  1.00  0.00     0.173 A 
ATOM    116  F   UNL A   1      47.494  30.050  27.179  1.00  0.00    -0.203 F 
ATOM    117  C   UNL A   1      47.277  32.323  26.688  1.00  0.00     0.198 A 
ATOM    118  C   UNL A   1      45.162  33.408  26.833  1.00  0.00     0.198 A 
ATOM    119  F   UNL A   1      43.294  32.308  27.618  1.00  0.00    -0.203 F 
ATOM    120  F   UNL A   1      48.602  32.387  26.501  1.00  0.00    -0.200 F 
ATOM    121  C   UNL A   1      46.516  33.472  26.581  1.00  0.00     0.200 A 
ATOM    122  F   UNL A   1      44.411  34.516  26.753  1.00  0.00    -0.200 F 
ATOM    123  F   UNL A   1      47.089  34.646  26.287  1.00  0.00    -0.200 F 
ENDBRANCH  93 113
BRANCH  96 124
ATOM    124  C   UNL A   1      37.586  32.153  30.976  1.00  0.00     0.064 A 
ATOM    125  C   UNL A   1      37.261  32.815  29.777  1.00  0.00     0.173 A 
ATOM    126  C   UNL A   1      36.604  32.171  31.983  1.00  0.00     0.173 A 
ATOM    127  F   UNL A   1      38.125  32.817  28.751  1.00  0.00    -0.203 F 
ATOM    128  C   UNL A   1      36.010  33.409  29.582  1.00  0.00     0.198 A 
ATOM    129  C   UNL A   1      35.360  32.773  31.790  1.00  0.00     0.198 A 
ATOM    130  F   UNL A   1      36.792  31.515  33.138  1.00  0.00    -0.203 F 
ATOM    131  F   UNL A   1      35.709  33.956  28.396  1.00  0.00    -0.200 F 
ATOM    132  C   UNL A   1      35.055  33.373  30.583  1.00  0.00     0.200 A 
ATOM    133  F   UNL A   1      34.432  32.701  32.755  1.00  0.00    -0.200 F 
ATOM    134  F   UNL A   1      33.831  33.875  30.370  1.00  0.00    -0.200 F 
ENDBRANCH  96 124
BRANCH 111 135
ATOM    135  C   UNL A   1      42.705  29.556  33.562  1.00  0.00     0.064 A 
ATOM    136  C   UNL A   1      42.006  28.336  33.539  1.00  0.00     0.173 A 
ATOM    137  C   UNL A   1      43.245  29.969  34.788  1.00  0.00     0.173 A 
ATOM    138  F   UNL A   1      41.540  27.828  32.390  1.00  0.00    -0.203 F 
ATOM    139  C   UNL A   1      41.829  27.587  34.701  1.00  0.00     0.198 A 
ATOM    140  C   UNL A   1      43.101  29.199  35.936  1.00  0.00     0.198 A 
ATOM    141  F   UNL A   1      43.965  31.100  34.858  1.00  0.00    -0.203 F 
ATOM    142  F   UNL A   1      41.153  26.429  34.658  1.00  0.00    -0.200 F 
ATOM    143  C   UNL A   1      42.387  28.013  35.895  1.00  0.00     0.200 A 
ATOM    144  F   UNL A   1      43.685  29.590  37.078  1.00  0.00    -0.200 F 
ATOM    145  F   UNL A   1      42.261  27.265  37.001  1.00  0.00    -0.200 F 
ENDBRANCH 111 135
ENDBRANCH  76  79
ENDBRANCH  66  69
ENDBRANCH  62  65
ENDBRANCH  59  62
ENDBRANCH  56  59
ENDBRANCH   1  56
TORSDOF 18
ENDMDL
MODEL 9
REMARK VINA RESULT:     -12.0      5.493     12.059
REMARK SMILES Cc1ccc2c(c1)c(-c1ccnc3c(C)cccc13)c(C)n2CC(=O)NCCCCCCNC(=O)c1ccc(-c2c3nc(c(-c4c(F)c(F)c(F)c(F)c4F)c4ccc([nH]4)c(-c4c(F)c(F)c(F)c(F)c4F)c4nc(c(-c5c(F)c(F)c(F)c(F)c5F)c5ccc2[nH]5)C=C4)C=C3)cc1
REMARK SMILES IDX 29 1 28 4 27 7 26 10 24 11 25 12 23 14 22 17 2 18 3 19 7 20
REMARK SMILES IDX 4 21 6 23 5 25 8 27 20 28 1 29 9 33 10 34 19 35 11 36 13 38
REMARK SMILES IDX 18 39 12 40 14 42 17 43 16 45 15 48 21 52 30 56 31 59 32 62
REMARK SMILES IDX 33 65 34 66 35 68 36 69 37 70 98 71 38 72 97 74 39 76 40 79
REMARK SMILES IDX 41 80 91 81 42 82 96 83 90 84 92 85 43 86 95 87 89 89 88 91
REMARK SMILES IDX 44 93 76 96 56 97 75 98 57 99 60 100 74 101 93 102 58 103
REMARK SMILES IDX 59 105 73 107 94 108 61 111 45 113 46 114 54 115 47 116
REMARK SMILES IDX 48 117 52 118 55 119 49 120 50 121 53 122 51 123 77 124
REMARK SMILES IDX 78 125 86 126 79 127 80 128 84 129 87 130 81 131 82 132
REMARK SMILES IDX 85 133 83 134 62 135 63 136 71 137 64 138 65 139 69 140
REMARK SMILES IDX 72 141 66 142 67 143 70 144 68 145
REMARK H PARENT 29 2 29 3 28 5 28 6 27 8 27 9 26 13 23 15 23 16 3 22 7 24 4 26
REMARK H PARENT 1 30 1 31 1 32 10 37 11 41 18 44 17 46 16 47 15 49 15 50 15 51
REMARK H PARENT 21 53 21 54 21 55 30 57 30 58 31 60 31 61 32 63 32 64 33 67
REMARK H PARENT 37 73 98 75 38 77 97 78 96 88 90 90 92 92 95 94 89 95 57 104
REMARK H PARENT 60 106 93 109 58 110 94 112
REMARK Flexibility Score: inf
ROOT
ATOM      1  C   UNL A   1      37.037  31.141  33.319  1.00  0.00    -0.052 C 
ATOM      2  H   UNL A   1      36.987  31.864  34.107  1.00  0.00     0.027 H 
ATOM      3  H   UNL A   1      36.326  30.350  33.429  1.00  0.00     0.027 H 
ENDROOT
BRANCH   1   4
ATOM      4  C   UNL A   1      38.424  30.486  33.358  1.00  0.00    -0.036 C 
ATOM      5  H   UNL A   1      38.317  29.460  33.074  1.00  0.00     0.028 H 
ATOM      6  H   UNL A   1      39.045  31.039  32.686  1.00  0.00     0.028 H 
BRANCH   4   7
ATOM      7  C   UNL A   1      39.099  30.537  34.726  1.00  0.00     0.017 C 
ATOM      8  H   UNL A   1      39.886  29.813  34.754  1.00  0.00     0.049 H 
ATOM      9  H   UNL A   1      39.488  31.524  34.874  1.00  0.00     0.049 H 
BRANCH   7  10
ATOM     10  N   UNL A   1      38.157  30.253  35.791  1.00  0.00    -0.355 N 
ATOM     11  C   UNL A   1      38.005  30.866  37.002  1.00  0.00     0.239 C 
ATOM     12  O   UNL A   1      37.157  30.407  37.772  1.00  0.00    -0.273 OA
ATOM     13  H   UNL A   1      37.537  29.509  35.616  1.00  0.00     0.163 HD
BRANCH  11  14
ATOM     14  C   UNL A   1      38.791  32.115  37.355  1.00  0.00     0.102 C 
ATOM     15  H   UNL A   1      38.275  32.627  38.140  1.00  0.00     0.060 H 
ATOM     16  H   UNL A   1      39.770  31.792  37.647  1.00  0.00     0.060 H 
BRANCH  14  17
ATOM     17  N   UNL A   1      38.971  33.043  36.242  1.00  0.00    -0.335 N 
ATOM     18  C   UNL A   1      36.240  34.926  33.731  1.00  0.00    -0.050 A 
ATOM     19  C   UNL A   1      35.712  34.279  34.849  1.00  0.00    -0.057 A 
ATOM     20  C   UNL A   1      37.631  34.966  33.549  1.00  0.00    -0.049 A 
ATOM     21  C   UNL A   1      36.540  33.654  35.784  1.00  0.00    -0.037 A 
ATOM     22  H   UNL A   1      34.690  34.261  34.987  1.00  0.00     0.063 H 
ATOM     23  C   UNL A   1      38.490  34.334  34.476  1.00  0.00     0.008 A 
ATOM     24  H   UNL A   1      38.028  35.459  32.733  1.00  0.00     0.063 H 
ATOM     25  C   UNL A   1      37.930  33.662  35.563  1.00  0.00     0.049 A 
ATOM     26  H   UNL A   1      36.141  33.197  36.620  1.00  0.00     0.065 H 
ATOM     27  C   UNL A   1      39.904  34.194  34.579  1.00  0.00     0.011 A 
ATOM     28  C   UNL A   1      40.183  33.435  35.707  1.00  0.00     0.024 A 
BRANCH  18  29
ATOM     29  C   UNL A   1      35.314  35.535  32.719  1.00  0.00    -0.040 C 
ATOM     30  H   UNL A   1      34.355  35.696  33.165  1.00  0.00     0.028 H 
ATOM     31  H   UNL A   1      35.213  34.872  31.885  1.00  0.00     0.028 H 
ATOM     32  H   UNL A   1      35.715  36.470  32.387  1.00  0.00     0.028 H 
ENDBRANCH  18  29
BRANCH  27  33
ATOM     33  C   UNL A   1      40.945  34.711  33.696  1.00  0.00    -0.005 A 
ATOM     34  C   UNL A   1      41.705  35.787  34.144  1.00  0.00    -0.035 A 
ATOM     35  C   UNL A   1      41.212  34.131  32.429  1.00  0.00     0.008 A 
ATOM     36  C   UNL A   1      42.719  36.238  33.331  1.00  0.00     0.028 A 
ATOM     37  H   UNL A   1      41.514  36.233  35.056  1.00  0.00     0.065 H 
ATOM     38  C   UNL A   1      42.285  34.658  31.676  1.00  0.00     0.074 A 
ATOM     39  C   UNL A   1      40.461  33.058  31.896  1.00  0.00    -0.052 A 
ATOM     40  N   UNL A   1      43.018  35.697  32.131  1.00  0.00    -0.256 NA
ATOM     41  H   UNL A   1      43.285  37.038  33.657  1.00  0.00     0.084 H 
ATOM     42  C   UNL A   1      42.583  34.071  30.435  1.00  0.00    -0.025 A 
ATOM     43  C   UNL A   1      40.751  32.503  30.656  1.00  0.00    -0.061 A 
ATOM     44  H   UNL A   1      39.674  32.678  32.443  1.00  0.00     0.063 H 
ATOM     45  C   UNL A   1      41.814  33.007  29.929  1.00  0.00    -0.057 A 
ATOM     46  H   UNL A   1      40.182  31.726  30.284  1.00  0.00     0.062 H 
ATOM     47  H   UNL A   1      42.045  32.599  29.009  1.00  0.00     0.063 H 
BRANCH  42  48
ATOM     48  C   UNL A   1      43.737  34.548  29.593  1.00  0.00    -0.038 C 
ATOM     49  H   UNL A   1      43.600  34.222  28.583  1.00  0.00     0.028 H 
ATOM     50  H   UNL A   1      44.651  34.144  29.978  1.00  0.00     0.028 H 
ATOM     51  H   UNL A   1      43.780  35.617  29.620  1.00  0.00     0.028 H 
ENDBRANCH  42  48
ENDBRANCH  27  33
BRANCH  28  52
ATOM     52  C   UNL A   1      41.511  33.030  36.262  1.00  0.00    -0.024 C 
ATOM     53  H   UNL A   1      41.405  32.116  36.808  1.00  0.00     0.030 H 
ATOM     54  H   UNL A   1      41.873  33.796  36.915  1.00  0.00     0.030 H 
ATOM     55  H   UNL A   1      42.204  32.888  35.459  1.00  0.00     0.030 H 
ENDBRANCH  28  52
ENDBRANCH  14  17
ENDBRANCH  11  14
ENDBRANCH   7  10
ENDBRANCH   4   7
ENDBRANCH   1   4
BRANCH   1  56
ATOM     56  C   UNL A   1      36.701  31.846  32.002  1.00  0.00    -0.052 C 
ATOM     57  H   UNL A   1      37.191  31.321  31.210  1.00  0.00     0.027 H 
ATOM     58  H   UNL A   1      37.031  32.858  32.112  1.00  0.00     0.027 H 
BRANCH  56  59
ATOM     59  C   UNL A   1      35.207  31.919  31.671  1.00  0.00    -0.036 C 
ATOM     60  H   UNL A   1      34.674  32.133  32.573  1.00  0.00     0.028 H 
ATOM     61  H   UNL A   1      34.943  30.973  31.245  1.00  0.00     0.028 H 
BRANCH  59  62
ATOM     62  C   UNL A   1      34.838  32.981  30.633  1.00  0.00     0.018 C 
ATOM     63  H   UNL A   1      35.658  33.663  30.543  1.00  0.00     0.049 H 
ATOM     64  H   UNL A   1      33.944  33.456  30.978  1.00  0.00     0.049 H 
BRANCH  62  65
ATOM     65  N   UNL A   1      34.547  32.445  29.319  1.00  0.00    -0.352 N 
ATOM     66  C   UNL A   1      35.122  31.493  28.514  1.00  0.00     0.251 C 
ATOM     67  H   UNL A   1      33.753  32.858  28.909  1.00  0.00     0.163 HD
ATOM     68  O   UNL A   1      34.516  31.201  27.493  1.00  0.00    -0.269 OA
BRANCH  66  69
ATOM     69  C   UNL A   1      36.450  30.861  28.765  1.00  0.00     0.039 A 
ATOM     70  C   UNL A   1      37.684  31.496  28.657  1.00  0.00    -0.049 A 
ATOM     71  C   UNL A   1      36.432  29.488  29.082  1.00  0.00    -0.049 A 
ATOM     72  C   UNL A   1      38.862  30.762  28.732  1.00  0.00    -0.053 A 
ATOM     73  H   UNL A   1      37.725  32.517  28.520  1.00  0.00     0.063 H 
ATOM     74  C   UNL A   1      37.611  28.753  29.198  1.00  0.00    -0.053 A 
ATOM     75  H   UNL A   1      35.526  29.017  29.232  1.00  0.00     0.063 H 
ATOM     76  C   UNL A   1      38.826  29.386  28.973  1.00  0.00    -0.014 A 
ATOM     77  H   UNL A   1      39.770  31.238  28.609  1.00  0.00     0.063 H 
ATOM     78  H   UNL A   1      37.580  27.752  29.448  1.00  0.00     0.063 H 
BRANCH  76  79
ATOM     79  C   UNL A   1      40.112  28.702  29.089  1.00  0.00     0.031 A 
ATOM     80  C   UNL A   1      40.590  28.528  30.491  1.00  0.00     0.074 A 
ATOM     81  C   UNL A   1      40.820  28.215  28.052  1.00  0.00     0.049 A 
ATOM     82  N   UNL A   1      41.650  29.030  31.038  1.00  0.00    -0.248 NA
ATOM     83  C   UNL A   1      39.719  27.800  31.425  1.00  0.00    -0.034 C 
ATOM     84  C   UNL A   1      40.401  28.064  26.658  1.00  0.00    -0.036 A 
ATOM     85  N   UNL A   1      42.075  27.678  28.058  1.00  0.00    -0.354 N 
ATOM     86  C   UNL A   1      41.664  28.564  32.351  1.00  0.00     0.074 A 
ATOM     87  C   UNL A   1      40.400  27.911  32.566  1.00  0.00    -0.034 C 
ATOM     88  H   UNL A   1      38.819  27.328  31.245  1.00  0.00     0.065 H 
ATOM     89  C   UNL A   1      41.297  27.291  26.003  1.00  0.00    -0.036 A 
ATOM     90  H   UNL A   1      39.554  28.481  26.240  1.00  0.00     0.065 H 
ATOM     91  C   UNL A   1      42.419  27.016  26.887  1.00  0.00     0.049 A 
ATOM     92  H   UNL A   1      42.685  27.752  28.828  1.00  0.00     0.167 HD
ATOM     93  C   UNL A   1      42.799  28.594  33.103  1.00  0.00     0.037 A 
ATOM     94  H   UNL A   1      40.064  27.573  33.482  1.00  0.00     0.065 H 
ATOM     95  H   UNL A   1      41.201  26.950  25.034  1.00  0.00     0.065 H 
ATOM     96  C   UNL A   1      43.526  26.262  26.682  1.00  0.00     0.037 A 
ATOM     97  C   UNL A   1      43.750  29.533  32.573  1.00  0.00     0.049 A 
ATOM     98  C   UNL A   1      44.538  26.675  27.680  1.00  0.00     0.074 A 
ATOM     99  C   UNL A   1      43.798  30.903  32.420  1.00  0.00    -0.036 A 
ATOM    100  N   UNL A   1      44.765  29.030  31.801  1.00  0.00    -0.354 N 
ATOM    101  N   UNL A   1      45.152  27.824  27.673  1.00  0.00    -0.248 NA
ATOM    102  C   UNL A   1      44.628  25.926  28.924  1.00  0.00    -0.034 C 
ATOM    103  C   UNL A   1      44.553  31.123  31.232  1.00  0.00    -0.036 A 
ATOM    104  H   UNL A   1      43.375  31.616  33.035  1.00  0.00     0.065 H 
ATOM    105  C   UNL A   1      44.956  29.879  30.744  1.00  0.00     0.049 A 
ATOM    106  H   UNL A   1      45.267  28.202  31.975  1.00  0.00     0.167 HD
ATOM    107  C   UNL A   1      45.325  28.133  29.011  1.00  0.00     0.074 A 
ATOM    108  C   UNL A   1      45.117  26.877  29.721  1.00  0.00    -0.034 C 
ATOM    109  H   UNL A   1      44.385  24.944  29.128  1.00  0.00     0.065 H 
ATOM    110  H   UNL A   1      44.765  32.039  30.808  1.00  0.00     0.065 H 
ATOM    111  C   UNL A   1      45.343  29.432  29.426  1.00  0.00     0.037 A 
ATOM    112  H   UNL A   1      45.323  26.741  30.723  1.00  0.00     0.065 H 
BRANCH  93 113
ATOM    113  C   UNL A   1      43.202  27.518  34.087  1.00  0.00     0.064 A 
ATOM    114  C   UNL A   1      43.595  26.252  33.601  1.00  0.00     0.173 A 
ATOM    115  C   UNL A   1      42.917  27.571  35.468  1.00  0.00     0.173 A 
ATOM    116  F   UNL A   1      43.877  26.075  32.302  1.00  0.00    -0.203 F 
ATOM    117  C   UNL A   1      43.610  25.117  34.416  1.00  0.00     0.198 A 
ATOM    118  C   UNL A   1      42.983  26.446  36.289  1.00  0.00     0.198 A 
ATOM    119  F   UNL A   1      42.456  28.680  36.060  1.00  0.00    -0.203 F 
ATOM    120  F   UNL A   1      43.859  23.915  33.878  1.00  0.00    -0.200 F 
ATOM    121  C   UNL A   1      43.295  25.213  35.758  1.00  0.00     0.200 A 
ATOM    122  F   UNL A   1      42.657  26.557  37.585  1.00  0.00    -0.200 F 
ATOM    123  F   UNL A   1      43.243  24.118  36.527  1.00  0.00    -0.200 F 
ENDBRANCH  93 113
BRANCH  96 124
ATOM    124  C   UNL A   1      43.684  25.025  25.880  1.00  0.00     0.064 A 
ATOM    125  C   UNL A   1      44.821  24.830  25.074  1.00  0.00     0.173 A 
ATOM    126  C   UNL A   1      42.893  23.888  26.127  1.00  0.00     0.173 A 
ATOM    127  F   UNL A   1      45.650  25.853  24.818  1.00  0.00    -0.203 F 
ATOM    128  C   UNL A   1      45.172  23.565  24.592  1.00  0.00     0.198 A 
ATOM    129  C   UNL A   1      43.240  22.628  25.637  1.00  0.00     0.198 A 
ATOM    130  F   UNL A   1      41.825  23.955  26.935  1.00  0.00    -0.203 F 
ATOM    131  F   UNL A   1      46.308  23.407  23.898  1.00  0.00    -0.200 F 
ATOM    132  C   UNL A   1      44.390  22.463  24.887  1.00  0.00     0.200 A 
ATOM    133  F   UNL A   1      42.492  21.562  25.958  1.00  0.00    -0.200 F 
ATOM    134  F   UNL A   1      44.764  21.240  24.490  1.00  0.00    -0.200 F 
ENDBRANCH  96 124
BRANCH 111 135
ATOM    135  C   UNL A   1      45.539  30.496  28.384  1.00  0.00     0.064 A 
ATOM    136  C   UNL A   1      44.496  31.079  27.644  1.00  0.00     0.173 A 
ATOM    137  C   UNL A   1      46.822  31.040  28.235  1.00  0.00     0.173 A 
ATOM    138  F   UNL A   1      43.228  30.677  27.800  1.00  0.00    -0.203 F 
ATOM    139  C   UNL A   1      44.740  32.137  26.769  1.00  0.00     0.198 A 
ATOM    140  C   UNL A   1      47.054  32.122  27.392  1.00  0.00     0.198 A 
ATOM    141  F   UNL A   1      47.846  30.555  28.955  1.00  0.00    -0.203 F 
ATOM    142  F   UNL A   1      43.732  32.676  26.067  1.00  0.00    -0.200 F 
ATOM    143  C   UNL A   1      46.016  32.665  26.654  1.00  0.00     0.200 A 
ATOM    144  F   UNL A   1      48.279  32.660  27.322  1.00  0.00    -0.200 F 
ATOM    145  F   UNL A   1      46.240  33.716  25.852  1.00  0.00    -0.200 F 
ENDBRANCH 111 135
ENDBRANCH  76  79
ENDBRANCH  66  69
ENDBRANCH  62  65
ENDBRANCH  59  62
ENDBRANCH  56  59
ENDBRANCH   1  56
TORSDOF 18
ENDMDL
MODEL 10
REMARK VINA RESULT:     -12.0      1.145      1.968
REMARK SMILES Cc1ccc2c(c1)c(-c1ccnc3c(C)cccc13)c(C)n2CC(=O)NCCCCCCNC(=O)c1ccc(-c2c3nc(c(-c4c(F)c(F)c(F)c(F)c4F)c4ccc([nH]4)c(-c4c(F)c(F)c(F)c(F)c4F)c4nc(c(-c5c(F)c(F)c(F)c(F)c5F)c5ccc2[nH]5)C=C4)C=C3)cc1
REMARK SMILES IDX 29 1 28 4 27 7 26 10 24 11 25 12 23 14 22 17 2 18 3 19 7 20
REMARK SMILES IDX 4 21 6 23 5 25 8 27 20 28 1 29 9 33 10 34 19 35 11 36 13 38
REMARK SMILES IDX 18 39 12 40 14 42 17 43 16 45 15 48 21 52 30 56 31 59 32 62
REMARK SMILES IDX 33 65 34 66 35 68 36 69 37 70 98 71 38 72 97 74 39 76 40 79
REMARK SMILES IDX 41 80 91 81 42 82 96 83 90 84 92 85 43 86 95 87 89 89 88 91
REMARK SMILES IDX 44 93 76 96 56 97 75 98 57 99 60 100 74 101 93 102 58 103
REMARK SMILES IDX 59 105 73 107 94 108 61 111 45 113 46 114 54 115 47 116
REMARK SMILES IDX 48 117 52 118 55 119 49 120 50 121 53 122 51 123 77 124
REMARK SMILES IDX 78 125 86 126 79 127 80 128 84 129 87 130 81 131 82 132
REMARK SMILES IDX 85 133 83 134 62 135 63 136 71 137 64 138 65 139 69 140
REMARK SMILES IDX 72 141 66 142 67 143 70 144 68 145
REMARK H PARENT 29 2 29 3 28 5 28 6 27 8 27 9 26 13 23 15 23 16 3 22 7 24 4 26
REMARK H PARENT 1 30 1 31 1 32 10 37 11 41 18 44 17 46 16 47 15 49 15 50 15 51
REMARK H PARENT 21 53 21 54 21 55 30 57 30 58 31 60 31 61 32 63 32 64 33 67
REMARK H PARENT 37 73 98 75 38 77 97 78 96 88 90 90 92 92 95 94 89 95 57 104
REMARK H PARENT 60 106 93 109 58 110 94 112
REMARK Flexibility Score: inf
ROOT
ATOM      1  C   UNL A   1      40.410  21.584  27.454  1.00  0.00    -0.052 C 
ATOM      2  H   UNL A   1      40.252  21.061  26.534  1.00  0.00     0.027 H 
ATOM      3  H   UNL A   1      39.764  21.255  28.241  1.00  0.00     0.027 H 
ENDROOT
BRANCH   1   4
ATOM      4  C   UNL A   1      40.091  23.067  27.224  1.00  0.00    -0.036 C 
ATOM      5  H   UNL A   1      39.883  23.516  28.172  1.00  0.00     0.028 H 
ATOM      6  H   UNL A   1      40.945  23.494  26.742  1.00  0.00     0.028 H 
BRANCH   4   7
ATOM      7  C   UNL A   1      38.897  23.312  26.305  1.00  0.00     0.017 C 
ATOM      8  H   UNL A   1      38.016  23.424  26.900  1.00  0.00     0.049 H 
ATOM      9  H   UNL A   1      39.085  24.200  25.736  1.00  0.00     0.049 H 
BRANCH   7  10
ATOM     10  N   UNL A   1      38.707  22.210  25.381  1.00  0.00    -0.355 N 
ATOM     11  C   UNL A   1      37.664  21.336  25.276  1.00  0.00     0.239 C 
ATOM     12  O   UNL A   1      37.754  20.438  24.433  1.00  0.00    -0.273 OA
ATOM     13  H   UNL A   1      39.437  22.073  24.735  1.00  0.00     0.163 HD
BRANCH  11  14
ATOM     14  C   UNL A   1      36.406  21.509  26.107  1.00  0.00     0.102 C 
ATOM     15  H   UNL A   1      36.252  20.615  26.674  1.00  0.00     0.060 H 
ATOM     16  H   UNL A   1      36.560  22.369  26.725  1.00  0.00     0.060 H 
BRANCH  14  17
ATOM     17  N   UNL A   1      35.203  21.766  25.321  1.00  0.00    -0.335 N 
ATOM     18  C   UNL A   1      32.654  19.225  23.235  1.00  0.00    -0.050 A 
ATOM     19  C   UNL A   1      33.585  18.616  24.076  1.00  0.00    -0.057 A 
ATOM     20  C   UNL A   1      32.579  20.626  23.184  1.00  0.00    -0.049 A 
ATOM     21  C   UNL A   1      34.459  19.374  24.860  1.00  0.00    -0.037 A 
ATOM     22  H   UNL A   1      33.630  17.586  24.120  1.00  0.00     0.063 H 
ATOM     23  C   UNL A   1      33.458  21.415  23.960  1.00  0.00     0.008 A 
ATOM     24  H   UNL A   1      31.880  21.081  22.577  1.00  0.00     0.063 H 
ATOM     25  C   UNL A   1      34.405  20.776  24.763  1.00  0.00     0.049 A 
ATOM     26  H   UNL A   1      35.130  18.914  25.496  1.00  0.00     0.065 H 
ATOM     27  C   UNL A   1      33.638  22.817  24.133  1.00  0.00     0.011 A 
ATOM     28  C   UNL A   1      34.688  23.013  25.019  1.00  0.00     0.024 A 
BRANCH  18  29
ATOM     29  C   UNL A   1      31.772  18.376  22.365  1.00  0.00    -0.040 C 
ATOM     30  H   UNL A   1      31.134  19.005  21.782  1.00  0.00     0.028 H 
ATOM     31  H   UNL A   1      31.176  17.736  22.981  1.00  0.00     0.028 H 
ATOM     32  H   UNL A   1      32.380  17.782  21.715  1.00  0.00     0.028 H 
ENDBRANCH  18  29
BRANCH  27  33
ATOM     33  C   UNL A   1      32.903  23.919  23.521  1.00  0.00    -0.005 A 
ATOM     34  C   UNL A   1      33.261  24.305  22.232  1.00  0.00    -0.035 A 
ATOM     35  C   UNL A   1      31.833  24.571  24.186  1.00  0.00     0.008 A 
ATOM     36  C   UNL A   1      32.532  25.310  21.638  1.00  0.00     0.028 A 
ATOM     37  H   UNL A   1      34.049  23.854  21.739  1.00  0.00     0.065 H 
ATOM     38  C   UNL A   1      31.137  25.580  23.483  1.00  0.00     0.074 A 
ATOM     39  C   UNL A   1      31.435  24.254  25.505  1.00  0.00    -0.052 A 
ATOM     40  N   UNL A   1      31.493  25.935  22.230  1.00  0.00    -0.256 NA
ATOM     41  H   UNL A   1      32.795  25.601  20.684  1.00  0.00     0.084 H 
ATOM     42  C   UNL A   1      30.053  26.210  24.117  1.00  0.00    -0.025 A 
ATOM     43  C   UNL A   1      30.376  24.901  26.129  1.00  0.00    -0.061 A 
ATOM     44  H   UNL A   1      31.946  23.521  26.020  1.00  0.00     0.063 H 
ATOM     45  C   UNL A   1      29.684  25.876  25.433  1.00  0.00    -0.057 A 
ATOM     46  H   UNL A   1      30.111  24.658  27.096  1.00  0.00     0.062 H 
ATOM     47  H   UNL A   1      28.891  26.360  25.882  1.00  0.00     0.063 H 
BRANCH  42  48
ATOM     48  C   UNL A   1      29.236  27.265  23.419  1.00  0.00    -0.038 C 
ATOM     49  H   UNL A   1      28.564  27.717  24.120  1.00  0.00     0.028 H 
ATOM     50  H   UNL A   1      28.674  26.815  22.627  1.00  0.00     0.028 H 
ATOM     51  H   UNL A   1      29.887  28.012  23.016  1.00  0.00     0.028 H 
ENDBRANCH  42  48
ENDBRANCH  27  33
BRANCH  28  52
ATOM     52  C   UNL A   1      35.250  24.297  25.542  1.00  0.00    -0.024 C 
ATOM     53  H   UNL A   1      36.186  24.107  26.024  1.00  0.00     0.030 H 
ATOM     54  H   UNL A   1      34.566  24.724  26.246  1.00  0.00     0.030 H 
ATOM     55  H   UNL A   1      35.398  24.977  24.729  1.00  0.00     0.030 H 
ENDBRANCH  28  52
ENDBRANCH  14  17
ENDBRANCH  11  14
ENDBRANCH   7  10
ENDBRANCH   4   7
ENDBRANCH   1   4
BRANCH   1  56
ATOM     56  C   UNL A   1      41.840  21.303  27.923  1.00  0.00    -0.052 C 
ATOM     57  H   UNL A   1      41.819  21.154  28.982  1.00  0.00     0.027 H 
ATOM     58  H   UNL A   1      42.424  22.148  27.624  1.00  0.00     0.027 H 
BRANCH  56  59
ATOM     59  C   UNL A   1      42.502  20.078  27.284  1.00  0.00    -0.036 C 
ATOM     60  H   UNL A   1      42.055  19.201  27.702  1.00  0.00     0.028 H 
ATOM     61  H   UNL A   1      43.549  20.154  27.494  1.00  0.00     0.028 H 
BRANCH  59  62
ATOM     62  C   UNL A   1      42.367  20.007  25.762  1.00  0.00     0.018 C 
ATOM     63  H   UNL A   1      41.649  20.737  25.453  1.00  0.00     0.049 H 
ATOM     64  H   UNL A   1      42.066  19.008  25.523  1.00  0.00     0.049 H 
BRANCH  62  65
ATOM     65  N   UNL A   1      43.604  20.253  25.049  1.00  0.00    -0.352 N 
ATOM     66  C   UNL A   1      44.525  21.271  25.034  1.00  0.00     0.251 C 
ATOM     67  H   UNL A   1      43.838  19.522  24.433  1.00  0.00     0.163 HD
ATOM     68  O   UNL A   1      45.543  21.079  24.385  1.00  0.00    -0.269 OA
BRANCH  66  69
ATOM     69  C   UNL A   1      44.332  22.598  25.688  1.00  0.00     0.039 A 
ATOM     70  C   UNL A   1      44.937  23.017  26.869  1.00  0.00    -0.049 A 
ATOM     71  C   UNL A   1      43.410  23.465  25.068  1.00  0.00    -0.049 A 
ATOM     72  C   UNL A   1      44.541  24.198  27.483  1.00  0.00    -0.053 A 
ATOM     73  H   UNL A   1      45.684  22.445  27.293  1.00  0.00     0.063 H 
ATOM     74  C   UNL A   1      43.036  24.671  25.658  1.00  0.00    -0.053 A 
ATOM     75  H   UNL A   1      43.002  23.201  24.157  1.00  0.00     0.063 H 
ATOM     76  C   UNL A   1      43.569  25.013  26.894  1.00  0.00    -0.014 A 
ATOM     77  H   UNL A   1      44.968  24.477  28.380  1.00  0.00     0.063 H 
ATOM     78  H   UNL A   1      42.373  25.303  25.182  1.00  0.00     0.063 H 
BRANCH  76  79
ATOM     79  C   UNL A   1      43.251  26.263  27.579  1.00  0.00     0.031 A 
ATOM     80  C   UNL A   1      44.262  27.343  27.388  1.00  0.00     0.074 A 
ATOM     81  C   UNL A   1      42.133  26.483  28.297  1.00  0.00     0.049 A 
ATOM     82  N   UNL A   1      45.004  27.905  28.286  1.00  0.00    -0.248 NA
ATOM     83  C   UNL A   1      44.562  27.762  26.011  1.00  0.00    -0.034 C 
ATOM     84  C   UNL A   1      40.931  25.652  28.382  1.00  0.00    -0.036 A 
ATOM     85  N   UNL A   1      41.815  27.567  29.064  1.00  0.00    -0.354 N 
ATOM     86  C   UNL A   1      45.767  28.858  27.614  1.00  0.00     0.074 A 
ATOM     87  C   UNL A   1      45.539  28.648  26.209  1.00  0.00    -0.034 C 
ATOM     88  H   UNL A   1      44.131  27.454  25.127  1.00  0.00     0.065 H 
ATOM     89  C   UNL A   1      39.944  26.355  28.984  1.00  0.00    -0.036 A 
ATOM     90  H   UNL A   1      40.849  24.684  28.037  1.00  0.00     0.065 H 
ATOM     91  C   UNL A   1      40.484  27.621  29.453  1.00  0.00     0.049 A 
ATOM     92  H   UNL A   1      42.475  28.252  29.320  1.00  0.00     0.167 HD
ATOM     93  C   UNL A   1      46.387  29.871  28.282  1.00  0.00     0.037 A 
ATOM     94  H   UNL A   1      46.063  29.119  25.455  1.00  0.00     0.065 H 
ATOM     95  H   UNL A   1      38.966  26.044  29.093  1.00  0.00     0.065 H 
ATOM     96  C   UNL A   1      39.867  28.655  30.075  1.00  0.00     0.037 A 
ATOM     97  C   UNL A   1      46.536  29.560  29.678  1.00  0.00     0.049 A 
ATOM     98  C   UNL A   1      40.914  29.469  30.733  1.00  0.00     0.074 A 
ATOM     99  C   UNL A   1      47.244  28.627  30.406  1.00  0.00    -0.036 A 
ATOM    100  N   UNL A   1      45.620  30.099  30.543  1.00  0.00    -0.354 N 
ATOM    101  N   UNL A   1      41.606  29.081  31.766  1.00  0.00    -0.248 NA
ATOM    102  C   UNL A   1      41.450  30.616  30.016  1.00  0.00    -0.034 C 
ATOM    103  C   UNL A   1      46.434  28.343  31.543  1.00  0.00    -0.036 A 
ATOM    104  H   UNL A   1      48.165  28.220  30.175  1.00  0.00     0.065 H 
ATOM    105  C   UNL A   1      45.294  29.144  31.467  1.00  0.00     0.049 A 
ATOM    106  H   UNL A   1      45.258  31.014  30.505  1.00  0.00     0.167 HD
ATOM    107  C   UNL A   1      42.858  29.638  31.574  1.00  0.00     0.074 A 
ATOM    108  C   UNL A   1      42.661  30.677  30.570  1.00  0.00    -0.034 C 
ATOM    109  H   UNL A   1      41.018  31.209  29.291  1.00  0.00     0.065 H 
ATOM    110  H   UNL A   1      46.652  27.666  32.291  1.00  0.00     0.065 H 
ATOM    111  C   UNL A   1      43.975  29.012  32.043  1.00  0.00     0.037 A 
ATOM    112  H   UNL A   1      43.377  31.377  30.318  1.00  0.00     0.065 H 
BRANCH  93 113
ATOM    113  C   UNL A   1      46.519  31.285  27.760  1.00  0.00     0.064 A 
ATOM    114  C   UNL A   1      45.354  32.003  27.414  1.00  0.00     0.173 A 
ATOM    115  C   UNL A   1      47.730  31.838  27.292  1.00  0.00     0.173 A 
ATOM    116  F   UNL A   1      44.143  31.567  27.791  1.00  0.00    -0.203 F 
ATOM    117  C   UNL A   1      45.395  33.130  26.589  1.00  0.00     0.198 A 
ATOM    118  C   UNL A   1      47.771  32.992  26.511  1.00  0.00     0.198 A 
ATOM    119  F   UNL A   1      48.908  31.231  27.470  1.00  0.00    -0.203 F 
ATOM    120  F   UNL A   1      44.253  33.697  26.179  1.00  0.00    -0.200 F 
ATOM    121  C   UNL A   1      46.604  33.619  26.130  1.00  0.00     0.200 A 
ATOM    122  F   UNL A   1      48.952  33.441  26.061  1.00  0.00    -0.200 F 
ATOM    123  F   UNL A   1      46.644  34.658  25.286  1.00  0.00    -0.200 F 
ENDBRANCH  93 113
BRANCH  96 124
ATOM    124  C   UNL A   1      38.480  29.154  29.914  1.00  0.00     0.064 A 
ATOM    125  C   UNL A   1      37.685  29.442  31.039  1.00  0.00     0.173 A 
ATOM    126  C   UNL A   1      38.021  29.654  28.682  1.00  0.00     0.173 A 
ATOM    127  F   UNL A   1      38.066  29.034  32.259  1.00  0.00    -0.203 F 
ATOM    128  C   UNL A   1      36.531  30.227  30.942  1.00  0.00     0.198 A 
ATOM    129  C   UNL A   1      36.864  30.430  28.586  1.00  0.00     0.198 A 
ATOM    130  F   UNL A   1      38.739  29.489  27.562  1.00  0.00    -0.203 F 
ATOM    131  F   UNL A   1      35.847  30.548  32.049  1.00  0.00    -0.200 F 
ATOM    132  C   UNL A   1      36.131  30.733  29.718  1.00  0.00     0.200 A 
ATOM    133  F   UNL A   1      36.506  30.942  27.399  1.00  0.00    -0.200 F 
ATOM    134  F   UNL A   1      35.070  31.546  29.635  1.00  0.00    -0.200 F 
ENDBRANCH  96 124
BRANCH 111 135
ATOM    135  C   UNL A   1      43.791  27.928  33.066  1.00  0.00     0.064 A 
ATOM    136  C   UNL A   1      43.764  26.555  32.766  1.00  0.00     0.173 A 
ATOM    137  C   UNL A   1      43.782  28.296  34.418  1.00  0.00     0.173 A 
ATOM    138  F   UNL A   1      43.863  26.120  31.503  1.00  0.00    -0.203 F 
ATOM    139  C   UNL A   1      43.697  25.599  33.779  1.00  0.00     0.198 A 
ATOM    140  C   UNL A   1      43.756  27.339  35.427  1.00  0.00     0.198 A 
ATOM    141  F   UNL A   1      43.856  29.592  34.763  1.00  0.00    -0.203 F 
ATOM    142  F   UNL A   1      43.667  24.294  33.472  1.00  0.00    -0.200 F 
ATOM    143  C   UNL A   1      43.705  25.992  35.108  1.00  0.00     0.200 A 
ATOM    144  F   UNL A   1      43.814  27.722  36.710  1.00  0.00    -0.200 F 
ATOM    145  F   UNL A   1      43.693  25.071  36.082  1.00  0.00    -0.200 F 
ENDBRANCH 111 135
ENDBRANCH  76  79
ENDBRANCH  66  69
ENDBRANCH  62  65
ENDBRANCH  59  62
ENDBRANCH  56  59
ENDBRANCH   1  56
TORSDOF 18
ENDMDL
