MODEL 1
REMARK VINA RESULT:     -10.8      0.000      0.000
REMARK SMILES CCCCCCOC(=O)Nc1cccc(-c2ccc([C@@H](C)C(=O)NCCCCCCNC(=O)c3ccc(-c4c5nc(c(-c6c(F)c(F)c(F)c(F)c6F)c6ccc([nH]6)c(-c6c(F)c(F)c(F)c(F)c6F)c6nc(c(-c7c(F)c(F)c(F)c(F)c7F)c7ccc4[nH]7)C=C6)C=C5)cc3)cc2F)c1
REMARK SMILES IDX 22 1 23 2 24 3 20 5 19 7 16 8 17 9 98 10 18 11 97 13 99 14
REMARK SMILES IDX 15 17 11 18 12 19 100 20 13 21 14 24 10 27 8 28 9 29 7 31
REMARK SMILES IDX 6 32 5 35 4 38 3 41 2 44 1 47 21 51 25 55 26 58 27 61 28 64
REMARK SMILES IDX 29 67 30 70 31 73 32 74 33 76 34 77 35 78 96 79 36 80 95 82
REMARK SMILES IDX 37 84 38 87 39 88 89 89 40 90 94 91 88 92 90 93 41 94 93 95
REMARK SMILES IDX 87 97 86 99 42 101 74 104 54 105 73 106 55 107 58 108 72 109
REMARK SMILES IDX 91 110 56 111 57 113 71 115 92 116 59 119 43 121 44 122
REMARK SMILES IDX 52 123 45 124 46 125 50 126 53 127 47 128 48 129 51 130
REMARK SMILES IDX 49 131 75 132 76 133 84 134 77 135 78 136 82 137 85 138
REMARK SMILES IDX 79 139 80 140 83 141 81 142 60 143 61 144 69 145 62 146
REMARK SMILES IDX 63 147 67 148 70 149 64 150 65 151 68 152 66 153
REMARK H PARENT 24 4 20 6 17 12 18 15 97 16 12 22 100 23 13 25 14 26 10 30
REMARK H PARENT 6 33 6 34 5 36 5 37 4 39 4 40 3 42 3 43 2 45 2 46 1 48 1 49
REMARK H PARENT 1 50 21 52 21 53 21 54 25 56 25 57 26 59 26 60 27 62 27 63
REMARK H PARENT 28 65 28 66 29 68 29 69 30 71 30 72 31 75 35 81 96 83 36 85
REMARK H PARENT 95 86 94 96 88 98 90 100 93 102 87 103 55 112 58 114 91 117
REMARK H PARENT 56 118 92 120
REMARK Flexibility Score: inf
ROOT
ATOM      1  C   UNL A   1      31.047  26.851  26.524  1.00  0.00     0.227 C 
ATOM      2  O   UNL A   1      30.168  26.057  26.882  1.00  0.00    -0.274 OA
ATOM      3  N   UNL A   1      31.325  27.871  27.380  1.00  0.00    -0.356 N 
ATOM      4  H   UNL A   1      30.849  27.819  28.240  1.00  0.00     0.163 HD
ENDROOT
BRANCH   1   5
ATOM      5  C   UNL A   1      31.767  26.643  25.183  1.00  0.00     0.060 C 
ATOM      6  H   UNL A   1      32.240  27.577  24.962  1.00  0.00     0.045 H 
BRANCH   5   7
ATOM      7  C   UNL A   1      32.938  25.676  25.264  1.00  0.00    -0.033 A 
ATOM      8  C   UNL A   1      35.007  23.705  25.347  1.00  0.00     0.018 A 
ATOM      9  C   UNL A   1      35.113  24.840  24.533  1.00  0.00    -0.051 A 
ATOM     10  C   UNL A   1      33.865  23.616  26.160  1.00  0.00     0.131 A 
ATOM     11  C   UNL A   1      34.113  25.822  24.516  1.00  0.00    -0.057 A 
ATOM     12  H   UNL A   1      35.945  24.956  23.933  1.00  0.00     0.063 H 
ATOM     13  C   UNL A   1      32.841  24.562  26.108  1.00  0.00    -0.022 A 
ATOM     14  F   UNL A   1      33.718  22.595  27.021  1.00  0.00    -0.206 F 
ATOM     15  H   UNL A   1      34.245  26.668  23.941  1.00  0.00     0.063 H 
ATOM     16  H   UNL A   1      32.003  24.441  26.698  1.00  0.00     0.066 H 
BRANCH   8  17
ATOM     17  C   UNL A   1      36.036  22.645  25.317  1.00  0.00    -0.013 A 
ATOM     18  C   UNL A   1      36.623  20.290  24.983  1.00  0.00     0.045 A 
ATOM     19  C   UNL A   1      37.939  20.553  25.347  1.00  0.00    -0.038 A 
ATOM     20  C   UNL A   1      35.689  21.332  24.961  1.00  0.00    -0.030 A 
ATOM     21  C   UNL A   1      38.324  21.860  25.642  1.00  0.00    -0.060 A 
ATOM     22  H   UNL A   1      38.627  19.785  25.399  1.00  0.00     0.064 H 
ATOM     23  H   UNL A   1      34.718  21.129  24.676  1.00  0.00     0.065 H 
ATOM     24  C   UNL A   1      37.381  22.893  25.635  1.00  0.00    -0.054 A 
ATOM     25  H   UNL A   1      39.311  22.066  25.866  1.00  0.00     0.062 H 
ATOM     26  H   UNL A   1      37.678  23.853  25.867  1.00  0.00     0.063 H 
BRANCH  18  27
ATOM     27  N   UNL A   1      36.234  18.965  24.747  1.00  0.00    -0.291 N 
ATOM     28  C   UNL A   1      34.954  18.475  24.732  1.00  0.00     0.411 C 
ATOM     29  O   UNL A   1      34.717  17.305  24.977  1.00  0.00    -0.224 OA
ATOM     30  H   UNL A   1      36.956  18.318  24.575  1.00  0.00     0.173 HD
BRANCH  28  31
ATOM     31  O   UNL A   1      34.050  19.393  24.296  1.00  0.00    -0.449 OA
BRANCH  31  32
ATOM     32  C   UNL A   1      32.861  19.606  25.072  1.00  0.00     0.093 C 
ATOM     33  H   UNL A   1      32.248  18.730  25.012  1.00  0.00     0.071 H 
ATOM     34  H   UNL A   1      33.157  19.804  26.080  1.00  0.00     0.071 H 
BRANCH  32  35
ATOM     35  C   UNL A   1      32.054  20.809  24.573  1.00  0.00    -0.019 C 
ATOM     36  H   UNL A   1      31.027  20.643  24.822  1.00  0.00     0.030 H 
ATOM     37  H   UNL A   1      32.482  21.665  25.049  1.00  0.00     0.030 H 
BRANCH  35  38
ATOM     38  C   UNL A   1      32.135  21.083  23.066  1.00  0.00    -0.050 C 
ATOM     39  H   UNL A   1      32.563  20.223  22.595  1.00  0.00     0.027 H 
ATOM     40  H   UNL A   1      31.136  21.288  22.744  1.00  0.00     0.027 H 
BRANCH  38  41
ATOM     41  C   UNL A   1      32.973  22.308  22.675  1.00  0.00    -0.053 C 
ATOM     42  H   UNL A   1      33.667  22.501  23.466  1.00  0.00     0.027 H 
ATOM     43  H   UNL A   1      33.445  22.064  21.747  1.00  0.00     0.027 H 
BRANCH  41  44
ATOM     44  C   UNL A   1      32.170  23.583  22.427  1.00  0.00    -0.056 C 
ATOM     45  H   UNL A   1      31.246  23.320  21.956  1.00  0.00     0.026 H 
ATOM     46  H   UNL A   1      32.010  24.056  23.373  1.00  0.00     0.026 H 
BRANCH  44  47
ATOM     47  C   UNL A   1      32.905  24.572  21.538  1.00  0.00    -0.065 C 
ATOM     48  H   UNL A   1      33.756  24.959  22.060  1.00  0.00     0.023 H 
ATOM     49  H   UNL A   1      32.249  25.378  21.282  1.00  0.00     0.023 H 
ATOM     50  H   UNL A   1      33.228  24.078  20.646  1.00  0.00     0.023 H 
ENDBRANCH  44  47
ENDBRANCH  41  44
ENDBRANCH  38  41
ENDBRANCH  35  38
ENDBRANCH  32  35
ENDBRANCH  31  32
ENDBRANCH  28  31
ENDBRANCH  18  27
ENDBRANCH   8  17
ENDBRANCH   5   7
BRANCH   5  51
ATOM     51  C   UNL A   1      30.825  26.455  23.996  1.00  0.00    -0.049 C 
ATOM     52  H   UNL A   1      29.852  26.182  24.351  1.00  0.00     0.024 H 
ATOM     53  H   UNL A   1      31.201  25.681  23.360  1.00  0.00     0.024 H 
ATOM     54  H   UNL A   1      30.760  27.369  23.444  1.00  0.00     0.024 H 
ENDBRANCH   5  51
ENDBRANCH   1   5
BRANCH   3  55
ATOM     55  C   UNL A   1      32.196  29.019  27.252  1.00  0.00     0.017 C 
ATOM     56  H   UNL A   1      31.968  29.717  28.030  1.00  0.00     0.049 H 
ATOM     57  H   UNL A   1      32.034  29.454  26.288  1.00  0.00     0.049 H 
BRANCH  55  58
ATOM     58  C   UNL A   1      33.670  28.624  27.356  1.00  0.00    -0.036 C 
ATOM     59  H   UNL A   1      33.897  27.951  26.555  1.00  0.00     0.028 H 
ATOM     60  H   UNL A   1      33.807  28.174  28.317  1.00  0.00     0.028 H 
BRANCH  58  61
ATOM     61  C   UNL A   1      34.633  29.813  27.276  1.00  0.00    -0.052 C 
ATOM     62  H   UNL A   1      34.719  30.102  26.249  1.00  0.00     0.027 H 
ATOM     63  H   UNL A   1      35.556  29.480  27.702  1.00  0.00     0.027 H 
BRANCH  61  64
ATOM     64  C   UNL A   1      34.208  31.046  28.085  1.00  0.00    -0.052 C 
ATOM     65  H   UNL A   1      35.039  31.349  28.687  1.00  0.00     0.027 H 
ATOM     66  H   UNL A   1      33.352  30.744  28.654  1.00  0.00     0.027 H 
BRANCH  64  67
ATOM     67  C   UNL A   1      33.758  32.253  27.257  1.00  0.00    -0.036 C 
ATOM     68  H   UNL A   1      33.781  31.975  26.224  1.00  0.00     0.028 H 
ATOM     69  H   UNL A   1      34.432  33.049  27.493  1.00  0.00     0.028 H 
BRANCH  67  70
ATOM     70  C   UNL A   1      32.356  32.762  27.583  1.00  0.00     0.018 C 
ATOM     71  H   UNL A   1      32.021  32.297  28.486  1.00  0.00     0.049 H 
ATOM     72  H   UNL A   1      31.714  32.515  26.763  1.00  0.00     0.049 H 
BRANCH  70  73
ATOM     73  N   UNL A   1      32.333  34.205  27.757  1.00  0.00    -0.352 N 
ATOM     74  C   UNL A   1      33.046  34.998  28.621  1.00  0.00     0.251 C 
ATOM     75  H   UNL A   1      31.712  34.687  27.164  1.00  0.00     0.163 HD
ATOM     76  O   UNL A   1      32.721  36.169  28.794  1.00  0.00    -0.269 OA
BRANCH  74  77
ATOM     77  C   UNL A   1      34.203  34.444  29.355  1.00  0.00     0.039 A 
ATOM     78  C   UNL A   1      33.984  33.793  30.571  1.00  0.00    -0.049 A 
ATOM     79  C   UNL A   1      35.503  34.594  28.861  1.00  0.00    -0.049 A 
ATOM     80  C   UNL A   1      35.063  33.237  31.263  1.00  0.00    -0.053 A 
ATOM     81  H   UNL A   1      33.030  33.723  30.957  1.00  0.00     0.063 H 
ATOM     82  C   UNL A   1      36.568  33.982  29.518  1.00  0.00    -0.053 A 
ATOM     83  H   UNL A   1      35.672  35.156  28.013  1.00  0.00     0.063 H 
ATOM     84  C   UNL A   1      36.358  33.298  30.724  1.00  0.00    -0.014 A 
ATOM     85  H   UNL A   1      34.907  32.781  32.176  1.00  0.00     0.063 H 
ATOM     86  H   UNL A   1      37.517  34.034  29.114  1.00  0.00     0.063 H 
BRANCH  84  87
ATOM     87  C   UNL A   1      37.503  32.637  31.400  1.00  0.00     0.031 A 
ATOM     88  C   UNL A   1      38.189  31.463  30.761  1.00  0.00     0.074 A 
ATOM     89  C   UNL A   1      37.878  33.056  32.624  1.00  0.00     0.049 A 
ATOM     90  N   UNL A   1      39.155  30.713  31.230  1.00  0.00    -0.248 NA
ATOM     91  C   UNL A   1      37.709  31.061  29.430  1.00  0.00    -0.034 C 
ATOM     92  C   UNL A   1      37.260  34.155  33.366  1.00  0.00    -0.036 A 
ATOM     93  N   UNL A   1      38.860  32.599  33.466  1.00  0.00    -0.354 N 
ATOM     94  C   UNL A   1      39.388  29.748  30.260  1.00  0.00     0.074 A 
ATOM     95  C   UNL A   1      38.431  29.975  29.199  1.00  0.00    -0.034 C 
ATOM     96  H   UNL A   1      36.997  31.510  28.833  1.00  0.00     0.065 H 
ATOM     97  C   UNL A   1      37.888  34.300  34.543  1.00  0.00    -0.036 A 
ATOM     98  H   UNL A   1      36.466  34.728  33.036  1.00  0.00     0.065 H 
ATOM     99  C   UNL A   1      38.927  33.281  34.657  1.00  0.00     0.049 A 
ATOM    100  H   UNL A   1      39.462  31.853  33.238  1.00  0.00     0.167 HD
ATOM    101  C   UNL A   1      40.332  28.775  30.246  1.00  0.00     0.037 A 
ATOM    102  H   UNL A   1      38.324  29.369  28.370  1.00  0.00     0.065 H 
ATOM    103  H   UNL A   1      37.672  35.018  35.253  1.00  0.00     0.065 H 
ATOM    104  C   UNL A   1      39.727  33.097  35.724  1.00  0.00     0.037 A 
ATOM    105  C   UNL A   1      41.296  28.568  31.296  1.00  0.00     0.049 A 
ATOM    106  C   UNL A   1      40.756  32.002  35.688  1.00  0.00     0.074 A 
ATOM    107  C   UNL A   1      42.333  27.651  31.347  1.00  0.00    -0.036 A 
ATOM    108  N   UNL A   1      41.338  29.285  32.482  1.00  0.00    -0.354 N 
ATOM    109  N   UNL A   1      41.015  31.139  34.735  1.00  0.00    -0.248 NA
ATOM    110  C   UNL A   1      41.608  31.855  36.876  1.00  0.00    -0.034 C 
ATOM    111  C   UNL A   1      42.970  27.780  32.585  1.00  0.00    -0.036 A 
ATOM    112  H   UNL A   1      42.590  26.988  30.599  1.00  0.00     0.065 H 
ATOM    113  C   UNL A   1      42.365  28.812  33.284  1.00  0.00     0.049 A 
ATOM    114  H   UNL A   1      40.729  30.021  32.720  1.00  0.00     0.167 HD
ATOM    115  C   UNL A   1      42.071  30.366  35.196  1.00  0.00     0.074 A 
ATOM    116  C   UNL A   1      42.418  30.873  36.507  1.00  0.00    -0.034 C 
ATOM    117  H   UNL A   1      41.582  32.379  37.765  1.00  0.00     0.065 H 
ATOM    118  H   UNL A   1      43.757  27.204  32.921  1.00  0.00     0.065 H 
ATOM    119  C   UNL A   1      42.697  29.328  34.589  1.00  0.00     0.037 A 
ATOM    120  H   UNL A   1      43.198  30.516  37.081  1.00  0.00     0.065 H 
BRANCH 101 121
ATOM    121  C   UNL A   1      40.369  27.858  29.057  1.00  0.00     0.064 A 
ATOM    122  C   UNL A   1      39.622  26.670  29.019  1.00  0.00     0.173 A 
ATOM    123  C   UNL A   1      41.128  28.190  27.925  1.00  0.00     0.173 A 
ATOM    124  F   UNL A   1      38.888  26.301  30.080  1.00  0.00    -0.203 F 
ATOM    125  C   UNL A   1      39.657  25.836  27.906  1.00  0.00     0.198 A 
ATOM    126  C   UNL A   1      41.136  27.369  26.800  1.00  0.00     0.198 A 
ATOM    127  F   UNL A   1      41.855  29.317  27.904  1.00  0.00    -0.203 F 
ATOM    128  F   UNL A   1      38.974  24.683  27.913  1.00  0.00    -0.200 F 
ATOM    129  C   UNL A   1      40.408  26.189  26.794  1.00  0.00     0.200 A 
ATOM    130  F   UNL A   1      41.850  27.719  25.722  1.00  0.00    -0.200 F 
ATOM    131  F   UNL A   1      40.433  25.389  25.720  1.00  0.00    -0.200 F 
ENDBRANCH 101 121
BRANCH 104 132
ATOM    132  C   UNL A   1      39.596  33.984  36.909  1.00  0.00     0.064 A 
ATOM    133  C   UNL A   1      38.823  33.600  38.013  1.00  0.00     0.173 A 
ATOM    134  C   UNL A   1      40.235  35.231  36.962  1.00  0.00     0.173 A 
ATOM    135  F   UNL A   1      38.176  32.425  38.001  1.00  0.00    -0.203 F 
ATOM    136  C   UNL A   1      38.679  34.436  39.118  1.00  0.00     0.198 A 
ATOM    137  C   UNL A   1      40.114  36.055  38.079  1.00  0.00     0.198 A 
ATOM    138  F   UNL A   1      40.991  35.645  35.934  1.00  0.00    -0.203 F 
ATOM    139  F   UNL A   1      37.898  34.063  40.140  1.00  0.00    -0.200 F 
ATOM    140  C   UNL A   1      39.329  35.661  39.153  1.00  0.00     0.200 A 
ATOM    141  F   UNL A   1      40.757  37.230  38.116  1.00  0.00    -0.200 F 
ATOM    142  F   UNL A   1      39.195  36.463  40.217  1.00  0.00    -0.200 F 
ENDBRANCH 104 132
BRANCH 119 143
ATOM    143  C   UNL A   1      43.834  28.686  35.328  1.00  0.00     0.064 A 
ATOM    144  C   UNL A   1      45.162  29.097  35.137  1.00  0.00     0.173 A 
ATOM    145  C   UNL A   1      43.591  27.669  36.264  1.00  0.00     0.173 A 
ATOM    146  F   UNL A   1      45.448  30.054  34.240  1.00  0.00    -0.203 F 
ATOM    147  C   UNL A   1      46.206  28.497  35.836  1.00  0.00     0.198 A 
ATOM    148  C   UNL A   1      44.634  27.093  36.985  1.00  0.00     0.198 A 
ATOM    149  F   UNL A   1      42.339  27.242  36.490  1.00  0.00    -0.203 F 
ATOM    150  F   UNL A   1      47.470  28.872  35.599  1.00  0.00    -0.200 F 
ATOM    151  C   UNL A   1      45.940  27.501  36.764  1.00  0.00     0.200 A 
ATOM    152  F   UNL A   1      44.373  26.141  37.891  1.00  0.00    -0.200 F 
ATOM    153  F   UNL A   1      46.945  26.930  37.440  1.00  0.00    -0.200 F 
ENDBRANCH 119 143
ENDBRANCH  84  87
ENDBRANCH  74  77
ENDBRANCH  70  73
ENDBRANCH  67  70
ENDBRANCH  64  67
ENDBRANCH  61  64
ENDBRANCH  58  61
ENDBRANCH  55  58
ENDBRANCH   3  55
TORSDOF 24
ENDMDL
MODEL 2
REMARK VINA RESULT:     -10.8      5.262     11.855
REMARK SMILES CCCCCCOC(=O)Nc1cccc(-c2ccc([C@@H](C)C(=O)NCCCCCCNC(=O)c3ccc(-c4c5nc(c(-c6c(F)c(F)c(F)c(F)c6F)c6ccc([nH]6)c(-c6c(F)c(F)c(F)c(F)c6F)c6nc(c(-c7c(F)c(F)c(F)c(F)c7F)c7ccc4[nH]7)C=C6)C=C5)cc3)cc2F)c1
REMARK SMILES IDX 22 1 23 2 24 3 20 5 19 7 16 8 17 9 98 10 18 11 97 13 99 14
REMARK SMILES IDX 15 17 11 18 12 19 100 20 13 21 14 24 10 27 8 28 9 29 7 31
REMARK SMILES IDX 6 32 5 35 4 38 3 41 2 44 1 47 21 51 25 55 26 58 27 61 28 64
REMARK SMILES IDX 29 67 30 70 31 73 32 74 33 76 34 77 35 78 96 79 36 80 95 82
REMARK SMILES IDX 37 84 38 87 39 88 89 89 40 90 94 91 88 92 90 93 41 94 93 95
REMARK SMILES IDX 87 97 86 99 42 101 74 104 54 105 73 106 55 107 58 108 72 109
REMARK SMILES IDX 91 110 56 111 57 113 71 115 92 116 59 119 43 121 44 122
REMARK SMILES IDX 52 123 45 124 46 125 50 126 53 127 47 128 48 129 51 130
REMARK SMILES IDX 49 131 75 132 76 133 84 134 77 135 78 136 82 137 85 138
REMARK SMILES IDX 79 139 80 140 83 141 81 142 60 143 61 144 69 145 62 146
REMARK SMILES IDX 63 147 67 148 70 149 64 150 65 151 68 152 66 153
REMARK H PARENT 24 4 20 6 17 12 18 15 97 16 12 22 100 23 13 25 14 26 10 30
REMARK H PARENT 6 33 6 34 5 36 5 37 4 39 4 40 3 42 3 43 2 45 2 46 1 48 1 49
REMARK H PARENT 1 50 21 52 21 53 21 54 25 56 25 57 26 59 26 60 27 62 27 63
REMARK H PARENT 28 65 28 66 29 68 29 69 30 71 30 72 31 75 35 81 96 83 36 85
REMARK H PARENT 95 86 94 96 88 98 90 100 93 102 87 103 55 112 58 114 91 117
REMARK H PARENT 56 118 92 120
REMARK Flexibility Score: inf
ROOT
ATOM      1  C   UNL A   1      33.482  22.457  25.252  1.00  0.00     0.227 C 
ATOM      2  O   UNL A   1      32.697  21.545  25.541  1.00  0.00    -0.274 OA
ATOM      3  N   UNL A   1      34.702  22.418  25.852  1.00  0.00    -0.356 N 
ATOM      4  H   UNL A   1      34.860  21.612  26.394  1.00  0.00     0.163 HD
ENDROOT
BRANCH   1   5
ATOM      5  C   UNL A   1      33.059  23.542  24.250  1.00  0.00     0.060 C 
ATOM      6  H   UNL A   1      32.026  23.355  24.040  1.00  0.00     0.045 H 
BRANCH   5   7
ATOM      7  C   UNL A   1      33.040  24.943  24.841  1.00  0.00    -0.033 A 
ATOM      8  C   UNL A   1      32.905  27.643  25.773  1.00  0.00     0.018 A 
ATOM      9  C   UNL A   1      32.291  26.597  26.474  1.00  0.00    -0.051 A 
ATOM     10  C   UNL A   1      33.636  27.290  24.626  1.00  0.00     0.131 A 
ATOM     11  C   UNL A   1      32.384  25.269  26.034  1.00  0.00    -0.057 A 
ATOM     12  H   UNL A   1      31.759  26.808  27.333  1.00  0.00     0.063 H 
ATOM     13  C   UNL A   1      33.688  25.978  24.154  1.00  0.00    -0.022 A 
ATOM     14  F   UNL A   1      34.313  28.221  23.935  1.00  0.00    -0.206 F 
ATOM     15  H   UNL A   1      31.960  24.518  26.601  1.00  0.00     0.063 H 
ATOM     16  H   UNL A   1      34.208  25.767  23.289  1.00  0.00     0.066 H 
BRANCH   8  17
ATOM     17  C   UNL A   1      32.755  29.046  26.209  1.00  0.00    -0.013 A 
ATOM     18  C   UNL A   1      33.518  30.910  27.603  1.00  0.00     0.045 A 
ATOM     19  C   UNL A   1      32.455  31.692  27.162  1.00  0.00    -0.038 A 
ATOM     20  C   UNL A   1      33.664  29.605  27.120  1.00  0.00    -0.030 A 
ATOM     21  C   UNL A   1      31.575  31.184  26.208  1.00  0.00    -0.060 A 
ATOM     22  H   UNL A   1      32.320  32.643  27.538  1.00  0.00     0.064 H 
ATOM     23  H   UNL A   1      34.464  29.038  27.443  1.00  0.00     0.065 H 
ATOM     24  C   UNL A   1      31.718  29.872  25.743  1.00  0.00    -0.054 A 
ATOM     25  H   UNL A   1      30.814  31.778  25.844  1.00  0.00     0.062 H 
ATOM     26  H   UNL A   1      31.053  29.505  25.047  1.00  0.00     0.063 H 
BRANCH  18  27
ATOM     27  N   UNL A   1      34.360  31.410  28.604  1.00  0.00    -0.291 N 
ATOM     28  C   UNL A   1      35.245  32.451  28.489  1.00  0.00     0.411 C 
ATOM     29  O   UNL A   1      36.230  32.531  29.202  1.00  0.00    -0.224 OA
ATOM     30  H   UNL A   1      34.313  30.966  29.482  1.00  0.00     0.173 HD
BRANCH  28  31
ATOM     31  O   UNL A   1      34.822  33.399  27.611  1.00  0.00    -0.449 OA
BRANCH  31  32
ATOM     32  C   UNL A   1      34.539  34.716  28.108  1.00  0.00     0.093 C 
ATOM     33  H   UNL A   1      35.437  35.131  28.518  1.00  0.00     0.071 H 
ATOM     34  H   UNL A   1      34.177  35.305  27.292  1.00  0.00     0.071 H 
BRANCH  32  35
ATOM     35  C   UNL A   1      33.459  34.702  29.195  1.00  0.00    -0.019 C 
ATOM     36  H   UNL A   1      32.657  34.083  28.854  1.00  0.00     0.030 H 
ATOM     37  H   UNL A   1      33.940  34.341  30.079  1.00  0.00     0.030 H 
BRANCH  35  38
ATOM     38  C   UNL A   1      32.874  36.071  29.564  1.00  0.00    -0.050 C 
ATOM     39  H   UNL A   1      33.560  36.824  29.237  1.00  0.00     0.027 H 
ATOM     40  H   UNL A   1      31.920  36.129  29.084  1.00  0.00     0.027 H 
BRANCH  38  41
ATOM     41  C   UNL A   1      32.614  36.280  31.062  1.00  0.00    -0.053 C 
ATOM     42  H   UNL A   1      31.623  36.665  31.177  1.00  0.00     0.027 H 
ATOM     43  H   UNL A   1      32.755  35.326  31.526  1.00  0.00     0.027 H 
BRANCH  41  44
ATOM     44  C   UNL A   1      33.579  37.241  31.754  1.00  0.00    -0.056 C 
ATOM     45  H   UNL A   1      34.493  37.267  31.199  1.00  0.00     0.026 H 
ATOM     46  H   UNL A   1      33.111  38.203  31.788  1.00  0.00     0.026 H 
BRANCH  44  47
ATOM     47  C   UNL A   1      33.888  36.831  33.184  1.00  0.00    -0.065 C 
ATOM     48  H   UNL A   1      34.808  36.283  33.208  1.00  0.00     0.023 H 
ATOM     49  H   UNL A   1      33.098  36.213  33.557  1.00  0.00     0.023 H 
ATOM     50  H   UNL A   1      33.977  37.705  33.795  1.00  0.00     0.023 H 
ENDBRANCH  44  47
ENDBRANCH  41  44
ENDBRANCH  38  41
ENDBRANCH  35  38
ENDBRANCH  32  35
ENDBRANCH  31  32
ENDBRANCH  28  31
ENDBRANCH  18  27
ENDBRANCH   8  17
ENDBRANCH   5   7
BRANCH   5  51
ATOM     51  C   UNL A   1      33.711  23.405  22.875  1.00  0.00    -0.049 C 
ATOM     52  H   UNL A   1      34.195  24.324  22.616  1.00  0.00     0.024 H 
ATOM     53  H   UNL A   1      32.961  23.180  22.146  1.00  0.00     0.024 H 
ATOM     54  H   UNL A   1      34.432  22.615  22.900  1.00  0.00     0.024 H 
ENDBRANCH   5  51
ENDBRANCH   1   5
BRANCH   3  55
ATOM     55  C   UNL A   1      35.808  23.349  25.835  1.00  0.00     0.017 C 
ATOM     56  H   UNL A   1      36.342  23.271  26.759  1.00  0.00     0.049 H 
ATOM     57  H   UNL A   1      35.412  24.335  25.705  1.00  0.00     0.049 H 
BRANCH  55  58
ATOM     58  C   UNL A   1      36.770  23.064  24.680  1.00  0.00    -0.036 C 
ATOM     59  H   UNL A   1      37.310  23.961  24.460  1.00  0.00     0.028 H 
ATOM     60  H   UNL A   1      36.178  22.732  23.854  1.00  0.00     0.028 H 
BRANCH  58  61
ATOM     61  C   UNL A   1      37.781  21.953  24.982  1.00  0.00    -0.052 C 
ATOM     62  H   UNL A   1      38.364  21.785  24.099  1.00  0.00     0.027 H 
ATOM     63  H   UNL A   1      37.210  21.100  25.281  1.00  0.00     0.027 H 
BRANCH  61  64
ATOM     64  C   UNL A   1      38.745  22.251  26.139  1.00  0.00    -0.052 C 
ATOM     65  H   UNL A   1      38.159  22.498  27.000  1.00  0.00     0.027 H 
ATOM     66  H   UNL A   1      39.372  23.050  25.801  1.00  0.00     0.027 H 
BRANCH  64  67
ATOM     67  C   UNL A   1      39.688  21.107  26.521  1.00  0.00    -0.036 C 
ATOM     68  H   UNL A   1      39.407  20.753  27.491  1.00  0.00     0.028 H 
ATOM     69  H   UNL A   1      40.679  21.508  26.491  1.00  0.00     0.028 H 
BRANCH  67  70
ATOM     70  C   UNL A   1      39.673  19.922  25.559  1.00  0.00     0.018 C 
ATOM     71  H   UNL A   1      39.861  20.278  24.568  1.00  0.00     0.049 H 
ATOM     72  H   UNL A   1      38.713  19.454  25.623  1.00  0.00     0.049 H 
BRANCH  70  73
ATOM     73  N   UNL A   1      40.682  18.933  25.905  1.00  0.00    -0.352 N 
ATOM     74  C   UNL A   1      42.010  19.101  26.205  1.00  0.00     0.251 C 
ATOM     75  H   UNL A   1      40.363  18.002  25.928  1.00  0.00     0.163 HD
ATOM     76  O   UNL A   1      42.762  18.132  26.235  1.00  0.00    -0.269 OA
BRANCH  74  77
ATOM     77  C   UNL A   1      42.544  20.450  26.484  1.00  0.00     0.039 A 
ATOM     78  C   UNL A   1      43.031  21.218  25.424  1.00  0.00    -0.049 A 
ATOM     79  C   UNL A   1      42.595  20.944  27.791  1.00  0.00    -0.049 A 
ATOM     80  C   UNL A   1      43.512  22.507  25.666  1.00  0.00    -0.053 A 
ATOM     81  H   UNL A   1      43.035  20.835  24.466  1.00  0.00     0.063 H 
ATOM     82  C   UNL A   1      43.012  22.253  28.022  1.00  0.00    -0.053 A 
ATOM     83  H   UNL A   1      42.324  20.341  28.583  1.00  0.00     0.063 H 
ATOM     84  C   UNL A   1      43.474  23.047  26.961  1.00  0.00    -0.014 A 
ATOM     85  H   UNL A   1      43.897  23.065  24.887  1.00  0.00     0.063 H 
ATOM     86  H   UNL A   1      42.982  22.640  28.978  1.00  0.00     0.063 H 
BRANCH  84  87
ATOM     87  C   UNL A   1      43.898  24.445  27.224  1.00  0.00     0.031 A 
ATOM     88  C   UNL A   1      42.900  25.467  27.691  1.00  0.00     0.074 A 
ATOM     89  C   UNL A   1      45.170  24.807  26.973  1.00  0.00     0.049 A 
ATOM     90  N   UNL A   1      43.066  26.749  27.902  1.00  0.00    -0.248 NA
ATOM     91  C   UNL A   1      41.529  24.992  27.929  1.00  0.00    -0.034 C 
ATOM     92  C   UNL A   1      46.218  23.917  26.473  1.00  0.00    -0.036 A 
ATOM     93  N   UNL A   1      45.797  26.023  27.090  1.00  0.00    -0.354 N 
ATOM     94  C   UNL A   1      41.822  27.232  28.285  1.00  0.00     0.074 A 
ATOM     95  C   UNL A   1      40.900  26.119  28.228  1.00  0.00    -0.034 C 
ATOM     96  H   UNL A   1      41.155  24.031  27.877  1.00  0.00     0.065 H 
ATOM     97  C   UNL A   1      47.361  24.609  26.345  1.00  0.00    -0.036 A 
ATOM     98  H   UNL A   1      46.098  22.915  26.253  1.00  0.00     0.065 H 
ATOM     99  C   UNL A   1      47.118  26.000  26.715  1.00  0.00     0.049 A 
ATOM    100  H   UNL A   1      45.342  26.834  27.414  1.00  0.00     0.167 HD
ATOM    101  C   UNL A   1      41.485  28.487  28.670  1.00  0.00     0.037 A 
ATOM    102  H   UNL A   1      39.884  26.193  28.398  1.00  0.00     0.065 H 
ATOM    103  H   UNL A   1      48.265  24.221  26.035  1.00  0.00     0.065 H 
ATOM    104  C   UNL A   1      48.027  26.992  26.664  1.00  0.00     0.037 A 
ATOM    105  C   UNL A   1      42.413  29.587  28.744  1.00  0.00     0.049 A 
ATOM    106  C   UNL A   1      47.624  28.378  27.084  1.00  0.00     0.074 A 
ATOM    107  C   UNL A   1      42.184  30.880  29.184  1.00  0.00    -0.036 A 
ATOM    108  N   UNL A   1      43.745  29.523  28.365  1.00  0.00    -0.354 N 
ATOM    109  N   UNL A   1      46.461  28.809  27.510  1.00  0.00    -0.248 NA
ATOM    110  C   UNL A   1      48.660  29.417  27.017  1.00  0.00    -0.034 C 
ATOM    111  C   UNL A   1      43.365  31.612  29.022  1.00  0.00    -0.036 A 
ATOM    112  H   UNL A   1      41.295  31.241  29.565  1.00  0.00     0.065 H 
ATOM    113  C   UNL A   1      44.344  30.762  28.533  1.00  0.00     0.049 A 
ATOM    114  H   UNL A   1      44.199  28.718  28.026  1.00  0.00     0.167 HD
ATOM    115  C   UNL A   1      46.632  30.158  27.786  1.00  0.00     0.074 A 
ATOM    116  C   UNL A   1      48.016  30.472  27.496  1.00  0.00    -0.034 C 
ATOM    117  H   UNL A   1      49.635  29.345  26.686  1.00  0.00     0.065 H 
ATOM    118  H   UNL A   1      43.487  32.614  29.232  1.00  0.00     0.065 H 
ATOM    119  C   UNL A   1      45.723  31.058  28.238  1.00  0.00     0.037 A 
ATOM    120  H   UNL A   1      48.445  31.398  27.644  1.00  0.00     0.065 H 
BRANCH 101 121
ATOM    121  C   UNL A   1      40.053  28.741  29.041  1.00  0.00     0.064 A 
ATOM    122  C   UNL A   1      39.106  29.150  28.089  1.00  0.00     0.173 A 
ATOM    123  C   UNL A   1      39.609  28.534  30.356  1.00  0.00     0.173 A 
ATOM    124  F   UNL A   1      39.479  29.373  26.819  1.00  0.00    -0.203 F 
ATOM    125  C   UNL A   1      37.778  29.370  28.445  1.00  0.00     0.198 A 
ATOM    126  C   UNL A   1      38.274  28.724  30.703  1.00  0.00     0.198 A 
ATOM    127  F   UNL A   1      40.471  28.136  31.305  1.00  0.00    -0.203 F 
ATOM    128  F   UNL A   1      36.904  29.807  27.528  1.00  0.00    -0.200 F 
ATOM    129  C   UNL A   1      37.362  29.150  29.750  1.00  0.00     0.200 A 
ATOM    130  F   UNL A   1      37.872  28.497  31.960  1.00  0.00    -0.200 F 
ATOM    131  F   UNL A   1      36.082  29.353  30.089  1.00  0.00    -0.200 F 
ENDBRANCH 101 121
BRANCH 104 132
ATOM    132  C   UNL A   1      49.413  26.703  26.214  1.00  0.00     0.064 A 
ATOM    133  C   UNL A   1      50.375  26.218  27.111  1.00  0.00     0.173 A 
ATOM    134  C   UNL A   1      49.807  26.908  24.883  1.00  0.00     0.173 A 
ATOM    135  F   UNL A   1      50.052  26.026  28.399  1.00  0.00    -0.203 F 
ATOM    136  C   UNL A   1      51.682  25.967  26.700  1.00  0.00     0.198 A 
ATOM    137  C   UNL A   1      51.106  26.628  24.466  1.00  0.00     0.198 A 
ATOM    138  F   UNL A   1      48.925  27.365  23.983  1.00  0.00    -0.203 F 
ATOM    139  F   UNL A   1      52.592  25.547  27.589  1.00  0.00    -0.200 F 
ATOM    140  C   UNL A   1      52.046  26.166  25.377  1.00  0.00     0.200 A 
ATOM    141  F   UNL A   1      51.450  26.806  23.184  1.00  0.00    -0.200 F 
ATOM    142  F   UNL A   1      53.301  25.919  24.980  1.00  0.00    -0.200 F 
ENDBRANCH 104 132
BRANCH 119 143
ATOM    143  C   UNL A   1      46.204  32.462  28.467  1.00  0.00     0.064 A 
ATOM    144  C   UNL A   1      46.815  32.843  29.670  1.00  0.00     0.173 A 
ATOM    145  C   UNL A   1      46.083  33.428  27.456  1.00  0.00     0.173 A 
ATOM    146  F   UNL A   1      46.939  31.961  30.673  1.00  0.00    -0.203 F 
ATOM    147  C   UNL A   1      47.263  34.148  29.864  1.00  0.00     0.198 A 
ATOM    148  C   UNL A   1      46.559  34.723  27.642  1.00  0.00     0.198 A 
ATOM    149  F   UNL A   1      45.511  33.114  26.284  1.00  0.00    -0.203 F 
ATOM    150  F   UNL A   1      47.797  34.502  31.041  1.00  0.00    -0.200 F 
ATOM    151  C   UNL A   1      47.141  35.084  28.847  1.00  0.00     0.200 A 
ATOM    152  F   UNL A   1      46.454  35.622  26.654  1.00  0.00    -0.200 F 
ATOM    153  F   UNL A   1      47.578  36.336  29.033  1.00  0.00    -0.200 F 
ENDBRANCH 119 143
ENDBRANCH  84  87
ENDBRANCH  74  77
ENDBRANCH  70  73
ENDBRANCH  67  70
ENDBRANCH  64  67
ENDBRANCH  61  64
ENDBRANCH  58  61
ENDBRANCH  55  58
ENDBRANCH   3  55
TORSDOF 24
ENDMDL
MODEL 3
REMARK VINA RESULT:     -10.6      4.036      8.942
REMARK SMILES CCCCCCOC(=O)Nc1cccc(-c2ccc([C@@H](C)C(=O)NCCCCCCNC(=O)c3ccc(-c4c5nc(c(-c6c(F)c(F)c(F)c(F)c6F)c6ccc([nH]6)c(-c6c(F)c(F)c(F)c(F)c6F)c6nc(c(-c7c(F)c(F)c(F)c(F)c7F)c7ccc4[nH]7)C=C6)C=C5)cc3)cc2F)c1
REMARK SMILES IDX 22 1 23 2 24 3 20 5 19 7 16 8 17 9 98 10 18 11 97 13 99 14
REMARK SMILES IDX 15 17 11 18 12 19 100 20 13 21 14 24 10 27 8 28 9 29 7 31
REMARK SMILES IDX 6 32 5 35 4 38 3 41 2 44 1 47 21 51 25 55 26 58 27 61 28 64
REMARK SMILES IDX 29 67 30 70 31 73 32 74 33 76 34 77 35 78 96 79 36 80 95 82
REMARK SMILES IDX 37 84 38 87 39 88 89 89 40 90 94 91 88 92 90 93 41 94 93 95
REMARK SMILES IDX 87 97 86 99 42 101 74 104 54 105 73 106 55 107 58 108 72 109
REMARK SMILES IDX 91 110 56 111 57 113 71 115 92 116 59 119 43 121 44 122
REMARK SMILES IDX 52 123 45 124 46 125 50 126 53 127 47 128 48 129 51 130
REMARK SMILES IDX 49 131 75 132 76 133 84 134 77 135 78 136 82 137 85 138
REMARK SMILES IDX 79 139 80 140 83 141 81 142 60 143 61 144 69 145 62 146
REMARK SMILES IDX 63 147 67 148 70 149 64 150 65 151 68 152 66 153
REMARK H PARENT 24 4 20 6 17 12 18 15 97 16 12 22 100 23 13 25 14 26 10 30
REMARK H PARENT 6 33 6 34 5 36 5 37 4 39 4 40 3 42 3 43 2 45 2 46 1 48 1 49
REMARK H PARENT 1 50 21 52 21 53 21 54 25 56 25 57 26 59 26 60 27 62 27 63
REMARK H PARENT 28 65 28 66 29 68 29 69 30 71 30 72 31 75 35 81 96 83 36 85
REMARK H PARENT 95 86 94 96 88 98 90 100 93 102 87 103 55 112 58 114 91 117
REMARK H PARENT 56 118 92 120
REMARK Flexibility Score: inf
ROOT
ATOM      1  C   UNL A   1      28.345  31.320  23.544  1.00  0.00     0.227 C 
ATOM      2  O   UNL A   1      27.133  31.546  23.646  1.00  0.00    -0.274 OA
ATOM      3  N   UNL A   1      29.129  31.752  24.568  1.00  0.00    -0.356 N 
ATOM      4  H   UNL A   1      28.630  32.129  25.328  1.00  0.00     0.163 HD
ENDROOT
BRANCH   1   5
ATOM      5  C   UNL A   1      28.884  30.573  22.315  1.00  0.00     0.060 C 
ATOM      6  H   UNL A   1      29.819  31.038  22.081  1.00  0.00     0.045 H 
BRANCH   5   7
ATOM      7  C   UNL A   1      29.278  29.132  22.600  1.00  0.00    -0.033 A 
ATOM      8  C   UNL A   1      30.179  26.500  23.257  1.00  0.00     0.018 A 
ATOM      9  C   UNL A   1      28.891  26.936  23.594  1.00  0.00    -0.051 A 
ATOM     10  C   UNL A   1      30.980  27.398  22.531  1.00  0.00     0.131 A 
ATOM     11  C   UNL A   1      28.439  28.215  23.244  1.00  0.00    -0.057 A 
ATOM     12  H   UNL A   1      28.263  26.301  24.111  1.00  0.00     0.063 H 
ATOM     13  C   UNL A   1      30.554  28.692  22.227  1.00  0.00    -0.022 A 
ATOM     14  F   UNL A   1      32.201  27.035  22.108  1.00  0.00    -0.206 F 
ATOM     15  H   UNL A   1      27.469  28.486  23.466  1.00  0.00     0.063 H 
ATOM     16  H   UNL A   1      31.186  29.331  21.721  1.00  0.00     0.066 H 
BRANCH   8  17
ATOM     17  C   UNL A   1      30.672  25.173  23.679  1.00  0.00    -0.013 A 
ATOM     18  C   UNL A   1      31.343  23.651  25.477  1.00  0.00     0.045 A 
ATOM     19  C   UNL A   1      31.712  22.689  24.543  1.00  0.00    -0.038 A 
ATOM     20  C   UNL A   1      30.821  24.874  25.042  1.00  0.00    -0.030 A 
ATOM     21  C   UNL A   1      31.513  22.935  23.186  1.00  0.00    -0.060 A 
ATOM     22  H   UNL A   1      32.129  21.797  24.853  1.00  0.00     0.064 H 
ATOM     23  H   UNL A   1      30.538  25.576  25.744  1.00  0.00     0.065 H 
ATOM     24  C   UNL A   1      31.006  24.167  22.758  1.00  0.00    -0.054 A 
ATOM     25  H   UNL A   1      31.741  22.204  22.493  1.00  0.00     0.062 H 
ATOM     26  H   UNL A   1      30.876  24.339  21.750  1.00  0.00     0.063 H 
BRANCH  18  27
ATOM     27  N   UNL A   1      31.602  23.416  26.834  1.00  0.00    -0.291 N 
ATOM     28  C   UNL A   1      32.827  23.196  27.410  1.00  0.00     0.411 C 
ATOM     29  O   UNL A   1      32.937  22.567  28.448  1.00  0.00    -0.224 OA
ATOM     30  H   UNL A   1      30.823  23.407  27.436  1.00  0.00     0.173 HD
BRANCH  28  31
ATOM     31  O   UNL A   1      33.829  23.856  26.771  1.00  0.00    -0.449 OA
BRANCH  31  32
ATOM     32  C   UNL A   1      34.952  23.100  26.294  1.00  0.00     0.093 C 
ATOM     33  H   UNL A   1      35.735  23.148  27.021  1.00  0.00     0.071 H 
ATOM     34  H   UNL A   1      34.628  22.092  26.139  1.00  0.00     0.071 H 
BRANCH  32  35
ATOM     35  C   UNL A   1      35.482  23.634  24.959  1.00  0.00    -0.019 C 
ATOM     36  H   UNL A   1      34.679  23.615  24.254  1.00  0.00     0.030 H 
ATOM     37  H   UNL A   1      35.854  24.616  25.165  1.00  0.00     0.030 H 
BRANCH  35  38
ATOM     38  C   UNL A   1      36.659  22.858  24.355  1.00  0.00    -0.050 C 
ATOM     39  H   UNL A   1      36.392  22.574  23.359  1.00  0.00     0.027 H 
ATOM     40  H   UNL A   1      37.504  23.512  24.397  1.00  0.00     0.027 H 
BRANCH  38  41
ATOM     41  C   UNL A   1      37.059  21.590  25.122  1.00  0.00    -0.053 C 
ATOM     42  H   UNL A   1      36.426  21.507  25.980  1.00  0.00     0.027 H 
ATOM     43  H   UNL A   1      36.949  20.777  24.434  1.00  0.00     0.027 H 
BRANCH  41  44
ATOM     44  C   UNL A   1      38.510  21.557  25.597  1.00  0.00    -0.056 C 
ATOM     45  H   UNL A   1      38.632  20.731  26.267  1.00  0.00     0.026 H 
ATOM     46  H   UNL A   1      39.133  21.460  24.733  1.00  0.00     0.026 H 
BRANCH  44  47
ATOM     47  C   UNL A   1      38.918  22.831  26.317  1.00  0.00    -0.065 C 
ATOM     48  H   UNL A   1      38.051  23.433  26.497  1.00  0.00     0.023 H 
ATOM     49  H   UNL A   1      39.610  23.377  25.710  1.00  0.00     0.023 H 
ATOM     50  H   UNL A   1      39.380  22.582  27.249  1.00  0.00     0.023 H 
ENDBRANCH  44  47
ENDBRANCH  41  44
ENDBRANCH  38  41
ENDBRANCH  35  38
ENDBRANCH  32  35
ENDBRANCH  31  32
ENDBRANCH  28  31
ENDBRANCH  18  27
ENDBRANCH   8  17
ENDBRANCH   5   7
BRANCH   5  51
ATOM     51  C   UNL A   1      28.069  30.804  21.043  1.00  0.00    -0.049 C 
ATOM     52  H   UNL A   1      28.166  31.826  20.737  1.00  0.00     0.024 H 
ATOM     53  H   UNL A   1      27.040  30.585  21.234  1.00  0.00     0.024 H 
ATOM     54  H   UNL A   1      28.431  30.164  20.266  1.00  0.00     0.024 H 
ENDBRANCH   5  51
ENDBRANCH   1   5
BRANCH   3  55
ATOM     55  C   UNL A   1      30.565  31.756  24.739  1.00  0.00     0.017 C 
ATOM     56  H   UNL A   1      30.897  32.766  24.863  1.00  0.00     0.049 H 
ATOM     57  H   UNL A   1      31.006  31.312  23.871  1.00  0.00     0.049 H 
BRANCH  55  58
ATOM     58  C   UNL A   1      30.991  30.941  25.962  1.00  0.00    -0.036 C 
ATOM     59  H   UNL A   1      30.174  30.916  26.653  1.00  0.00     0.028 H 
ATOM     60  H   UNL A   1      31.856  31.419  26.372  1.00  0.00     0.028 H 
BRANCH  58  61
ATOM     61  C   UNL A   1      31.390  29.499  25.632  1.00  0.00    -0.052 C 
ATOM     62  H   UNL A   1      32.260  29.529  25.010  1.00  0.00     0.027 H 
ATOM     63  H   UNL A   1      30.542  29.055  25.155  1.00  0.00     0.027 H 
BRANCH  61  64
ATOM     64  C   UNL A   1      31.706  28.620  26.850  1.00  0.00    -0.052 C 
ATOM     65  H   UNL A   1      30.909  27.916  26.965  1.00  0.00     0.027 H 
ATOM     66  H   UNL A   1      31.810  29.290  27.678  1.00  0.00     0.027 H 
BRANCH  64  67
ATOM     67  C   UNL A   1      33.020  27.838  26.774  1.00  0.00    -0.036 C 
ATOM     68  H   UNL A   1      32.966  27.176  25.935  1.00  0.00     0.028 H 
ATOM     69  H   UNL A   1      33.122  27.325  27.707  1.00  0.00     0.028 H 
BRANCH  67  70
ATOM     70  C   UNL A   1      34.268  28.704  26.619  1.00  0.00     0.018 C 
ATOM     71  H   UNL A   1      34.448  28.868  25.576  1.00  0.00     0.049 H 
ATOM     72  H   UNL A   1      35.089  28.189  27.073  1.00  0.00     0.049 H 
BRANCH  70  73
ATOM     73  N   UNL A   1      34.117  29.990  27.280  1.00  0.00    -0.352 N 
ATOM     74  C   UNL A   1      34.923  30.602  28.207  1.00  0.00     0.251 C 
ATOM     75  H   UNL A   1      33.316  30.500  27.022  1.00  0.00     0.163 HD
ATOM     76  O   UNL A   1      34.515  31.576  28.832  1.00  0.00    -0.269 OA
BRANCH  74  77
ATOM     77  C   UNL A   1      36.284  30.086  28.464  1.00  0.00     0.039 A 
ATOM     78  C   UNL A   1      37.256  30.217  27.469  1.00  0.00    -0.049 A 
ATOM     79  C   UNL A   1      36.592  29.445  29.668  1.00  0.00    -0.049 A 
ATOM     80  C   UNL A   1      38.555  29.762  27.706  1.00  0.00    -0.053 A 
ATOM     81  H   UNL A   1      37.016  30.649  26.563  1.00  0.00     0.063 H 
ATOM     82  C   UNL A   1      37.903  29.052  29.928  1.00  0.00    -0.053 A 
ATOM     83  H   UNL A   1      35.851  29.264  30.362  1.00  0.00     0.063 H 
ATOM     84  C   UNL A   1      38.897  29.208  28.950  1.00  0.00    -0.014 A 
ATOM     85  H   UNL A   1      39.267  29.834  26.962  1.00  0.00     0.063 H 
ATOM     86  H   UNL A   1      38.144  28.645  30.845  1.00  0.00     0.063 H 
BRANCH  84  87
ATOM     87  C   UNL A   1      40.292  28.800  29.252  1.00  0.00     0.031 A 
ATOM     88  C   UNL A   1      41.208  29.723  30.004  1.00  0.00     0.074 A 
ATOM     89  C   UNL A   1      40.750  27.622  28.786  1.00  0.00     0.049 A 
ATOM     90  N   UNL A   1      42.476  29.573  30.298  1.00  0.00    -0.248 NA
ATOM     91  C   UNL A   1      40.632  30.994  30.467  1.00  0.00    -0.034 C 
ATOM     92  C   UNL A   1      39.971  26.662  28.004  1.00  0.00    -0.036 A 
ATOM     93  N   UNL A   1      41.988  27.038  28.889  1.00  0.00    -0.354 N 
ATOM     94  C   UNL A   1      42.849  30.731  30.966  1.00  0.00     0.074 A 
ATOM     95  C   UNL A   1      41.689  31.596  30.991  1.00  0.00    -0.034 C 
ATOM     96  H   UNL A   1      39.658  31.329  30.401  1.00  0.00     0.065 H 
ATOM     97  C   UNL A   1      40.740  25.601  27.715  1.00  0.00    -0.036 A 
ATOM     98  H   UNL A   1      38.985  26.782  27.720  1.00  0.00     0.065 H 
ATOM     99  C   UNL A   1      42.078  25.822  28.255  1.00  0.00     0.049 A 
ATOM    100  H   UNL A   1      42.741  27.451  29.372  1.00  0.00     0.167 HD
ATOM    101  C   UNL A   1      44.044  31.034  31.527  1.00  0.00     0.037 A 
ATOM    102  H   UNL A   1      41.687  32.557  31.368  1.00  0.00     0.065 H 
ATOM    103  H   UNL A   1      40.435  24.764  27.195  1.00  0.00     0.065 H 
ATOM    104  C   UNL A   1      43.124  24.987  28.117  1.00  0.00     0.037 A 
ATOM    105  C   UNL A   1      45.188  30.160  31.517  1.00  0.00     0.049 A 
ATOM    106  C   UNL A   1      44.443  25.354  28.737  1.00  0.00     0.074 A 
ATOM    107  C   UNL A   1      46.424  30.348  32.112  1.00  0.00    -0.036 A 
ATOM    108  N   UNL A   1      45.239  28.932  30.873  1.00  0.00    -0.354 N 
ATOM    109  N   UNL A   1      44.765  26.422  29.427  1.00  0.00    -0.248 NA
ATOM    110  C   UNL A   1      45.546  24.399  28.562  1.00  0.00    -0.034 C 
ATOM    111  C   UNL A   1      47.238  29.259  31.787  1.00  0.00    -0.036 A 
ATOM    112  H   UNL A   1      46.697  31.155  32.697  1.00  0.00     0.065 H 
ATOM    113  C   UNL A   1      46.493  28.365  31.033  1.00  0.00     0.049 A 
ATOM    114  H   UNL A   1      44.493  28.524  30.376  1.00  0.00     0.167 HD
ATOM    115  C   UNL A   1      46.094  26.256  29.789  1.00  0.00     0.074 A 
ATOM    116  C   UNL A   1      46.515  24.976  29.258  1.00  0.00    -0.034 C 
ATOM    117  H   UNL A   1      45.561  23.511  28.036  1.00  0.00     0.065 H 
ATOM    118  H   UNL A   1      48.225  29.140  32.062  1.00  0.00     0.065 H 
ATOM    119  C   UNL A   1      46.897  27.090  30.496  1.00  0.00     0.037 A 
ATOM    120  H   UNL A   1      47.451  24.566  29.402  1.00  0.00     0.065 H 
BRANCH 101 121
ATOM    121  C   UNL A   1      44.178  32.370  32.201  1.00  0.00     0.064 A 
ATOM    122  C   UNL A   1      43.829  32.553  33.548  1.00  0.00     0.173 A 
ATOM    123  C   UNL A   1      44.699  33.471  31.505  1.00  0.00     0.173 A 
ATOM    124  F   UNL A   1      43.317  31.535  34.257  1.00  0.00    -0.203 F 
ATOM    125  C   UNL A   1      43.970  33.794  34.164  1.00  0.00     0.198 A 
ATOM    126  C   UNL A   1      44.868  34.703  32.132  1.00  0.00     0.198 A 
ATOM    127  F   UNL A   1      45.054  33.350  30.216  1.00  0.00    -0.203 F 
ATOM    128  F   UNL A   1      43.585  33.956  35.437  1.00  0.00    -0.200 F 
ATOM    129  C   UNL A   1      44.496  34.866  33.458  1.00  0.00     0.200 A 
ATOM    130  F   UNL A   1      45.389  35.733  31.452  1.00  0.00    -0.200 F 
ATOM    131  F   UNL A   1      44.639  36.057  34.054  1.00  0.00    -0.200 F 
ENDBRANCH 101 121
BRANCH 104 132
ATOM    132  C   UNL A   1      42.959  23.711  27.372  1.00  0.00     0.064 A 
ATOM    133  C   UNL A   1      42.401  22.584  27.990  1.00  0.00     0.173 A 
ATOM    134  C   UNL A   1      43.357  23.591  26.032  1.00  0.00     0.173 A 
ATOM    135  F   UNL A   1      42.025  22.644  29.277  1.00  0.00    -0.203 F 
ATOM    136  C   UNL A   1      42.265  21.380  27.304  1.00  0.00     0.198 A 
ATOM    137  C   UNL A   1      43.193  22.394  25.338  1.00  0.00     0.198 A 
ATOM    138  F   UNL A   1      43.891  24.641  25.392  1.00  0.00    -0.203 F 
ATOM    139  F   UNL A   1      41.770  20.305  27.934  1.00  0.00    -0.200 F 
ATOM    140  C   UNL A   1      42.655  21.286  25.977  1.00  0.00     0.200 A 
ATOM    141  F   UNL A   1      43.556  22.313  24.051  1.00  0.00    -0.200 F 
ATOM    142  F   UNL A   1      42.518  20.130  25.315  1.00  0.00    -0.200 F 
ENDBRANCH 104 132
BRANCH 119 143
ATOM    143  C   UNL A   1      48.303  26.633  30.755  1.00  0.00     0.064 A 
ATOM    144  C   UNL A   1      48.623  25.822  31.853  1.00  0.00     0.173 A 
ATOM    145  C   UNL A   1      49.337  26.984  29.873  1.00  0.00     0.173 A 
ATOM    146  F   UNL A   1      47.673  25.474  32.734  1.00  0.00    -0.203 F 
ATOM    147  C   UNL A   1      49.932  25.401  32.075  1.00  0.00     0.198 A 
ATOM    148  C   UNL A   1      50.639  26.534  30.080  1.00  0.00     0.198 A 
ATOM    149  F   UNL A   1      49.084  27.753  28.803  1.00  0.00    -0.203 F 
ATOM    150  F   UNL A   1      50.223  24.668  33.159  1.00  0.00    -0.200 F 
ATOM    151  C   UNL A   1      50.936  25.751  31.185  1.00  0.00     0.200 A 
ATOM    152  F   UNL A   1      51.605  26.862  29.212  1.00  0.00    -0.200 F 
ATOM    153  F   UNL A   1      52.193  25.338  31.396  1.00  0.00    -0.200 F 
ENDBRANCH 119 143
ENDBRANCH  84  87
ENDBRANCH  74  77
ENDBRANCH  70  73
ENDBRANCH  67  70
ENDBRANCH  64  67
ENDBRANCH  61  64
ENDBRANCH  58  61
ENDBRANCH  55  58
ENDBRANCH   3  55
TORSDOF 24
ENDMDL
MODEL 4
REMARK VINA RESULT:     -10.6      2.138      3.922
REMARK SMILES CCCCCCOC(=O)Nc1cccc(-c2ccc([C@@H](C)C(=O)NCCCCCCNC(=O)c3ccc(-c4c5nc(c(-c6c(F)c(F)c(F)c(F)c6F)c6ccc([nH]6)c(-c6c(F)c(F)c(F)c(F)c6F)c6nc(c(-c7c(F)c(F)c(F)c(F)c7F)c7ccc4[nH]7)C=C6)C=C5)cc3)cc2F)c1
REMARK SMILES IDX 22 1 23 2 24 3 20 5 19 7 16 8 17 9 98 10 18 11 97 13 99 14
REMARK SMILES IDX 15 17 11 18 12 19 100 20 13 21 14 24 10 27 8 28 9 29 7 31
REMARK SMILES IDX 6 32 5 35 4 38 3 41 2 44 1 47 21 51 25 55 26 58 27 61 28 64
REMARK SMILES IDX 29 67 30 70 31 73 32 74 33 76 34 77 35 78 96 79 36 80 95 82
REMARK SMILES IDX 37 84 38 87 39 88 89 89 40 90 94 91 88 92 90 93 41 94 93 95
REMARK SMILES IDX 87 97 86 99 42 101 74 104 54 105 73 106 55 107 58 108 72 109
REMARK SMILES IDX 91 110 56 111 57 113 71 115 92 116 59 119 43 121 44 122
REMARK SMILES IDX 52 123 45 124 46 125 50 126 53 127 47 128 48 129 51 130
REMARK SMILES IDX 49 131 75 132 76 133 84 134 77 135 78 136 82 137 85 138
REMARK SMILES IDX 79 139 80 140 83 141 81 142 60 143 61 144 69 145 62 146
REMARK SMILES IDX 63 147 67 148 70 149 64 150 65 151 68 152 66 153
REMARK H PARENT 24 4 20 6 17 12 18 15 97 16 12 22 100 23 13 25 14 26 10 30
REMARK H PARENT 6 33 6 34 5 36 5 37 4 39 4 40 3 42 3 43 2 45 2 46 1 48 1 49
REMARK H PARENT 1 50 21 52 21 53 21 54 25 56 25 57 26 59 26 60 27 62 27 63
REMARK H PARENT 28 65 28 66 29 68 29 69 30 71 30 72 31 75 35 81 96 83 36 85
REMARK H PARENT 95 86 94 96 88 98 90 100 93 102 87 103 55 112 58 114 91 117
REMARK H PARENT 56 118 92 120
REMARK Flexibility Score: inf
ROOT
ATOM      1  C   UNL A   1      31.272  25.408  26.167  1.00  0.00     0.227 C 
ATOM      2  O   UNL A   1      30.651  24.579  26.844  1.00  0.00    -0.274 OA
ATOM      3  N   UNL A   1      31.494  26.618  26.748  1.00  0.00    -0.356 N 
ATOM      4  H   UNL A   1      31.205  26.675  27.687  1.00  0.00     0.163 HD
ENDROOT
BRANCH   1   5
ATOM      5  C   UNL A   1      31.759  25.036  24.759  1.00  0.00     0.060 C 
ATOM      6  H   UNL A   1      32.091  25.952  24.317  1.00  0.00     0.045 H 
BRANCH   5   7
ATOM      7  C   UNL A   1      33.016  24.179  24.755  1.00  0.00    -0.033 A 
ATOM      8  C   UNL A   1      35.374  22.576  24.960  1.00  0.00     0.018 A 
ATOM      9  C   UNL A   1      34.217  22.095  24.333  1.00  0.00    -0.051 A 
ATOM     10  C   UNL A   1      35.335  23.901  25.427  1.00  0.00     0.131 A 
ATOM     11  C   UNL A   1      33.072  22.893  24.205  1.00  0.00    -0.057 A 
ATOM     12  H   UNL A   1      34.208  21.134  23.959  1.00  0.00     0.063 H 
ATOM     13  C   UNL A   1      34.181  24.681  25.350  1.00  0.00    -0.022 A 
ATOM     14  F   UNL A   1      36.424  24.463  25.977  1.00  0.00    -0.206 F 
ATOM     15  H   UNL A   1      32.254  22.524  23.696  1.00  0.00     0.063 H 
ATOM     16  H   UNL A   1      34.184  25.637  25.735  1.00  0.00     0.066 H 
BRANCH   8  17
ATOM     17  C   UNL A   1      36.558  21.712  25.145  1.00  0.00    -0.013 A 
ATOM     18  C   UNL A   1      38.919  21.478  25.753  1.00  0.00     0.045 A 
ATOM     19  C   UNL A   1      38.887  20.130  25.415  1.00  0.00    -0.038 A 
ATOM     20  C   UNL A   1      37.761  22.252  25.625  1.00  0.00    -0.030 A 
ATOM     21  C   UNL A   1      37.688  19.553  24.997  1.00  0.00    -0.060 A 
ATOM     22  H   UNL A   1      39.744  19.559  25.474  1.00  0.00     0.064 H 
ATOM     23  H   UNL A   1      37.792  23.249  25.892  1.00  0.00     0.065 H 
ATOM     24  C   UNL A   1      36.539  20.338  24.855  1.00  0.00    -0.054 A 
ATOM     25  H   UNL A   1      37.650  18.542  24.791  1.00  0.00     0.062 H 
ATOM     26  H   UNL A   1      35.662  19.900  24.533  1.00  0.00     0.063 H 
BRANCH  18  27
ATOM     27  N   UNL A   1      40.141  22.060  26.115  1.00  0.00    -0.291 N 
ATOM     28  C   UNL A   1      40.898  21.761  27.219  1.00  0.00     0.411 C 
ATOM     29  O   UNL A   1      41.663  22.576  27.705  1.00  0.00    -0.224 OA
ATOM     30  H   UNL A   1      40.493  22.757  25.515  1.00  0.00     0.173 HD
BRANCH  28  31
ATOM     31  O   UNL A   1      40.784  20.458  27.591  1.00  0.00    -0.449 OA
BRANCH  31  32
ATOM     32  C   UNL A   1      41.933  19.607  27.466  1.00  0.00     0.093 C 
ATOM     33  H   UNL A   1      42.710  19.979  28.101  1.00  0.00     0.071 H 
ATOM     34  H   UNL A   1      41.641  18.617  27.749  1.00  0.00     0.071 H 
BRANCH  32  35
ATOM     35  C   UNL A   1      42.455  19.550  26.027  1.00  0.00    -0.019 C 
ATOM     36  H   UNL A   1      41.618  19.408  25.378  1.00  0.00     0.030 H 
ATOM     37  H   UNL A   1      42.974  20.472  25.868  1.00  0.00     0.030 H 
BRANCH  35  38
ATOM     38  C   UNL A   1      43.473  18.441  25.734  1.00  0.00    -0.050 C 
ATOM     39  H   UNL A   1      43.918  18.147  26.661  1.00  0.00     0.027 H 
ATOM     40  H   UNL A   1      42.929  17.653  25.257  1.00  0.00     0.027 H 
BRANCH  38  41
ATOM     41  C   UNL A   1      44.598  18.834  24.768  1.00  0.00    -0.053 C 
ATOM     42  H   UNL A   1      45.052  17.937  24.404  1.00  0.00     0.027 H 
ATOM     43  H   UNL A   1      44.141  19.420  23.998  1.00  0.00     0.027 H 
BRANCH  41  44
ATOM     44  C   UNL A   1      45.694  19.706  25.377  1.00  0.00    -0.056 C 
ATOM     45  H   UNL A   1      45.540  19.760  26.435  1.00  0.00     0.026 H 
ATOM     46  H   UNL A   1      46.636  19.258  25.138  1.00  0.00     0.026 H 
BRANCH  44  47
ATOM     47  C   UNL A   1      45.700  21.117  24.813  1.00  0.00    -0.065 C 
ATOM     48  H   UNL A   1      45.038  21.734  25.386  1.00  0.00     0.023 H 
ATOM     49  H   UNL A   1      45.373  21.095  23.795  1.00  0.00     0.023 H 
ATOM     50  H   UNL A   1      46.691  21.516  24.862  1.00  0.00     0.023 H 
ENDBRANCH  44  47
ENDBRANCH  41  44
ENDBRANCH  38  41
ENDBRANCH  35  38
ENDBRANCH  32  35
ENDBRANCH  31  32
ENDBRANCH  28  31
ENDBRANCH  18  27
ENDBRANCH   8  17
ENDBRANCH   5   7
BRANCH   5  51
ATOM     51  C   UNL A   1      30.644  24.592  23.814  1.00  0.00    -0.049 C 
ATOM     52  H   UNL A   1      30.014  25.427  23.588  1.00  0.00     0.024 H 
ATOM     53  H   UNL A   1      30.064  23.825  24.283  1.00  0.00     0.024 H 
ATOM     54  H   UNL A   1      31.072  24.213  22.910  1.00  0.00     0.024 H 
ENDBRANCH   5  51
ENDBRANCH   1   5
BRANCH   3  55
ATOM     55  C   UNL A   1      32.078  27.836  26.230  1.00  0.00     0.017 C 
ATOM     56  H   UNL A   1      31.326  28.384  25.701  1.00  0.00     0.049 H 
ATOM     57  H   UNL A   1      32.884  27.569  25.580  1.00  0.00     0.049 H 
BRANCH  55  58
ATOM     58  C   UNL A   1      32.637  28.715  27.351  1.00  0.00    -0.036 C 
ATOM     59  H   UNL A   1      32.848  28.093  28.195  1.00  0.00     0.028 H 
ATOM     60  H   UNL A   1      31.897  29.456  27.566  1.00  0.00     0.028 H 
BRANCH  58  61
ATOM     61  C   UNL A   1      33.919  29.460  26.967  1.00  0.00    -0.052 C 
ATOM     62  H   UNL A   1      33.919  29.597  25.905  1.00  0.00     0.027 H 
ATOM     63  H   UNL A   1      34.731  28.858  27.316  1.00  0.00     0.027 H 
BRANCH  61  64
ATOM     64  C   UNL A   1      34.091  30.836  27.625  1.00  0.00    -0.052 C 
ATOM     65  H   UNL A   1      35.139  31.034  27.708  1.00  0.00     0.027 H 
ATOM     66  H   UNL A   1      33.588  30.775  28.568  1.00  0.00     0.027 H 
BRANCH  64  67
ATOM     67  C   UNL A   1      33.446  32.007  26.878  1.00  0.00    -0.036 C 
ATOM     68  H   UNL A   1      33.226  31.686  25.882  1.00  0.00     0.028 H 
ATOM     69  H   UNL A   1      34.148  32.813  26.914  1.00  0.00     0.028 H 
BRANCH  67  70
ATOM     70  C   UNL A   1      32.156  32.529  27.506  1.00  0.00     0.018 C 
ATOM     71  H   UNL A   1      32.046  32.099  28.480  1.00  0.00     0.049 H 
ATOM     72  H   UNL A   1      31.341  32.252  26.871  1.00  0.00     0.049 H 
BRANCH  70  73
ATOM     73  N   UNL A   1      32.163  33.978  27.627  1.00  0.00    -0.352 N 
ATOM     74  C   UNL A   1      32.906  34.788  28.448  1.00  0.00     0.251 C 
ATOM     75  H   UNL A   1      31.539  34.450  27.029  1.00  0.00     0.163 HD
ATOM     76  O   UNL A   1      32.606  35.970  28.584  1.00  0.00    -0.269 OA
BRANCH  74  77
ATOM     77  C   UNL A   1      34.067  34.239  29.180  1.00  0.00     0.039 A 
ATOM     78  C   UNL A   1      33.844  33.487  30.335  1.00  0.00    -0.049 A 
ATOM     79  C   UNL A   1      35.372  34.493  28.747  1.00  0.00    -0.049 A 
ATOM     80  C   UNL A   1      34.927  32.935  31.023  1.00  0.00    -0.053 A 
ATOM     81  H   UNL A   1      32.882  33.338  30.679  1.00  0.00     0.063 H 
ATOM     82  C   UNL A   1      36.447  33.889  29.395  1.00  0.00    -0.053 A 
ATOM     83  H   UNL A   1      35.539  35.127  27.951  1.00  0.00     0.063 H 
ATOM     84  C   UNL A   1      36.234  33.103  30.538  1.00  0.00    -0.014 A 
ATOM     85  H   UNL A   1      34.766  32.402  31.892  1.00  0.00     0.063 H 
ATOM     86  H   UNL A   1      37.404  34.019  29.032  1.00  0.00     0.063 H 
BRANCH  84  87
ATOM     87  C   UNL A   1      37.391  32.452  31.204  1.00  0.00     0.031 A 
ATOM     88  C   UNL A   1      38.093  31.296  30.550  1.00  0.00     0.074 A 
ATOM     89  C   UNL A   1      37.761  32.862  32.432  1.00  0.00     0.049 A 
ATOM     90  N   UNL A   1      39.071  30.555  31.008  1.00  0.00    -0.248 NA
ATOM     91  C   UNL A   1      37.617  30.903  29.215  1.00  0.00    -0.034 C 
ATOM     92  C   UNL A   1      37.128  33.943  33.189  1.00  0.00    -0.036 A 
ATOM     93  N   UNL A   1      38.752  32.410  33.267  1.00  0.00    -0.354 N 
ATOM     94  C   UNL A   1      39.318  29.606  30.026  1.00  0.00     0.074 A 
ATOM     95  C   UNL A   1      38.355  29.831  28.969  1.00  0.00    -0.034 C 
ATOM     96  H   UNL A   1      36.897  31.348  28.624  1.00  0.00     0.065 H 
ATOM     97  C   UNL A   1      37.756  34.083  34.366  1.00  0.00    -0.036 A 
ATOM     98  H   UNL A   1      36.325  34.507  32.867  1.00  0.00     0.065 H 
ATOM     99  C   UNL A   1      38.810  33.079  34.466  1.00  0.00     0.049 A 
ATOM    100  H   UNL A   1      39.364  31.676  33.029  1.00  0.00     0.167 HD
ATOM    101  C   UNL A   1      40.276  28.648  29.999  1.00  0.00     0.037 A 
ATOM    102  H   UNL A   1      38.256  29.233  28.133  1.00  0.00     0.065 H 
ATOM    103  H   UNL A   1      37.530  34.788  35.085  1.00  0.00     0.065 H 
ATOM    104  C   UNL A   1      39.615  32.894  35.529  1.00  0.00     0.037 A 
ATOM    105  C   UNL A   1      41.245  28.443  31.045  1.00  0.00     0.049 A 
ATOM    106  C   UNL A   1      40.660  31.815  35.479  1.00  0.00     0.074 A 
ATOM    107  C   UNL A   1      42.295  27.542  31.083  1.00  0.00    -0.036 A 
ATOM    108  N   UNL A   1      41.278  29.146  32.239  1.00  0.00    -0.354 N 
ATOM    109  N   UNL A   1      40.930  30.968  34.515  1.00  0.00    -0.248 NA
ATOM    110  C   UNL A   1      41.516  31.667  36.664  1.00  0.00    -0.034 C 
ATOM    111  C   UNL A   1      42.933  27.665  32.321  1.00  0.00    -0.036 A 
ATOM    112  H   UNL A   1      42.562  26.891  30.327  1.00  0.00     0.065 H 
ATOM    113  C   UNL A   1      42.313  28.679  33.034  1.00  0.00     0.049 A 
ATOM    114  H   UNL A   1      40.658  29.869  32.487  1.00  0.00     0.167 HD
ATOM    115  C   UNL A   1      41.999  30.206  34.965  1.00  0.00     0.074 A 
ATOM    116  C   UNL A   1      42.341  30.702  36.282  1.00  0.00    -0.034 C 
ATOM    117  H   UNL A   1      41.484  32.180  37.559  1.00  0.00     0.065 H 
ATOM    118  H   UNL A   1      43.729  27.097  32.649  1.00  0.00     0.065 H 
ATOM    119  C   UNL A   1      42.639  29.184  34.344  1.00  0.00     0.037 A 
ATOM    120  H   UNL A   1      43.127  30.350  36.850  1.00  0.00     0.065 H 
BRANCH 101 121
ATOM    121  C   UNL A   1      40.325  27.746  28.799  1.00  0.00     0.064 A 
ATOM    122  C   UNL A   1      41.077  28.076  27.660  1.00  0.00     0.173 A 
ATOM    123  C   UNL A   1      39.647  26.519  28.801  1.00  0.00     0.173 A 
ATOM    124  F   UNL A   1      41.737  29.243  27.602  1.00  0.00    -0.203 F 
ATOM    125  C   UNL A   1      41.124  27.224  26.560  1.00  0.00     0.198 A 
ATOM    126  C   UNL A   1      39.720  25.655  27.712  1.00  0.00     0.198 A 
ATOM    127  F   UNL A   1      38.918  26.150  29.867  1.00  0.00    -0.203 F 
ATOM    128  F   UNL A   1      41.809  27.584  25.466  1.00  0.00    -0.200 F 
ATOM    129  C   UNL A   1      40.452  26.012  26.589  1.00  0.00     0.200 A 
ATOM    130  F   UNL A   1      39.082  24.478  27.748  1.00  0.00    -0.200 F 
ATOM    131  F   UNL A   1      40.505  25.190  25.532  1.00  0.00    -0.200 F 
ENDBRANCH 101 121
BRANCH 104 132
ATOM    132  C   UNL A   1      39.472  33.764  36.726  1.00  0.00     0.064 A 
ATOM    133  C   UNL A   1      40.131  35.000  36.799  1.00  0.00     0.173 A 
ATOM    134  C   UNL A   1      38.681  33.381  37.818  1.00  0.00     0.173 A 
ATOM    135  F   UNL A   1      40.916  35.400  35.787  1.00  0.00    -0.203 F 
ATOM    136  C   UNL A   1      40.020  35.810  37.926  1.00  0.00     0.198 A 
ATOM    137  C   UNL A   1      38.547  34.206  38.933  1.00  0.00     0.198 A 
ATOM    138  F   UNL A   1      38.025  32.212  37.797  1.00  0.00    -0.203 F 
ATOM    139  F   UNL A   1      40.697  36.964  37.987  1.00  0.00    -0.200 F 
ATOM    140  C   UNL A   1      39.223  35.416  38.991  1.00  0.00     0.200 A 
ATOM    141  F   UNL A   1      37.763  33.829  39.952  1.00  0.00    -0.200 F 
ATOM    142  F   UNL A   1      39.111  36.197  40.072  1.00  0.00    -0.200 F 
ENDBRANCH 104 132
BRANCH 119 143
ATOM    143  C   UNL A   1      43.788  28.551  35.074  1.00  0.00     0.064 A 
ATOM    144  C   UNL A   1      43.604  27.449  35.922  1.00  0.00     0.173 A 
ATOM    145  C   UNL A   1      45.095  29.031  34.896  1.00  0.00     0.173 A 
ATOM    146  F   UNL A   1      42.372  26.963  36.138  1.00  0.00    -0.203 F 
ATOM    147  C   UNL A   1      44.681  26.868  36.586  1.00  0.00     0.198 A 
ATOM    148  C   UNL A   1      46.174  28.428  35.537  1.00  0.00     0.198 A 
ATOM    149  F   UNL A   1      45.328  30.079  34.091  1.00  0.00    -0.203 F 
ATOM    150  F   UNL A   1      44.474  25.848  37.430  1.00  0.00    -0.200 F 
ATOM    151  C   UNL A   1      45.966  27.353  36.387  1.00  0.00     0.200 A 
ATOM    152  F   UNL A   1      47.415  28.890  35.333  1.00  0.00    -0.200 F 
ATOM    153  F   UNL A   1      47.001  26.789  37.021  1.00  0.00    -0.200 F 
ENDBRANCH 119 143
ENDBRANCH  84  87
ENDBRANCH  74  77
ENDBRANCH  70  73
ENDBRANCH  67  70
ENDBRANCH  64  67
ENDBRANCH  61  64
ENDBRANCH  58  61
ENDBRANCH  55  58
ENDBRANCH   3  55
TORSDOF 24
ENDMDL
MODEL 5
REMARK VINA RESULT:     -10.6      4.800     10.676
REMARK SMILES CCCCCCOC(=O)Nc1cccc(-c2ccc([C@@H](C)C(=O)NCCCCCCNC(=O)c3ccc(-c4c5nc(c(-c6c(F)c(F)c(F)c(F)c6F)c6ccc([nH]6)c(-c6c(F)c(F)c(F)c(F)c6F)c6nc(c(-c7c(F)c(F)c(F)c(F)c7F)c7ccc4[nH]7)C=C6)C=C5)cc3)cc2F)c1
REMARK SMILES IDX 22 1 23 2 24 3 20 5 19 7 16 8 17 9 98 10 18 11 97 13 99 14
REMARK SMILES IDX 15 17 11 18 12 19 100 20 13 21 14 24 10 27 8 28 9 29 7 31
REMARK SMILES IDX 6 32 5 35 4 38 3 41 2 44 1 47 21 51 25 55 26 58 27 61 28 64
REMARK SMILES IDX 29 67 30 70 31 73 32 74 33 76 34 77 35 78 96 79 36 80 95 82
REMARK SMILES IDX 37 84 38 87 39 88 89 89 40 90 94 91 88 92 90 93 41 94 93 95
REMARK SMILES IDX 87 97 86 99 42 101 74 104 54 105 73 106 55 107 58 108 72 109
REMARK SMILES IDX 91 110 56 111 57 113 71 115 92 116 59 119 43 121 44 122
REMARK SMILES IDX 52 123 45 124 46 125 50 126 53 127 47 128 48 129 51 130
REMARK SMILES IDX 49 131 75 132 76 133 84 134 77 135 78 136 82 137 85 138
REMARK SMILES IDX 79 139 80 140 83 141 81 142 60 143 61 144 69 145 62 146
REMARK SMILES IDX 63 147 67 148 70 149 64 150 65 151 68 152 66 153
REMARK H PARENT 24 4 20 6 17 12 18 15 97 16 12 22 100 23 13 25 14 26 10 30
REMARK H PARENT 6 33 6 34 5 36 5 37 4 39 4 40 3 42 3 43 2 45 2 46 1 48 1 49
REMARK H PARENT 1 50 21 52 21 53 21 54 25 56 25 57 26 59 26 60 27 62 27 63
REMARK H PARENT 28 65 28 66 29 68 29 69 30 71 30 72 31 75 35 81 96 83 36 85
REMARK H PARENT 95 86 94 96 88 98 90 100 93 102 87 103 55 112 58 114 91 117
REMARK H PARENT 56 118 92 120
REMARK Flexibility Score: inf
ROOT
ATOM      1  C   UNL A   1      41.275  24.550  26.951  1.00  0.00     0.227 C 
ATOM      2  O   UNL A   1      40.176  24.165  27.368  1.00  0.00    -0.274 OA
ATOM      3  N   UNL A   1      41.663  24.074  25.738  1.00  0.00    -0.356 N 
ATOM      4  H   UNL A   1      40.980  23.533  25.279  1.00  0.00     0.163 HD
ENDROOT
BRANCH   1   5
ATOM      5  C   UNL A   1      42.112  25.528  27.790  1.00  0.00     0.060 C 
ATOM      6  H   UNL A   1      42.873  25.894  27.133  1.00  0.00     0.045 H 
BRANCH   5   7
ATOM      7  C   UNL A   1      41.362  26.791  28.184  1.00  0.00    -0.033 A 
ATOM      8  C   UNL A   1      40.135  29.236  29.012  1.00  0.00     0.018 A 
ATOM      9  C   UNL A   1      40.195  28.871  27.661  1.00  0.00    -0.051 A 
ATOM     10  C   UNL A   1      40.652  28.315  29.939  1.00  0.00     0.131 A 
ATOM     11  C   UNL A   1      40.769  27.657  27.258  1.00  0.00    -0.057 A 
ATOM     12  H   UNL A   1      39.809  29.509  26.948  1.00  0.00     0.063 H 
ATOM     13  C   UNL A   1      41.273  27.131  29.540  1.00  0.00    -0.022 A 
ATOM     14  F   UNL A   1      40.571  28.555  31.258  1.00  0.00    -0.206 F 
ATOM     15  H   UNL A   1      40.754  27.398  26.260  1.00  0.00     0.063 H 
ATOM     16  H   UNL A   1      41.670  26.498  30.251  1.00  0.00     0.066 H 
BRANCH   8  17
ATOM     17  C   UNL A   1      39.582  30.542  29.427  1.00  0.00    -0.013 A 
ATOM     18  C   UNL A   1      37.761  32.178  29.345  1.00  0.00     0.045 A 
ATOM     19  C   UNL A   1      38.513  33.073  30.098  1.00  0.00    -0.038 A 
ATOM     20  C   UNL A   1      38.293  30.924  29.024  1.00  0.00    -0.030 A 
ATOM     21  C   UNL A   1      39.770  32.693  30.565  1.00  0.00    -0.060 A 
ATOM     22  H   UNL A   1      38.143  34.012  30.310  1.00  0.00     0.064 H 
ATOM     23  H   UNL A   1      37.721  30.262  28.476  1.00  0.00     0.065 H 
ATOM     24  C   UNL A   1      40.302  31.445  30.226  1.00  0.00    -0.054 A 
ATOM     25  H   UNL A   1      40.311  33.337  31.164  1.00  0.00     0.062 H 
ATOM     26  H   UNL A   1      41.238  31.182  30.569  1.00  0.00     0.063 H 
BRANCH  18  27
ATOM     27  N   UNL A   1      36.525  32.592  28.831  1.00  0.00    -0.291 N 
ATOM     28  C   UNL A   1      35.284  32.196  29.258  1.00  0.00     0.411 C 
ATOM     29  O   UNL A   1      34.318  32.218  28.514  1.00  0.00    -0.224 OA
ATOM     30  H   UNL A   1      36.550  33.234  28.085  1.00  0.00     0.173 HD
BRANCH  28  31
ATOM     31  O   UNL A   1      35.254  31.919  30.589  1.00  0.00    -0.449 OA
BRANCH  31  32
ATOM     32  C   UNL A   1      34.971  32.987  31.505  1.00  0.00     0.093 C 
ATOM     33  H   UNL A   1      35.507  33.860  31.194  1.00  0.00     0.071 H 
ATOM     34  H   UNL A   1      33.915  33.157  31.495  1.00  0.00     0.071 H 
BRANCH  32  35
ATOM     35  C   UNL A   1      35.379  32.640  32.940  1.00  0.00    -0.019 C 
ATOM     36  H   UNL A   1      35.467  33.554  33.487  1.00  0.00     0.030 H 
ATOM     37  H   UNL A   1      34.617  31.986  33.310  1.00  0.00     0.030 H 
BRANCH  35  38
ATOM     38  C   UNL A   1      36.699  31.872  33.087  1.00  0.00    -0.050 C 
ATOM     39  H   UNL A   1      37.463  32.431  32.590  1.00  0.00     0.027 H 
ATOM     40  H   UNL A   1      36.868  31.764  34.137  1.00  0.00     0.027 H 
BRANCH  38  41
ATOM     41  C   UNL A   1      36.689  30.452  32.504  1.00  0.00    -0.053 C 
ATOM     42  H   UNL A   1      35.844  29.935  32.906  1.00  0.00     0.027 H 
ATOM     43  H   UNL A   1      36.651  30.566  31.441  1.00  0.00     0.027 H 
BRANCH  41  44
ATOM     44  C   UNL A   1      37.938  29.626  32.804  1.00  0.00    -0.056 C 
ATOM     45  H   UNL A   1      37.659  28.793  33.414  1.00  0.00     0.026 H 
ATOM     46  H   UNL A   1      38.350  29.309  31.868  1.00  0.00     0.026 H 
BRANCH  44  47
ATOM     47  C   UNL A   1      39.007  30.425  33.530  1.00  0.00    -0.065 C 
ATOM     48  H   UNL A   1      38.932  30.249  34.583  1.00  0.00     0.023 H 
ATOM     49  H   UNL A   1      38.869  31.468  33.333  1.00  0.00     0.023 H 
ATOM     50  H   UNL A   1      39.974  30.122  33.185  1.00  0.00     0.023 H 
ENDBRANCH  44  47
ENDBRANCH  41  44
ENDBRANCH  38  41
ENDBRANCH  35  38
ENDBRANCH  32  35
ENDBRANCH  31  32
ENDBRANCH  28  31
ENDBRANCH  18  27
ENDBRANCH   8  17
ENDBRANCH   5   7
BRANCH   5  51
ATOM     51  C   UNL A   1      42.922  24.857  28.899  1.00  0.00    -0.049 C 
ATOM     52  H   UNL A   1      42.807  23.795  28.832  1.00  0.00     0.024 H 
ATOM     53  H   UNL A   1      42.570  25.194  29.851  1.00  0.00     0.024 H 
ATOM     54  H   UNL A   1      43.955  25.112  28.791  1.00  0.00     0.024 H 
ENDBRANCH   5  51
ENDBRANCH   1   5
BRANCH   3  55
ATOM     55  C   UNL A   1      42.899  24.221  25.002  1.00  0.00     0.017 C 
ATOM     56  H   UNL A   1      43.554  24.867  25.548  1.00  0.00     0.049 H 
ATOM     57  H   UNL A   1      42.669  24.632  24.041  1.00  0.00     0.049 H 
BRANCH  55  58
ATOM     58  C   UNL A   1      43.595  22.874  24.791  1.00  0.00    -0.036 C 
ATOM     59  H   UNL A   1      44.367  23.003  24.061  1.00  0.00     0.028 H 
ATOM     60  H   UNL A   1      42.845  22.181  24.472  1.00  0.00     0.028 H 
BRANCH  58  61
ATOM     61  C   UNL A   1      44.224  22.300  26.064  1.00  0.00    -0.052 C 
ATOM     62  H   UNL A   1      44.579  21.315  25.844  1.00  0.00     0.027 H 
ATOM     63  H   UNL A   1      43.459  22.318  26.811  1.00  0.00     0.027 H 
BRANCH  61  64
ATOM     64  C   UNL A   1      45.396  23.114  26.631  1.00  0.00    -0.052 C 
ATOM     65  H   UNL A   1      45.890  22.513  27.365  1.00  0.00     0.027 H 
ATOM     66  H   UNL A   1      44.966  24.011  27.026  1.00  0.00     0.027 H 
BRANCH  64  67
ATOM     67  C   UNL A   1      46.441  23.563  25.606  1.00  0.00    -0.036 C 
ATOM     68  H   UNL A   1      45.942  23.739  24.676  1.00  0.00     0.028 H 
ATOM     69  H   UNL A   1      47.167  22.780  25.550  1.00  0.00     0.028 H 
BRANCH  67  70
ATOM     70  C   UNL A   1      47.201  24.831  25.986  1.00  0.00     0.018 C 
ATOM     71  H   UNL A   1      48.160  24.556  26.373  1.00  0.00     0.049 H 
ATOM     72  H   UNL A   1      46.627  25.356  26.720  1.00  0.00     0.049 H 
BRANCH  70  73
ATOM     73  N   UNL A   1      47.388  25.712  24.844  1.00  0.00    -0.352 N 
ATOM     74  C   UNL A   1      46.909  26.978  24.622  1.00  0.00     0.251 C 
ATOM     75  H   UNL A   1      47.943  25.343  24.119  1.00  0.00     0.163 HD
ATOM     76  O   UNL A   1      46.969  27.472  23.501  1.00  0.00    -0.269 OA
BRANCH  74  77
ATOM     77  C   UNL A   1      46.312  27.750  25.731  1.00  0.00     0.039 A 
ATOM     78  C   UNL A   1      44.923  27.753  25.883  1.00  0.00    -0.049 A 
ATOM     79  C   UNL A   1      47.114  28.496  26.600  1.00  0.00    -0.049 A 
ATOM     80  C   UNL A   1      44.343  28.453  26.943  1.00  0.00    -0.053 A 
ATOM     81  H   UNL A   1      44.328  27.239  25.214  1.00  0.00     0.063 H 
ATOM     82  C   UNL A   1      46.541  29.139  27.694  1.00  0.00    -0.053 A 
ATOM     83  H   UNL A   1      48.130  28.571  26.430  1.00  0.00     0.063 H 
ATOM     84  C   UNL A   1      45.150  29.123  27.877  1.00  0.00    -0.014 A 
ATOM     85  H   UNL A   1      43.315  28.478  27.040  1.00  0.00     0.063 H 
ATOM     86  H   UNL A   1      47.143  29.630  28.374  1.00  0.00     0.063 H 
BRANCH  84  87
ATOM     87  C   UNL A   1      44.558  29.798  29.059  1.00  0.00     0.031 A 
ATOM     88  C   UNL A   1      44.278  31.274  29.031  1.00  0.00     0.074 A 
ATOM     89  C   UNL A   1      44.339  29.089  30.183  1.00  0.00     0.049 A 
ATOM     90  N   UNL A   1      43.834  32.050  29.988  1.00  0.00    -0.248 NA
ATOM     91  C   UNL A   1      44.558  31.976  27.770  1.00  0.00    -0.034 C 
ATOM     92  C   UNL A   1      44.615  27.661  30.347  1.00  0.00    -0.036 A 
ATOM     93  N   UNL A   1      43.848  29.474  31.405  1.00  0.00    -0.354 N 
ATOM     94  C   UNL A   1      43.792  33.328  29.448  1.00  0.00     0.074 A 
ATOM     95  C   UNL A   1      44.304  33.234  28.098  1.00  0.00    -0.034 C 
ATOM     96  H   UNL A   1      44.870  31.589  26.865  1.00  0.00     0.065 H 
ATOM     97  C   UNL A   1      44.271  27.286  31.589  1.00  0.00    -0.036 A 
ATOM     98  H   UNL A   1      45.010  27.041  29.622  1.00  0.00     0.065 H 
ATOM     99  C   UNL A   1      43.789  28.453  32.322  1.00  0.00     0.049 A 
ATOM    100  H   UNL A   1      43.564  30.396  31.605  1.00  0.00     0.167 HD
ATOM    101  C   UNL A   1      43.346  34.473  30.020  1.00  0.00     0.037 A 
ATOM    102  H   UNL A   1      44.452  34.042  27.472  1.00  0.00     0.065 H 
ATOM    103  H   UNL A   1      44.336  26.327  31.966  1.00  0.00     0.065 H 
ATOM    104  C   UNL A   1      43.401  28.460  33.611  1.00  0.00     0.037 A 
ATOM    105  C   UNL A   1      42.818  34.556  31.358  1.00  0.00     0.049 A 
ATOM    106  C   UNL A   1      42.923  29.746  34.226  1.00  0.00     0.074 A 
ATOM    107  C   UNL A   1      42.282  35.656  32.007  1.00  0.00    -0.036 A 
ATOM    108  N   UNL A   1      42.765  33.499  32.253  1.00  0.00    -0.354 N 
ATOM    109  N   UNL A   1      42.822  30.936  33.684  1.00  0.00    -0.248 NA
ATOM    110  C   UNL A   1      42.502  29.691  35.632  1.00  0.00    -0.034 C 
ATOM    111  C   UNL A   1      41.951  35.275  33.311  1.00  0.00    -0.036 A 
ATOM    112  H   UNL A   1      42.148  36.594  31.597  1.00  0.00     0.065 H 
ATOM    113  C   UNL A   1      42.231  33.926  33.459  1.00  0.00     0.049 A 
ATOM    114  H   UNL A   1      43.062  32.580  32.062  1.00  0.00     0.167 HD
ATOM    115  C   UNL A   1      42.305  31.762  34.671  1.00  0.00     0.074 A 
ATOM    116  C   UNL A   1      42.095  30.935  35.841  1.00  0.00    -0.034 C 
ATOM    117  H   UNL A   1      42.518  28.893  36.286  1.00  0.00     0.065 H 
ATOM    118  H   UNL A   1      41.564  35.894  34.040  1.00  0.00     0.065 H 
ATOM    119  C   UNL A   1      42.030  33.089  34.615  1.00  0.00     0.037 A 
ATOM    120  H   UNL A   1      41.681  31.271  36.724  1.00  0.00     0.065 H 
BRANCH 101 121
ATOM    121  C   UNL A   1      43.409  35.731  29.203  1.00  0.00     0.064 A 
ATOM    122  C   UNL A   1      44.561  36.532  29.170  1.00  0.00     0.173 A 
ATOM    123  C   UNL A   1      42.320  36.120  28.409  1.00  0.00     0.173 A 
ATOM    124  F   UNL A   1      45.627  36.210  29.919  1.00  0.00    -0.203 F 
ATOM    125  C   UNL A   1      44.610  37.689  28.398  1.00  0.00     0.198 A 
ATOM    126  C   UNL A   1      42.382  37.261  27.613  1.00  0.00     0.198 A 
ATOM    127  F   UNL A   1      41.195  35.388  28.397  1.00  0.00    -0.203 F 
ATOM    128  F   UNL A   1      45.703  38.463  28.422  1.00  0.00    -0.200 F 
ATOM    129  C   UNL A   1      43.523  38.049  27.615  1.00  0.00     0.200 A 
ATOM    130  F   UNL A   1      41.337  37.600  26.846  1.00  0.00    -0.200 F 
ATOM    131  F   UNL A   1      43.575  39.159  26.865  1.00  0.00    -0.200 F 
ENDBRANCH 101 121
BRANCH 104 132
ATOM    132  C   UNL A   1      43.432  27.201  34.400  1.00  0.00     0.064 A 
ATOM    133  C   UNL A   1      42.265  26.452  34.606  1.00  0.00     0.173 A 
ATOM    134  C   UNL A   1      44.622  26.723  34.967  1.00  0.00     0.173 A 
ATOM    135  F   UNL A   1      41.097  26.880  34.102  1.00  0.00    -0.203 F 
ATOM    136  C   UNL A   1      42.283  25.284  35.364  1.00  0.00     0.198 A 
ATOM    137  C   UNL A   1      44.645  25.538  35.699  1.00  0.00     0.198 A 
ATOM    138  F   UNL A   1      45.768  27.398  34.795  1.00  0.00    -0.203 F 
ATOM    139  F   UNL A   1      41.144  24.612  35.583  1.00  0.00    -0.200 F 
ATOM    140  C   UNL A   1      43.474  24.824  35.905  1.00  0.00     0.200 A 
ATOM    141  F   UNL A   1      45.801  25.089  36.207  1.00  0.00    -0.200 F 
ATOM    142  F   UNL A   1      43.493  23.697  36.629  1.00  0.00    -0.200 F 
ENDBRANCH 104 132
BRANCH 119 143
ATOM    143  C   UNL A   1      41.452  33.722  35.847  1.00  0.00     0.064 A 
ATOM    144  C   UNL A   1      40.070  33.734  36.089  1.00  0.00     0.173 A 
ATOM    145  C   UNL A   1      42.293  34.294  36.815  1.00  0.00     0.173 A 
ATOM    146  F   UNL A   1      39.223  33.216  35.187  1.00  0.00    -0.203 F 
ATOM    147  C   UNL A   1      39.550  34.319  37.241  1.00  0.00     0.198 A 
ATOM    148  C   UNL A   1      41.771  34.849  37.980  1.00  0.00     0.198 A 
ATOM    149  F   UNL A   1      43.623  34.303  36.635  1.00  0.00    -0.203 F 
ATOM    150  F   UNL A   1      38.223  34.364  37.426  1.00  0.00    -0.200 F 
ATOM    151  C   UNL A   1      40.401  34.869  38.188  1.00  0.00     0.200 A 
ATOM    152  F   UNL A   1      42.596  35.367  38.900  1.00  0.00    -0.200 F 
ATOM    153  F   UNL A   1      39.899  35.424  39.298  1.00  0.00    -0.200 F 
ENDBRANCH 119 143
ENDBRANCH  84  87
ENDBRANCH  74  77
ENDBRANCH  70  73
ENDBRANCH  67  70
ENDBRANCH  64  67
ENDBRANCH  61  64
ENDBRANCH  58  61
ENDBRANCH  55  58
ENDBRANCH   3  55
TORSDOF 24
ENDMDL
MODEL 6
REMARK VINA RESULT:     -10.5      3.021      4.828
REMARK SMILES CCCCCCOC(=O)Nc1cccc(-c2ccc([C@@H](C)C(=O)NCCCCCCNC(=O)c3ccc(-c4c5nc(c(-c6c(F)c(F)c(F)c(F)c6F)c6ccc([nH]6)c(-c6c(F)c(F)c(F)c(F)c6F)c6nc(c(-c7c(F)c(F)c(F)c(F)c7F)c7ccc4[nH]7)C=C6)C=C5)cc3)cc2F)c1
REMARK SMILES IDX 22 1 23 2 24 3 20 5 19 7 16 8 17 9 98 10 18 11 97 13 99 14
REMARK SMILES IDX 15 17 11 18 12 19 100 20 13 21 14 24 10 27 8 28 9 29 7 31
REMARK SMILES IDX 6 32 5 35 4 38 3 41 2 44 1 47 21 51 25 55 26 58 27 61 28 64
REMARK SMILES IDX 29 67 30 70 31 73 32 74 33 76 34 77 35 78 96 79 36 80 95 82
REMARK SMILES IDX 37 84 38 87 39 88 89 89 40 90 94 91 88 92 90 93 41 94 93 95
REMARK SMILES IDX 87 97 86 99 42 101 74 104 54 105 73 106 55 107 58 108 72 109
REMARK SMILES IDX 91 110 56 111 57 113 71 115 92 116 59 119 43 121 44 122
REMARK SMILES IDX 52 123 45 124 46 125 50 126 53 127 47 128 48 129 51 130
REMARK SMILES IDX 49 131 75 132 76 133 84 134 77 135 78 136 82 137 85 138
REMARK SMILES IDX 79 139 80 140 83 141 81 142 60 143 61 144 69 145 62 146
REMARK SMILES IDX 63 147 67 148 70 149 64 150 65 151 68 152 66 153
REMARK H PARENT 24 4 20 6 17 12 18 15 97 16 12 22 100 23 13 25 14 26 10 30
REMARK H PARENT 6 33 6 34 5 36 5 37 4 39 4 40 3 42 3 43 2 45 2 46 1 48 1 49
REMARK H PARENT 1 50 21 52 21 53 21 54 25 56 25 57 26 59 26 60 27 62 27 63
REMARK H PARENT 28 65 28 66 29 68 29 69 30 71 30 72 31 75 35 81 96 83 36 85
REMARK H PARENT 95 86 94 96 88 98 90 100 93 102 87 103 55 112 58 114 91 117
REMARK H PARENT 56 118 92 120
REMARK Flexibility Score: inf
ROOT
ATOM      1  C   UNL A   1      31.323  22.528  24.829  1.00  0.00     0.227 C 
ATOM      2  O   UNL A   1      31.090  21.440  25.370  1.00  0.00    -0.274 OA
ATOM      3  N   UNL A   1      30.572  23.584  25.243  1.00  0.00    -0.356 N 
ATOM      4  H   UNL A   1      29.974  23.382  25.999  1.00  0.00     0.163 HD
ENDROOT
BRANCH   1   5
ATOM      5  C   UNL A   1      32.424  22.632  23.762  1.00  0.00     0.060 C 
ATOM      6  H   UNL A   1      32.358  23.627  23.376  1.00  0.00     0.045 H 
BRANCH   5   7
ATOM      7  C   UNL A   1      33.832  22.576  24.331  1.00  0.00    -0.033 A 
ATOM      8  C   UNL A   1      36.496  22.682  25.364  1.00  0.00     0.018 A 
ATOM      9  C   UNL A   1      35.420  22.269  26.161  1.00  0.00    -0.051 A 
ATOM     10  C   UNL A   1      36.209  22.982  24.022  1.00  0.00     0.131 A 
ATOM     11  C   UNL A   1      34.120  22.187  25.645  1.00  0.00    -0.057 A 
ATOM     12  H   UNL A   1      35.589  22.020  27.148  1.00  0.00     0.063 H 
ATOM     13  C   UNL A   1      34.908  22.954  23.518  1.00  0.00    -0.022 A 
ATOM     14  F   UNL A   1      37.193  23.319  23.173  1.00  0.00    -0.206 F 
ATOM     15  H   UNL A   1      33.359  21.834  26.246  1.00  0.00     0.063 H 
ATOM     16  H   UNL A   1      34.736  23.215  22.535  1.00  0.00     0.066 H 
BRANCH   8  17
ATOM     17  C   UNL A   1      37.854  22.823  25.928  1.00  0.00    -0.013 A 
ATOM     18  C   UNL A   1      39.941  21.780  26.677  1.00  0.00     0.045 A 
ATOM     19  C   UNL A   1      40.420  23.015  27.102  1.00  0.00    -0.038 A 
ATOM     20  C   UNL A   1      38.674  21.695  26.090  1.00  0.00    -0.030 A 
ATOM     21  C   UNL A   1      39.654  24.160  26.894  1.00  0.00    -0.060 A 
ATOM     22  H   UNL A   1      41.339  23.083  27.567  1.00  0.00     0.064 H 
ATOM     23  H   UNL A   1      38.333  20.776  25.766  1.00  0.00     0.065 H 
ATOM     24  C   UNL A   1      38.381  24.064  26.321  1.00  0.00    -0.054 A 
ATOM     25  H   UNL A   1      40.027  25.084  27.165  1.00  0.00     0.062 H 
ATOM     26  H   UNL A   1      37.820  24.918  26.185  1.00  0.00     0.063 H 
BRANCH  18  27
ATOM     27  N   UNL A   1      40.693  20.630  26.944  1.00  0.00    -0.291 N 
ATOM     28  C   UNL A   1      41.630  20.052  26.126  1.00  0.00     0.411 C 
ATOM     29  O   UNL A   1      41.892  18.864  26.199  1.00  0.00    -0.224 OA
ATOM     30  H   UNL A   1      40.533  20.189  27.810  1.00  0.00     0.173 HD
BRANCH  28  31
ATOM     31  O   UNL A   1      42.284  20.964  25.358  1.00  0.00    -0.449 OA
BRANCH  31  32
ATOM     32  C   UNL A   1      43.566  21.437  25.799  1.00  0.00     0.093 C 
ATOM     33  H   UNL A   1      43.436  22.381  26.288  1.00  0.00     0.071 H 
ATOM     34  H   UNL A   1      43.974  20.708  26.467  1.00  0.00     0.071 H 
BRANCH  32  35
ATOM     35  C   UNL A   1      44.547  21.613  24.636  1.00  0.00    -0.019 C 
ATOM     36  H   UNL A   1      44.035  22.121  23.847  1.00  0.00     0.030 H 
ATOM     37  H   UNL A   1      45.378  22.157  25.034  1.00  0.00     0.030 H 
BRANCH  35  38
ATOM     38  C   UNL A   1      45.132  20.317  24.060  1.00  0.00    -0.050 C 
ATOM     39  H   UNL A   1      44.479  19.512  24.327  1.00  0.00     0.027 H 
ATOM     40  H   UNL A   1      45.211  20.466  23.004  1.00  0.00     0.027 H 
BRANCH  38  41
ATOM     41  C   UNL A   1      46.544  19.970  24.553  1.00  0.00    -0.053 C 
ATOM     42  H   UNL A   1      47.134  19.698  23.703  1.00  0.00     0.027 H 
ATOM     43  H   UNL A   1      46.906  20.840  25.060  1.00  0.00     0.027 H 
BRANCH  41  44
ATOM     44  C   UNL A   1      46.609  18.826  25.562  1.00  0.00    -0.056 C 
ATOM     45  H   UNL A   1      47.322  18.106  25.219  1.00  0.00     0.026 H 
ATOM     46  H   UNL A   1      46.892  19.242  26.507  1.00  0.00     0.026 H 
BRANCH  44  47
ATOM     47  C   UNL A   1      45.270  18.133  25.749  1.00  0.00    -0.065 C 
ATOM     48  H   UNL A   1      45.267  17.605  26.680  1.00  0.00     0.023 H 
ATOM     49  H   UNL A   1      45.111  17.441  24.948  1.00  0.00     0.023 H 
ATOM     50  H   UNL A   1      44.488  18.863  25.750  1.00  0.00     0.023 H 
ENDBRANCH  44  47
ENDBRANCH  41  44
ENDBRANCH  38  41
ENDBRANCH  35  38
ENDBRANCH  32  35
ENDBRANCH  31  32
ENDBRANCH  28  31
ENDBRANCH  18  27
ENDBRANCH   8  17
ENDBRANCH   5   7
BRANCH   5  51
ATOM     51  C   UNL A   1      32.169  21.775  22.523  1.00  0.00    -0.049 C 
ATOM     52  H   UNL A   1      32.388  20.751  22.745  1.00  0.00     0.024 H 
ATOM     53  H   UNL A   1      32.797  22.108  21.723  1.00  0.00     0.024 H 
ATOM     54  H   UNL A   1      31.144  21.865  22.231  1.00  0.00     0.024 H 
ENDBRANCH   5  51
ENDBRANCH   1   5
BRANCH   3  55
ATOM     55  C   UNL A   1      30.496  24.949  24.772  1.00  0.00     0.017 C 
ATOM     56  H   UNL A   1      29.544  25.104  24.309  1.00  0.00     0.049 H 
ATOM     57  H   UNL A   1      31.291  25.105  24.074  1.00  0.00     0.049 H 
BRANCH  55  58
ATOM     58  C   UNL A   1      30.660  25.951  25.917  1.00  0.00    -0.036 C 
ATOM     59  H   UNL A   1      30.111  25.592  26.762  1.00  0.00     0.028 H 
ATOM     60  H   UNL A   1      30.294  26.892  25.563  1.00  0.00     0.028 H 
BRANCH  58  61
ATOM     61  C   UNL A   1      32.116  26.167  26.342  1.00  0.00    -0.052 C 
ATOM     62  H   UNL A   1      32.455  25.277  26.831  1.00  0.00     0.027 H 
ATOM     63  H   UNL A   1      32.118  27.027  26.977  1.00  0.00     0.027 H 
BRANCH  61  64
ATOM     64  C   UNL A   1      33.087  26.479  25.194  1.00  0.00    -0.052 C 
ATOM     65  H   UNL A   1      32.875  25.805  24.391  1.00  0.00     0.027 H 
ATOM     66  H   UNL A   1      34.070  26.367  25.602  1.00  0.00     0.027 H 
BRANCH  64  67
ATOM     67  C   UNL A   1      33.019  27.906  24.645  1.00  0.00    -0.036 C 
ATOM     68  H   UNL A   1      32.025  28.274  24.793  1.00  0.00     0.028 H 
ATOM     69  H   UNL A   1      33.294  27.847  23.613  1.00  0.00     0.028 H 
BRANCH  67  70
ATOM     70  C   UNL A   1      33.991  28.886  25.296  1.00  0.00     0.018 C 
ATOM     71  H   UNL A   1      34.704  29.205  24.564  1.00  0.00     0.049 H 
ATOM     72  H   UNL A   1      34.474  28.385  26.109  1.00  0.00     0.049 H 
BRANCH  70  73
ATOM     73  N   UNL A   1      33.306  30.054  25.828  1.00  0.00    -0.352 N 
ATOM     74  C   UNL A   1      33.590  30.811  26.936  1.00  0.00     0.251 C 
ATOM     75  H   UNL A   1      32.519  30.346  25.313  1.00  0.00     0.163 HD
ATOM     76  O   UNL A   1      32.764  31.611  27.364  1.00  0.00    -0.269 OA
BRANCH  74  77
ATOM     77  C   UNL A   1      34.889  30.661  27.625  1.00  0.00     0.039 A 
ATOM     78  C   UNL A   1      35.732  31.770  27.727  1.00  0.00    -0.049 A 
ATOM     79  C   UNL A   1      35.289  29.424  28.140  1.00  0.00    -0.049 A 
ATOM     80  C   UNL A   1      36.950  31.654  28.401  1.00  0.00    -0.053 A 
ATOM     81  H   UNL A   1      35.456  32.672  27.307  1.00  0.00     0.063 H 
ATOM     82  C   UNL A   1      36.472  29.326  28.868  1.00  0.00    -0.053 A 
ATOM     83  H   UNL A   1      34.709  28.586  27.980  1.00  0.00     0.063 H 
ATOM     84  C   UNL A   1      37.313  30.440  29.006  1.00  0.00    -0.014 A 
ATOM     85  H   UNL A   1      37.587  32.465  28.453  1.00  0.00     0.063 H 
ATOM     86  H   UNL A   1      36.730  28.429  29.309  1.00  0.00     0.063 H 
BRANCH  84  87
ATOM     87  C   UNL A   1      38.561  30.322  29.802  1.00  0.00     0.031 A 
ATOM     88  C   UNL A   1      39.736  29.556  29.263  1.00  0.00     0.074 A 
ATOM     89  C   UNL A   1      38.606  30.847  31.041  1.00  0.00     0.049 A 
ATOM     90  N   UNL A   1      40.880  29.283  29.839  1.00  0.00    -0.248 NA
ATOM     91  C   UNL A   1      39.600  29.003  27.907  1.00  0.00    -0.034 C 
ATOM     92  C   UNL A   1      37.513  31.572  31.691  1.00  0.00    -0.036 A 
ATOM     93  N   UNL A   1      39.605  30.842  31.981  1.00  0.00    -0.354 N 
ATOM     94  C   UNL A   1      41.591  28.519  28.923  1.00  0.00     0.074 A 
ATOM     95  C   UNL A   1      40.733  28.329  27.774  1.00  0.00    -0.034 C 
ATOM     96  H   UNL A   1      38.825  29.113  27.235  1.00  0.00     0.065 H 
ATOM     97  C   UNL A   1      37.907  31.957  32.915  1.00  0.00    -0.036 A 
ATOM     98  H   UNL A   1      36.587  31.756  31.274  1.00  0.00     0.065 H 
ATOM     99  C   UNL A   1      39.264  31.475  33.152  1.00  0.00     0.049 A 
ATOM    100  H   UNL A   1      40.485  30.424  31.831  1.00  0.00     0.167 HD
ATOM    101  C   UNL A   1      42.855  28.040  29.024  1.00  0.00     0.037 A 
ATOM    102  H   UNL A   1      40.971  27.744  26.958  1.00  0.00     0.065 H 
ATOM    103  H   UNL A   1      37.342  32.507  33.580  1.00  0.00     0.065 H 
ATOM    104  C   UNL A   1      39.963  31.637  34.291  1.00  0.00     0.037 A 
ATOM    105  C   UNL A   1      43.712  28.251  30.162  1.00  0.00     0.049 A 
ATOM    106  C   UNL A   1      41.357  31.083  34.382  1.00  0.00     0.074 A 
ATOM    107  C   UNL A   1      45.030  27.861  30.333  1.00  0.00    -0.036 A 
ATOM    108  N   UNL A   1      43.335  28.905  31.325  1.00  0.00    -0.354 N 
ATOM    109  N   UNL A   1      42.045  30.422  33.482  1.00  0.00    -0.248 NA
ATOM    110  C   UNL A   1      42.075  31.299  35.645  1.00  0.00    -0.034 C 
ATOM    111  C   UNL A   1      45.433  28.235  31.619  1.00  0.00    -0.036 A 
ATOM    112  H   UNL A   1      45.614  27.378  29.632  1.00  0.00     0.065 H 
ATOM    113  C   UNL A   1      44.385  28.905  32.230  1.00  0.00     0.049 A 
ATOM    114  H   UNL A   1      42.452  29.310  31.485  1.00  0.00     0.167 HD
ATOM    115  C   UNL A   1      43.281  30.166  34.059  1.00  0.00     0.074 A 
ATOM    116  C   UNL A   1      43.256  30.759  35.380  1.00  0.00    -0.034 C 
ATOM    117  H   UNL A   1      41.746  31.754  36.512  1.00  0.00     0.065 H 
ATOM    118  H   UNL A   1      46.355  28.045  32.042  1.00  0.00     0.065 H 
ATOM    119  C   UNL A   1      44.342  29.498  33.542  1.00  0.00     0.037 A 
ATOM    120  H   UNL A   1      44.056  30.761  36.033  1.00  0.00     0.065 H 
BRANCH 101 121
ATOM    121  C   UNL A   1      43.389  27.238  27.872  1.00  0.00     0.064 A 
ATOM    122  C   UNL A   1      43.210  25.848  27.795  1.00  0.00     0.173 A 
ATOM    123  C   UNL A   1      44.053  27.871  26.810  1.00  0.00     0.173 A 
ATOM    124  F   UNL A   1      42.591  25.192  28.789  1.00  0.00    -0.203 F 
ATOM    125  C   UNL A   1      43.700  25.119  26.715  1.00  0.00     0.198 A 
ATOM    126  C   UNL A   1      44.514  27.144  25.716  1.00  0.00     0.198 A 
ATOM    127  F   UNL A   1      44.246  29.199  26.828  1.00  0.00    -0.203 F 
ATOM    128  F   UNL A   1      43.559  23.787  26.689  1.00  0.00    -0.200 F 
ATOM    129  C   UNL A   1      44.345  25.768  25.673  1.00  0.00     0.200 A 
ATOM    130  F   UNL A   1      45.125  27.775  24.704  1.00  0.00    -0.200 F 
ATOM    131  F   UNL A   1      44.808  25.067  24.630  1.00  0.00    -0.200 F 
ENDBRANCH 101 121
BRANCH 104 132
ATOM    132  C   UNL A   1      39.357  32.372  35.433  1.00  0.00     0.064 A 
ATOM    133  C   UNL A   1      38.538  31.712  36.359  1.00  0.00     0.173 A 
ATOM    134  C   UNL A   1      39.581  33.743  35.619  1.00  0.00     0.173 A 
ATOM    135  F   UNL A   1      38.278  30.404  36.212  1.00  0.00    -0.203 F 
ATOM    136  C   UNL A   1      37.950  32.400  37.418  1.00  0.00     0.198 A 
ATOM    137  C   UNL A   1      39.016  34.425  36.695  1.00  0.00     0.198 A 
ATOM    138  F   UNL A   1      40.361  34.421  34.764  1.00  0.00    -0.203 F 
ATOM    139  F   UNL A   1      37.135  31.754  38.263  1.00  0.00    -0.200 F 
ATOM    140  C   UNL A   1      38.193  33.755  37.589  1.00  0.00     0.200 A 
ATOM    141  F   UNL A   1      39.267  35.729  36.866  1.00  0.00    -0.200 F 
ATOM    142  F   UNL A   1      37.633  34.415  38.611  1.00  0.00    -0.200 F 
ENDBRANCH 104 132
BRANCH 119 143
ATOM    143  C   UNL A   1      45.570  29.393  34.400  1.00  0.00     0.064 A 
ATOM    144  C   UNL A   1      46.573  30.373  34.372  1.00  0.00     0.173 A 
ATOM    145  C   UNL A   1      45.728  28.316  35.285  1.00  0.00     0.173 A 
ATOM    146  F   UNL A   1      46.477  31.413  33.530  1.00  0.00    -0.203 F 
ATOM    147  C   UNL A   1      47.703  30.264  35.179  1.00  0.00     0.198 A 
ATOM    148  C   UNL A   1      46.844  28.227  36.114  1.00  0.00     0.198 A 
ATOM    149  F   UNL A   1      44.795  27.355  35.356  1.00  0.00    -0.203 F 
ATOM    150  F   UNL A   1      48.672  31.186  35.098  1.00  0.00    -0.200 F 
ATOM    151  C   UNL A   1      47.833  29.196  36.054  1.00  0.00     0.200 A 
ATOM    152  F   UNL A   1      46.961  27.202  36.969  1.00  0.00    -0.200 F 
ATOM    153  F   UNL A   1      48.917  29.097  36.835  1.00  0.00    -0.200 F 
ENDBRANCH 119 143
ENDBRANCH  84  87
ENDBRANCH  74  77
ENDBRANCH  70  73
ENDBRANCH  67  70
ENDBRANCH  64  67
ENDBRANCH  61  64
ENDBRANCH  58  61
ENDBRANCH  55  58
ENDBRANCH   3  55
TORSDOF 24
ENDMDL
MODEL 7
REMARK VINA RESULT:     -10.5      3.827      8.862
REMARK SMILES CCCCCCOC(=O)Nc1cccc(-c2ccc([C@@H](C)C(=O)NCCCCCCNC(=O)c3ccc(-c4c5nc(c(-c6c(F)c(F)c(F)c(F)c6F)c6ccc([nH]6)c(-c6c(F)c(F)c(F)c(F)c6F)c6nc(c(-c7c(F)c(F)c(F)c(F)c7F)c7ccc4[nH]7)C=C6)C=C5)cc3)cc2F)c1
REMARK SMILES IDX 22 1 23 2 24 3 20 5 19 7 16 8 17 9 98 10 18 11 97 13 99 14
REMARK SMILES IDX 15 17 11 18 12 19 100 20 13 21 14 24 10 27 8 28 9 29 7 31
REMARK SMILES IDX 6 32 5 35 4 38 3 41 2 44 1 47 21 51 25 55 26 58 27 61 28 64
REMARK SMILES IDX 29 67 30 70 31 73 32 74 33 76 34 77 35 78 96 79 36 80 95 82
REMARK SMILES IDX 37 84 38 87 39 88 89 89 40 90 94 91 88 92 90 93 41 94 93 95
REMARK SMILES IDX 87 97 86 99 42 101 74 104 54 105 73 106 55 107 58 108 72 109
REMARK SMILES IDX 91 110 56 111 57 113 71 115 92 116 59 119 43 121 44 122
REMARK SMILES IDX 52 123 45 124 46 125 50 126 53 127 47 128 48 129 51 130
REMARK SMILES IDX 49 131 75 132 76 133 84 134 77 135 78 136 82 137 85 138
REMARK SMILES IDX 79 139 80 140 83 141 81 142 60 143 61 144 69 145 62 146
REMARK SMILES IDX 63 147 67 148 70 149 64 150 65 151 68 152 66 153
REMARK H PARENT 24 4 20 6 17 12 18 15 97 16 12 22 100 23 13 25 14 26 10 30
REMARK H PARENT 6 33 6 34 5 36 5 37 4 39 4 40 3 42 3 43 2 45 2 46 1 48 1 49
REMARK H PARENT 1 50 21 52 21 53 21 54 25 56 25 57 26 59 26 60 27 62 27 63
REMARK H PARENT 28 65 28 66 29 68 29 69 30 71 30 72 31 75 35 81 96 83 36 85
REMARK H PARENT 95 86 94 96 88 98 90 100 93 102 87 103 55 112 58 114 91 117
REMARK H PARENT 56 118 92 120
REMARK Flexibility Score: inf
ROOT
ATOM      1  C   UNL A   1      28.272  31.309  23.554  1.00  0.00     0.227 C 
ATOM      2  O   UNL A   1      27.053  31.497  23.656  1.00  0.00    -0.274 OA
ATOM      3  N   UNL A   1      29.045  31.793  24.564  1.00  0.00    -0.356 N 
ATOM      4  H   UNL A   1      28.536  32.172  25.317  1.00  0.00     0.163 HD
ENDROOT
BRANCH   1   5
ATOM      5  C   UNL A   1      28.831  30.550  22.342  1.00  0.00     0.060 C 
ATOM      6  H   UNL A   1      29.780  30.998  22.133  1.00  0.00     0.045 H 
BRANCH   5   7
ATOM      7  C   UNL A   1      29.193  29.104  22.641  1.00  0.00    -0.033 A 
ATOM      8  C   UNL A   1      30.036  26.458  23.320  1.00  0.00     0.018 A 
ATOM      9  C   UNL A   1      28.763  26.930  23.667  1.00  0.00    -0.051 A 
ATOM     10  C   UNL A   1      30.849  27.327  22.573  1.00  0.00     0.131 A 
ATOM     11  C   UNL A   1      28.339  28.216  23.307  1.00  0.00    -0.057 A 
ATOM     12  H   UNL A   1      28.126  26.318  24.200  1.00  0.00     0.063 H 
ATOM     13  C   UNL A   1      30.453  28.626  22.258  1.00  0.00    -0.022 A 
ATOM     14  F   UNL A   1      32.056  26.927  22.140  1.00  0.00    -0.206 F 
ATOM     15  H   UNL A   1      27.378  28.514  23.537  1.00  0.00     0.063 H 
ATOM     16  H   UNL A   1      31.094  29.244  21.737  1.00  0.00     0.066 H 
BRANCH   8  17
ATOM     17  C   UNL A   1      30.500  25.124  23.753  1.00  0.00    -0.013 A 
ATOM     18  C   UNL A   1      31.209  23.624  25.556  1.00  0.00     0.045 A 
ATOM     19  C   UNL A   1      31.491  22.625  24.631  1.00  0.00    -0.038 A 
ATOM     20  C   UNL A   1      30.710  24.855  25.115  1.00  0.00    -0.030 A 
ATOM     21  C   UNL A   1      31.231  22.843  23.279  1.00  0.00    -0.060 A 
ATOM     22  H   UNL A   1      31.891  21.727  24.944  1.00  0.00     0.064 H 
ATOM     23  H   UNL A   1      30.491  25.585  25.810  1.00  0.00     0.065 H 
ATOM     24  C   UNL A   1      30.748  24.082  22.844  1.00  0.00    -0.054 A 
ATOM     25  H   UNL A   1      31.395  22.087  22.597  1.00  0.00     0.062 H 
ATOM     26  H   UNL A   1      30.571  24.233  21.840  1.00  0.00     0.063 H 
BRANCH  18  27
ATOM     27  N   UNL A   1      31.530  23.415  26.903  1.00  0.00    -0.291 N 
ATOM     28  C   UNL A   1      32.782  23.227  27.430  1.00  0.00     0.411 C 
ATOM     29  O   UNL A   1      32.949  22.615  28.471  1.00  0.00    -0.224 OA
ATOM     30  H   UNL A   1      30.777  23.401  27.539  1.00  0.00     0.173 HD
BRANCH  28  31
ATOM     31  O   UNL A   1      33.743  23.895  26.739  1.00  0.00    -0.449 OA
BRANCH  31  32
ATOM     32  C   UNL A   1      34.789  23.137  26.112  1.00  0.00     0.093 C 
ATOM     33  H   UNL A   1      35.271  22.535  26.854  1.00  0.00     0.071 H 
ATOM     34  H   UNL A   1      34.345  22.532  25.350  1.00  0.00     0.071 H 
BRANCH  32  35
ATOM     35  C   UNL A   1      35.836  24.037  25.448  1.00  0.00    -0.019 C 
ATOM     36  H   UNL A   1      35.359  24.565  24.650  1.00  0.00     0.030 H 
ATOM     37  H   UNL A   1      36.210  24.672  26.224  1.00  0.00     0.030 H 
BRANCH  35  38
ATOM     38  C   UNL A   1      37.060  23.316  24.871  1.00  0.00    -0.050 C 
ATOM     39  H   UNL A   1      36.977  23.324  23.804  1.00  0.00     0.027 H 
ATOM     40  H   UNL A   1      37.918  23.843  25.233  1.00  0.00     0.027 H 
BRANCH  38  41
ATOM     41  C   UNL A   1      37.226  21.859  25.326  1.00  0.00    -0.053 C 
ATOM     42  H   UNL A   1      36.616  21.710  26.191  1.00  0.00     0.027 H 
ATOM     43  H   UNL A   1      36.938  21.251  24.493  1.00  0.00     0.027 H 
BRANCH  41  44
ATOM     44  C   UNL A   1      38.656  21.455  25.678  1.00  0.00    -0.056 C 
ATOM     45  H   UNL A   1      38.627  20.540  26.233  1.00  0.00     0.026 H 
ATOM     46  H   UNL A   1      39.198  21.344  24.762  1.00  0.00     0.026 H 
BRANCH  44  47
ATOM     47  C   UNL A   1      39.372  22.506  26.510  1.00  0.00    -0.065 C 
ATOM     48  H   UNL A   1      40.429  22.339  26.463  1.00  0.00     0.023 H 
ATOM     49  H   UNL A   1      39.047  22.438  27.527  1.00  0.00     0.023 H 
ATOM     50  H   UNL A   1      39.147  23.479  26.127  1.00  0.00     0.023 H 
ENDBRANCH  44  47
ENDBRANCH  41  44
ENDBRANCH  38  41
ENDBRANCH  35  38
ENDBRANCH  32  35
ENDBRANCH  31  32
ENDBRANCH  28  31
ENDBRANCH  18  27
ENDBRANCH   8  17
ENDBRANCH   5   7
BRANCH   5  51
ATOM     51  C   UNL A   1      28.055  30.792  21.048  1.00  0.00    -0.049 C 
ATOM     52  H   UNL A   1      27.356  31.589  21.194  1.00  0.00     0.024 H 
ATOM     53  H   UNL A   1      27.528  29.901  20.776  1.00  0.00     0.024 H 
ATOM     54  H   UNL A   1      28.737  31.054  20.266  1.00  0.00     0.024 H 
ENDBRANCH   5  51
ENDBRANCH   1   5
BRANCH   3  55
ATOM     55  C   UNL A   1      30.480  31.850  24.728  1.00  0.00     0.017 C 
ATOM     56  H   UNL A   1      30.768  32.862  24.925  1.00  0.00     0.049 H 
ATOM     57  H   UNL A   1      30.934  31.492  23.828  1.00  0.00     0.049 H 
BRANCH  55  58
ATOM     58  C   UNL A   1      30.952  30.967  25.885  1.00  0.00    -0.036 C 
ATOM     59  H   UNL A   1      30.133  30.826  26.559  1.00  0.00     0.028 H 
ATOM     60  H   UNL A   1      31.777  31.469  26.346  1.00  0.00     0.028 H 
BRANCH  58  61
ATOM     61  C   UNL A   1      31.457  29.590  25.443  1.00  0.00    -0.052 C 
ATOM     62  H   UNL A   1      32.367  29.729  24.897  1.00  0.00     0.027 H 
ATOM     63  H   UNL A   1      30.673  29.158  24.858  1.00  0.00     0.027 H 
BRANCH  61  64
ATOM     64  C   UNL A   1      31.733  28.603  26.586  1.00  0.00    -0.052 C 
ATOM     65  H   UNL A   1      30.925  27.902  26.619  1.00  0.00     0.027 H 
ATOM     66  H   UNL A   1      31.824  29.198  27.471  1.00  0.00     0.027 H 
BRANCH  64  67
ATOM     67  C   UNL A   1      33.040  27.814  26.472  1.00  0.00    -0.036 C 
ATOM     68  H   UNL A   1      32.991  27.214  25.587  1.00  0.00     0.028 H 
ATOM     69  H   UNL A   1      33.123  27.235  27.367  1.00  0.00     0.028 H 
BRANCH  67  70
ATOM     70  C   UNL A   1      34.298  28.674  26.394  1.00  0.00     0.018 C 
ATOM     71  H   UNL A   1      34.549  28.830  25.366  1.00  0.00     0.049 H 
ATOM     72  H   UNL A   1      35.085  28.161  26.907  1.00  0.00     0.049 H 
BRANCH  70  73
ATOM     73  N   UNL A   1      34.109  29.966  27.035  1.00  0.00    -0.352 N 
ATOM     74  C   UNL A   1      34.864  30.591  27.994  1.00  0.00     0.251 C 
ATOM     75  H   UNL A   1      33.318  30.469  26.733  1.00  0.00     0.163 HD
ATOM     76  O   UNL A   1      34.421  31.569  28.588  1.00  0.00    -0.269 OA
BRANCH  74  77
ATOM     77  C   UNL A   1      36.214  30.085  28.323  1.00  0.00     0.039 A 
ATOM     78  C   UNL A   1      37.242  30.246  27.392  1.00  0.00    -0.049 A 
ATOM     79  C   UNL A   1      36.457  29.426  29.532  1.00  0.00    -0.049 A 
ATOM     80  C   UNL A   1      38.530  29.801  27.698  1.00  0.00    -0.053 A 
ATOM     81  H   UNL A   1      37.051  30.692  26.481  1.00  0.00     0.063 H 
ATOM     82  C   UNL A   1      37.754  29.042  29.864  1.00  0.00    -0.053 A 
ATOM     83  H   UNL A   1      35.677  29.224  30.177  1.00  0.00     0.063 H 
ATOM     84  C   UNL A   1      38.803  29.227  28.950  1.00  0.00    -0.014 A 
ATOM     85  H   UNL A   1      39.285  29.894  27.000  1.00  0.00     0.063 H 
ATOM     86  H   UNL A   1      37.944  28.620  30.786  1.00  0.00     0.063 H 
BRANCH  84  87
ATOM     87  C   UNL A   1      40.182  28.828  29.329  1.00  0.00     0.031 A 
ATOM     88  C   UNL A   1      41.032  29.737  30.171  1.00  0.00     0.074 A 
ATOM     89  C   UNL A   1      40.689  27.675  28.853  1.00  0.00     0.049 A 
ATOM     90  N   UNL A   1      42.281  29.595  30.541  1.00  0.00    -0.248 NA
ATOM     91  C   UNL A   1      40.406  30.983  30.638  1.00  0.00    -0.034 C 
ATOM     92  C   UNL A   1      39.978  26.733  27.989  1.00  0.00    -0.036 A 
ATOM     93  N   UNL A   1      41.927  27.106  29.016  1.00  0.00    -0.354 N 
ATOM     94  C   UNL A   1      42.590  30.734  31.271  1.00  0.00     0.074 A 
ATOM     95  C   UNL A   1      41.417  31.581  31.251  1.00  0.00    -0.034 C 
ATOM     96  H   UNL A   1      39.433  31.306  30.520  1.00  0.00     0.065 H 
ATOM     97  C   UNL A   1      40.782  25.694  27.714  1.00  0.00    -0.036 A 
ATOM     98  H   UNL A   1      39.011  26.848  27.646  1.00  0.00     0.065 H 
ATOM     99  C   UNL A   1      42.078  25.915  28.348  1.00  0.00     0.049 A 
ATOM    100  H   UNL A   1      42.640  27.512  29.562  1.00  0.00     0.167 HD
ATOM    101  C   UNL A   1      43.741  31.034  31.920  1.00  0.00     0.037 A 
ATOM    102  H   UNL A   1      41.374  32.528  31.660  1.00  0.00     0.065 H 
ATOM    103  H   UNL A   1      40.526  24.871  27.146  1.00  0.00     0.065 H 
ATOM    104  C   UNL A   1      43.145  25.100  28.249  1.00  0.00     0.037 A 
ATOM    105  C   UNL A   1      44.898  30.177  31.954  1.00  0.00     0.049 A 
ATOM    106  C   UNL A   1      44.415  25.464  28.967  1.00  0.00     0.074 A 
ATOM    107  C   UNL A   1      46.089  30.362  32.635  1.00  0.00    -0.036 A 
ATOM    108  N   UNL A   1      45.010  28.974  31.273  1.00  0.00    -0.354 N 
ATOM    109  N   UNL A   1      44.674  26.510  29.713  1.00  0.00    -0.248 NA
ATOM    110  C   UNL A   1      45.542  24.531  28.831  1.00  0.00    -0.034 C 
ATOM    111  C   UNL A   1      46.940  29.297  32.326  1.00  0.00    -0.036 A 
ATOM    112  H   UNL A   1      46.310  31.151  33.264  1.00  0.00     0.065 H 
ATOM    113  C   UNL A   1      46.261  28.420  31.495  1.00  0.00     0.049 A 
ATOM    114  H   UNL A   1      44.306  28.573  30.715  1.00  0.00     0.167 HD
ATOM    115  C   UNL A   1      45.979  26.351  30.155  1.00  0.00     0.074 A 
ATOM    116  C   UNL A   1      46.455  25.097  29.608  1.00  0.00    -0.034 C 
ATOM    117  H   UNL A   1      45.607  23.663  28.277  1.00  0.00     0.065 H 
ATOM    118  H   UNL A   1      47.910  29.182  32.660  1.00  0.00     0.065 H 
ATOM    119  C   UNL A   1      46.720  27.171  30.942  1.00  0.00     0.037 A 
ATOM    120  H   UNL A   1      47.386  24.695  29.799  1.00  0.00     0.065 H 
BRANCH 101 121
ATOM    121  C   UNL A   1      43.809  32.347  32.647  1.00  0.00     0.064 A 
ATOM    122  C   UNL A   1      44.277  33.513  32.020  1.00  0.00     0.173 A 
ATOM    123  C   UNL A   1      43.362  32.451  33.972  1.00  0.00     0.173 A 
ATOM    124  F   UNL A   1      44.725  33.466  30.757  1.00  0.00    -0.203 F 
ATOM    125  C   UNL A   1      44.322  34.725  32.703  1.00  0.00     0.198 A 
ATOM    126  C   UNL A   1      43.380  33.672  34.643  1.00  0.00     0.198 A 
ATOM    127  F   UNL A   1      42.899  31.369  34.617  1.00  0.00    -0.203 F 
ATOM    128  F   UNL A   1      44.819  35.813  32.099  1.00  0.00    -0.200 F 
ATOM    129  C   UNL A   1      43.867  34.806  34.011  1.00  0.00     0.200 A 
ATOM    130  F   UNL A   1      42.926  33.750  35.901  1.00  0.00    -0.200 F 
ATOM    131  F   UNL A   1      43.904  35.975  34.663  1.00  0.00    -0.200 F 
ENDBRANCH 101 121
BRANCH 104 132
ATOM    132  C   UNL A   1      43.050  23.849  27.451  1.00  0.00     0.064 A 
ATOM    133  C   UNL A   1      42.701  22.634  28.057  1.00  0.00     0.173 A 
ATOM    134  C   UNL A   1      43.309  23.841  26.073  1.00  0.00     0.173 A 
ATOM    135  F   UNL A   1      42.464  22.588  29.377  1.00  0.00    -0.203 F 
ATOM    136  C   UNL A   1      42.632  21.455  27.319  1.00  0.00     0.198 A 
ATOM    137  C   UNL A   1      43.211  22.666  25.330  1.00  0.00     0.198 A 
ATOM    138  F   UNL A   1      43.642  24.977  25.444  1.00  0.00    -0.203 F 
ATOM    139  F   UNL A   1      42.340  20.300  27.932  1.00  0.00    -0.200 F 
ATOM    140  C   UNL A   1      42.881  21.472  25.955  1.00  0.00     0.200 A 
ATOM    141  F   UNL A   1      43.436  22.690  24.010  1.00  0.00    -0.200 F 
ATOM    142  F   UNL A   1      42.809  20.340  25.244  1.00  0.00    -0.200 F 
ENDBRANCH 104 132
BRANCH 119 143
ATOM    143  C   UNL A   1      48.114  26.725  31.275  1.00  0.00     0.064 A 
ATOM    144  C   UNL A   1      49.221  27.149  30.525  1.00  0.00     0.173 A 
ATOM    145  C   UNL A   1      48.349  25.892  32.380  1.00  0.00     0.173 A 
ATOM    146  F   UNL A   1      49.047  27.932  29.450  1.00  0.00    -0.203 F 
ATOM    147  C   UNL A   1      50.509  26.733  30.852  1.00  0.00     0.198 A 
ATOM    148  C   UNL A   1      49.641  25.504  32.723  1.00  0.00     0.198 A 
ATOM    149  F   UNL A   1      47.326  25.463  33.135  1.00  0.00    -0.203 F 
ATOM    150  F   UNL A   1      51.546  27.109  30.090  1.00  0.00    -0.200 F 
ATOM    151  C   UNL A   1      50.719  25.917  31.954  1.00  0.00     0.200 A 
ATOM    152  F   UNL A   1      49.843  24.727  33.796  1.00  0.00    -0.200 F 
ATOM    153  F   UNL A   1      51.959  25.524  32.271  1.00  0.00    -0.200 F 
ENDBRANCH 119 143
ENDBRANCH  84  87
ENDBRANCH  74  77
ENDBRANCH  70  73
ENDBRANCH  67  70
ENDBRANCH  64  67
ENDBRANCH  61  64
ENDBRANCH  58  61
ENDBRANCH  55  58
ENDBRANCH   3  55
TORSDOF 24
ENDMDL
MODEL 8
REMARK VINA RESULT:     -10.5      1.974      3.451
REMARK SMILES CCCCCCOC(=O)Nc1cccc(-c2ccc([C@@H](C)C(=O)NCCCCCCNC(=O)c3ccc(-c4c5nc(c(-c6c(F)c(F)c(F)c(F)c6F)c6ccc([nH]6)c(-c6c(F)c(F)c(F)c(F)c6F)c6nc(c(-c7c(F)c(F)c(F)c(F)c7F)c7ccc4[nH]7)C=C6)C=C5)cc3)cc2F)c1
REMARK SMILES IDX 22 1 23 2 24 3 20 5 19 7 16 8 17 9 98 10 18 11 97 13 99 14
REMARK SMILES IDX 15 17 11 18 12 19 100 20 13 21 14 24 10 27 8 28 9 29 7 31
REMARK SMILES IDX 6 32 5 35 4 38 3 41 2 44 1 47 21 51 25 55 26 58 27 61 28 64
REMARK SMILES IDX 29 67 30 70 31 73 32 74 33 76 34 77 35 78 96 79 36 80 95 82
REMARK SMILES IDX 37 84 38 87 39 88 89 89 40 90 94 91 88 92 90 93 41 94 93 95
REMARK SMILES IDX 87 97 86 99 42 101 74 104 54 105 73 106 55 107 58 108 72 109
REMARK SMILES IDX 91 110 56 111 57 113 71 115 92 116 59 119 43 121 44 122
REMARK SMILES IDX 52 123 45 124 46 125 50 126 53 127 47 128 48 129 51 130
REMARK SMILES IDX 49 131 75 132 76 133 84 134 77 135 78 136 82 137 85 138
REMARK SMILES IDX 79 139 80 140 83 141 81 142 60 143 61 144 69 145 62 146
REMARK SMILES IDX 63 147 67 148 70 149 64 150 65 151 68 152 66 153
REMARK H PARENT 24 4 20 6 17 12 18 15 97 16 12 22 100 23 13 25 14 26 10 30
REMARK H PARENT 6 33 6 34 5 36 5 37 4 39 4 40 3 42 3 43 2 45 2 46 1 48 1 49
REMARK H PARENT 1 50 21 52 21 53 21 54 25 56 25 57 26 59 26 60 27 62 27 63
REMARK H PARENT 28 65 28 66 29 68 29 69 30 71 30 72 31 75 35 81 96 83 36 85
REMARK H PARENT 95 86 94 96 88 98 90 100 93 102 87 103 55 112 58 114 91 117
REMARK H PARENT 56 118 92 120
REMARK Flexibility Score: inf
ROOT
ATOM      1  C   UNL A   1      30.961  25.752  25.911  1.00  0.00     0.227 C 
ATOM      2  O   UNL A   1      30.266  24.912  26.496  1.00  0.00    -0.274 OA
ATOM      3  N   UNL A   1      31.104  26.955  26.530  1.00  0.00    -0.356 N 
ATOM      4  H   UNL A   1      30.704  26.997  27.428  1.00  0.00     0.163 HD
ENDROOT
BRANCH   1   5
ATOM      5  C   UNL A   1      31.617  25.402  24.567  1.00  0.00     0.060 C 
ATOM      6  H   UNL A   1      31.940  26.334  24.151  1.00  0.00     0.045 H 
BRANCH   5   7
ATOM      7  C   UNL A   1      32.914  24.620  24.706  1.00  0.00    -0.033 A 
ATOM      8  C   UNL A   1      35.235  22.985  25.037  1.00  0.00     0.018 A 
ATOM      9  C   UNL A   1      34.887  23.514  23.787  1.00  0.00    -0.051 A 
ATOM     10  C   UNL A   1      34.422  23.347  26.124  1.00  0.00     0.131 A 
ATOM     11  C   UNL A   1      33.767  24.342  23.632  1.00  0.00    -0.057 A 
ATOM     12  H   UNL A   1      35.469  23.290  22.965  1.00  0.00     0.063 H 
ATOM     13  C   UNL A   1      33.275  24.125  25.966  1.00  0.00    -0.022 A 
ATOM     14  F   UNL A   1      34.725  22.940  27.368  1.00  0.00    -0.206 F 
ATOM     15  H   UNL A   1      33.567  24.753  22.707  1.00  0.00     0.063 H 
ATOM     16  H   UNL A   1      32.686  24.340  26.785  1.00  0.00     0.066 H 
BRANCH   8  17
ATOM     17  C   UNL A   1      36.383  22.067  25.185  1.00  0.00    -0.013 A 
ATOM     18  C   UNL A   1      38.739  21.717  25.759  1.00  0.00     0.045 A 
ATOM     19  C   UNL A   1      38.644  20.380  25.387  1.00  0.00    -0.038 A 
ATOM     20  C   UNL A   1      37.613  22.542  25.665  1.00  0.00    -0.030 A 
ATOM     21  C   UNL A   1      37.418  19.866  24.969  1.00  0.00    -0.060 A 
ATOM     22  H   UNL A   1      39.477  19.772  25.421  1.00  0.00     0.064 H 
ATOM     23  H   UNL A   1      37.690  23.530  25.957  1.00  0.00     0.065 H 
ATOM     24  C   UNL A   1      36.302  20.702  24.861  1.00  0.00    -0.054 A 
ATOM     25  H   UNL A   1      37.334  18.864  24.737  1.00  0.00     0.062 H 
ATOM     26  H   UNL A   1      35.404  20.311  24.539  1.00  0.00     0.063 H 
BRANCH  18  27
ATOM     27  N   UNL A   1      39.988  22.236  26.121  1.00  0.00    -0.291 N 
ATOM     28  C   UNL A   1      40.775  21.829  27.168  1.00  0.00     0.411 C 
ATOM     29  O   UNL A   1      41.578  22.582  27.690  1.00  0.00    -0.224 OA
ATOM     30  H   UNL A   1      40.338  22.971  25.566  1.00  0.00     0.173 HD
BRANCH  28  31
ATOM     31  O   UNL A   1      40.638  20.503  27.438  1.00  0.00    -0.449 OA
BRANCH  31  32
ATOM     32  C   UNL A   1      41.810  19.676  27.423  1.00  0.00     0.093 C 
ATOM     33  H   UNL A   1      42.657  20.272  27.692  1.00  0.00     0.071 H 
ATOM     34  H   UNL A   1      41.660  18.879  28.120  1.00  0.00     0.071 H 
BRANCH  32  35
ATOM     35  C   UNL A   1      42.060  19.055  26.045  1.00  0.00    -0.019 C 
ATOM     36  H   UNL A   1      42.015  17.992  26.149  1.00  0.00     0.030 H 
ATOM     37  H   UNL A   1      41.307  19.459  25.401  1.00  0.00     0.030 H 
BRANCH  35  38
ATOM     38  C   UNL A   1      43.403  19.408  25.392  1.00  0.00    -0.050 C 
ATOM     39  H   UNL A   1      44.142  18.733  25.769  1.00  0.00     0.027 H 
ATOM     40  H   UNL A   1      43.254  19.327  24.336  1.00  0.00     0.027 H 
BRANCH  38  41
ATOM     41  C   UNL A   1      43.889  20.841  25.649  1.00  0.00    -0.053 C 
ATOM     42  H   UNL A   1      43.058  21.502  25.521  1.00  0.00     0.027 H 
ATOM     43  H   UNL A   1      44.287  20.848  26.643  1.00  0.00     0.027 H 
BRANCH  41  44
ATOM     44  C   UNL A   1      45.016  21.312  24.732  1.00  0.00    -0.056 C 
ATOM     45  H   UNL A   1      45.865  21.562  25.334  1.00  0.00     0.026 H 
ATOM     46  H   UNL A   1      45.236  20.515  24.052  1.00  0.00     0.026 H 
BRANCH  44  47
ATOM     47  C   UNL A   1      44.629  22.527  23.906  1.00  0.00    -0.065 C 
ATOM     48  H   UNL A   1      44.369  23.335  24.559  1.00  0.00     0.023 H 
ATOM     49  H   UNL A   1      43.790  22.285  23.288  1.00  0.00     0.023 H 
ATOM     50  H   UNL A   1      45.455  22.817  23.291  1.00  0.00     0.023 H 
ENDBRANCH  44  47
ENDBRANCH  41  44
ENDBRANCH  38  41
ENDBRANCH  35  38
ENDBRANCH  32  35
ENDBRANCH  31  32
ENDBRANCH  28  31
ENDBRANCH  18  27
ENDBRANCH   8  17
ENDBRANCH   5   7
BRANCH   5  51
ATOM     51  C   UNL A   1      30.637  24.888  23.513  1.00  0.00    -0.049 C 
ATOM     52  H   UNL A   1      31.126  24.843  22.562  1.00  0.00     0.024 H 
ATOM     53  H   UNL A   1      29.799  25.552  23.452  1.00  0.00     0.024 H 
ATOM     54  H   UNL A   1      30.297  23.912  23.787  1.00  0.00     0.024 H 
ENDBRANCH   5  51
ENDBRANCH   1   5
BRANCH   3  55
ATOM     55  C   UNL A   1      31.741  28.181  26.104  1.00  0.00     0.017 C 
ATOM     56  H   UNL A   1      31.012  28.803  25.626  1.00  0.00     0.049 H 
ATOM     57  H   UNL A   1      32.531  27.930  25.428  1.00  0.00     0.049 H 
BRANCH  55  58
ATOM     58  C   UNL A   1      32.345  28.944  27.285  1.00  0.00    -0.036 C 
ATOM     59  H   UNL A   1      32.445  28.268  28.108  1.00  0.00     0.028 H 
ATOM     60  H   UNL A   1      31.685  29.757  27.503  1.00  0.00     0.028 H 
BRANCH  58  61
ATOM     61  C   UNL A   1      33.721  29.550  26.987  1.00  0.00    -0.052 C 
ATOM     62  H   UNL A   1      33.792  29.708  25.931  1.00  0.00     0.027 H 
ATOM     63  H   UNL A   1      34.442  28.855  27.362  1.00  0.00     0.027 H 
BRANCH  61  64
ATOM     64  C   UNL A   1      34.006  30.885  27.689  1.00  0.00    -0.052 C 
ATOM     65  H   UNL A   1      35.066  30.979  27.802  1.00  0.00     0.027 H 
ATOM     66  H   UNL A   1      33.476  30.847  28.618  1.00  0.00     0.027 H 
BRANCH  64  67
ATOM     67  C   UNL A   1      33.495  32.133  26.963  1.00  0.00    -0.036 C 
ATOM     68  H   UNL A   1      33.257  31.858  25.957  1.00  0.00     0.028 H 
ATOM     69  H   UNL A   1      34.276  32.861  27.026  1.00  0.00     0.028 H 
BRANCH  67  70
ATOM     70  C   UNL A   1      32.258  32.771  27.588  1.00  0.00     0.018 C 
ATOM     71  H   UNL A   1      32.076  32.316  28.539  1.00  0.00     0.049 H 
ATOM     72  H   UNL A   1      31.432  32.616  26.925  1.00  0.00     0.049 H 
BRANCH  70  73
ATOM     73  N   UNL A   1      32.425  34.204  27.774  1.00  0.00    -0.352 N 
ATOM     74  C   UNL A   1      33.279  34.889  28.601  1.00  0.00     0.251 C 
ATOM     75  H   UNL A   1      31.836  34.768  27.222  1.00  0.00     0.163 HD
ATOM     76  O   UNL A   1      33.114  36.088  28.801  1.00  0.00    -0.269 OA
BRANCH  74  77
ATOM     77  C   UNL A   1      34.399  34.185  29.261  1.00  0.00     0.039 A 
ATOM     78  C   UNL A   1      35.694  34.363  28.769  1.00  0.00    -0.049 A 
ATOM     79  C   UNL A   1      34.168  33.326  30.340  1.00  0.00    -0.049 A 
ATOM     80  C   UNL A   1      36.768  33.729  29.399  1.00  0.00    -0.053 A 
ATOM     81  H   UNL A   1      35.857  34.962  27.944  1.00  0.00     0.063 H 
ATOM     82  C   UNL A   1      35.245  32.747  31.007  1.00  0.00    -0.053 A 
ATOM     83  H   UNL A   1      33.203  33.120  30.640  1.00  0.00     0.063 H 
ATOM     84  C   UNL A   1      36.555  32.944  30.543  1.00  0.00    -0.014 A 
ATOM     85  H   UNL A   1      37.721  33.838  29.020  1.00  0.00     0.063 H 
ATOM     86  H   UNL A   1      35.079  32.170  31.847  1.00  0.00     0.063 H 
BRANCH  84  87
ATOM     87  C   UNL A   1      37.691  32.334  31.279  1.00  0.00     0.031 A 
ATOM     88  C   UNL A   1      38.444  31.174  30.689  1.00  0.00     0.074 A 
ATOM     89  C   UNL A   1      37.998  32.784  32.510  1.00  0.00     0.049 A 
ATOM     90  N   UNL A   1      39.414  30.466  31.212  1.00  0.00    -0.248 NA
ATOM     91  C   UNL A   1      38.037  30.736  29.346  1.00  0.00    -0.034 C 
ATOM     92  C   UNL A   1      37.310  33.872  33.207  1.00  0.00    -0.036 A 
ATOM     93  N   UNL A   1      38.958  32.374  33.401  1.00  0.00    -0.354 N 
ATOM     94  C   UNL A   1      39.723  29.496  30.268  1.00  0.00     0.074 A 
ATOM     95  C   UNL A   1      38.805  29.672  29.163  1.00  0.00    -0.034 C 
ATOM     96  H   UNL A   1      37.336  31.150  28.711  1.00  0.00     0.065 H 
ATOM     97  C   UNL A   1      37.881  34.056  34.408  1.00  0.00    -0.036 A 
ATOM     98  H   UNL A   1      36.513  34.411  32.834  1.00  0.00     0.065 H 
ATOM     99  C   UNL A   1      38.948  33.076  34.582  1.00  0.00     0.049 A 
ATOM    100  H   UNL A   1      39.594  31.646  33.212  1.00  0.00     0.167 HD
ATOM    101  C   UNL A   1      40.699  28.556  30.311  1.00  0.00     0.037 A 
ATOM    102  H   UNL A   1      38.756  29.051  28.341  1.00  0.00     0.065 H 
ATOM    103  H   UNL A   1      37.610  34.776  35.096  1.00  0.00     0.065 H 
ATOM    104  C   UNL A   1      39.707  32.936  35.686  1.00  0.00     0.037 A 
ATOM    105  C   UNL A   1      41.622  28.399  31.405  1.00  0.00     0.049 A 
ATOM    106  C   UNL A   1      40.774  31.877  35.713  1.00  0.00     0.074 A 
ATOM    107  C   UNL A   1      42.687  27.520  31.516  1.00  0.00    -0.036 A 
ATOM    108  N   UNL A   1      41.588  29.134  32.580  1.00  0.00    -0.354 N 
ATOM    109  N   UNL A   1      41.103  31.010  34.786  1.00  0.00    -0.248 NA
ATOM    110  C   UNL A   1      41.578  31.778  36.938  1.00  0.00    -0.034 C 
ATOM    111  C   UNL A   1      43.265  27.690  32.777  1.00  0.00    -0.036 A 
ATOM    112  H   UNL A   1      43.000  26.855  30.790  1.00  0.00     0.065 H 
ATOM    113  C   UNL A   1      42.595  28.710  33.433  1.00  0.00     0.049 A 
ATOM    114  H   UNL A   1      40.944  29.852  32.779  1.00  0.00     0.167 HD
ATOM    115  C   UNL A   1      42.164  30.282  35.304  1.00  0.00     0.074 A 
ATOM    116  C   UNL A   1      42.437  30.820  36.621  1.00  0.00    -0.034 C 
ATOM    117  H   UNL A   1      41.495  32.314  37.816  1.00  0.00     0.065 H 
ATOM    118  H   UNL A   1      44.056  27.147  33.156  1.00  0.00     0.065 H 
ATOM    119  C   UNL A   1      42.852  29.256  34.742  1.00  0.00     0.037 A 
ATOM    120  H   UNL A   1      43.203  30.499  37.234  1.00  0.00     0.065 H 
BRANCH 101 121
ATOM    121  C   UNL A   1      40.819  27.624  29.140  1.00  0.00     0.064 A 
ATOM    122  C   UNL A   1      39.930  26.553  28.956  1.00  0.00     0.173 A 
ATOM    123  C   UNL A   1      41.810  27.825  28.168  1.00  0.00     0.173 A 
ATOM    124  F   UNL A   1      38.970  26.310  29.863  1.00  0.00    -0.203 F 
ATOM    125  C   UNL A   1      40.046  25.704  27.860  1.00  0.00     0.198 A 
ATOM    126  C   UNL A   1      41.904  26.992  27.055  1.00  0.00     0.198 A 
ATOM    127  F   UNL A   1      42.683  28.837  28.290  1.00  0.00    -0.203 F 
ATOM    128  F   UNL A   1      39.215  24.660  27.732  1.00  0.00    -0.200 F 
ATOM    129  C   UNL A   1      41.028  25.928  26.906  1.00  0.00     0.200 A 
ATOM    130  F   UNL A   1      42.845  27.219  26.129  1.00  0.00    -0.200 F 
ATOM    131  F   UNL A   1      41.133  25.115  25.847  1.00  0.00    -0.200 F 
ENDBRANCH 101 121
BRANCH 104 132
ATOM    132  C   UNL A   1      39.495  33.836  36.849  1.00  0.00     0.064 A 
ATOM    133  C   UNL A   1      38.734  33.419  37.951  1.00  0.00     0.173 A 
ATOM    134  C   UNL A   1      40.041  35.127  36.884  1.00  0.00     0.173 A 
ATOM    135  F   UNL A   1      38.173  32.201  37.955  1.00  0.00    -0.203 F 
ATOM    136  C   UNL A   1      38.513  34.266  39.035  1.00  0.00     0.198 A 
ATOM    137  C   UNL A   1      39.844  35.962  37.982  1.00  0.00     0.198 A 
ATOM    138  F   UNL A   1      40.782  35.572  35.859  1.00  0.00    -0.203 F 
ATOM    139  F   UNL A   1      37.744  33.859  40.054  1.00  0.00    -0.200 F 
ATOM    140  C   UNL A   1      39.072  35.535  39.053  1.00  0.00     0.200 A 
ATOM    141  F   UNL A   1      40.400  37.181  38.002  1.00  0.00    -0.200 F 
ATOM    142  F   UNL A   1      38.865  36.347  40.097  1.00  0.00    -0.200 F 
ENDBRANCH 104 132
BRANCH 119 143
ATOM    143  C   UNL A   1      43.978  28.666  35.540  1.00  0.00     0.064 A 
ATOM    144  C   UNL A   1      43.780  27.568  36.390  1.00  0.00     0.173 A 
ATOM    145  C   UNL A   1      45.277  29.184  35.426  1.00  0.00     0.173 A 
ATOM    146  F   UNL A   1      42.554  27.048  36.546  1.00  0.00    -0.203 F 
ATOM    147  C   UNL A   1      44.837  27.027  37.118  1.00  0.00     0.198 A 
ATOM    148  C   UNL A   1      46.337  28.621  36.132  1.00  0.00     0.198 A 
ATOM    149  F   UNL A   1      45.522  30.230  34.622  1.00  0.00    -0.203 F 
ATOM    150  F   UNL A   1      44.615  26.011  37.963  1.00  0.00    -0.200 F 
ATOM    151  C   UNL A   1      46.115  27.549  36.983  1.00  0.00     0.200 A 
ATOM    152  F   UNL A   1      47.573  29.117  35.989  1.00  0.00    -0.200 F 
ATOM    153  F   UNL A   1      47.131  27.023  37.678  1.00  0.00    -0.200 F 
ENDBRANCH 119 143
ENDBRANCH  84  87
ENDBRANCH  74  77
ENDBRANCH  70  73
ENDBRANCH  67  70
ENDBRANCH  64  67
ENDBRANCH  61  64
ENDBRANCH  58  61
ENDBRANCH  55  58
ENDBRANCH   3  55
TORSDOF 24
ENDMDL
MODEL 9
REMARK VINA RESULT:     -10.4      4.773     10.578
REMARK SMILES CCCCCCOC(=O)Nc1cccc(-c2ccc([C@@H](C)C(=O)NCCCCCCNC(=O)c3ccc(-c4c5nc(c(-c6c(F)c(F)c(F)c(F)c6F)c6ccc([nH]6)c(-c6c(F)c(F)c(F)c(F)c6F)c6nc(c(-c7c(F)c(F)c(F)c(F)c7F)c7ccc4[nH]7)C=C6)C=C5)cc3)cc2F)c1
REMARK SMILES IDX 22 1 23 2 24 3 20 5 19 7 16 8 17 9 98 10 18 11 97 13 99 14
REMARK SMILES IDX 15 17 11 18 12 19 100 20 13 21 14 24 10 27 8 28 9 29 7 31
REMARK SMILES IDX 6 32 5 35 4 38 3 41 2 44 1 47 21 51 25 55 26 58 27 61 28 64
REMARK SMILES IDX 29 67 30 70 31 73 32 74 33 76 34 77 35 78 96 79 36 80 95 82
REMARK SMILES IDX 37 84 38 87 39 88 89 89 40 90 94 91 88 92 90 93 41 94 93 95
REMARK SMILES IDX 87 97 86 99 42 101 74 104 54 105 73 106 55 107 58 108 72 109
REMARK SMILES IDX 91 110 56 111 57 113 71 115 92 116 59 119 43 121 44 122
REMARK SMILES IDX 52 123 45 124 46 125 50 126 53 127 47 128 48 129 51 130
REMARK SMILES IDX 49 131 75 132 76 133 84 134 77 135 78 136 82 137 85 138
REMARK SMILES IDX 79 139 80 140 83 141 81 142 60 143 61 144 69 145 62 146
REMARK SMILES IDX 63 147 67 148 70 149 64 150 65 151 68 152 66 153
REMARK H PARENT 24 4 20 6 17 12 18 15 97 16 12 22 100 23 13 25 14 26 10 30
REMARK H PARENT 6 33 6 34 5 36 5 37 4 39 4 40 3 42 3 43 2 45 2 46 1 48 1 49
REMARK H PARENT 1 50 21 52 21 53 21 54 25 56 25 57 26 59 26 60 27 62 27 63
REMARK H PARENT 28 65 28 66 29 68 29 69 30 71 30 72 31 75 35 81 96 83 36 85
REMARK H PARENT 95 86 94 96 88 98 90 100 93 102 87 103 55 112 58 114 91 117
REMARK H PARENT 56 118 92 120
REMARK Flexibility Score: inf
ROOT
ATOM      1  C   UNL A   1      41.441  25.329  28.264  1.00  0.00     0.227 C 
ATOM      2  O   UNL A   1      42.141  25.925  29.092  1.00  0.00    -0.274 OA
ATOM      3  N   UNL A   1      41.462  23.970  28.322  1.00  0.00    -0.356 N 
ATOM      4  H   UNL A   1      41.973  23.605  29.080  1.00  0.00     0.163 HD
ENDROOT
BRANCH   1   5
ATOM      5  C   UNL A   1      40.600  26.127  27.256  1.00  0.00     0.060 C 
ATOM      6  H   UNL A   1      39.665  25.612  27.189  1.00  0.00     0.045 H 
BRANCH   5   7
ATOM      7  C   UNL A   1      40.197  27.506  27.755  1.00  0.00    -0.033 A 
ATOM      8  C   UNL A   1      39.416  30.013  28.887  1.00  0.00     0.018 A 
ATOM      9  C   UNL A   1      40.663  29.847  28.269  1.00  0.00    -0.051 A 
ATOM     10  C   UNL A   1      38.551  28.906  28.868  1.00  0.00     0.131 A 
ATOM     11  C   UNL A   1      41.033  28.627  27.687  1.00  0.00    -0.057 A 
ATOM     12  H   UNL A   1      41.323  30.640  28.243  1.00  0.00     0.063 H 
ATOM     13  C   UNL A   1      38.934  27.674  28.337  1.00  0.00    -0.022 A 
ATOM     14  F   UNL A   1      37.311  29.001  29.375  1.00  0.00    -0.206 F 
ATOM     15  H   UNL A   1      41.939  28.554  27.199  1.00  0.00     0.063 H 
ATOM     16  H   UNL A   1      38.280  26.877  28.374  1.00  0.00     0.066 H 
BRANCH   8  17
ATOM     17  C   UNL A   1      39.055  31.282  29.550  1.00  0.00    -0.013 A 
ATOM     18  C   UNL A   1      37.594  33.244  29.689  1.00  0.00     0.045 A 
ATOM     19  C   UNL A   1      38.378  33.771  30.709  1.00  0.00    -0.038 A 
ATOM     20  C   UNL A   1      37.931  32.007  29.126  1.00  0.00    -0.030 A 
ATOM     21  C   UNL A   1      39.462  33.041  31.194  1.00  0.00    -0.060 A 
ATOM     22  H   UNL A   1      38.157  34.698  31.107  1.00  0.00     0.064 H 
ATOM     23  H   UNL A   1      37.335  31.618  28.378  1.00  0.00     0.065 H 
ATOM     24  C   UNL A   1      39.802  31.814  30.614  1.00  0.00    -0.054 A 
ATOM     25  H   UNL A   1      40.016  33.408  31.983  1.00  0.00     0.062 H 
ATOM     26  H   UNL A   1      40.614  31.290  30.975  1.00  0.00     0.063 H 
BRANCH  18  27
ATOM     27  N   UNL A   1      36.544  34.012  29.170  1.00  0.00    -0.291 N 
ATOM     28  C   UNL A   1      35.268  34.098  29.664  1.00  0.00     0.411 C 
ATOM     29  O   UNL A   1      34.326  34.389  28.947  1.00  0.00    -0.224 OA
ATOM     30  H   UNL A   1      36.743  34.546  28.367  1.00  0.00     0.173 HD
BRANCH  28  31
ATOM     31  O   UNL A   1      35.221  33.954  31.015  1.00  0.00    -0.449 OA
BRANCH  31  32
ATOM     32  C   UNL A   1      34.680  32.740  31.557  1.00  0.00     0.093 C 
ATOM     33  H   UNL A   1      33.774  32.968  32.078  1.00  0.00     0.071 H 
ATOM     34  H   UNL A   1      34.501  32.068  30.744  1.00  0.00     0.071 H 
BRANCH  32  35
ATOM     35  C   UNL A   1      35.650  32.058  32.527  1.00  0.00    -0.019 C 
ATOM     36  H   UNL A   1      36.442  32.744  32.738  1.00  0.00     0.030 H 
ATOM     37  H   UNL A   1      35.067  31.793  33.384  1.00  0.00     0.030 H 
BRANCH  35  38
ATOM     38  C   UNL A   1      36.278  30.751  32.027  1.00  0.00    -0.050 C 
ATOM     39  H   UNL A   1      35.515  30.002  32.009  1.00  0.00     0.027 H 
ATOM     40  H   UNL A   1      36.685  30.964  31.061  1.00  0.00     0.027 H 
BRANCH  38  41
ATOM     41  C   UNL A   1      37.442  30.226  32.879  1.00  0.00    -0.053 C 
ATOM     42  H   UNL A   1      38.272  30.888  32.750  1.00  0.00     0.027 H 
ATOM     43  H   UNL A   1      37.083  30.187  33.886  1.00  0.00     0.027 H 
BRANCH  41  44
ATOM     44  C   UNL A   1      37.905  28.812  32.533  1.00  0.00    -0.056 C 
ATOM     45  H   UNL A   1      37.511  28.135  33.262  1.00  0.00     0.026 H 
ATOM     46  H   UNL A   1      37.548  28.584  31.550  1.00  0.00     0.026 H 
BRANCH  44  47
ATOM     47  C   UNL A   1      39.419  28.680  32.514  1.00  0.00    -0.065 C 
ATOM     48  H   UNL A   1      39.712  27.836  33.104  1.00  0.00     0.023 H 
ATOM     49  H   UNL A   1      39.859  29.568  32.918  1.00  0.00     0.023 H 
ATOM     50  H   UNL A   1      39.752  28.543  31.506  1.00  0.00     0.023 H 
ENDBRANCH  44  47
ENDBRANCH  41  44
ENDBRANCH  38  41
ENDBRANCH  35  38
ENDBRANCH  32  35
ENDBRANCH  31  32
ENDBRANCH  28  31
ENDBRANCH  18  27
ENDBRANCH   8  17
ENDBRANCH   5   7
BRANCH   5  51
ATOM     51  C   UNL A   1      41.123  26.061  25.822  1.00  0.00    -0.049 C 
ATOM     52  H   UNL A   1      40.298  26.058  25.141  1.00  0.00     0.024 H 
ATOM     53  H   UNL A   1      41.695  25.166  25.692  1.00  0.00     0.024 H 
ATOM     54  H   UNL A   1      41.743  26.911  25.629  1.00  0.00     0.024 H 
ENDBRANCH   5  51
ENDBRANCH   1   5
BRANCH   3  55
ATOM     55  C   UNL A   1      40.866  22.967  27.468  1.00  0.00     0.017 C 
ATOM     56  H   UNL A   1      39.995  23.379  27.003  1.00  0.00     0.049 H 
ATOM     57  H   UNL A   1      40.613  22.121  28.073  1.00  0.00     0.049 H 
BRANCH  55  58
ATOM     58  C   UNL A   1      41.836  22.503  26.379  1.00  0.00    -0.036 C 
ATOM     59  H   UNL A   1      41.574  22.990  25.463  1.00  0.00     0.028 H 
ATOM     60  H   UNL A   1      41.749  21.439  26.315  1.00  0.00     0.028 H 
BRANCH  58  61
ATOM     61  C   UNL A   1      43.304  22.814  26.689  1.00  0.00    -0.052 C 
ATOM     62  H   UNL A   1      43.836  21.887  26.746  1.00  0.00     0.027 H 
ATOM     63  H   UNL A   1      43.307  23.361  27.608  1.00  0.00     0.027 H 
BRANCH  61  64
ATOM     64  C   UNL A   1      44.009  23.705  25.657  1.00  0.00    -0.052 C 
ATOM     65  H   UNL A   1      44.092  24.688  26.071  1.00  0.00     0.027 H 
ATOM     66  H   UNL A   1      43.409  23.661  24.772  1.00  0.00     0.027 H 
BRANCH  64  67
ATOM     67  C   UNL A   1      45.410  23.248  25.240  1.00  0.00    -0.036 C 
ATOM     68  H   UNL A   1      45.470  23.291  24.173  1.00  0.00     0.028 H 
ATOM     69  H   UNL A   1      45.533  22.259  25.628  1.00  0.00     0.028 H 
BRANCH  67  70
ATOM     70  C   UNL A   1      46.550  24.084  25.816  1.00  0.00     0.018 C 
ATOM     71  H   UNL A   1      47.372  23.437  26.044  1.00  0.00     0.049 H 
ATOM     72  H   UNL A   1      46.191  24.573  26.698  1.00  0.00     0.049 H 
BRANCH  70  73
ATOM     73  N   UNL A   1      46.996  25.105  24.882  1.00  0.00    -0.352 N 
ATOM     74  C   UNL A   1      46.755  26.455  24.874  1.00  0.00     0.251 C 
ATOM     75  H   UNL A   1      47.558  24.777  24.143  1.00  0.00     0.163 HD
ATOM     76  O   UNL A   1      47.012  27.121  23.876  1.00  0.00    -0.269 OA
BRANCH  74  77
ATOM     77  C   UNL A   1      46.175  27.113  26.064  1.00  0.00     0.039 A 
ATOM     78  C   UNL A   1      47.034  27.616  27.044  1.00  0.00    -0.049 A 
ATOM     79  C   UNL A   1      44.790  27.205  26.229  1.00  0.00    -0.049 A 
ATOM     80  C   UNL A   1      46.505  28.268  28.161  1.00  0.00    -0.053 A 
ATOM     81  H   UNL A   1      48.056  27.507  26.943  1.00  0.00     0.063 H 
ATOM     82  C   UNL A   1      44.266  27.912  27.308  1.00  0.00    -0.053 A 
ATOM     83  H   UNL A   1      44.157  26.750  25.553  1.00  0.00     0.063 H 
ATOM     84  C   UNL A   1      45.118  28.451  28.283  1.00  0.00    -0.014 A 
ATOM     85  H   UNL A   1      47.137  28.615  28.899  1.00  0.00     0.063 H 
ATOM     86  H   UNL A   1      43.245  28.040  27.390  1.00  0.00     0.063 H 
BRANCH  84  87
ATOM     87  C   UNL A   1      44.542  29.217  29.417  1.00  0.00     0.031 A 
ATOM     88  C   UNL A   1      44.257  30.685  29.276  1.00  0.00     0.074 A 
ATOM     89  C   UNL A   1      44.342  28.599  30.597  1.00  0.00     0.049 A 
ATOM     90  N   UNL A   1      43.825  31.535  30.174  1.00  0.00    -0.248 NA
ATOM     91  C   UNL A   1      44.516  31.286  27.959  1.00  0.00    -0.034 C 
ATOM     92  C   UNL A   1      44.624  27.189  30.870  1.00  0.00    -0.036 A 
ATOM     93  N   UNL A   1      43.868  29.080  31.791  1.00  0.00    -0.354 N 
ATOM     94  C   UNL A   1      43.771  32.766  29.535  1.00  0.00     0.074 A 
ATOM     95  C   UNL A   1      44.264  32.565  28.189  1.00  0.00    -0.034 C 
ATOM     96  H   UNL A   1      44.816  30.828  27.083  1.00  0.00     0.065 H 
ATOM     97  C   UNL A   1      44.299  26.914  32.143  1.00  0.00    -0.036 A 
ATOM     98  H   UNL A   1      45.010  26.514  30.191  1.00  0.00     0.065 H 
ATOM     99  C   UNL A   1      43.825  28.135  32.788  1.00  0.00     0.049 A 
ATOM    100  H   UNL A   1      43.584  30.014  31.922  1.00  0.00     0.167 HD
ATOM    101  C   UNL A   1      43.330  33.951  30.021  1.00  0.00     0.037 A 
ATOM    102  H   UNL A   1      44.400  33.321  27.499  1.00  0.00     0.065 H 
ATOM    103  H   UNL A   1      44.373  25.989  32.594  1.00  0.00     0.065 H 
ATOM    104  C   UNL A   1      43.455  28.244  34.078  1.00  0.00     0.037 A 
ATOM    105  C   UNL A   1      42.822  34.140  31.355  1.00  0.00     0.049 A 
ATOM    106  C   UNL A   1      42.983  29.574  34.595  1.00  0.00     0.074 A 
ATOM    107  C   UNL A   1      42.292  35.287  31.922  1.00  0.00    -0.036 A 
ATOM    108  N   UNL A   1      42.785  33.157  32.333  1.00  0.00    -0.354 N 
ATOM    109  N   UNL A   1      42.871  30.717  33.962  1.00  0.00    -0.248 NA
ATOM    110  C   UNL A   1      42.583  29.630  36.008  1.00  0.00    -0.034 C 
ATOM    111  C   UNL A   1      41.981  35.011  33.257  1.00  0.00    -0.036 A 
ATOM    112  H   UNL A   1      42.150  36.189  31.442  1.00  0.00     0.065 H 
ATOM    113  C   UNL A   1      42.268  33.679  33.508  1.00  0.00     0.049 A 
ATOM    114  H   UNL A   1      43.082  32.227  32.210  1.00  0.00     0.167 HD
ATOM    115  C   UNL A   1      42.366  31.618  34.887  1.00  0.00     0.074 A 
ATOM    116  C   UNL A   1      42.175  30.886  36.123  1.00  0.00    -0.034 C 
ATOM    117  H   UNL A   1      42.611  28.887  36.723  1.00  0.00     0.065 H 
ATOM    118  H   UNL A   1      41.603  35.685  33.941  1.00  0.00     0.065 H 
ATOM    119  C   UNL A   1      42.086  32.936  34.730  1.00  0.00     0.037 A 
ATOM    120  H   UNL A   1      41.774  31.291  36.983  1.00  0.00     0.065 H 
BRANCH 101 121
ATOM    121  C   UNL A   1      43.377  35.140  29.105  1.00  0.00     0.064 A 
ATOM    122  C   UNL A   1      44.573  35.834  28.858  1.00  0.00     0.173 A 
ATOM    123  C   UNL A   1      42.223  35.568  28.432  1.00  0.00     0.173 A 
ATOM    124  F   UNL A   1      45.703  35.472  29.485  1.00  0.00    -0.203 F 
ATOM    125  C   UNL A   1      44.604  36.927  27.997  1.00  0.00     0.198 A 
ATOM    126  C   UNL A   1      42.264  36.642  27.547  1.00  0.00     0.198 A 
ATOM    127  F   UNL A   1      41.055  34.937  28.625  1.00  0.00    -0.203 F 
ATOM    128  F   UNL A   1      45.747  37.603  27.816  1.00  0.00    -0.200 F 
ATOM    129  C   UNL A   1      43.452  37.326  27.336  1.00  0.00     0.200 A 
ATOM    130  F   UNL A   1      41.153  37.017  26.899  1.00  0.00    -0.200 F 
ATOM    131  F   UNL A   1      43.486  38.373  26.501  1.00  0.00    -0.200 F 
ENDBRANCH 101 121
BRANCH 104 132
ATOM    132  C   UNL A   1      43.502  27.052  34.964  1.00  0.00     0.064 A 
ATOM    133  C   UNL A   1      44.672  26.717  35.659  1.00  0.00     0.173 A 
ATOM    134  C   UNL A   1      42.383  26.223  35.134  1.00  0.00     0.173 A 
ATOM    135  F   UNL A   1      45.775  27.468  35.513  1.00  0.00    -0.203 F 
ATOM    136  C   UNL A   1      44.729  25.589  36.474  1.00  0.00     0.198 A 
ATOM    137  C   UNL A   1      42.431  25.112  35.972  1.00  0.00     0.198 A 
ATOM    138  F   UNL A   1      41.236  26.502  34.496  1.00  0.00    -0.203 F 
ATOM    139  F   UNL A   1      45.874  25.267  37.090  1.00  0.00    -0.200 F 
ATOM    140  C   UNL A   1      43.606  24.790  36.635  1.00  0.00     0.200 A 
ATOM    141  F   UNL A   1      41.340  24.352  36.138  1.00  0.00    -0.200 F 
ATOM    142  F   UNL A   1      43.658  23.708  37.423  1.00  0.00    -0.200 F 
ENDBRANCH 104 132
BRANCH 119 143
ATOM    143  C   UNL A   1      41.524  33.664  35.916  1.00  0.00     0.064 A 
ATOM    144  C   UNL A   1      42.351  34.348  36.820  1.00  0.00     0.173 A 
ATOM    145  C   UNL A   1      40.138  33.707  36.133  1.00  0.00     0.173 A 
ATOM    146  F   UNL A   1      43.683  34.323  36.666  1.00  0.00    -0.203 F 
ATOM    147  C   UNL A   1      41.814  35.025  37.911  1.00  0.00     0.198 A 
ATOM    148  C   UNL A   1      39.602  34.411  37.208  1.00  0.00     0.198 A 
ATOM    149  F   UNL A   1      39.302  33.075  35.296  1.00  0.00    -0.203 F 
ATOM    150  F   UNL A   1      42.627  35.628  38.789  1.00  0.00    -0.200 F 
ATOM    151  C   UNL A   1      40.440  35.062  38.100  1.00  0.00     0.200 A 
ATOM    152  F   UNL A   1      38.274  34.457  37.381  1.00  0.00    -0.200 F 
ATOM    153  F   UNL A   1      39.924  35.720  39.147  1.00  0.00    -0.200 F 
ENDBRANCH 119 143
ENDBRANCH  84  87
ENDBRANCH  74  77
ENDBRANCH  70  73
ENDBRANCH  67  70
ENDBRANCH  64  67
ENDBRANCH  61  64
ENDBRANCH  58  61
ENDBRANCH  55  58
ENDBRANCH   3  55
TORSDOF 24
ENDMDL
MODEL 10
REMARK VINA RESULT:     -10.4      4.777     10.496
REMARK SMILES CCCCCCOC(=O)Nc1cccc(-c2ccc([C@@H](C)C(=O)NCCCCCCNC(=O)c3ccc(-c4c5nc(c(-c6c(F)c(F)c(F)c(F)c6F)c6ccc([nH]6)c(-c6c(F)c(F)c(F)c(F)c6F)c6nc(c(-c7c(F)c(F)c(F)c(F)c7F)c7ccc4[nH]7)C=C6)C=C5)cc3)cc2F)c1
REMARK SMILES IDX 22 1 23 2 24 3 20 5 19 7 16 8 17 9 98 10 18 11 97 13 99 14
REMARK SMILES IDX 15 17 11 18 12 19 100 20 13 21 14 24 10 27 8 28 9 29 7 31
REMARK SMILES IDX 6 32 5 35 4 38 3 41 2 44 1 47 21 51 25 55 26 58 27 61 28 64
REMARK SMILES IDX 29 67 30 70 31 73 32 74 33 76 34 77 35 78 96 79 36 80 95 82
REMARK SMILES IDX 37 84 38 87 39 88 89 89 40 90 94 91 88 92 90 93 41 94 93 95
REMARK SMILES IDX 87 97 86 99 42 101 74 104 54 105 73 106 55 107 58 108 72 109
REMARK SMILES IDX 91 110 56 111 57 113 71 115 92 116 59 119 43 121 44 122
REMARK SMILES IDX 52 123 45 124 46 125 50 126 53 127 47 128 48 129 51 130
REMARK SMILES IDX 49 131 75 132 76 133 84 134 77 135 78 136 82 137 85 138
REMARK SMILES IDX 79 139 80 140 83 141 81 142 60 143 61 144 69 145 62 146
REMARK SMILES IDX 63 147 67 148 70 149 64 150 65 151 68 152 66 153
REMARK H PARENT 24 4 20 6 17 12 18 15 97 16 12 22 100 23 13 25 14 26 10 30
REMARK H PARENT 6 33 6 34 5 36 5 37 4 39 4 40 3 42 3 43 2 45 2 46 1 48 1 49
REMARK H PARENT 1 50 21 52 21 53 21 54 25 56 25 57 26 59 26 60 27 62 27 63
REMARK H PARENT 28 65 28 66 29 68 29 69 30 71 30 72 31 75 35 81 96 83 36 85
REMARK H PARENT 95 86 94 96 88 98 90 100 93 102 87 103 55 112 58 114 91 117
REMARK H PARENT 56 118 92 120
REMARK Flexibility Score: inf
ROOT
ATOM      1  C   UNL A   1      41.727  24.797  28.106  1.00  0.00     0.227 C 
ATOM      2  O   UNL A   1      42.734  25.239  28.673  1.00  0.00    -0.274 OA
ATOM      3  N   UNL A   1      41.510  23.458  28.214  1.00  0.00    -0.356 N 
ATOM      4  H   UNL A   1      42.142  22.993  28.809  1.00  0.00     0.163 HD
ENDROOT
BRANCH   1   5
ATOM      5  C   UNL A   1      40.793  25.753  27.348  1.00  0.00     0.060 C 
ATOM      6  H   UNL A   1      39.833  25.279  27.347  1.00  0.00     0.045 H 
BRANCH   5   7
ATOM      7  C   UNL A   1      40.531  27.059  28.081  1.00  0.00    -0.033 A 
ATOM      8  C   UNL A   1      40.103  29.418  29.638  1.00  0.00     0.018 A 
ATOM      9  C   UNL A   1      41.006  29.404  28.567  1.00  0.00    -0.051 A 
ATOM     10  C   UNL A   1      39.379  28.235  29.868  1.00  0.00     0.131 A 
ATOM     11  C   UNL A   1      41.192  28.257  27.784  1.00  0.00    -0.057 A 
ATOM     12  H   UNL A   1      41.544  30.257  28.350  1.00  0.00     0.063 H 
ATOM     13  C   UNL A   1      39.599  27.074  29.127  1.00  0.00    -0.022 A 
ATOM     14  F   UNL A   1      38.443  28.185  30.830  1.00  0.00    -0.206 F 
ATOM     15  H   UNL A   1      41.829  28.296  26.974  1.00  0.00     0.063 H 
ATOM     16  H   UNL A   1      39.071  26.217  29.351  1.00  0.00     0.066 H 
BRANCH   8  17
ATOM     17  C   UNL A   1      39.953  30.611  30.496  1.00  0.00    -0.013 A 
ATOM     18  C   UNL A   1      39.395  31.580  32.676  1.00  0.00     0.045 A 
ATOM     19  C   UNL A   1      39.546  32.862  32.159  1.00  0.00    -0.038 A 
ATOM     20  C   UNL A   1      39.607  30.471  31.849  1.00  0.00    -0.030 A 
ATOM     21  C   UNL A   1      39.953  33.028  30.836  1.00  0.00    -0.060 A 
ATOM     22  H   UNL A   1      39.359  33.686  32.752  1.00  0.00     0.064 H 
ATOM     23  H   UNL A   1      39.506  29.523  32.246  1.00  0.00     0.065 H 
ATOM     24  C   UNL A   1      40.146  31.915  30.011  1.00  0.00    -0.054 A 
ATOM     25  H   UNL A   1      40.112  33.978  30.464  1.00  0.00     0.062 H 
ATOM     26  H   UNL A   1      40.435  32.054  29.031  1.00  0.00     0.063 H 
BRANCH  18  27
ATOM     27  N   UNL A   1      38.930  31.425  33.988  1.00  0.00    -0.291 N 
ATOM     28  C   UNL A   1      37.658  31.662  34.441  1.00  0.00     0.411 C 
ATOM     29  O   UNL A   1      37.441  31.950  35.605  1.00  0.00    -0.224 OA
ATOM     30  H   UNL A   1      39.585  31.116  34.655  1.00  0.00     0.173 HD
BRANCH  28  31
ATOM     31  O   UNL A   1      36.713  31.412  33.496  1.00  0.00    -0.449 OA
BRANCH  31  32
ATOM     32  C   UNL A   1      35.872  32.492  33.065  1.00  0.00     0.093 C 
ATOM     33  H   UNL A   1      34.876  32.316  33.416  1.00  0.00     0.071 H 
ATOM     34  H   UNL A   1      36.270  33.400  33.467  1.00  0.00     0.071 H 
BRANCH  32  35
ATOM     35  C   UNL A   1      35.842  32.626  31.539  1.00  0.00    -0.019 C 
ATOM     36  H   UNL A   1      34.851  32.907  31.252  1.00  0.00     0.030 H 
ATOM     37  H   UNL A   1      36.586  33.356  31.295  1.00  0.00     0.030 H 
BRANCH  35  38
ATOM     38  C   UNL A   1      36.220  31.363  30.755  1.00  0.00    -0.050 C 
ATOM     39  H   UNL A   1      37.048  30.901  31.250  1.00  0.00     0.027 H 
ATOM     40  H   UNL A   1      35.344  30.750  30.732  1.00  0.00     0.027 H 
BRANCH  38  41
ATOM     41  C   UNL A   1      36.614  31.605  29.291  1.00  0.00    -0.053 C 
ATOM     42  H   UNL A   1      36.278  32.581  29.014  1.00  0.00     0.027 H 
ATOM     43  H   UNL A   1      37.678  31.493  29.245  1.00  0.00     0.027 H 
BRANCH  41  44
ATOM     44  C   UNL A   1      36.034  30.603  28.295  1.00  0.00    -0.056 C 
ATOM     45  H   UNL A   1      35.429  29.900  28.830  1.00  0.00     0.026 H 
ATOM     46  H   UNL A   1      35.460  31.152  27.578  1.00  0.00     0.026 H 
BRANCH  44  47
ATOM     47  C   UNL A   1      37.109  29.842  27.537  1.00  0.00    -0.065 C 
ATOM     48  H   UNL A   1      36.723  28.894  27.225  1.00  0.00     0.023 H 
ATOM     49  H   UNL A   1      37.955  29.690  28.174  1.00  0.00     0.023 H 
ATOM     50  H   UNL A   1      37.406  30.407  26.678  1.00  0.00     0.023 H 
ENDBRANCH  44  47
ENDBRANCH  41  44
ENDBRANCH  38  41
ENDBRANCH  35  38
ENDBRANCH  32  35
ENDBRANCH  31  32
ENDBRANCH  28  31
ENDBRANCH  18  27
ENDBRANCH   8  17
ENDBRANCH   5   7
BRANCH   5  51
ATOM     51  C   UNL A   1      41.107  25.873  25.857  1.00  0.00    -0.049 C 
ATOM     52  H   UNL A   1      41.578  24.974  25.518  1.00  0.00     0.024 H 
ATOM     53  H   UNL A   1      41.765  26.702  25.697  1.00  0.00     0.024 H 
ATOM     54  H   UNL A   1      40.200  26.028  25.313  1.00  0.00     0.024 H 
ENDBRANCH   5  51
ENDBRANCH   1   5
BRANCH   3  55
ATOM     55  C   UNL A   1      40.518  22.597  27.611  1.00  0.00     0.017 C 
ATOM     56  H   UNL A   1      39.587  23.123  27.556  1.00  0.00     0.049 H 
ATOM     57  H   UNL A   1      40.425  21.719  28.216  1.00  0.00     0.049 H 
BRANCH  55  58
ATOM     58  C   UNL A   1      40.927  22.164  26.201  1.00  0.00    -0.036 C 
ATOM     59  H   UNL A   1      40.813  23.002  25.545  1.00  0.00     0.028 H 
ATOM     60  H   UNL A   1      40.295  21.345  25.929  1.00  0.00     0.028 H 
BRANCH  58  61
ATOM     61  C   UNL A   1      42.372  21.667  26.105  1.00  0.00    -0.052 C 
ATOM     62  H   UNL A   1      42.357  20.683  25.683  1.00  0.00     0.027 H 
ATOM     63  H   UNL A   1      42.766  21.697  27.098  1.00  0.00     0.027 H 
BRANCH  61  64
ATOM     64  C   UNL A   1      43.301  22.538  25.248  1.00  0.00    -0.052 C 
ATOM     65  H   UNL A   1      42.907  23.533  25.241  1.00  0.00     0.027 H 
ATOM     66  H   UNL A   1      43.327  22.079  24.282  1.00  0.00     0.027 H 
BRANCH  64  67
ATOM     67  C   UNL A   1      44.757  22.609  25.719  1.00  0.00    -0.036 C 
ATOM     68  H   UNL A   1      45.385  22.310  24.907  1.00  0.00     0.028 H 
ATOM     69  H   UNL A   1      44.832  21.962  26.568  1.00  0.00     0.028 H 
BRANCH  67  70
ATOM     70  C   UNL A   1      45.208  23.990  26.187  1.00  0.00     0.018 C 
ATOM     71  H   UNL A   1      45.765  23.883  27.094  1.00  0.00     0.049 H 
ATOM     72  H   UNL A   1      44.335  24.590  26.341  1.00  0.00     0.049 H 
BRANCH  70  73
ATOM     73  N   UNL A   1      46.041  24.650  25.195  1.00  0.00    -0.352 N 
ATOM     74  C   UNL A   1      46.285  25.986  25.000  1.00  0.00     0.251 C 
ATOM     75  H   UNL A   1      46.502  24.046  24.569  1.00  0.00     0.163 HD
ATOM     76  O   UNL A   1      46.822  26.370  23.966  1.00  0.00    -0.269 OA
BRANCH  74  77
ATOM     77  C   UNL A   1      45.893  26.971  26.030  1.00  0.00     0.039 A 
ATOM     78  C   UNL A   1      44.567  27.406  26.079  1.00  0.00    -0.049 A 
ATOM     79  C   UNL A   1      46.836  27.488  26.923  1.00  0.00    -0.049 A 
ATOM     80  C   UNL A   1      44.172  28.314  27.065  1.00  0.00    -0.053 A 
ATOM     81  H   UNL A   1      43.881  27.058  25.391  1.00  0.00     0.063 H 
ATOM     82  C   UNL A   1      46.428  28.341  27.945  1.00  0.00    -0.053 A 
ATOM     83  H   UNL A   1      47.833  27.238  26.824  1.00  0.00     0.063 H 
ATOM     84  C   UNL A   1      45.092  28.761  28.027  1.00  0.00    -0.014 A 
ATOM     85  H   UNL A   1      43.199  28.658  27.086  1.00  0.00     0.063 H 
ATOM     86  H   UNL A   1      47.113  28.665  28.647  1.00  0.00     0.063 H 
BRANCH  84  87
ATOM     87  C   UNL A   1      44.672  29.657  29.134  1.00  0.00     0.031 A 
ATOM     88  C   UNL A   1      44.281  29.085  30.467  1.00  0.00     0.074 A 
ATOM     89  C   UNL A   1      44.579  30.981  28.912  1.00  0.00     0.049 A 
ATOM     90  N   UNL A   1      43.819  29.699  31.528  1.00  0.00    -0.248 NA
ATOM     91  C   UNL A   1      44.400  27.627  30.622  1.00  0.00    -0.034 C 
ATOM     92  C   UNL A   1      44.886  31.649  27.647  1.00  0.00    -0.036 A 
ATOM     93  N   UNL A   1      44.184  32.003  29.739  1.00  0.00    -0.354 N 
ATOM     94  C   UNL A   1      43.583  28.704  32.467  1.00  0.00     0.074 A 
ATOM     95  C   UNL A   1      43.903  27.442  31.836  1.00  0.00    -0.034 C 
ATOM     96  H   UNL A   1      44.774  26.931  29.958  1.00  0.00     0.065 H 
ATOM     97  C   UNL A   1      44.688  32.970  27.786  1.00  0.00    -0.036 A 
ATOM     98  H   UNL A   1      45.205  31.179  26.784  1.00  0.00     0.065 H 
ATOM     99  C   UNL A   1      44.202  33.238  29.136  1.00  0.00     0.049 A 
ATOM    100  H   UNL A   1      43.915  31.865  30.677  1.00  0.00     0.167 HD
ATOM    101  C   UNL A   1      43.159  28.835  33.747  1.00  0.00     0.037 A 
ATOM    102  H   UNL A   1      43.763  26.518  32.275  1.00  0.00     0.065 H 
ATOM    103  H   UNL A   1      44.853  33.681  27.057  1.00  0.00     0.065 H 
ATOM    104  C   UNL A   1      43.855  34.447  29.616  1.00  0.00     0.037 A 
ATOM    105  C   UNL A   1      42.862  30.096  34.376  1.00  0.00     0.049 A 
ATOM    106  C   UNL A   1      43.374  34.563  31.035  1.00  0.00     0.074 A 
ATOM    107  C   UNL A   1      42.487  30.340  35.687  1.00  0.00    -0.036 A 
ATOM    108  N   UNL A   1      42.901  31.326  33.737  1.00  0.00    -0.354 N 
ATOM    109  N   UNL A   1      43.221  33.623  31.937  1.00  0.00    -0.248 NA
ATOM    110  C   UNL A   1      43.020  35.909  31.506  1.00  0.00    -0.034 C 
ATOM    111  C   UNL A   1      42.251  31.711  35.827  1.00  0.00    -0.036 A 
ATOM    112  H   UNL A   1      42.398  29.631  36.432  1.00  0.00     0.065 H 
ATOM    113  C   UNL A   1      42.529  32.330  34.618  1.00  0.00     0.049 A 
ATOM    114  H   UNL A   1      43.155  31.467  32.796  1.00  0.00     0.167 HD
ATOM    115  C   UNL A   1      42.778  34.264  33.085  1.00  0.00     0.074 A 
ATOM    116  C   UNL A   1      42.704  35.677  32.772  1.00  0.00    -0.034 C 
ATOM    117  H   UNL A   1      43.017  36.801  30.987  1.00  0.00     0.065 H 
ATOM    118  H   UNL A   1      41.924  32.183  36.684  1.00  0.00     0.065 H 
ATOM    119  C   UNL A   1      42.459  33.731  34.291  1.00  0.00     0.037 A 
ATOM    120  H   UNL A   1      42.439  36.409  33.449  1.00  0.00     0.065 H 
BRANCH 101 121
ATOM    121  C   UNL A   1      42.990  27.582  34.557  1.00  0.00     0.064 A 
ATOM    122  C   UNL A   1      41.744  26.945  34.677  1.00  0.00     0.173 A 
ATOM    123  C   UNL A   1      44.092  26.985  35.186  1.00  0.00     0.173 A 
ATOM    124  F   UNL A   1      40.655  27.479  34.103  1.00  0.00    -0.203 F 
ATOM    125  C   UNL A   1      41.605  25.776  35.421  1.00  0.00     0.198 A 
ATOM    126  C   UNL A   1      43.956  25.799  35.904  1.00  0.00     0.198 A 
ATOM    127  F   UNL A   1      45.308  27.548  35.099  1.00  0.00    -0.203 F 
ATOM    128  F   UNL A   1      40.397  25.214  35.561  1.00  0.00    -0.200 F 
ATOM    129  C   UNL A   1      42.711  25.200  36.027  1.00  0.00     0.200 A 
ATOM    130  F   UNL A   1      45.028  25.238  36.477  1.00  0.00    -0.200 F 
ATOM    131  F   UNL A   1      42.577  24.071  36.735  1.00  0.00    -0.200 F 
ENDBRANCH 101 121
BRANCH 104 132
ATOM    132  C   UNL A   1      43.967  35.648  28.747  1.00  0.00     0.064 A 
ATOM    133  C   UNL A   1      42.858  36.128  28.037  1.00  0.00     0.173 A 
ATOM    134  C   UNL A   1      45.181  36.336  28.604  1.00  0.00     0.173 A 
ATOM    135  F   UNL A   1      41.680  35.492  28.125  1.00  0.00    -0.203 F 
ATOM    136  C   UNL A   1      42.962  37.240  27.204  1.00  0.00     0.198 A 
ATOM    137  C   UNL A   1      45.277  37.465  27.794  1.00  0.00     0.198 A 
ATOM    138  F   UNL A   1      46.271  35.921  29.266  1.00  0.00    -0.203 F 
ATOM    139  F   UNL A   1      41.897  37.650  26.503  1.00  0.00    -0.200 F 
ATOM    140  C   UNL A   1      44.170  37.911  27.087  1.00  0.00     0.200 A 
ATOM    141  F   UNL A   1      46.441  38.120  27.697  1.00  0.00    -0.200 F 
ATOM    142  F   UNL A   1      44.269  38.983  26.291  1.00  0.00    -0.200 F 
ENDBRANCH 104 132
BRANCH 119 143
ATOM    143  C   UNL A   1      42.022  34.683  35.366  1.00  0.00     0.064 A 
ATOM    144  C   UNL A   1      40.666  34.934  35.621  1.00  0.00     0.173 A 
ATOM    145  C   UNL A   1      42.972  35.325  36.176  1.00  0.00     0.173 A 
ATOM    146  F   UNL A   1      39.720  34.357  34.863  1.00  0.00    -0.203 F 
ATOM    147  C   UNL A   1      40.277  35.813  36.628  1.00  0.00     0.198 A 
ATOM    148  C   UNL A   1      42.578  36.179  37.203  1.00  0.00     0.198 A 
ATOM    149  F   UNL A   1      44.282  35.115  35.979  1.00  0.00    -0.203 F 
ATOM    150  F   UNL A   1      38.976  36.076  36.818  1.00  0.00    -0.200 F 
ATOM    151  C   UNL A   1      41.232  36.429  37.422  1.00  0.00     0.200 A 
ATOM    152  F   UNL A   1      43.503  36.762  37.978  1.00  0.00    -0.200 F 
ATOM    153  F   UNL A   1      40.856  37.269  38.394  1.00  0.00    -0.200 F 
ENDBRANCH 119 143
ENDBRANCH  84  87
ENDBRANCH  74  77
ENDBRANCH  70  73
ENDBRANCH  67  70
ENDBRANCH  64  67
ENDBRANCH  61  64
ENDBRANCH  58  61
ENDBRANCH  55  58
ENDBRANCH   3  55
TORSDOF 24
ENDMDL
