MODEL 1
REMARK VINA RESULT:     -12.4      0.000      0.000
REMARK SMILES C[C@@H](C(=O)NCCCCCCNC(=O)c1ccc(-c2c3nc(c(-c4c(F)c(F)c(F)c(F)c4F)c4ccc([nH]4)c(-c4c(F)c(F)c(F)c(F)c4F)c4nc(c(-c5c(F)c(F)c(F)c(F)c5F)c5ccc2[nH]5)C=C4)C=C3)cc1)c1ccc(C(=O)c2cccs2)cc1
REMARK SMILES IDX 8 1 7 4 6 7 5 10 3 11 4 12 2 14 1 16 78 20 79 21 90 22 80 23
REMARK SMILES IDX 89 25 81 27 82 30 83 31 84 32 85 33 88 34 86 35 87 37 9 40
REMARK SMILES IDX 10 43 11 46 12 49 13 50 14 52 15 53 16 54 77 55 17 56 76 58
REMARK SMILES IDX 18 60 19 63 20 64 70 65 21 66 75 67 69 68 71 69 22 70 74 71
REMARK SMILES IDX 68 73 67 75 23 77 55 80 35 81 54 82 36 83 39 84 53 85 72 86
REMARK SMILES IDX 37 87 38 89 52 91 73 92 40 95 24 97 25 98 33 99 26 100
REMARK SMILES IDX 27 101 31 102 34 103 28 104 29 105 32 106 30 107 56 108
REMARK SMILES IDX 57 109 65 110 58 111 59 112 63 113 66 114 60 115 61 116
REMARK SMILES IDX 64 117 62 118 41 119 42 120 50 121 43 122 44 123 48 124
REMARK SMILES IDX 51 125 45 126 46 127 49 128 47 129
REMARK H PARENT 8 2 8 3 7 5 7 6 6 8 6 9 5 13 2 15 1 17 1 18 1 19 79 24 90 26
REMARK H PARENT 80 28 89 29 85 36 86 38 87 39 9 41 9 42 10 44 10 45 11 47
REMARK H PARENT 11 48 12 51 16 57 77 59 17 61 76 62 75 72 69 74 71 76 74 78
REMARK H PARENT 68 79 36 88 39 90 72 93 37 94 73 96
REMARK Flexibility Score: inf
ROOT
ATOM      1  C   UNL A   1      32.048  29.588  27.098  1.00  0.00    -0.052 C 
ATOM      2  H   UNL A   1      33.080  29.709  27.352  1.00  0.00     0.027 H 
ATOM      3  H   UNL A   1      31.383  29.780  27.914  1.00  0.00     0.027 H 
ENDROOT
BRANCH   1   4
ATOM      4  C   UNL A   1      31.824  28.121  26.700  1.00  0.00    -0.036 C 
ATOM      5  H   UNL A   1      31.592  27.566  27.584  1.00  0.00     0.028 H 
ATOM      6  H   UNL A   1      31.029  28.115  25.985  1.00  0.00     0.028 H 
BRANCH   4   7
ATOM      7  C   UNL A   1      33.029  27.463  26.023  1.00  0.00     0.017 C 
ATOM      8  H   UNL A   1      33.035  27.721  24.985  1.00  0.00     0.049 H 
ATOM      9  H   UNL A   1      33.925  27.812  26.494  1.00  0.00     0.049 H 
BRANCH   7  10
ATOM     10  N   UNL A   1      32.962  26.025  26.155  1.00  0.00    -0.356 N 
ATOM     11  C   UNL A   1      32.583  25.062  25.269  1.00  0.00     0.227 C 
ATOM     12  O   UNL A   1      32.521  23.921  25.731  1.00  0.00    -0.274 OA
ATOM     13  H   UNL A   1      33.235  25.684  27.036  1.00  0.00     0.163 HD
BRANCH  11  14
ATOM     14  C   UNL A   1      32.323  25.423  23.794  1.00  0.00     0.060 C 
ATOM     15  H   UNL A   1      32.088  24.468  23.375  1.00  0.00     0.045 H 
BRANCH  14  16
ATOM     16  C   UNL A   1      33.543  26.028  23.095  1.00  0.00    -0.049 C 
ATOM     17  H   UNL A   1      33.219  26.652  22.287  1.00  0.00     0.024 H 
ATOM     18  H   UNL A   1      34.161  25.243  22.712  1.00  0.00     0.024 H 
ATOM     19  H   UNL A   1      34.101  26.614  23.795  1.00  0.00     0.024 H 
ENDBRANCH  14  16
BRANCH  14  20
ATOM     20  C   UNL A   1      31.132  26.352  23.542  1.00  0.00    -0.036 A 
ATOM     21  C   UNL A   1      29.862  26.126  24.089  1.00  0.00    -0.058 A 
ATOM     22  C   UNL A   1      31.336  27.538  22.819  1.00  0.00    -0.058 A 
ATOM     23  C   UNL A   1      28.812  27.020  23.866  1.00  0.00    -0.051 A 
ATOM     24  H   UNL A   1      29.700  25.286  24.665  1.00  0.00     0.063 H 
ATOM     25  C   UNL A   1      30.296  28.457  22.632  1.00  0.00    -0.051 A 
ATOM     26  H   UNL A   1      32.266  27.735  22.418  1.00  0.00     0.063 H 
ATOM     27  C   UNL A   1      29.017  28.196  23.139  1.00  0.00     0.023 A 
ATOM     28  H   UNL A   1      27.875  26.810  24.245  1.00  0.00     0.063 H 
ATOM     29  H   UNL A   1      30.474  29.333  22.117  1.00  0.00     0.063 H 
BRANCH  27  30
ATOM     30  C   UNL A   1      27.859  29.141  22.994  1.00  0.00     0.202 C 
ATOM     31  O   UNL A   1      26.721  28.693  23.129  1.00  0.00    -0.288 OA
BRANCH  30  32
ATOM     32  C   UNL A   1      28.115  30.546  22.748  1.00  0.00     0.075 A 
ATOM     33  C   UNL A   1      28.449  31.553  23.633  1.00  0.00    -0.040 A 
ATOM     34  S   UNL A   1      28.042  31.115  21.136  1.00  0.00    -0.140 S 
ATOM     35  C   UNL A   1      28.587  32.814  22.982  1.00  0.00    -0.051 A 
ATOM     36  H   UNL A   1      28.583  31.409  24.646  1.00  0.00     0.064 H 
ATOM     37  C   UNL A   1      28.387  32.717  21.622  1.00  0.00    -0.009 A 
ATOM     38  H   UNL A   1      28.810  33.694  23.471  1.00  0.00     0.063 H 
ATOM     39  H   UNL A   1      28.441  33.518  20.974  1.00  0.00     0.074 H 
ENDBRANCH  30  32
ENDBRANCH  27  30
ENDBRANCH  14  20
ENDBRANCH  11  14
ENDBRANCH   7  10
ENDBRANCH   4   7
ENDBRANCH   1   4
BRANCH   1  40
ATOM     40  C   UNL A   1      31.701  30.613  26.015  1.00  0.00    -0.052 C 
ATOM     41  H   UNL A   1      30.833  30.268  25.494  1.00  0.00     0.027 H 
ATOM     42  H   UNL A   1      32.565  30.693  25.388  1.00  0.00     0.027 H 
BRANCH  40  43
ATOM     43  C   UNL A   1      31.415  32.022  26.536  1.00  0.00    -0.036 C 
ATOM     44  H   UNL A   1      30.566  31.973  27.186  1.00  0.00     0.028 H 
ATOM     45  H   UNL A   1      31.247  32.637  25.677  1.00  0.00     0.028 H 
BRANCH  43  46
ATOM     46  C   UNL A   1      32.568  32.655  27.306  1.00  0.00     0.018 C 
ATOM     47  H   UNL A   1      33.466  32.549  26.732  1.00  0.00     0.049 H 
ATOM     48  H   UNL A   1      32.650  32.154  28.248  1.00  0.00     0.049 H 
BRANCH  46  49
ATOM     49  N   UNL A   1      32.342  34.067  27.567  1.00  0.00    -0.352 N 
ATOM     50  C   UNL A   1      32.934  34.883  28.495  1.00  0.00     0.251 C 
ATOM     51  H   UNL A   1      31.666  34.499  26.995  1.00  0.00     0.163 HD
ATOM     52  O   UNL A   1      32.478  36.002  28.719  1.00  0.00    -0.269 OA
BRANCH  50  53
ATOM     53  C   UNL A   1      34.112  34.405  29.249  1.00  0.00     0.039 A 
ATOM     54  C   UNL A   1      33.923  33.855  30.518  1.00  0.00    -0.049 A 
ATOM     55  C   UNL A   1      35.397  34.494  28.704  1.00  0.00    -0.049 A 
ATOM     56  C   UNL A   1      35.015  33.334  31.215  1.00  0.00    -0.053 A 
ATOM     57  H   UNL A   1      32.981  33.835  30.939  1.00  0.00     0.063 H 
ATOM     58  C   UNL A   1      36.472  33.907  29.366  1.00  0.00    -0.053 A 
ATOM     59  H   UNL A   1      35.548  34.994  27.813  1.00  0.00     0.063 H 
ATOM     60  C   UNL A   1      36.291  33.319  30.627  1.00  0.00    -0.014 A 
ATOM     61  H   UNL A   1      34.884  32.959  32.167  1.00  0.00     0.063 H 
ATOM     62  H   UNL A   1      37.405  33.905  28.927  1.00  0.00     0.063 H 
BRANCH  60  63
ATOM     63  C   UNL A   1      37.441  32.673  31.311  1.00  0.00     0.031 A 
ATOM     64  C   UNL A   1      38.157  31.517  30.669  1.00  0.00     0.074 A 
ATOM     65  C   UNL A   1      37.800  33.092  32.541  1.00  0.00     0.049 A 
ATOM     66  N   UNL A   1      39.142  30.792  31.138  1.00  0.00    -0.248 NA
ATOM     67  C   UNL A   1      37.695  31.108  29.334  1.00  0.00    -0.034 C 
ATOM     68  C   UNL A   1      37.150  34.172  33.289  1.00  0.00    -0.036 A 
ATOM     69  N   UNL A   1      38.789  32.655  33.387  1.00  0.00    -0.354 N 
ATOM     70  C   UNL A   1      39.407  29.838  30.165  1.00  0.00     0.074 A 
ATOM     71  C   UNL A   1      38.450  30.043  29.099  1.00  0.00    -0.034 C 
ATOM     72  H   UNL A   1      36.972  31.536  28.735  1.00  0.00     0.065 H 
ATOM     73  C   UNL A   1      37.772  34.327  34.469  1.00  0.00    -0.036 A 
ATOM     74  H   UNL A   1      36.343  34.724  32.961  1.00  0.00     0.065 H 
ATOM     75  C   UNL A   1      38.834  33.331  34.582  1.00  0.00     0.049 A 
ATOM     76  H   UNL A   1      39.411  31.926  33.157  1.00  0.00     0.167 HD
ATOM     77  C   UNL A   1      40.375  28.891  30.153  1.00  0.00     0.037 A 
ATOM     78  H   UNL A   1      38.366  29.439  28.266  1.00  0.00     0.065 H 
ATOM     79  H   UNL A   1      37.538  35.036  35.180  1.00  0.00     0.065 H 
ATOM     80  C   UNL A   1      39.630  33.158  35.655  1.00  0.00     0.037 A 
ATOM     81  C   UNL A   1      41.341  28.707  31.204  1.00  0.00     0.049 A 
ATOM     82  C   UNL A   1      40.686  32.085  35.616  1.00  0.00     0.074 A 
ATOM     83  C   UNL A   1      42.402  27.819  31.253  1.00  0.00    -0.036 A 
ATOM     84  N   UNL A   1      41.362  29.418  32.395  1.00  0.00    -0.354 N 
ATOM     85  N   UNL A   1      40.978  31.244  34.655  1.00  0.00    -0.248 NA
ATOM     86  C   UNL A   1      41.528  31.942  36.813  1.00  0.00    -0.034 C 
ATOM     87  C   UNL A   1      43.027  27.951  32.496  1.00  0.00    -0.036 A 
ATOM     88  H   UNL A   1      42.684  27.171  30.501  1.00  0.00     0.065 H 
ATOM     89  C   UNL A   1      42.397  28.966  33.197  1.00  0.00     0.049 A 
ATOM     90  H   UNL A   1      40.733  30.138  32.634  1.00  0.00     0.167 HD
ATOM     91  C   UNL A   1      42.054  30.496  35.116  1.00  0.00     0.074 A 
ATOM     92  C   UNL A   1      42.376  30.999  36.434  1.00  0.00    -0.034 C 
ATOM     93  H   UNL A   1      41.472  32.445  37.712  1.00  0.00     0.065 H 
ATOM     94  H   UNL A   1      43.823  27.388  32.834  1.00  0.00     0.065 H 
ATOM     95  C   UNL A   1      42.713  29.484  34.503  1.00  0.00     0.037 A 
ATOM     96  H   UNL A   1      43.167  30.663  37.007  1.00  0.00     0.065 H 
BRANCH  77  97
ATOM     97  C   UNL A   1      40.450  27.975  28.966  1.00  0.00     0.064 A 
ATOM     98  C   UNL A   1      39.721  26.777  28.911  1.00  0.00     0.173 A 
ATOM     99  C   UNL A   1      41.198  28.339  27.835  1.00  0.00     0.173 A 
ATOM    100  F   UNL A   1      38.999  26.377  29.968  1.00  0.00    -0.203 F 
ATOM    101  C   UNL A   1      39.751  25.971  27.776  1.00  0.00     0.198 A 
ATOM    102  C   UNL A   1      41.200  27.546  26.690  1.00  0.00     0.198 A 
ATOM    103  F   UNL A   1      41.909  29.477  27.832  1.00  0.00    -0.203 F 
ATOM    104  F   UNL A   1      39.075  24.814  27.760  1.00  0.00    -0.200 F 
ATOM    105  C   UNL A   1      40.481  26.361  26.663  1.00  0.00     0.200 A 
ATOM    106  F   UNL A   1      41.893  27.934  25.610  1.00  0.00    -0.200 F 
ATOM    107  F   UNL A   1      40.492  25.595  25.564  1.00  0.00    -0.200 F 
ENDBRANCH  77  97
BRANCH  80 108
ATOM    108  C   UNL A   1      39.466  34.017  36.859  1.00  0.00     0.064 A 
ATOM    109  C   UNL A   1      40.102  35.263  36.951  1.00  0.00     0.173 A 
ATOM    110  C   UNL A   1      38.706  33.593  37.960  1.00  0.00     0.173 A 
ATOM    111  F   UNL A   1      40.857  35.706  35.934  1.00  0.00    -0.203 F 
ATOM    112  C   UNL A   1      40.016  36.034  38.109  1.00  0.00     0.198 A 
ATOM    113  C   UNL A   1      38.591  34.381  39.103  1.00  0.00     0.198 A 
ATOM    114  F   UNL A   1      38.072  32.412  37.923  1.00  0.00    -0.203 F 
ATOM    115  F   UNL A   1      40.691  37.188  38.194  1.00  0.00    -0.200 F 
ATOM    116  C   UNL A   1      39.258  35.594  39.182  1.00  0.00     0.200 A 
ATOM    117  F   UNL A   1      37.843  33.959  40.132  1.00  0.00    -0.200 F 
ATOM    118  F   UNL A   1      39.179  36.332  40.298  1.00  0.00    -0.200 F 
ENDBRANCH  80 108
BRANCH  95 119
ATOM    119  C   UNL A   1      43.878  28.878  35.233  1.00  0.00     0.064 A 
ATOM    120  C   UNL A   1      43.721  27.784  36.097  1.00  0.00     0.173 A 
ATOM    121  C   UNL A   1      45.175  29.377  35.038  1.00  0.00     0.173 A 
ATOM    122  F   UNL A   1      42.500  27.278  36.330  1.00  0.00    -0.203 F 
ATOM    123  C   UNL A   1      44.813  27.233  36.763  1.00  0.00     0.198 A 
ATOM    124  C   UNL A   1      46.270  28.801  35.676  1.00  0.00     0.198 A 
ATOM    125  F   UNL A   1      45.383  30.416  34.216  1.00  0.00    -0.203 F 
ATOM    126  F   UNL A   1      44.630  26.224  37.626  1.00  0.00    -0.200 F 
ATOM    127  C   UNL A   1      46.087  27.736  36.544  1.00  0.00     0.200 A 
ATOM    128  F   UNL A   1      47.502  29.277  35.450  1.00  0.00    -0.200 F 
ATOM    129  F   UNL A   1      47.137  27.199  37.179  1.00  0.00    -0.200 F 
ENDBRANCH  95 119
ENDBRANCH  60  63
ENDBRANCH  50  53
ENDBRANCH  46  49
ENDBRANCH  43  46
ENDBRANCH  40  43
ENDBRANCH   1  40
TORSDOF 17
ENDMDL
MODEL 2
REMARK VINA RESULT:     -12.2      0.866      7.401
REMARK SMILES C[C@@H](C(=O)NCCCCCCNC(=O)c1ccc(-c2c3nc(c(-c4c(F)c(F)c(F)c(F)c4F)c4ccc([nH]4)c(-c4c(F)c(F)c(F)c(F)c4F)c4nc(c(-c5c(F)c(F)c(F)c(F)c5F)c5ccc2[nH]5)C=C4)C=C3)cc1)c1ccc(C(=O)c2cccs2)cc1
REMARK SMILES IDX 8 1 7 4 6 7 5 10 3 11 4 12 2 14 1 16 78 20 79 21 90 22 80 23
REMARK SMILES IDX 89 25 81 27 82 30 83 31 84 32 85 33 88 34 86 35 87 37 9 40
REMARK SMILES IDX 10 43 11 46 12 49 13 50 14 52 15 53 16 54 77 55 17 56 76 58
REMARK SMILES IDX 18 60 19 63 20 64 70 65 21 66 75 67 69 68 71 69 22 70 74 71
REMARK SMILES IDX 68 73 67 75 23 77 55 80 35 81 54 82 36 83 39 84 53 85 72 86
REMARK SMILES IDX 37 87 38 89 52 91 73 92 40 95 24 97 25 98 33 99 26 100
REMARK SMILES IDX 27 101 31 102 34 103 28 104 29 105 32 106 30 107 56 108
REMARK SMILES IDX 57 109 65 110 58 111 59 112 63 113 66 114 60 115 61 116
REMARK SMILES IDX 64 117 62 118 41 119 42 120 50 121 43 122 44 123 48 124
REMARK SMILES IDX 51 125 45 126 46 127 49 128 47 129
REMARK H PARENT 8 2 8 3 7 5 7 6 6 8 6 9 5 13 2 15 1 17 1 18 1 19 79 24 90 26
REMARK H PARENT 80 28 89 29 85 36 86 38 87 39 9 41 9 42 10 44 10 45 11 47
REMARK H PARENT 11 48 12 51 16 57 77 59 17 61 76 62 75 72 69 74 71 76 74 78
REMARK H PARENT 68 79 36 88 39 90 72 93 37 94 73 96
REMARK Flexibility Score: inf
ROOT
ATOM      1  C   UNL A   1      32.504  29.354  26.619  1.00  0.00    -0.052 C 
ATOM      2  H   UNL A   1      33.178  28.832  25.973  1.00  0.00     0.027 H 
ATOM      3  H   UNL A   1      32.999  29.983  27.331  1.00  0.00     0.027 H 
ENDROOT
BRANCH   1   4
ATOM      4  C   UNL A   1      31.725  28.314  27.437  1.00  0.00    -0.036 C 
ATOM      5  H   UNL A   1      32.120  28.304  28.431  1.00  0.00     0.028 H 
ATOM      6  H   UNL A   1      30.696  28.605  27.403  1.00  0.00     0.028 H 
BRANCH   4   7
ATOM      7  C   UNL A   1      31.798  26.891  26.878  1.00  0.00     0.017 C 
ATOM      8  H   UNL A   1      31.871  26.197  27.689  1.00  0.00     0.049 H 
ATOM      9  H   UNL A   1      30.915  26.698  26.305  1.00  0.00     0.049 H 
BRANCH   7  10
ATOM     10  N   UNL A   1      32.953  26.743  26.020  1.00  0.00    -0.356 N 
ATOM     11  C   UNL A   1      33.127  26.040  24.867  1.00  0.00     0.227 C 
ATOM     12  O   UNL A   1      34.281  26.018  24.435  1.00  0.00    -0.274 OA
ATOM     13  H   UNL A   1      33.751  27.232  26.324  1.00  0.00     0.163 HD
BRANCH  11  14
ATOM     14  C   UNL A   1      31.919  25.390  24.164  1.00  0.00     0.060 C 
ATOM     15  H   UNL A   1      31.562  24.722  24.919  1.00  0.00     0.045 H 
BRANCH  14  16
ATOM     16  C   UNL A   1      32.300  24.614  22.901  1.00  0.00    -0.049 C 
ATOM     17  H   UNL A   1      32.786  23.701  23.176  1.00  0.00     0.024 H 
ATOM     18  H   UNL A   1      32.963  25.205  22.305  1.00  0.00     0.024 H 
ATOM     19  H   UNL A   1      31.416  24.391  22.339  1.00  0.00     0.024 H 
ENDBRANCH  14  16
BRANCH  14  20
ATOM     20  C   UNL A   1      30.776  26.342  23.801  1.00  0.00    -0.036 A 
ATOM     21  C   UNL A   1      29.443  26.100  24.159  1.00  0.00    -0.058 A 
ATOM     22  C   UNL A   1      31.079  27.560  23.173  1.00  0.00    -0.058 A 
ATOM     23  C   UNL A   1      28.435  27.014  23.842  1.00  0.00    -0.051 A 
ATOM     24  H   UNL A   1      29.202  25.234  24.663  1.00  0.00     0.063 H 
ATOM     25  C   UNL A   1      30.077  28.497  22.894  1.00  0.00    -0.051 A 
ATOM     26  H   UNL A   1      32.055  27.769  22.914  1.00  0.00     0.063 H 
ATOM     27  C   UNL A   1      28.740  28.224  23.209  1.00  0.00     0.023 A 
ATOM     28  H   UNL A   1      27.455  26.794  24.078  1.00  0.00     0.063 H 
ATOM     29  H   UNL A   1      30.325  29.396  22.454  1.00  0.00     0.063 H 
BRANCH  27  30
ATOM     30  C   UNL A   1      27.615  29.185  22.957  1.00  0.00     0.202 C 
ATOM     31  O   UNL A   1      26.461  28.767  23.043  1.00  0.00    -0.288 OA
BRANCH  30  32
ATOM     32  C   UNL A   1      27.917  30.572  22.668  1.00  0.00     0.075 A 
ATOM     33  C   UNL A   1      28.164  31.623  23.530  1.00  0.00    -0.040 A 
ATOM     34  S   UNL A   1      28.035  31.054  21.031  1.00  0.00    -0.140 S 
ATOM     35  C   UNL A   1      28.393  32.845  22.834  1.00  0.00    -0.051 A 
ATOM     36  H   UNL A   1      28.180  31.533  24.559  1.00  0.00     0.064 H 
ATOM     37  C   UNL A   1      28.346  32.677  21.468  1.00  0.00    -0.009 A 
ATOM     38  H   UNL A   1      28.573  33.749  23.298  1.00  0.00     0.063 H 
ATOM     39  H   UNL A   1      28.484  33.442  20.788  1.00  0.00     0.074 H 
ENDBRANCH  30  32
ENDBRANCH  27  30
ENDBRANCH  14  20
ENDBRANCH  11  14
ENDBRANCH   7  10
ENDBRANCH   4   7
ENDBRANCH   1   4
BRANCH   1  40
ATOM     40  C   UNL A   1      31.642  30.281  25.758  1.00  0.00    -0.052 C 
ATOM     41  H   UNL A   1      30.693  29.810  25.608  1.00  0.00     0.027 H 
ATOM     42  H   UNL A   1      32.183  30.437  24.848  1.00  0.00     0.027 H 
BRANCH  40  43
ATOM     43  C   UNL A   1      31.396  31.667  26.357  1.00  0.00    -0.036 C 
ATOM     44  H   UNL A   1      30.553  31.603  27.013  1.00  0.00     0.028 H 
ATOM     45  H   UNL A   1      31.235  32.331  25.534  1.00  0.00     0.028 H 
BRANCH  43  46
ATOM     46  C   UNL A   1      32.573  32.229  27.146  1.00  0.00     0.018 C 
ATOM     47  H   UNL A   1      33.470  32.081  26.581  1.00  0.00     0.049 H 
ATOM     48  H   UNL A   1      32.617  31.714  28.084  1.00  0.00     0.049 H 
BRANCH  46  49
ATOM     49  N   UNL A   1      32.419  33.648  27.420  1.00  0.00    -0.352 N 
ATOM     50  C   UNL A   1      33.061  34.427  28.348  1.00  0.00     0.251 C 
ATOM     51  H   UNL A   1      31.760  34.117  26.858  1.00  0.00     0.163 HD
ATOM     52  O   UNL A   1      32.664  35.565  28.584  1.00  0.00    -0.269 OA
BRANCH  50  53
ATOM     53  C   UNL A   1      34.222  33.885  29.085  1.00  0.00     0.039 A 
ATOM     54  C   UNL A   1      33.999  32.969  30.115  1.00  0.00    -0.049 A 
ATOM     55  C   UNL A   1      35.525  34.275  28.760  1.00  0.00    -0.049 A 
ATOM     56  C   UNL A   1      35.086  32.394  30.775  1.00  0.00    -0.053 A 
ATOM     57  H   UNL A   1      33.035  32.719  30.387  1.00  0.00     0.063 H 
ATOM     58  C   UNL A   1      36.608  33.645  29.366  1.00  0.00    -0.053 A 
ATOM     59  H   UNL A   1      35.682  35.028  28.071  1.00  0.00     0.063 H 
ATOM     60  C   UNL A   1      36.399  32.696  30.378  1.00  0.00    -0.014 A 
ATOM     61  H   UNL A   1      34.923  31.742  31.559  1.00  0.00     0.063 H 
ATOM     62  H   UNL A   1      37.568  33.877  29.070  1.00  0.00     0.063 H 
BRANCH  60  63
ATOM     63  C   UNL A   1      37.563  32.011  31.000  1.00  0.00     0.031 A 
ATOM     64  C   UNL A   1      38.046  32.418  32.364  1.00  0.00     0.074 A 
ATOM     65  C   UNL A   1      38.220  31.062  30.304  1.00  0.00     0.049 A 
ATOM     66  N   UNL A   1      39.075  31.975  33.042  1.00  0.00    -0.248 NA
ATOM     67  C   UNL A   1      37.285  33.474  33.051  1.00  0.00    -0.034 C 
ATOM     68  C   UNL A   1      37.877  30.615  28.952  1.00  0.00    -0.036 A 
ATOM     69  N   UNL A   1      39.320  30.308  30.631  1.00  0.00    -0.354 N 
ATOM     70  C   UNL A   1      39.093  32.705  34.224  1.00  0.00     0.074 A 
ATOM     71  C   UNL A   1      38.002  33.651  34.153  1.00  0.00    -0.034 C 
ATOM     72  H   UNL A   1      36.421  33.952  32.754  1.00  0.00     0.065 H 
ATOM     73  C   UNL A   1      38.733  29.651  28.576  1.00  0.00    -0.036 A 
ATOM     74  H   UNL A   1      37.100  30.981  28.380  1.00  0.00     0.065 H 
ATOM     75  C   UNL A   1      39.712  29.444  29.638  1.00  0.00     0.049 A 
ATOM     76  H   UNL A   1      39.784  30.380  31.497  1.00  0.00     0.167 HD
ATOM     77  C   UNL A   1      39.931  32.579  35.280  1.00  0.00     0.037 A 
ATOM     78  H   UNL A   1      37.807  34.372  34.867  1.00  0.00     0.065 H 
ATOM     79  H   UNL A   1      38.703  29.140  27.680  1.00  0.00     0.065 H 
ATOM     80  C   UNL A   1      40.753  28.590  29.584  1.00  0.00     0.037 A 
ATOM     81  C   UNL A   1      41.000  31.618  35.356  1.00  0.00     0.049 A 
ATOM     82  C   UNL A   1      41.677  28.486  30.769  1.00  0.00     0.074 A 
ATOM     83  C   UNL A   1      41.861  31.369  36.411  1.00  0.00    -0.036 A 
ATOM     84  N   UNL A   1      41.360  30.751  34.335  1.00  0.00    -0.354 N 
ATOM     85  N   UNL A   1      41.633  29.124  31.912  1.00  0.00    -0.248 NA
ATOM     86  C   UNL A   1      42.794  27.538  30.656  1.00  0.00    -0.034 C 
ATOM     87  C   UNL A   1      42.778  30.396  36.008  1.00  0.00    -0.036 A 
ATOM     88  H   UNL A   1      41.830  31.824  37.337  1.00  0.00     0.065 H 
ATOM     89  C   UNL A   1      42.450  29.990  34.725  1.00  0.00     0.049 A 
ATOM     90  H   UNL A   1      40.908  30.686  33.463  1.00  0.00     0.167 HD
ATOM     91  C   UNL A   1      42.691  28.633  32.665  1.00  0.00     0.074 A 
ATOM     92  C   UNL A   1      43.346  27.628  31.856  1.00  0.00    -0.034 C 
ATOM     93  H   UNL A   1      43.074  26.954  29.853  1.00  0.00     0.065 H 
ATOM     94  H   UNL A   1      43.566  30.039  36.571  1.00  0.00     0.065 H 
ATOM     95  C   UNL A   1      43.086  28.984  33.913  1.00  0.00     0.037 A 
ATOM     96  H   UNL A   1      44.144  27.055  32.174  1.00  0.00     0.065 H 
BRANCH  77  97
ATOM     97  C   UNL A   1      39.733  33.498  36.450  1.00  0.00     0.064 A 
ATOM     98  C   UNL A   1      40.339  34.763  36.506  1.00  0.00     0.173 A 
ATOM     99  C   UNL A   1      38.861  33.143  37.491  1.00  0.00     0.173 A 
ATOM    100  F   UNL A   1      41.189  35.147  35.542  1.00  0.00    -0.203 F 
ATOM    101  C   UNL A   1      40.092  35.630  37.567  1.00  0.00     0.198 A 
ATOM    102  C   UNL A   1      38.592  34.025  38.535  1.00  0.00     0.198 A 
ATOM    103  F   UNL A   1      38.250  31.949  37.484  1.00  0.00    -0.203 F 
ATOM    104  F   UNL A   1      40.709  36.818  37.617  1.00  0.00    -0.200 F 
ATOM    105  C   UNL A   1      39.211  35.266  38.575  1.00  0.00     0.200 A 
ATOM    106  F   UNL A   1      37.728  33.677  39.498  1.00  0.00    -0.200 F 
ATOM    107  F   UNL A   1      38.959  36.109  39.584  1.00  0.00    -0.200 F 
ENDBRANCH  77  97
BRANCH  80 108
ATOM    108  C   UNL A   1      40.984  27.762  28.369  1.00  0.00     0.064 A 
ATOM    109  C   UNL A   1      41.749  28.246  27.298  1.00  0.00     0.173 A 
ATOM    110  C   UNL A   1      40.410  26.488  28.235  1.00  0.00     0.173 A 
ATOM    111  F   UNL A   1      42.302  29.466  27.367  1.00  0.00    -0.203 F 
ATOM    112  C   UNL A   1      41.900  27.506  26.127  1.00  0.00     0.198 A 
ATOM    113  C   UNL A   1      40.593  25.734  27.077  1.00  0.00     0.198 A 
ATOM    114  F   UNL A   1      39.675  25.974  29.231  1.00  0.00    -0.203 F 
ATOM    115  F   UNL A   1      42.578  28.023  25.094  1.00  0.00    -0.200 F 
ATOM    116  C   UNL A   1      41.325  26.249  26.019  1.00  0.00     0.200 A 
ATOM    117  F   UNL A   1      40.050  24.512  26.985  1.00  0.00    -0.200 F 
ATOM    118  F   UNL A   1      41.466  25.539  24.891  1.00  0.00    -0.200 F 
ENDBRANCH  80 108
BRANCH  95 119
ATOM    119  C   UNL A   1      44.257  28.248  34.498  1.00  0.00     0.064 A 
ATOM    120  C   UNL A   1      45.568  28.732  34.381  1.00  0.00     0.173 A 
ATOM    121  C   UNL A   1      44.059  27.059  35.218  1.00  0.00     0.173 A 
ATOM    122  F   UNL A   1      45.813  29.856  33.691  1.00  0.00    -0.203 F 
ATOM    123  C   UNL A   1      46.641  28.037  34.934  1.00  0.00     0.198 A 
ATOM    124  C   UNL A   1      45.129  26.386  35.801  1.00  0.00     0.198 A 
ATOM    125  F   UNL A   1      42.824  26.556  35.367  1.00  0.00    -0.203 F 
ATOM    126  F   UNL A   1      47.890  28.490  34.761  1.00  0.00    -0.200 F 
ATOM    127  C   UNL A   1      46.419  26.870  35.651  1.00  0.00     0.200 A 
ATOM    128  F   UNL A   1      44.911  25.268  36.508  1.00  0.00    -0.200 F 
ATOM    129  F   UNL A   1      47.452  26.208  36.189  1.00  0.00    -0.200 F 
ENDBRANCH  95 119
ENDBRANCH  60  63
ENDBRANCH  50  53
ENDBRANCH  46  49
ENDBRANCH  43  46
ENDBRANCH  40  43
ENDBRANCH   1  40
TORSDOF 17
ENDMDL
MODEL 3
REMARK VINA RESULT:     -12.2      0.800      1.853
REMARK SMILES C[C@@H](C(=O)NCCCCCCNC(=O)c1ccc(-c2c3nc(c(-c4c(F)c(F)c(F)c(F)c4F)c4ccc([nH]4)c(-c4c(F)c(F)c(F)c(F)c4F)c4nc(c(-c5c(F)c(F)c(F)c(F)c5F)c5ccc2[nH]5)C=C4)C=C3)cc1)c1ccc(C(=O)c2cccs2)cc1
REMARK SMILES IDX 8 1 7 4 6 7 5 10 3 11 4 12 2 14 1 16 78 20 79 21 90 22 80 23
REMARK SMILES IDX 89 25 81 27 82 30 83 31 84 32 85 33 88 34 86 35 87 37 9 40
REMARK SMILES IDX 10 43 11 46 12 49 13 50 14 52 15 53 16 54 77 55 17 56 76 58
REMARK SMILES IDX 18 60 19 63 20 64 70 65 21 66 75 67 69 68 71 69 22 70 74 71
REMARK SMILES IDX 68 73 67 75 23 77 55 80 35 81 54 82 36 83 39 84 53 85 72 86
REMARK SMILES IDX 37 87 38 89 52 91 73 92 40 95 24 97 25 98 33 99 26 100
REMARK SMILES IDX 27 101 31 102 34 103 28 104 29 105 32 106 30 107 56 108
REMARK SMILES IDX 57 109 65 110 58 111 59 112 63 113 66 114 60 115 61 116
REMARK SMILES IDX 64 117 62 118 41 119 42 120 50 121 43 122 44 123 48 124
REMARK SMILES IDX 51 125 45 126 46 127 49 128 47 129
REMARK H PARENT 8 2 8 3 7 5 7 6 6 8 6 9 5 13 2 15 1 17 1 18 1 19 79 24 90 26
REMARK H PARENT 80 28 89 29 85 36 86 38 87 39 9 41 9 42 10 44 10 45 11 47
REMARK H PARENT 11 48 12 51 16 57 77 59 17 61 76 62 75 72 69 74 71 76 74 78
REMARK H PARENT 68 79 36 88 39 90 72 93 37 94 73 96
REMARK Flexibility Score: inf
ROOT
ATOM      1  C   UNL A   1      31.785  28.875  26.676  1.00  0.00    -0.052 C 
ATOM      2  H   UNL A   1      31.468  29.218  27.638  1.00  0.00     0.027 H 
ATOM      3  H   UNL A   1      31.136  28.139  26.250  1.00  0.00     0.027 H 
ENDROOT
BRANCH   1   4
ATOM      4  C   UNL A   1      33.153  28.196  26.839  1.00  0.00    -0.036 C 
ATOM      5  H   UNL A   1      33.870  28.945  27.102  1.00  0.00     0.028 H 
ATOM      6  H   UNL A   1      33.037  27.449  27.595  1.00  0.00     0.028 H 
BRANCH   4   7
ATOM      7  C   UNL A   1      33.650  27.476  25.583  1.00  0.00     0.017 C 
ATOM      8  H   UNL A   1      33.091  27.817  24.737  1.00  0.00     0.049 H 
ATOM      9  H   UNL A   1      34.690  27.691  25.448  1.00  0.00     0.049 H 
BRANCH   7  10
ATOM     10  N   UNL A   1      33.484  26.046  25.719  1.00  0.00    -0.356 N 
ATOM     11  C   UNL A   1      32.893  25.133  24.900  1.00  0.00     0.227 C 
ATOM     12  O   UNL A   1      32.807  23.993  25.361  1.00  0.00    -0.274 OA
ATOM     13  H   UNL A   1      33.861  25.669  26.545  1.00  0.00     0.163 HD
BRANCH  11  14
ATOM     14  C   UNL A   1      32.438  25.538  23.484  1.00  0.00     0.060 C 
ATOM     15  H   UNL A   1      32.114  24.601  23.084  1.00  0.00     0.045 H 
BRANCH  14  16
ATOM     16  C   UNL A   1      33.567  26.122  22.631  1.00  0.00    -0.049 C 
ATOM     17  H   UNL A   1      33.546  27.191  22.695  1.00  0.00     0.024 H 
ATOM     18  H   UNL A   1      33.436  25.824  21.612  1.00  0.00     0.024 H 
ATOM     19  H   UNL A   1      34.509  25.763  22.991  1.00  0.00     0.024 H 
ENDBRANCH  14  16
BRANCH  14  20
ATOM     20  C   UNL A   1      31.256  26.509  23.424  1.00  0.00    -0.036 A 
ATOM     21  C   UNL A   1      31.327  27.753  22.782  1.00  0.00    -0.058 A 
ATOM     22  C   UNL A   1      30.016  26.104  23.939  1.00  0.00    -0.058 A 
ATOM     23  C   UNL A   1      30.213  28.593  22.715  1.00  0.00    -0.051 A 
ATOM     24  H   UNL A   1      32.215  28.053  22.353  1.00  0.00     0.063 H 
ATOM     25  C   UNL A   1      28.887  26.926  23.835  1.00  0.00    -0.051 A 
ATOM     26  H   UNL A   1      29.933  25.186  24.403  1.00  0.00     0.063 H 
ATOM     27  C   UNL A   1      28.980  28.189  23.237  1.00  0.00     0.023 A 
ATOM     28  H   UNL A   1      30.301  29.522  22.274  1.00  0.00     0.063 H 
ATOM     29  H   UNL A   1      27.979  26.598  24.199  1.00  0.00     0.063 H 
BRANCH  27  30
ATOM     30  C   UNL A   1      27.812  29.117  23.073  1.00  0.00     0.202 C 
ATOM     31  O   UNL A   1      26.681  28.667  23.253  1.00  0.00    -0.288 OA
BRANCH  30  32
ATOM     32  C   UNL A   1      28.050  30.510  22.756  1.00  0.00     0.075 A 
ATOM     33  C   UNL A   1      28.305  31.578  23.594  1.00  0.00    -0.040 A 
ATOM     34  S   UNL A   1      28.065  30.978  21.110  1.00  0.00    -0.140 S 
ATOM     35  C   UNL A   1      28.455  32.800  22.875  1.00  0.00    -0.051 A 
ATOM     36  H   UNL A   1      28.379  31.500  24.621  1.00  0.00     0.064 H 
ATOM     37  C   UNL A   1      28.343  32.615  21.515  1.00  0.00    -0.009 A 
ATOM     38  H   UNL A   1      28.628  33.714  23.322  1.00  0.00     0.063 H 
ATOM     39  H   UNL A   1      28.418  33.377  20.822  1.00  0.00     0.074 H 
ENDBRANCH  30  32
ENDBRANCH  27  30
ENDBRANCH  14  20
ENDBRANCH  11  14
ENDBRANCH   7  10
ENDBRANCH   4   7
ENDBRANCH   1   4
BRANCH   1  40
ATOM     40  C   UNL A   1      31.764  30.068  25.716  1.00  0.00    -0.052 C 
ATOM     41  H   UNL A   1      31.015  29.887  24.975  1.00  0.00     0.027 H 
ATOM     42  H   UNL A   1      32.751  30.144  25.308  1.00  0.00     0.027 H 
BRANCH  40  43
ATOM     43  C   UNL A   1      31.466  31.415  26.376  1.00  0.00    -0.036 C 
ATOM     44  H   UNL A   1      30.712  31.264  27.120  1.00  0.00     0.028 H 
ATOM     45  H   UNL A   1      31.154  32.075  25.594  1.00  0.00     0.028 H 
BRANCH  43  46
ATOM     46  C   UNL A   1      32.670  32.070  27.043  1.00  0.00     0.018 C 
ATOM     47  H   UNL A   1      33.515  31.983  26.392  1.00  0.00     0.049 H 
ATOM     48  H   UNL A   1      32.845  31.568  27.973  1.00  0.00     0.049 H 
BRANCH  46  49
ATOM     49  N   UNL A   1      32.440  33.476  27.328  1.00  0.00    -0.352 N 
ATOM     50  C   UNL A   1      33.029  34.278  28.271  1.00  0.00     0.251 C 
ATOM     51  H   UNL A   1      31.763  33.916  26.763  1.00  0.00     0.163 HD
ATOM     52  O   UNL A   1      32.570  35.392  28.513  1.00  0.00    -0.269 OA
BRANCH  50  53
ATOM     53  C   UNL A   1      34.208  33.790  29.017  1.00  0.00     0.039 A 
ATOM     54  C   UNL A   1      34.017  32.887  30.065  1.00  0.00    -0.049 A 
ATOM     55  C   UNL A   1      35.497  34.218  28.682  1.00  0.00    -0.049 A 
ATOM     56  C   UNL A   1      35.124  32.361  30.734  1.00  0.00    -0.053 A 
ATOM     57  H   UNL A   1      33.062  32.610  30.342  1.00  0.00     0.063 H 
ATOM     58  C   UNL A   1      36.601  33.637  29.299  1.00  0.00    -0.053 A 
ATOM     59  H   UNL A   1      35.628  34.963  27.979  1.00  0.00     0.063 H 
ATOM     60  C   UNL A   1      36.426  32.701  30.330  1.00  0.00    -0.014 A 
ATOM     61  H   UNL A   1      34.984  31.720  31.530  1.00  0.00     0.063 H 
ATOM     62  H   UNL A   1      37.553  33.896  28.998  1.00  0.00     0.063 H 
BRANCH  60  63
ATOM     63  C   UNL A   1      37.612  32.068  30.962  1.00  0.00     0.031 A 
ATOM     64  C   UNL A   1      38.395  31.014  30.229  1.00  0.00     0.074 A 
ATOM     65  C   UNL A   1      37.947  32.404  32.224  1.00  0.00     0.049 A 
ATOM     66  N   UNL A   1      39.421  30.312  30.639  1.00  0.00    -0.248 NA
ATOM     67  C   UNL A   1      37.956  30.692  28.862  1.00  0.00    -0.034 C 
ATOM     68  C   UNL A   1      37.236  33.377  33.057  1.00  0.00    -0.036 A 
ATOM     69  N   UNL A   1      38.962  31.957  33.034  1.00  0.00    -0.354 N 
ATOM     70  C   UNL A   1      39.741  29.459  29.590  1.00  0.00     0.074 A 
ATOM     71  C   UNL A   1      38.772  29.697  28.542  1.00  0.00    -0.034 C 
ATOM     72  H   UNL A   1      37.208  31.126  28.298  1.00  0.00     0.065 H 
ATOM     73  C   UNL A   1      37.849  33.469  34.248  1.00  0.00    -0.036 A 
ATOM     74  H   UNL A   1      36.398  33.907  32.773  1.00  0.00     0.065 H 
ATOM     75  C   UNL A   1      38.967  32.532  34.281  1.00  0.00     0.049 A 
ATOM     76  H   UNL A   1      39.625  31.287  32.746  1.00  0.00     0.167 HD
ATOM     77  C   UNL A   1      40.763  28.575  29.503  1.00  0.00     0.037 A 
ATOM     78  H   UNL A   1      38.723  29.161  27.661  1.00  0.00     0.065 H 
ATOM     79  H   UNL A   1      37.575  34.102  35.015  1.00  0.00     0.065 H 
ATOM     80  C   UNL A   1      39.773  32.317  35.339  1.00  0.00     0.037 A 
ATOM     81  C   UNL A   1      41.739  28.362  30.539  1.00  0.00     0.049 A 
ATOM     82  C   UNL A   1      40.891  31.315  35.215  1.00  0.00     0.074 A 
ATOM     83  C   UNL A   1      42.850  27.537  30.517  1.00  0.00    -0.036 A 
ATOM     84  N   UNL A   1      41.719  28.971  31.785  1.00  0.00    -0.354 N 
ATOM     85  N   UNL A   1      41.231  30.575  34.188  1.00  0.00    -0.248 NA
ATOM     86  C   UNL A   1      41.741  31.122  36.399  1.00  0.00    -0.034 C 
ATOM     87  C   UNL A   1      43.468  27.601  31.769  1.00  0.00    -0.036 A 
ATOM     88  H   UNL A   1      43.169  26.972  29.715  1.00  0.00     0.065 H 
ATOM     89  C   UNL A   1      42.780  28.515  32.550  1.00  0.00     0.049 A 
ATOM     90  H   UNL A   1      41.050  29.630  32.081  1.00  0.00     0.167 HD
ATOM     91  C   UNL A   1      42.350  29.857  34.589  1.00  0.00     0.074 A 
ATOM     92  C   UNL A   1      42.643  30.265  35.946  1.00  0.00    -0.034 C 
ATOM     93  H   UNL A   1      41.657  31.544  37.336  1.00  0.00     0.065 H 
ATOM     94  H   UNL A   1      44.296  27.059  32.062  1.00  0.00     0.065 H 
ATOM     95  C   UNL A   1      43.067  28.939  33.896  1.00  0.00     0.037 A 
ATOM     96  H   UNL A   1      43.453  29.930  36.491  1.00  0.00     0.065 H 
BRANCH  77  97
ATOM     97  C   UNL A   1      40.891  27.768  28.244  1.00  0.00     0.064 A 
ATOM     98  C   UNL A   1      41.653  28.217  27.154  1.00  0.00     0.173 A 
ATOM     99  C   UNL A   1      40.311  26.493  28.156  1.00  0.00     0.173 A 
ATOM    100  F   UNL A   1      42.220  29.432  27.182  1.00  0.00    -0.203 F 
ATOM    101  C   UNL A   1      41.815  27.427  26.019  1.00  0.00     0.198 A 
ATOM    102  C   UNL A   1      40.501  25.693  27.032  1.00  0.00     0.198 A 
ATOM    103  F   UNL A   1      39.577  26.012  29.172  1.00  0.00    -0.203 F 
ATOM    104  F   UNL A   1      42.518  27.891  24.977  1.00  0.00    -0.200 F 
ATOM    105  C   UNL A   1      41.250  26.162  25.964  1.00  0.00     0.200 A 
ATOM    106  F   UNL A   1      39.968  24.465  26.989  1.00  0.00    -0.200 F 
ATOM    107  F   UNL A   1      41.424  25.395  24.879  1.00  0.00    -0.200 F 
ENDBRANCH  77  97
BRANCH  80 108
ATOM    108  C   UNL A   1      39.561  33.061  36.610  1.00  0.00     0.064 A 
ATOM    109  C   UNL A   1      38.622  32.624  37.556  1.00  0.00     0.173 A 
ATOM    110  C   UNL A   1      40.260  34.246  36.887  1.00  0.00     0.173 A 
ATOM    111  F   UNL A   1      37.913  31.508  37.330  1.00  0.00    -0.203 F 
ATOM    112  C   UNL A   1      38.364  33.362  38.710  1.00  0.00     0.198 A 
ATOM    113  C   UNL A   1      40.026  34.963  38.059  1.00  0.00     0.198 A 
ATOM    114  F   UNL A   1      41.173  34.706  36.020  1.00  0.00    -0.203 F 
ATOM    115  F   UNL A   1      37.413  32.957  39.562  1.00  0.00    -0.200 F 
ATOM    116  C   UNL A   1      39.068  34.529  38.962  1.00  0.00     0.200 A 
ATOM    117  F   UNL A   1      40.723  36.081  38.306  1.00  0.00    -0.200 F 
ATOM    118  F   UNL A   1      38.817  35.241  40.068  1.00  0.00    -0.200 F 
ENDBRANCH  80 108
BRANCH  95 119
ATOM    119  C   UNL A   1      44.266  28.344  34.578  1.00  0.00     0.064 A 
ATOM    120  C   UNL A   1      44.184  27.149  35.308  1.00  0.00     0.173 A 
ATOM    121  C   UNL A   1      45.522  28.960  34.468  1.00  0.00     0.173 A 
ATOM    122  F   UNL A   1      43.004  26.528  35.455  1.00  0.00    -0.203 F 
ATOM    123  C   UNL A   1      45.307  26.610  35.930  1.00  0.00     0.198 A 
ATOM    124  C   UNL A   1      46.651  28.399  35.060  1.00  0.00     0.198 A 
ATOM    125  F   UNL A   1      45.659  30.100  33.775  1.00  0.00    -0.203 F 
ATOM    126  F   UNL A   1      45.193  25.498  36.669  1.00  0.00    -0.200 F 
ATOM    127  C   UNL A   1      46.541  27.231  35.798  1.00  0.00     0.200 A 
ATOM    128  F   UNL A   1      47.845  28.991  34.917  1.00  0.00    -0.200 F 
ATOM    129  F   UNL A   1      47.622  26.706  36.390  1.00  0.00    -0.200 F 
ENDBRANCH  95 119
ENDBRANCH  60  63
ENDBRANCH  50  53
ENDBRANCH  46  49
ENDBRANCH  43  46
ENDBRANCH  40  43
ENDBRANCH   1  40
TORSDOF 17
ENDMDL
MODEL 4
REMARK VINA RESULT:     -12.2      6.168     11.637
REMARK SMILES C[C@@H](C(=O)NCCCCCCNC(=O)c1ccc(-c2c3nc(c(-c4c(F)c(F)c(F)c(F)c4F)c4ccc([nH]4)c(-c4c(F)c(F)c(F)c(F)c4F)c4nc(c(-c5c(F)c(F)c(F)c(F)c5F)c5ccc2[nH]5)C=C4)C=C3)cc1)c1ccc(C(=O)c2cccs2)cc1
REMARK SMILES IDX 8 1 7 4 6 7 5 10 3 11 4 12 2 14 1 16 78 20 79 21 90 22 80 23
REMARK SMILES IDX 89 25 81 27 82 30 83 31 84 32 85 33 88 34 86 35 87 37 9 40
REMARK SMILES IDX 10 43 11 46 12 49 13 50 14 52 15 53 16 54 77 55 17 56 76 58
REMARK SMILES IDX 18 60 19 63 20 64 70 65 21 66 75 67 69 68 71 69 22 70 74 71
REMARK SMILES IDX 68 73 67 75 23 77 55 80 35 81 54 82 36 83 39 84 53 85 72 86
REMARK SMILES IDX 37 87 38 89 52 91 73 92 40 95 24 97 25 98 33 99 26 100
REMARK SMILES IDX 27 101 31 102 34 103 28 104 29 105 32 106 30 107 56 108
REMARK SMILES IDX 57 109 65 110 58 111 59 112 63 113 66 114 60 115 61 116
REMARK SMILES IDX 64 117 62 118 41 119 42 120 50 121 43 122 44 123 48 124
REMARK SMILES IDX 51 125 45 126 46 127 49 128 47 129
REMARK H PARENT 8 2 8 3 7 5 7 6 6 8 6 9 5 13 2 15 1 17 1 18 1 19 79 24 90 26
REMARK H PARENT 80 28 89 29 85 36 86 38 87 39 9 41 9 42 10 44 10 45 11 47
REMARK H PARENT 11 48 12 51 16 57 77 59 17 61 76 62 75 72 69 74 71 76 74 78
REMARK H PARENT 68 79 36 88 39 90 72 93 37 94 73 96
REMARK Flexibility Score: inf
ROOT
ATOM      1  C   UNL A   1      36.686  22.129  24.451  1.00  0.00    -0.052 C 
ATOM      2  H   UNL A   1      37.711  22.281  24.183  1.00  0.00     0.027 H 
ATOM      3  H   UNL A   1      36.014  22.193  23.620  1.00  0.00     0.027 H 
ENDROOT
BRANCH   1   4
ATOM      4  C   UNL A   1      36.275  23.246  25.421  1.00  0.00    -0.036 C 
ATOM      5  H   UNL A   1      35.899  22.793  26.314  1.00  0.00     0.028 H 
ATOM      6  H   UNL A   1      37.148  23.840  25.593  1.00  0.00     0.028 H 
BRANCH   4   7
ATOM      7  C   UNL A   1      35.202  24.190  24.873  1.00  0.00     0.017 C 
ATOM      8  H   UNL A   1      35.639  25.148  24.683  1.00  0.00     0.049 H 
ATOM      9  H   UNL A   1      34.808  23.779  23.967  1.00  0.00     0.049 H 
BRANCH   7  10
ATOM     10  N   UNL A   1      34.125  24.341  25.825  1.00  0.00    -0.356 N 
ATOM     11  C   UNL A   1      32.774  24.290  25.663  1.00  0.00     0.227 C 
ATOM     12  O   UNL A   1      32.114  24.581  26.663  1.00  0.00    -0.274 OA
ATOM     13  H   UNL A   1      34.419  24.511  26.749  1.00  0.00     0.163 HD
BRANCH  11  14
ATOM     14  C   UNL A   1      32.169  23.835  24.321  1.00  0.00     0.060 C 
ATOM     15  H   UNL A   1      32.742  24.405  23.620  1.00  0.00     0.045 H 
BRANCH  14  16
ATOM     16  C   UNL A   1      30.680  24.162  24.186  1.00  0.00    -0.049 C 
ATOM     17  H   UNL A   1      30.099  23.332  24.532  1.00  0.00     0.024 H 
ATOM     18  H   UNL A   1      30.448  24.356  23.159  1.00  0.00     0.024 H 
ATOM     19  H   UNL A   1      30.451  25.027  24.773  1.00  0.00     0.024 H 
ENDBRANCH  14  16
BRANCH  14  20
ATOM     20  C   UNL A   1      32.354  22.353  23.983  1.00  0.00    -0.036 A 
ATOM     21  C   UNL A   1      32.691  21.391  24.944  1.00  0.00    -0.058 A 
ATOM     22  C   UNL A   1      32.077  21.913  22.680  1.00  0.00    -0.058 A 
ATOM     23  C   UNL A   1      32.812  20.042  24.601  1.00  0.00    -0.051 A 
ATOM     24  H   UNL A   1      32.853  21.683  25.919  1.00  0.00     0.063 H 
ATOM     25  C   UNL A   1      32.154  20.555  22.344  1.00  0.00    -0.051 A 
ATOM     26  H   UNL A   1      31.811  22.600  21.957  1.00  0.00     0.063 H 
ATOM     27  C   UNL A   1      32.542  19.608  23.299  1.00  0.00     0.023 A 
ATOM     28  H   UNL A   1      33.102  19.358  25.317  1.00  0.00     0.063 H 
ATOM     29  H   UNL A   1      31.922  20.251  21.386  1.00  0.00     0.063 H 
BRANCH  27  30
ATOM     30  C   UNL A   1      32.630  18.136  23.019  1.00  0.00     0.202 C 
ATOM     31  O   UNL A   1      32.088  17.703  22.002  1.00  0.00    -0.288 OA
BRANCH  30  32
ATOM     32  C   UNL A   1      33.381  17.285  23.920  1.00  0.00     0.075 A 
ATOM     33  C   UNL A   1      34.740  17.046  23.985  1.00  0.00    -0.040 A 
ATOM     34  S   UNL A   1      32.528  16.437  25.136  1.00  0.00    -0.140 S 
ATOM     35  C   UNL A   1      35.071  16.111  25.009  1.00  0.00    -0.051 A 
ATOM     36  H   UNL A   1      35.434  17.492  23.365  1.00  0.00     0.064 H 
ATOM     37  C   UNL A   1      33.958  15.697  25.708  1.00  0.00    -0.009 A 
ATOM     38  H   UNL A   1      36.030  15.784  25.203  1.00  0.00     0.063 H 
ATOM     39  H   UNL A   1      33.987  15.020  26.487  1.00  0.00     0.074 H 
ENDBRANCH  30  32
ENDBRANCH  27  30
ENDBRANCH  14  20
ENDBRANCH  11  14
ENDBRANCH   7  10
ENDBRANCH   4   7
ENDBRANCH   1   4
BRANCH   1  40
ATOM     40  C   UNL A   1      36.545  20.707  25.003  1.00  0.00    -0.052 C 
ATOM     41  H   UNL A   1      35.747  20.224  24.480  1.00  0.00     0.027 H 
ATOM     42  H   UNL A   1      36.362  20.808  26.052  1.00  0.00     0.027 H 
BRANCH  40  43
ATOM     43  C   UNL A   1      37.798  19.840  24.865  1.00  0.00    -0.036 C 
ATOM     44  H   UNL A   1      38.119  19.876  23.846  1.00  0.00     0.028 H 
ATOM     45  H   UNL A   1      37.524  18.856  25.182  1.00  0.00     0.028 H 
BRANCH  43  46
ATOM     46  C   UNL A   1      38.963  20.273  25.748  1.00  0.00     0.018 C 
ATOM     47  H   UNL A   1      38.583  20.551  26.709  1.00  0.00     0.049 H 
ATOM     48  H   UNL A   1      39.449  21.099  25.270  1.00  0.00     0.049 H 
BRANCH  46  49
ATOM     49  N   UNL A   1      39.942  19.213  25.919  1.00  0.00    -0.352 N 
ATOM     50  C   UNL A   1      41.294  19.306  26.126  1.00  0.00     0.251 C 
ATOM     51  H   UNL A   1      39.583  18.296  25.880  1.00  0.00     0.163 HD
ATOM     52  O   UNL A   1      42.005  18.308  26.044  1.00  0.00    -0.269 OA
BRANCH  50  53
ATOM     53  C   UNL A   1      41.902  20.620  26.425  1.00  0.00     0.039 A 
ATOM     54  C   UNL A   1      42.213  21.476  25.366  1.00  0.00    -0.049 A 
ATOM     55  C   UNL A   1      42.162  21.008  27.743  1.00  0.00    -0.049 A 
ATOM     56  C   UNL A   1      42.722  22.748  25.634  1.00  0.00    -0.053 A 
ATOM     57  H   UNL A   1      42.066  21.170  24.392  1.00  0.00     0.063 H 
ATOM     58  C   UNL A   1      42.598  22.302  28.011  1.00  0.00    -0.053 A 
ATOM     59  H   UNL A   1      42.030  20.335  28.516  1.00  0.00     0.063 H 
ATOM     60  C   UNL A   1      42.880  23.186  26.959  1.00  0.00    -0.014 A 
ATOM     61  H   UNL A   1      42.984  23.370  24.853  1.00  0.00     0.063 H 
ATOM     62  H   UNL A   1      42.715  22.612  28.988  1.00  0.00     0.063 H 
BRANCH  60  63
ATOM     63  C   UNL A   1      43.320  24.574  27.259  1.00  0.00     0.031 A 
ATOM     64  C   UNL A   1      42.340  25.587  27.781  1.00  0.00     0.074 A 
ATOM     65  C   UNL A   1      44.593  24.934  27.002  1.00  0.00     0.049 A 
ATOM     66  N   UNL A   1      42.525  26.856  28.045  1.00  0.00    -0.248 NA
ATOM     67  C   UNL A   1      40.965  25.120  28.019  1.00  0.00    -0.034 C 
ATOM     68  C   UNL A   1      45.626  24.054  26.448  1.00  0.00    -0.036 A 
ATOM     69  N   UNL A   1      45.236  26.137  27.160  1.00  0.00    -0.354 N 
ATOM     70  C   UNL A   1      41.293  27.340  28.467  1.00  0.00     0.074 A 
ATOM     71  C   UNL A   1      40.355  26.242  28.379  1.00  0.00    -0.034 C 
ATOM     72  H   UNL A   1      40.576  24.169  27.930  1.00  0.00     0.065 H 
ATOM     73  C   UNL A   1      46.775  24.740  26.335  1.00  0.00    -0.036 A 
ATOM     74  H   UNL A   1      45.491  23.065  26.188  1.00  0.00     0.065 H 
ATOM     75  C   UNL A   1      46.551  26.117  26.763  1.00  0.00     0.049 A 
ATOM     76  H   UNL A   1      44.795  26.940  27.524  1.00  0.00     0.167 HD
ATOM     77  C   UNL A   1      40.980  28.581  28.908  1.00  0.00     0.037 A 
ATOM     78  H   UNL A   1      39.344  26.321  28.570  1.00  0.00     0.065 H 
ATOM     79  H   UNL A   1      47.671  24.354  26.000  1.00  0.00     0.065 H 
ATOM     80  C   UNL A   1      47.470  27.101  26.734  1.00  0.00     0.037 A 
ATOM     81  C   UNL A   1      41.923  29.663  29.018  1.00  0.00     0.049 A 
ATOM     82  C   UNL A   1      47.086  28.476  27.216  1.00  0.00     0.074 A 
ATOM     83  C   UNL A   1      41.716  30.938  29.516  1.00  0.00    -0.036 A 
ATOM     84  N   UNL A   1      43.250  29.602  28.618  1.00  0.00    -0.354 N 
ATOM     85  N   UNL A   1      45.938  28.897  27.689  1.00  0.00    -0.248 NA
ATOM     86  C   UNL A   1      48.128  29.511  27.165  1.00  0.00    -0.034 C 
ATOM     87  C   UNL A   1      42.899  31.665  29.363  1.00  0.00    -0.036 A 
ATOM     88  H   UNL A   1      40.840  31.290  29.931  1.00  0.00     0.065 H 
ATOM     89  C   UNL A   1      43.863  30.826  28.829  1.00  0.00     0.049 A 
ATOM     90  H   UNL A   1      43.690  28.806  28.240  1.00  0.00     0.167 HD
ATOM     91  C   UNL A   1      46.129  30.232  28.021  1.00  0.00     0.074 A 
ATOM     92  C   UNL A   1      47.509  30.544  27.715  1.00  0.00    -0.034 C 
ATOM     93  H   UNL A   1      49.090  29.449  26.797  1.00  0.00     0.065 H 
ATOM     94  H   UNL A   1      43.032  32.659  29.607  1.00  0.00     0.065 H 
ATOM     95  C   UNL A   1      45.241  31.119  28.530  1.00  0.00     0.037 A 
ATOM     96  H   UNL A   1      47.953  31.457  27.902  1.00  0.00     0.065 H 
BRANCH  77  97
ATOM     97  C   UNL A   1      39.559  28.848  29.312  1.00  0.00     0.064 A 
ATOM     98  C   UNL A   1      39.116  28.641  30.628  1.00  0.00     0.173 A 
ATOM     99  C   UNL A   1      38.650  29.392  28.393  1.00  0.00     0.173 A 
ATOM    100  F   UNL A   1      39.942  28.114  31.544  1.00  0.00    -0.203 F 
ATOM    101  C   UNL A   1      37.812  28.956  31.003  1.00  0.00     0.198 A 
ATOM    102  C   UNL A   1      37.356  29.735  28.779  1.00  0.00     0.198 A 
ATOM    103  F   UNL A   1      39.023  29.615  27.123  1.00  0.00    -0.203 F 
ATOM    104  F   UNL A   1      37.402  28.718  32.256  1.00  0.00    -0.200 F 
ATOM    105  C   UNL A   1      36.937  29.513  30.082  1.00  0.00     0.200 A 
ATOM    106  F   UNL A   1      36.518  30.287  27.891  1.00  0.00    -0.200 F 
ATOM    107  F   UNL A   1      35.690  29.833  30.450  1.00  0.00    -0.200 F 
ENDBRANCH  77  97
BRANCH  80 108
ATOM    108  C   UNL A   1      48.846  26.832  26.234  1.00  0.00     0.064 A 
ATOM    109  C   UNL A   1      49.177  27.032  24.886  1.00  0.00     0.173 A 
ATOM    110  C   UNL A   1      49.845  26.329  27.081  1.00  0.00     0.173 A 
ATOM    111  F   UNL A   1      48.252  27.492  24.030  1.00  0.00    -0.203 F 
ATOM    112  C   UNL A   1      50.441  26.705  24.398  1.00  0.00     0.198 A 
ATOM    113  C   UNL A   1      51.119  26.037  26.599  1.00  0.00     0.198 A 
ATOM    114  F   UNL A   1      49.584  26.125  28.380  1.00  0.00    -0.203 F 
ATOM    115  F   UNL A   1      50.707  26.842  23.092  1.00  0.00    -0.200 F 
ATOM    116  C   UNL A   1      51.412  26.212  25.255  1.00  0.00     0.200 A 
ATOM    117  F   UNL A   1      52.059  25.577  27.435  1.00  0.00    -0.200 F 
ATOM    118  F   UNL A   1      52.625  25.892  24.785  1.00  0.00    -0.200 F 
ENDBRANCH  80 108
BRANCH  95 119
ATOM    119  C   UNL A   1      45.744  32.503  28.830  1.00  0.00     0.064 A 
ATOM    120  C   UNL A   1      45.650  33.542  27.892  1.00  0.00     0.173 A 
ATOM    121  C   UNL A   1      46.294  32.801  30.086  1.00  0.00     0.173 A 
ATOM    122  F   UNL A   1      45.146  33.307  26.672  1.00  0.00    -0.203 F 
ATOM    123  C   UNL A   1      46.118  34.820  28.189  1.00  0.00     0.198 A 
ATOM    124  C   UNL A   1      46.727  34.088  30.393  1.00  0.00     0.198 A 
ATOM    125  F   UNL A   1      46.399  31.846  31.022  1.00  0.00    -0.203 F 
ATOM    126  F   UNL A   1      46.070  35.783  27.258  1.00  0.00    -0.200 F 
ATOM    127  C   UNL A   1      46.648  35.094  29.442  1.00  0.00     0.200 A 
ATOM    128  F   UNL A   1      47.222  34.354  31.610  1.00  0.00    -0.200 F 
ATOM    129  F   UNL A   1      47.090  36.325  29.728  1.00  0.00    -0.200 F 
ENDBRANCH  95 119
ENDBRANCH  60  63
ENDBRANCH  50  53
ENDBRANCH  46  49
ENDBRANCH  43  46
ENDBRANCH  40  43
ENDBRANCH   1  40
TORSDOF 17
ENDMDL
MODEL 5
REMARK VINA RESULT:     -12.1      0.926      7.329
REMARK SMILES C[C@@H](C(=O)NCCCCCCNC(=O)c1ccc(-c2c3nc(c(-c4c(F)c(F)c(F)c(F)c4F)c4ccc([nH]4)c(-c4c(F)c(F)c(F)c(F)c4F)c4nc(c(-c5c(F)c(F)c(F)c(F)c5F)c5ccc2[nH]5)C=C4)C=C3)cc1)c1ccc(C(=O)c2cccs2)cc1
REMARK SMILES IDX 8 1 7 4 6 7 5 10 3 11 4 12 2 14 1 16 78 20 79 21 90 22 80 23
REMARK SMILES IDX 89 25 81 27 82 30 83 31 84 32 85 33 88 34 86 35 87 37 9 40
REMARK SMILES IDX 10 43 11 46 12 49 13 50 14 52 15 53 16 54 77 55 17 56 76 58
REMARK SMILES IDX 18 60 19 63 20 64 70 65 21 66 75 67 69 68 71 69 22 70 74 71
REMARK SMILES IDX 68 73 67 75 23 77 55 80 35 81 54 82 36 83 39 84 53 85 72 86
REMARK SMILES IDX 37 87 38 89 52 91 73 92 40 95 24 97 25 98 33 99 26 100
REMARK SMILES IDX 27 101 31 102 34 103 28 104 29 105 32 106 30 107 56 108
REMARK SMILES IDX 57 109 65 110 58 111 59 112 63 113 66 114 60 115 61 116
REMARK SMILES IDX 64 117 62 118 41 119 42 120 50 121 43 122 44 123 48 124
REMARK SMILES IDX 51 125 45 126 46 127 49 128 47 129
REMARK H PARENT 8 2 8 3 7 5 7 6 6 8 6 9 5 13 2 15 1 17 1 18 1 19 79 24 90 26
REMARK H PARENT 80 28 89 29 85 36 86 38 87 39 9 41 9 42 10 44 10 45 11 47
REMARK H PARENT 11 48 12 51 16 57 77 59 17 61 76 62 75 72 69 74 71 76 74 78
REMARK H PARENT 68 79 36 88 39 90 72 93 37 94 73 96
REMARK Flexibility Score: inf
ROOT
ATOM      1  C   UNL A   1      31.991  29.277  26.994  1.00  0.00    -0.052 C 
ATOM      2  H   UNL A   1      33.035  29.397  27.195  1.00  0.00     0.027 H 
ATOM      3  H   UNL A   1      31.369  29.466  27.845  1.00  0.00     0.027 H 
ENDROOT
BRANCH   1   4
ATOM      4  C   UNL A   1      31.746  27.812  26.603  1.00  0.00    -0.036 C 
ATOM      5  H   UNL A   1      31.412  27.284  27.471  1.00  0.00     0.028 H 
ATOM      6  H   UNL A   1      31.019  27.822  25.818  1.00  0.00     0.028 H 
BRANCH   4   7
ATOM      7  C   UNL A   1      32.979  27.095  26.049  1.00  0.00     0.017 C 
ATOM      8  H   UNL A   1      33.151  27.414  25.042  1.00  0.00     0.049 H 
ATOM      9  H   UNL A   1      33.824  27.336  26.661  1.00  0.00     0.049 H 
BRANCH   7  10
ATOM     10  N   UNL A   1      32.784  25.662  26.067  1.00  0.00    -0.356 N 
ATOM     11  C   UNL A   1      32.348  24.807  25.102  1.00  0.00     0.227 C 
ATOM     12  O   UNL A   1      32.174  23.644  25.471  1.00  0.00    -0.274 OA
ATOM     13  H   UNL A   1      33.001  25.233  26.925  1.00  0.00     0.163 HD
BRANCH  11  14
ATOM     14  C   UNL A   1      32.163  25.300  23.653  1.00  0.00     0.060 C 
ATOM     15  H   UNL A   1      31.963  24.385  23.137  1.00  0.00     0.045 H 
BRANCH  14  16
ATOM     16  C   UNL A   1      33.412  25.974  23.080  1.00  0.00    -0.049 C 
ATOM     17  H   UNL A   1      34.287  25.520  23.498  1.00  0.00     0.024 H 
ATOM     18  H   UNL A   1      33.400  27.016  23.324  1.00  0.00     0.024 H 
ATOM     19  H   UNL A   1      33.424  25.856  22.016  1.00  0.00     0.024 H 
ENDBRANCH  14  16
BRANCH  14  20
ATOM     20  C   UNL A   1      30.977  26.239  23.423  1.00  0.00    -0.036 A 
ATOM     21  C   UNL A   1      29.705  26.004  23.962  1.00  0.00    -0.058 A 
ATOM     22  C   UNL A   1      31.186  27.441  22.729  1.00  0.00    -0.058 A 
ATOM     23  C   UNL A   1      28.659  26.908  23.760  1.00  0.00    -0.051 A 
ATOM     24  H   UNL A   1      29.539  25.151  24.516  1.00  0.00     0.063 H 
ATOM     25  C   UNL A   1      30.150  28.369  22.563  1.00  0.00    -0.051 A 
ATOM     26  H   UNL A   1      32.118  27.645  22.335  1.00  0.00     0.063 H 
ATOM     27  C   UNL A   1      28.869  28.101  23.062  1.00  0.00     0.023 A 
ATOM     28  H   UNL A   1      27.721  26.692  24.131  1.00  0.00     0.063 H 
ATOM     29  H   UNL A   1      30.333  29.257  22.071  1.00  0.00     0.063 H 
BRANCH  27  30
ATOM     30  C   UNL A   1      27.716  29.053  22.938  1.00  0.00     0.202 C 
ATOM     31  O   UNL A   1      26.620  28.700  23.371  1.00  0.00    -0.288 OA
BRANCH  30  32
ATOM     32  C   UNL A   1      27.935  30.364  22.362  1.00  0.00     0.075 A 
ATOM     33  C   UNL A   1      27.966  30.755  21.037  1.00  0.00    -0.040 A 
ATOM     34  S   UNL A   1      28.169  31.688  23.420  1.00  0.00    -0.140 S 
ATOM     35  C   UNL A   1      28.243  32.146  20.895  1.00  0.00    -0.051 A 
ATOM     36  H   UNL A   1      27.806  30.115  20.243  1.00  0.00     0.064 H 
ATOM     37  C   UNL A   1      28.380  32.772  22.115  1.00  0.00    -0.009 A 
ATOM     38  H   UNL A   1      28.330  32.627  19.986  1.00  0.00     0.063 H 
ATOM     39  H   UNL A   1      28.585  33.777  22.226  1.00  0.00     0.074 H 
ENDBRANCH  30  32
ENDBRANCH  27  30
ENDBRANCH  14  20
ENDBRANCH  11  14
ENDBRANCH   7  10
ENDBRANCH   4   7
ENDBRANCH   1   4
BRANCH   1  40
ATOM     40  C   UNL A   1      31.590  30.307  25.935  1.00  0.00    -0.052 C 
ATOM     41  H   UNL A   1      30.661  29.997  25.504  1.00  0.00     0.027 H 
ATOM     42  H   UNL A   1      32.393  30.341  25.228  1.00  0.00     0.027 H 
BRANCH  40  43
ATOM     43  C   UNL A   1      31.419  31.733  26.461  1.00  0.00    -0.036 C 
ATOM     44  H   UNL A   1      30.619  31.734  27.172  1.00  0.00     0.028 H 
ATOM     45  H   UNL A   1      31.222  32.351  25.611  1.00  0.00     0.028 H 
BRANCH  43  46
ATOM     46  C   UNL A   1      32.658  32.307  27.139  1.00  0.00     0.018 C 
ATOM     47  H   UNL A   1      33.494  32.198  26.480  1.00  0.00     0.049 H 
ATOM     48  H   UNL A   1      32.813  31.770  28.052  1.00  0.00     0.049 H 
BRANCH  46  49
ATOM     49  N   UNL A   1      32.499  33.714  27.467  1.00  0.00    -0.352 N 
ATOM     50  C   UNL A   1      33.132  34.457  28.430  1.00  0.00     0.251 C 
ATOM     51  H   UNL A   1      31.842  34.204  26.920  1.00  0.00     0.163 HD
ATOM     52  O   UNL A   1      32.730  35.584  28.708  1.00  0.00    -0.269 OA
BRANCH  50  53
ATOM     53  C   UNL A   1      34.289  33.888  29.153  1.00  0.00     0.039 A 
ATOM     54  C   UNL A   1      34.059  32.956  30.167  1.00  0.00    -0.049 A 
ATOM     55  C   UNL A   1      35.595  34.271  28.832  1.00  0.00    -0.049 A 
ATOM     56  C   UNL A   1      35.142  32.356  30.812  1.00  0.00    -0.053 A 
ATOM     57  H   UNL A   1      33.093  32.711  30.436  1.00  0.00     0.063 H 
ATOM     58  C   UNL A   1      36.673  33.618  29.423  1.00  0.00    -0.053 A 
ATOM     59  H   UNL A   1      35.759  35.036  28.157  1.00  0.00     0.063 H 
ATOM     60  C   UNL A   1      36.457  32.652  30.418  1.00  0.00    -0.014 A 
ATOM     61  H   UNL A   1      34.974  31.692  31.584  1.00  0.00     0.063 H 
ATOM     62  H   UNL A   1      37.635  33.846  29.129  1.00  0.00     0.063 H 
BRANCH  60  63
ATOM     63  C   UNL A   1      37.615  31.944  31.022  1.00  0.00     0.031 A 
ATOM     64  C   UNL A   1      38.093  32.305  32.401  1.00  0.00     0.074 A 
ATOM     65  C   UNL A   1      38.271  31.013  30.300  1.00  0.00     0.049 A 
ATOM     66  N   UNL A   1      39.118  31.837  33.069  1.00  0.00    -0.248 NA
ATOM     67  C   UNL A   1      37.334  33.342  33.118  1.00  0.00    -0.034 C 
ATOM     68  C   UNL A   1      37.933  30.611  28.933  1.00  0.00    -0.036 A 
ATOM     69  N   UNL A   1      39.367  30.246  30.608  1.00  0.00    -0.354 N 
ATOM     70  C   UNL A   1      39.133  32.529  34.273  1.00  0.00     0.074 A 
ATOM     71  C   UNL A   1      38.046  33.482  34.227  1.00  0.00    -0.034 C 
ATOM     72  H   UNL A   1      36.472  33.833  32.832  1.00  0.00     0.065 H 
ATOM     73  C   UNL A   1      38.787  29.656  28.531  1.00  0.00    -0.036 A 
ATOM     74  H   UNL A   1      37.161  30.998  28.370  1.00  0.00     0.065 H 
ATOM     75  C   UNL A   1      39.761  29.411  29.591  1.00  0.00     0.049 A 
ATOM     76  H   UNL A   1      39.827  30.288  31.479  1.00  0.00     0.167 HD
ATOM     77  C   UNL A   1      39.966  32.367  35.329  1.00  0.00     0.037 A 
ATOM     78  H   UNL A   1      37.850  34.180  34.962  1.00  0.00     0.065 H 
ATOM     79  H   UNL A   1      38.760  29.174  27.620  1.00  0.00     0.065 H 
ATOM     80  C   UNL A   1      40.798  28.555  29.514  1.00  0.00     0.037 A 
ATOM     81  C   UNL A   1      41.030  31.400  35.380  1.00  0.00     0.049 A 
ATOM     82  C   UNL A   1      41.716  28.411  30.700  1.00  0.00     0.074 A 
ATOM     83  C   UNL A   1      41.885  31.114  36.430  1.00  0.00    -0.036 A 
ATOM     84  N   UNL A   1      41.392  30.563  34.334  1.00  0.00    -0.354 N 
ATOM     85  N   UNL A   1      41.669  29.013  31.862  1.00  0.00    -0.248 NA
ATOM     86  C   UNL A   1      42.830  27.461  30.562  1.00  0.00    -0.034 C 
ATOM     87  C   UNL A   1      42.800  30.150  36.001  1.00  0.00    -0.036 A 
ATOM     88  H   UNL A   1      41.851  31.540  37.370  1.00  0.00     0.065 H 
ATOM     89  C   UNL A   1      42.477  29.786  34.704  1.00  0.00     0.049 A 
ATOM     90  H   UNL A   1      40.943  30.528  33.458  1.00  0.00     0.167 HD
ATOM     91  C   UNL A   1      42.722  28.493  32.604  1.00  0.00     0.074 A 
ATOM     92  C   UNL A   1      43.377  27.512  31.767  1.00  0.00    -0.034 C 
ATOM     93  H   UNL A   1      43.111  26.902  29.742  1.00  0.00     0.065 H 
ATOM     94  H   UNL A   1      43.584  29.772  36.556  1.00  0.00     0.065 H 
ATOM     95  C   UNL A   1      43.112  28.804  33.864  1.00  0.00     0.037 A 
ATOM     96  H   UNL A   1      44.171  26.926  32.070  1.00  0.00     0.065 H 
BRANCH  77  97
ATOM     97  C   UNL A   1      39.765  33.250  36.526  1.00  0.00     0.064 A 
ATOM     98  C   UNL A   1      38.889  32.897  37.564  1.00  0.00     0.173 A 
ATOM     99  C   UNL A   1      40.519  34.424  36.677  1.00  0.00     0.173 A 
ATOM    100  F   UNL A   1      38.138  31.790  37.467  1.00  0.00    -0.203 F 
ATOM    101  C   UNL A   1      38.764  33.695  38.699  1.00  0.00     0.198 A 
ATOM    102  C   UNL A   1      40.414  35.203  37.827  1.00  0.00     0.198 A 
ATOM    103  F   UNL A   1      41.376  34.805  35.717  1.00  0.00    -0.203 F 
ATOM    104  F   UNL A   1      37.895  33.355  39.661  1.00  0.00    -0.200 F 
ATOM    105  C   UNL A   1      39.535  34.840  38.835  1.00  0.00     0.200 A 
ATOM    106  F   UNL A   1      41.172  36.300  37.962  1.00  0.00    -0.200 F 
ATOM    107  F   UNL A   1      39.427  35.595  39.936  1.00  0.00    -0.200 F 
ENDBRANCH  77  97
BRANCH  80 108
ATOM    108  C   UNL A   1      41.031  27.765  28.275  1.00  0.00     0.064 A 
ATOM    109  C   UNL A   1      40.486  26.482  28.122  1.00  0.00     0.173 A 
ATOM    110  C   UNL A   1      41.838  28.256  27.237  1.00  0.00     0.173 A 
ATOM    111  F   UNL A   1      39.724  25.958  29.093  1.00  0.00    -0.203 F 
ATOM    112  C   UNL A   1      40.768  25.708  26.997  1.00  0.00     0.198 A 
ATOM    113  C   UNL A   1      42.090  27.495  26.098  1.00  0.00     0.198 A 
ATOM    114  F   UNL A   1      42.380  29.479  27.329  1.00  0.00    -0.203 F 
ATOM    115  F   UNL A   1      40.289  24.460  26.910  1.00  0.00    -0.200 F 
ATOM    116  C   UNL A   1      41.566  26.216  25.985  1.00  0.00     0.200 A 
ATOM    117  F   UNL A   1      42.848  27.998  25.114  1.00  0.00    -0.200 F 
ATOM    118  F   UNL A   1      41.842  25.470  24.907  1.00  0.00    -0.200 F 
ENDBRANCH  80 108
BRANCH  95 119
ATOM    119  C   UNL A   1      44.277  28.045  34.432  1.00  0.00     0.064 A 
ATOM    120  C   UNL A   1      44.111  26.816  35.087  1.00  0.00     0.173 A 
ATOM    121  C   UNL A   1      45.583  28.537  34.285  1.00  0.00     0.173 A 
ATOM    122  F   UNL A   1      42.882  26.308  35.267  1.00  0.00    -0.203 F 
ATOM    123  C   UNL A   1      45.204  26.125  35.604  1.00  0.00     0.198 A 
ATOM    124  C   UNL A   1      46.678  27.826  34.769  1.00  0.00     0.198 A 
ATOM    125  F   UNL A   1      45.800  29.703  33.658  1.00  0.00    -0.203 F 
ATOM    126  F   UNL A   1      45.014  24.981  36.276  1.00  0.00    -0.200 F 
ATOM    127  C   UNL A   1      46.487  26.625  35.436  1.00  0.00     0.200 A 
ATOM    128  F   UNL A   1      47.918  28.303  34.591  1.00  0.00    -0.200 F 
ATOM    129  F   UNL A   1      47.538  25.955  35.926  1.00  0.00    -0.200 F 
ENDBRANCH  95 119
ENDBRANCH  60  63
ENDBRANCH  50  53
ENDBRANCH  46  49
ENDBRANCH  43  46
ENDBRANCH  40  43
ENDBRANCH   1  40
TORSDOF 17
ENDMDL
MODEL 6
REMARK VINA RESULT:     -12.1      6.063     11.284
REMARK SMILES C[C@@H](C(=O)NCCCCCCNC(=O)c1ccc(-c2c3nc(c(-c4c(F)c(F)c(F)c(F)c4F)c4ccc([nH]4)c(-c4c(F)c(F)c(F)c(F)c4F)c4nc(c(-c5c(F)c(F)c(F)c(F)c5F)c5ccc2[nH]5)C=C4)C=C3)cc1)c1ccc(C(=O)c2cccs2)cc1
REMARK SMILES IDX 8 1 7 4 6 7 5 10 3 11 4 12 2 14 1 16 78 20 79 21 90 22 80 23
REMARK SMILES IDX 89 25 81 27 82 30 83 31 84 32 85 33 88 34 86 35 87 37 9 40
REMARK SMILES IDX 10 43 11 46 12 49 13 50 14 52 15 53 16 54 77 55 17 56 76 58
REMARK SMILES IDX 18 60 19 63 20 64 70 65 21 66 75 67 69 68 71 69 22 70 74 71
REMARK SMILES IDX 68 73 67 75 23 77 55 80 35 81 54 82 36 83 39 84 53 85 72 86
REMARK SMILES IDX 37 87 38 89 52 91 73 92 40 95 24 97 25 98 33 99 26 100
REMARK SMILES IDX 27 101 31 102 34 103 28 104 29 105 32 106 30 107 56 108
REMARK SMILES IDX 57 109 65 110 58 111 59 112 63 113 66 114 60 115 61 116
REMARK SMILES IDX 64 117 62 118 41 119 42 120 50 121 43 122 44 123 48 124
REMARK SMILES IDX 51 125 45 126 46 127 49 128 47 129
REMARK H PARENT 8 2 8 3 7 5 7 6 6 8 6 9 5 13 2 15 1 17 1 18 1 19 79 24 90 26
REMARK H PARENT 80 28 89 29 85 36 86 38 87 39 9 41 9 42 10 44 10 45 11 47
REMARK H PARENT 11 48 12 51 16 57 77 59 17 61 76 62 75 72 69 74 71 76 74 78
REMARK H PARENT 68 79 36 88 39 90 72 93 37 94 73 96
REMARK Flexibility Score: inf
ROOT
ATOM      1  C   UNL A   1      37.000  22.152  24.239  1.00  0.00    -0.052 C 
ATOM      2  H   UNL A   1      37.525  22.805  24.904  1.00  0.00     0.027 H 
ATOM      3  H   UNL A   1      37.565  21.883  23.370  1.00  0.00     0.027 H 
ENDROOT
BRANCH   1   4
ATOM      4  C   UNL A   1      35.756  22.893  23.726  1.00  0.00    -0.036 C 
ATOM      5  H   UNL A   1      36.014  23.389  22.814  1.00  0.00     0.028 H 
ATOM      6  H   UNL A   1      34.992  22.156  23.596  1.00  0.00     0.028 H 
BRANCH   4   7
ATOM      7  C   UNL A   1      35.201  23.935  24.699  1.00  0.00     0.017 C 
ATOM      8  H   UNL A   1      34.645  23.439  25.468  1.00  0.00     0.049 H 
ATOM      9  H   UNL A   1      36.016  24.480  25.128  1.00  0.00     0.049 H 
BRANCH   7  10
ATOM     10  N   UNL A   1      34.332  24.862  24.009  1.00  0.00    -0.356 N 
ATOM     11  C   UNL A   1      32.977  24.889  23.876  1.00  0.00     0.227 C 
ATOM     12  O   UNL A   1      32.542  25.755  23.114  1.00  0.00    -0.274 OA
ATOM     13  H   UNL A   1      34.801  25.598  23.556  1.00  0.00     0.163 HD
BRANCH  11  14
ATOM     14  C   UNL A   1      32.097  23.922  24.692  1.00  0.00     0.060 C 
ATOM     15  H   UNL A   1      31.115  24.273  24.458  1.00  0.00     0.045 H 
BRANCH  14  16
ATOM     16  C   UNL A   1      32.349  24.003  26.200  1.00  0.00    -0.049 C 
ATOM     17  H   UNL A   1      31.679  24.715  26.636  1.00  0.00     0.024 H 
ATOM     18  H   UNL A   1      33.359  24.307  26.379  1.00  0.00     0.024 H 
ATOM     19  H   UNL A   1      32.182  23.042  26.641  1.00  0.00     0.024 H 
ENDBRANCH  14  16
BRANCH  14  20
ATOM     20  C   UNL A   1      32.180  22.449  24.283  1.00  0.00    -0.036 A 
ATOM     21  C   UNL A   1      32.049  22.021  22.955  1.00  0.00    -0.058 A 
ATOM     22  C   UNL A   1      32.501  21.490  25.255  1.00  0.00    -0.058 A 
ATOM     23  C   UNL A   1      32.170  20.671  22.618  1.00  0.00    -0.051 A 
ATOM     24  H   UNL A   1      31.860  22.714  22.215  1.00  0.00     0.063 H 
ATOM     25  C   UNL A   1      32.667  20.142  24.913  1.00  0.00    -0.051 A 
ATOM     26  H   UNL A   1      32.618  21.782  26.238  1.00  0.00     0.063 H 
ATOM     27  C   UNL A   1      32.483  19.717  23.591  1.00  0.00     0.023 A 
ATOM     28  H   UNL A   1      32.028  20.375  21.640  1.00  0.00     0.063 H 
ATOM     29  H   UNL A   1      32.927  19.458  25.640  1.00  0.00     0.063 H 
BRANCH  27  30
ATOM     30  C   UNL A   1      32.660  18.294  23.146  1.00  0.00     0.202 C 
ATOM     31  O   UNL A   1      32.222  17.970  22.043  1.00  0.00    -0.288 OA
BRANCH  30  32
ATOM     32  C   UNL A   1      33.375  17.367  23.999  1.00  0.00     0.075 A 
ATOM     33  C   UNL A   1      34.727  17.093  24.072  1.00  0.00    -0.040 A 
ATOM     34  S   UNL A   1      32.481  16.456  25.138  1.00  0.00    -0.140 S 
ATOM     35  C   UNL A   1      35.018  16.083  25.035  1.00  0.00    -0.051 A 
ATOM     36  H   UNL A   1      35.443  17.565  23.498  1.00  0.00     0.064 H 
ATOM     37  C   UNL A   1      33.884  15.647  25.683  1.00  0.00    -0.009 A 
ATOM     38  H   UNL A   1      35.966  15.721  25.224  1.00  0.00     0.063 H 
ATOM     39  H   UNL A   1      33.883  14.917  26.414  1.00  0.00     0.074 H 
ENDBRANCH  30  32
ENDBRANCH  27  30
ENDBRANCH  14  20
ENDBRANCH  11  14
ENDBRANCH   7  10
ENDBRANCH   4   7
ENDBRANCH   1   4
BRANCH   1  40
ATOM     40  C   UNL A   1      36.715  20.844  24.983  1.00  0.00    -0.052 C 
ATOM     41  H   UNL A   1      35.857  20.387  24.537  1.00  0.00     0.027 H 
ATOM     42  H   UNL A   1      36.565  21.109  26.009  1.00  0.00     0.027 H 
BRANCH  40  43
ATOM     43  C   UNL A   1      37.860  19.832  24.961  1.00  0.00    -0.036 C 
ATOM     44  H   UNL A   1      38.141  19.667  23.941  1.00  0.00     0.028 H 
ATOM     45  H   UNL A   1      37.496  18.948  25.441  1.00  0.00     0.028 H 
BRANCH  43  46
ATOM     46  C   UNL A   1      39.101  20.267  25.732  1.00  0.00     0.018 C 
ATOM     47  H   UNL A   1      38.808  20.558  26.720  1.00  0.00     0.049 H 
ATOM     48  H   UNL A   1      39.547  21.084  25.205  1.00  0.00     0.049 H 
BRANCH  46  49
ATOM     49  N   UNL A   1      40.086  19.203  25.828  1.00  0.00    -0.352 N 
ATOM     50  C   UNL A   1      41.431  19.287  26.077  1.00  0.00     0.251 C 
ATOM     51  H   UNL A   1      39.737  18.291  25.696  1.00  0.00     0.163 HD
ATOM     52  O   UNL A   1      42.154  18.305  25.920  1.00  0.00    -0.269 OA
BRANCH  50  53
ATOM     53  C   UNL A   1      42.020  20.571  26.511  1.00  0.00     0.039 A 
ATOM     54  C   UNL A   1      42.501  21.454  25.542  1.00  0.00    -0.049 A 
ATOM     55  C   UNL A   1      42.092  20.905  27.867  1.00  0.00    -0.049 A 
ATOM     56  C   UNL A   1      42.995  22.701  25.929  1.00  0.00    -0.053 A 
ATOM     57  H   UNL A   1      42.492  21.186  24.546  1.00  0.00     0.063 H 
ATOM     58  C   UNL A   1      42.514  22.177  28.245  1.00  0.00    -0.053 A 
ATOM     59  H   UNL A   1      41.834  20.211  28.585  1.00  0.00     0.063 H 
ATOM     60  C   UNL A   1      42.968  23.089  27.280  1.00  0.00    -0.014 A 
ATOM     61  H   UNL A   1      43.383  23.342  25.219  1.00  0.00     0.063 H 
ATOM     62  H   UNL A   1      42.494  22.450  29.239  1.00  0.00     0.063 H 
BRANCH  60  63
ATOM     63  C   UNL A   1      43.391  24.452  27.693  1.00  0.00     0.031 A 
ATOM     64  C   UNL A   1      42.365  25.500  28.025  1.00  0.00     0.074 A 
ATOM     65  C   UNL A   1      44.703  24.761  27.710  1.00  0.00     0.049 A 
ATOM     66  N   UNL A   1      42.542  26.756  28.349  1.00  0.00    -0.248 NA
ATOM     67  C   UNL A   1      40.953  25.089  27.966  1.00  0.00    -0.034 C 
ATOM     68  C   UNL A   1      45.792  23.844  27.361  1.00  0.00    -0.036 A 
ATOM     69  N   UNL A   1      45.347  25.932  28.022  1.00  0.00    -0.354 N 
ATOM     70  C   UNL A   1      41.270  27.286  28.520  1.00  0.00     0.074 A 
ATOM     71  C   UNL A   1      40.327  26.231  28.217  1.00  0.00    -0.034 C 
ATOM     72  H   UNL A   1      40.553  24.157  27.778  1.00  0.00     0.065 H 
ATOM     73  C   UNL A   1      46.965  24.481  27.501  1.00  0.00    -0.036 A 
ATOM     74  H   UNL A   1      45.674  22.866  27.057  1.00  0.00     0.065 H 
ATOM     75  C   UNL A   1      46.713  25.861  27.904  1.00  0.00     0.049 A 
ATOM     76  H   UNL A   1      44.872  26.748  28.306  1.00  0.00     0.167 HD
ATOM     77  C   UNL A   1      40.922  28.534  28.914  1.00  0.00     0.037 A 
ATOM     78  H   UNL A   1      39.302  26.351  28.199  1.00  0.00     0.065 H 
ATOM     79  H   UNL A   1      47.896  24.062  27.348  1.00  0.00     0.065 H 
ATOM     80  C   UNL A   1      47.657  26.805  28.085  1.00  0.00     0.037 A 
ATOM     81  C   UNL A   1      41.864  29.573  29.238  1.00  0.00     0.049 A 
ATOM     82  C   UNL A   1      47.236  28.188  28.507  1.00  0.00     0.074 A 
ATOM     83  C   UNL A   1      41.609  30.849  29.711  1.00  0.00    -0.036 A 
ATOM     84  N   UNL A   1      43.241  29.460  29.117  1.00  0.00    -0.354 N 
ATOM     85  N   UNL A   1      46.033  28.653  28.744  1.00  0.00    -0.248 NA
ATOM     86  C   UNL A   1      48.306  29.178  28.693  1.00  0.00    -0.034 C 
ATOM     87  C   UNL A   1      42.826  31.527  29.819  1.00  0.00    -0.036 A 
ATOM     88  H   UNL A   1      40.681  31.233  29.945  1.00  0.00     0.065 H 
ATOM     89  C   UNL A   1      43.846  30.654  29.476  1.00  0.00     0.049 A 
ATOM     90  H   UNL A   1      43.718  28.652  28.820  1.00  0.00     0.167 HD
ATOM     91  C   UNL A   1      46.204  29.974  29.137  1.00  0.00     0.074 A 
ATOM     92  C   UNL A   1      47.628  30.230  29.127  1.00  0.00    -0.034 C 
ATOM     93  H   UNL A   1      49.320  29.080  28.529  1.00  0.00     0.065 H 
ATOM     94  H   UNL A   1      42.946  32.511  30.106  1.00  0.00     0.065 H 
ATOM     95  C   UNL A   1      45.266  30.892  29.473  1.00  0.00     0.037 A 
ATOM     96  H   UNL A   1      48.061  31.120  29.420  1.00  0.00     0.065 H 
BRANCH  77  97
ATOM     97  C   UNL A   1      39.460  28.856  29.024  1.00  0.00     0.064 A 
ATOM     98  C   UNL A   1      38.780  28.788  30.251  1.00  0.00     0.173 A 
ATOM     99  C   UNL A   1      38.748  29.317  27.906  1.00  0.00     0.173 A 
ATOM    100  F   UNL A   1      39.411  28.344  31.348  1.00  0.00    -0.203 F 
ATOM    101  C   UNL A   1      37.440  29.153  30.348  1.00  0.00     0.198 A 
ATOM    102  C   UNL A   1      37.416  29.711  28.014  1.00  0.00     0.198 A 
ATOM    103  F   UNL A   1      39.351  29.408  26.711  1.00  0.00    -0.203 F 
ATOM    104  F   UNL A   1      36.803  29.046  31.522  1.00  0.00    -0.200 F 
ATOM    105  C   UNL A   1      36.763  29.625  29.234  1.00  0.00     0.200 A 
ATOM    106  F   UNL A   1      36.770  30.183  26.940  1.00  0.00    -0.200 F 
ATOM    107  F   UNL A   1      35.479  29.995  29.335  1.00  0.00    -0.200 F 
ENDBRANCH  77  97
BRANCH  80 108
ATOM    108  C   UNL A   1      49.094  26.484  27.871  1.00  0.00     0.064 A 
ATOM    109  C   UNL A   1      49.949  26.236  28.955  1.00  0.00     0.173 A 
ATOM    110  C   UNL A   1      49.652  26.459  26.584  1.00  0.00     0.173 A 
ATOM    111  F   UNL A   1      49.469  26.268  30.207  1.00  0.00    -0.203 F 
ATOM    112  C   UNL A   1      51.312  26.014  28.762  1.00  0.00     0.198 A 
ATOM    113  C   UNL A   1      51.008  26.201  26.391  1.00  0.00     0.198 A 
ATOM    114  F   UNL A   1      48.879  26.683  25.512  1.00  0.00    -0.203 F 
ATOM    115  F   UNL A   1      52.116  25.849  29.820  1.00  0.00    -0.200 F 
ATOM    116  C   UNL A   1      51.839  25.993  27.481  1.00  0.00     0.200 A 
ATOM    117  F   UNL A   1      51.509  26.163  25.149  1.00  0.00    -0.200 F 
ATOM    118  F   UNL A   1      53.149  25.784  27.296  1.00  0.00    -0.200 F 
ENDBRANCH  80 108
BRANCH  95 119
ATOM    119  C   UNL A   1      45.750  32.248  29.898  1.00  0.00     0.064 A 
ATOM    120  C   UNL A   1      46.079  32.531  31.232  1.00  0.00     0.173 A 
ATOM    121  C   UNL A   1      45.922  33.269  28.950  1.00  0.00     0.173 A 
ATOM    122  F   UNL A   1      45.919  31.595  32.180  1.00  0.00    -0.203 F 
ATOM    123  C   UNL A   1      46.530  33.794  31.607  1.00  0.00     0.198 A 
ATOM    124  C   UNL A   1      46.409  34.519  29.322  1.00  0.00     0.198 A 
ATOM    125  F   UNL A   1      45.632  33.050  27.660  1.00  0.00    -0.203 F 
ATOM    126  F   UNL A   1      46.784  34.057  32.897  1.00  0.00    -0.200 F 
ATOM    127  C   UNL A   1      46.703  34.784  30.651  1.00  0.00     0.200 A 
ATOM    128  F   UNL A   1      46.592  35.469  28.394  1.00  0.00    -0.200 F 
ATOM    129  F   UNL A   1      47.145  35.996  31.013  1.00  0.00    -0.200 F 
ENDBRANCH  95 119
ENDBRANCH  60  63
ENDBRANCH  50  53
ENDBRANCH  46  49
ENDBRANCH  43  46
ENDBRANCH  40  43
ENDBRANCH   1  40
TORSDOF 17
ENDMDL
MODEL 7
REMARK VINA RESULT:     -12.0      6.182     10.595
REMARK SMILES C[C@@H](C(=O)NCCCCCCNC(=O)c1ccc(-c2c3nc(c(-c4c(F)c(F)c(F)c(F)c4F)c4ccc([nH]4)c(-c4c(F)c(F)c(F)c(F)c4F)c4nc(c(-c5c(F)c(F)c(F)c(F)c5F)c5ccc2[nH]5)C=C4)C=C3)cc1)c1ccc(C(=O)c2cccs2)cc1
REMARK SMILES IDX 8 1 7 4 6 7 5 10 3 11 4 12 2 14 1 16 78 20 79 21 90 22 80 23
REMARK SMILES IDX 89 25 81 27 82 30 83 31 84 32 85 33 88 34 86 35 87 37 9 40
REMARK SMILES IDX 10 43 11 46 12 49 13 50 14 52 15 53 16 54 77 55 17 56 76 58
REMARK SMILES IDX 18 60 19 63 20 64 70 65 21 66 75 67 69 68 71 69 22 70 74 71
REMARK SMILES IDX 68 73 67 75 23 77 55 80 35 81 54 82 36 83 39 84 53 85 72 86
REMARK SMILES IDX 37 87 38 89 52 91 73 92 40 95 24 97 25 98 33 99 26 100
REMARK SMILES IDX 27 101 31 102 34 103 28 104 29 105 32 106 30 107 56 108
REMARK SMILES IDX 57 109 65 110 58 111 59 112 63 113 66 114 60 115 61 116
REMARK SMILES IDX 64 117 62 118 41 119 42 120 50 121 43 122 44 123 48 124
REMARK SMILES IDX 51 125 45 126 46 127 49 128 47 129
REMARK H PARENT 8 2 8 3 7 5 7 6 6 8 6 9 5 13 2 15 1 17 1 18 1 19 79 24 90 26
REMARK H PARENT 80 28 89 29 85 36 86 38 87 39 9 41 9 42 10 44 10 45 11 47
REMARK H PARENT 11 48 12 51 16 57 77 59 17 61 76 62 75 72 69 74 71 76 74 78
REMARK H PARENT 68 79 36 88 39 90 72 93 37 94 73 96
REMARK Flexibility Score: inf
ROOT
ATOM      1  C   UNL A   1      36.428  21.953  24.613  1.00  0.00    -0.052 C 
ATOM      2  H   UNL A   1      37.373  22.301  24.253  1.00  0.00     0.027 H 
ATOM      3  H   UNL A   1      35.653  21.986  23.876  1.00  0.00     0.027 H 
ENDROOT
BRANCH   1   4
ATOM      4  C   UNL A   1      35.978  22.883  25.749  1.00  0.00    -0.036 C 
ATOM      5  H   UNL A   1      35.395  22.311  26.440  1.00  0.00     0.028 H 
ATOM      6  H   UNL A   1      36.867  23.283  26.189  1.00  0.00     0.028 H 
BRANCH   4   7
ATOM      7  C   UNL A   1      35.139  24.077  25.288  1.00  0.00     0.017 C 
ATOM      8  H   UNL A   1      35.732  24.967  25.343  1.00  0.00     0.049 H 
ATOM      9  H   UNL A   1      34.821  23.909  24.280  1.00  0.00     0.049 H 
BRANCH   7  10
ATOM     10  N   UNL A   1      33.971  24.231  26.126  1.00  0.00    -0.356 N 
ATOM     11  C   UNL A   1      32.644  24.217  25.823  1.00  0.00     0.227 C 
ATOM     12  O   UNL A   1      31.890  24.501  26.756  1.00  0.00    -0.274 OA
ATOM     13  H   UNL A   1      34.171  24.372  27.079  1.00  0.00     0.163 HD
BRANCH  11  14
ATOM     14  C   UNL A   1      32.174  23.808  24.414  1.00  0.00     0.060 C 
ATOM     15  H   UNL A   1      32.833  24.377  23.792  1.00  0.00     0.045 H 
BRANCH  14  16
ATOM     16  C   UNL A   1      30.717  24.183  24.130  1.00  0.00    -0.049 C 
ATOM     17  H   UNL A   1      30.376  24.877  24.871  1.00  0.00     0.024 H 
ATOM     18  H   UNL A   1      30.109  23.303  24.161  1.00  0.00     0.024 H 
ATOM     19  H   UNL A   1      30.646  24.632  23.162  1.00  0.00     0.024 H 
ENDBRANCH  14  16
BRANCH  14  20
ATOM     20  C   UNL A   1      32.354  22.330  24.061  1.00  0.00    -0.036 A 
ATOM     21  C   UNL A   1      32.678  21.355  25.014  1.00  0.00    -0.058 A 
ATOM     22  C   UNL A   1      32.084  21.905  22.751  1.00  0.00    -0.058 A 
ATOM     23  C   UNL A   1      32.795  20.010  24.657  1.00  0.00    -0.051 A 
ATOM     24  H   UNL A   1      32.834  21.636  25.994  1.00  0.00     0.063 H 
ATOM     25  C   UNL A   1      32.157  20.551  22.401  1.00  0.00    -0.051 A 
ATOM     26  H   UNL A   1      31.828  22.601  22.034  1.00  0.00     0.063 H 
ATOM     27  C   UNL A   1      32.533  19.591  23.349  1.00  0.00     0.023 A 
ATOM     28  H   UNL A   1      33.076  19.316  25.368  1.00  0.00     0.063 H 
ATOM     29  H   UNL A   1      31.931  20.259  21.438  1.00  0.00     0.063 H 
BRANCH  27  30
ATOM     30  C   UNL A   1      32.616  18.122  23.053  1.00  0.00     0.202 C 
ATOM     31  O   UNL A   1      32.074  17.702  22.031  1.00  0.00    -0.288 OA
BRANCH  30  32
ATOM     32  C   UNL A   1      33.362  17.259  23.946  1.00  0.00     0.075 A 
ATOM     33  C   UNL A   1      34.712  16.964  23.969  1.00  0.00    -0.040 A 
ATOM     34  S   UNL A   1      32.519  16.473  25.210  1.00  0.00    -0.140 S 
ATOM     35  C   UNL A   1      35.040  16.037  25.001  1.00  0.00    -0.051 A 
ATOM     36  H   UNL A   1      35.402  17.368  23.316  1.00  0.00     0.064 H 
ATOM     37  C   UNL A   1      33.937  15.685  25.748  1.00  0.00    -0.009 A 
ATOM     38  H   UNL A   1      35.991  15.674  25.170  1.00  0.00     0.063 H 
ATOM     39  H   UNL A   1      33.965  15.023  26.540  1.00  0.00     0.074 H 
ENDBRANCH  30  32
ENDBRANCH  27  30
ENDBRANCH  14  20
ENDBRANCH  11  14
ENDBRANCH   7  10
ENDBRANCH   4   7
ENDBRANCH   1   4
BRANCH   1  40
ATOM     40  C   UNL A   1      36.583  20.480  25.004  1.00  0.00    -0.052 C 
ATOM     41  H   UNL A   1      35.886  19.908  24.428  1.00  0.00     0.027 H 
ATOM     42  H   UNL A   1      36.402  20.427  26.057  1.00  0.00     0.027 H 
BRANCH  40  43
ATOM     43  C   UNL A   1      37.979  19.900  24.776  1.00  0.00    -0.036 C 
ATOM     44  H   UNL A   1      38.356  20.289  23.853  1.00  0.00     0.028 H 
ATOM     45  H   UNL A   1      37.870  18.836  24.767  1.00  0.00     0.028 H 
BRANCH  43  46
ATOM     46  C   UNL A   1      38.983  20.226  25.876  1.00  0.00     0.018 C 
ATOM     47  H   UNL A   1      38.462  20.297  26.808  1.00  0.00     0.049 H 
ATOM     48  H   UNL A   1      39.457  21.153  25.626  1.00  0.00     0.049 H 
BRANCH  46  49
ATOM     49  N   UNL A   1      40.015  19.210  25.992  1.00  0.00    -0.352 N 
ATOM     50  C   UNL A   1      41.371  19.363  26.125  1.00  0.00     0.251 C 
ATOM     51  H   UNL A   1      39.696  18.278  25.972  1.00  0.00     0.163 HD
ATOM     52  O   UNL A   1      42.120  18.396  26.003  1.00  0.00    -0.269 OA
BRANCH  50  53
ATOM     53  C   UNL A   1      41.937  20.702  26.392  1.00  0.00     0.039 A 
ATOM     54  C   UNL A   1      42.236  21.536  25.312  1.00  0.00    -0.049 A 
ATOM     55  C   UNL A   1      42.167  21.136  27.701  1.00  0.00    -0.049 A 
ATOM     56  C   UNL A   1      42.705  22.830  25.547  1.00  0.00    -0.053 A 
ATOM     57  H   UNL A   1      42.112  21.196  24.345  1.00  0.00     0.063 H 
ATOM     58  C   UNL A   1      42.562  22.450  27.936  1.00  0.00    -0.053 A 
ATOM     59  H   UNL A   1      42.045  20.483  28.492  1.00  0.00     0.063 H 
ATOM     60  C   UNL A   1      42.832  23.311  26.861  1.00  0.00    -0.014 A 
ATOM     61  H   UNL A   1      42.958  23.435  24.751  1.00  0.00     0.063 H 
ATOM     62  H   UNL A   1      42.656  22.793  28.904  1.00  0.00     0.063 H 
BRANCH  60  63
ATOM     63  C   UNL A   1      43.227  24.719  27.124  1.00  0.00     0.031 A 
ATOM     64  C   UNL A   1      44.634  25.178  26.860  1.00  0.00     0.074 A 
ATOM     65  C   UNL A   1      42.327  25.570  27.658  1.00  0.00     0.049 A 
ATOM     66  N   UNL A   1      45.177  26.349  27.080  1.00  0.00    -0.248 NA
ATOM     67  C   UNL A   1      45.561  24.186  26.292  1.00  0.00    -0.034 C 
ATOM     68  C   UNL A   1      40.945  25.230  28.005  1.00  0.00    -0.036 A 
ATOM     69  N   UNL A   1      42.441  26.890  28.016  1.00  0.00    -0.354 N 
ATOM     70  C   UNL A   1      46.505  26.231  26.692  1.00  0.00     0.074 A 
ATOM     71  C   UNL A   1      46.701  24.862  26.266  1.00  0.00    -0.034 C 
ATOM     72  H   UNL A   1      45.373  23.216  25.993  1.00  0.00     0.065 H 
ATOM     73  C   UNL A   1      40.335  26.318  28.502  1.00  0.00    -0.036 A 
ATOM     74  H   UNL A   1      40.510  24.302  27.885  1.00  0.00     0.065 H 
ATOM     75  C   UNL A   1      41.293  27.419  28.553  1.00  0.00     0.049 A 
ATOM     76  H   UNL A   1      43.270  27.411  27.897  1.00  0.00     0.167 HD
ATOM     77  C   UNL A   1      47.467  27.184  26.672  1.00  0.00     0.037 A 
ATOM     78  H   UNL A   1      47.610  24.464  25.981  1.00  0.00     0.065 H 
ATOM     79  H   UNL A   1      39.349  26.368  28.799  1.00  0.00     0.065 H 
ATOM     80  C   UNL A   1      41.043  28.647  29.045  1.00  0.00     0.037 A 
ATOM     81  C   UNL A   1      47.259  28.552  27.072  1.00  0.00     0.049 A 
ATOM     82  C   UNL A   1      42.138  29.681  29.023  1.00  0.00     0.074 A 
ATOM     83  C   UNL A   1      48.153  29.607  27.024  1.00  0.00    -0.036 A 
ATOM     84  N   UNL A   1      46.079  29.053  27.599  1.00  0.00    -0.354 N 
ATOM     85  N   UNL A   1      43.366  29.578  28.577  1.00  0.00    -0.248 NA
ATOM     86  C   UNL A   1      41.810  31.005  29.570  1.00  0.00    -0.034 C 
ATOM     87  C   UNL A   1      47.534  30.731  27.578  1.00  0.00    -0.036 A 
ATOM     88  H   UNL A   1      49.112  29.571  26.644  1.00  0.00     0.065 H 
ATOM     89  C   UNL A   1      46.233  30.394  27.911  1.00  0.00     0.049 A 
ATOM     90  H   UNL A   1      45.254  28.532  27.733  1.00  0.00     0.167 HD
ATOM     91  C   UNL A   1      43.945  30.827  28.758  1.00  0.00     0.074 A 
ATOM     92  C   UNL A   1      42.926  31.677  29.336  1.00  0.00    -0.034 C 
ATOM     93  H   UNL A   1      40.938  31.326  30.019  1.00  0.00     0.065 H 
ATOM     94  H   UNL A   1      47.972  31.655  27.715  1.00  0.00     0.065 H 
ATOM     95  C   UNL A   1      45.206  31.232  28.475  1.00  0.00     0.037 A 
ATOM     96  H   UNL A   1      43.054  32.682  29.539  1.00  0.00     0.065 H 
BRANCH  77  97
ATOM     97  C   UNL A   1      48.836  26.794  26.198  1.00  0.00     0.064 A 
ATOM     98  C   UNL A   1      49.235  26.975  24.864  1.00  0.00     0.173 A 
ATOM     99  C   UNL A   1      49.790  26.308  27.107  1.00  0.00     0.173 A 
ATOM    100  F   UNL A   1      48.360  27.426  23.954  1.00  0.00    -0.203 F 
ATOM    101  C   UNL A   1      50.531  26.668  24.456  1.00  0.00     0.198 A 
ATOM    102  C   UNL A   1      51.093  26.033  26.701  1.00  0.00     0.198 A 
ATOM    103  F   UNL A   1      49.463  26.122  28.395  1.00  0.00    -0.203 F 
ATOM    104  F   UNL A   1      50.878  26.816  23.171  1.00  0.00    -0.200 F 
ATOM    105  C   UNL A   1      51.462  26.209  25.376  1.00  0.00     0.200 A 
ATOM    106  F   UNL A   1      51.995  25.605  27.595  1.00  0.00    -0.200 F 
ATOM    107  F   UNL A   1      52.713  25.935  24.985  1.00  0.00    -0.200 F 
ENDBRANCH  77  97
BRANCH  80 108
ATOM    108  C   UNL A   1      39.702  28.977  29.600  1.00  0.00     0.064 A 
ATOM    109  C   UNL A   1      39.406  28.759  30.954  1.00  0.00     0.173 A 
ATOM    110  C   UNL A   1      38.676  29.475  28.783  1.00  0.00     0.173 A 
ATOM    111  F   UNL A   1      40.346  28.265  31.773  1.00  0.00    -0.203 F 
ATOM    112  C   UNL A   1      38.128  28.992  31.459  1.00  0.00     0.198 A 
ATOM    113  C   UNL A   1      37.409  29.741  29.298  1.00  0.00     0.198 A 
ATOM    114  F   UNL A   1      38.906  29.708  27.482  1.00  0.00    -0.203 F 
ATOM    115  F   UNL A   1      37.856  28.709  32.740  1.00  0.00    -0.200 F 
ATOM    116  C   UNL A   1      37.132  29.486  30.632  1.00  0.00     0.200 A 
ATOM    117  F   UNL A   1      36.454  30.236  28.498  1.00  0.00    -0.200 F 
ATOM    118  F   UNL A   1      35.902  29.704  31.116  1.00  0.00    -0.200 F 
ENDBRANCH  80 108
BRANCH  95 119
ATOM    119  C   UNL A   1      45.546  32.670  28.745  1.00  0.00     0.064 A 
ATOM    120  C   UNL A   1      46.124  33.078  29.955  1.00  0.00     0.173 A 
ATOM    121  C   UNL A   1      45.321  33.648  27.763  1.00  0.00     0.173 A 
ATOM    122  F   UNL A   1      46.346  32.185  30.932  1.00  0.00    -0.203 F 
ATOM    123  C   UNL A   1      46.436  34.416  30.186  1.00  0.00     0.198 A 
ATOM    124  C   UNL A   1      45.668  34.978  27.983  1.00  0.00     0.198 A 
ATOM    125  F   UNL A   1      44.778  33.311  26.584  1.00  0.00    -0.203 F 
ATOM    126  F   UNL A   1      46.936  34.790  31.372  1.00  0.00    -0.200 F 
ATOM    127  C   UNL A   1      46.216  35.363  29.197  1.00  0.00     0.200 A 
ATOM    128  F   UNL A   1      45.470  35.889  27.019  1.00  0.00    -0.200 F 
ATOM    129  F   UNL A   1      46.524  36.648  29.418  1.00  0.00    -0.200 F 
ENDBRANCH  95 119
ENDBRANCH  60  63
ENDBRANCH  50  53
ENDBRANCH  46  49
ENDBRANCH  43  46
ENDBRANCH  40  43
ENDBRANCH   1  40
TORSDOF 17
ENDMDL
MODEL 8
REMARK VINA RESULT:     -11.8      4.274     10.531
REMARK SMILES C[C@@H](C(=O)NCCCCCCNC(=O)c1ccc(-c2c3nc(c(-c4c(F)c(F)c(F)c(F)c4F)c4ccc([nH]4)c(-c4c(F)c(F)c(F)c(F)c4F)c4nc(c(-c5c(F)c(F)c(F)c(F)c5F)c5ccc2[nH]5)C=C4)C=C3)cc1)c1ccc(C(=O)c2cccs2)cc1
REMARK SMILES IDX 8 1 7 4 6 7 5 10 3 11 4 12 2 14 1 16 78 20 79 21 90 22 80 23
REMARK SMILES IDX 89 25 81 27 82 30 83 31 84 32 85 33 88 34 86 35 87 37 9 40
REMARK SMILES IDX 10 43 11 46 12 49 13 50 14 52 15 53 16 54 77 55 17 56 76 58
REMARK SMILES IDX 18 60 19 63 20 64 70 65 21 66 75 67 69 68 71 69 22 70 74 71
REMARK SMILES IDX 68 73 67 75 23 77 55 80 35 81 54 82 36 83 39 84 53 85 72 86
REMARK SMILES IDX 37 87 38 89 52 91 73 92 40 95 24 97 25 98 33 99 26 100
REMARK SMILES IDX 27 101 31 102 34 103 28 104 29 105 32 106 30 107 56 108
REMARK SMILES IDX 57 109 65 110 58 111 59 112 63 113 66 114 60 115 61 116
REMARK SMILES IDX 64 117 62 118 41 119 42 120 50 121 43 122 44 123 48 124
REMARK SMILES IDX 51 125 45 126 46 127 49 128 47 129
REMARK H PARENT 8 2 8 3 7 5 7 6 6 8 6 9 5 13 2 15 1 17 1 18 1 19 79 24 90 26
REMARK H PARENT 80 28 89 29 85 36 86 38 87 39 9 41 9 42 10 44 10 45 11 47
REMARK H PARENT 11 48 12 51 16 57 77 59 17 61 76 62 75 72 69 74 71 76 74 78
REMARK H PARENT 68 79 36 88 39 90 72 93 37 94 73 96
REMARK Flexibility Score: inf
ROOT
ATOM      1  C   UNL A   1      33.000  35.556  29.554  1.00  0.00    -0.052 C 
ATOM      2  H   UNL A   1      32.105  35.947  29.117  1.00  0.00     0.027 H 
ATOM      3  H   UNL A   1      32.920  34.528  29.841  1.00  0.00     0.027 H 
ENDROOT
BRANCH   1   4
ATOM      4  C   UNL A   1      33.282  36.339  30.845  1.00  0.00    -0.036 C 
ATOM      5  H   UNL A   1      34.320  36.596  30.861  1.00  0.00     0.028 H 
ATOM      6  H   UNL A   1      32.642  37.196  30.831  1.00  0.00     0.028 H 
BRANCH   4   7
ATOM      7  C   UNL A   1      32.959  35.570  32.129  1.00  0.00     0.017 C 
ATOM      8  H   UNL A   1      32.132  36.038  32.622  1.00  0.00     0.049 H 
ATOM      9  H   UNL A   1      32.712  34.560  31.876  1.00  0.00     0.049 H 
BRANCH   7  10
ATOM     10  N   UNL A   1      34.099  35.564  33.017  1.00  0.00    -0.356 N 
ATOM     11  C   UNL A   1      35.218  34.789  33.031  1.00  0.00     0.227 C 
ATOM     12  O   UNL A   1      35.958  34.953  34.003  1.00  0.00    -0.274 OA
ATOM     13  H   UNL A   1      34.058  36.234  33.737  1.00  0.00     0.163 HD
BRANCH  11  14
ATOM     14  C   UNL A   1      35.518  33.837  31.856  1.00  0.00     0.060 C 
ATOM     15  H   UNL A   1      34.807  34.163  31.127  1.00  0.00     0.045 H 
BRANCH  14  16
ATOM     16  C   UNL A   1      35.294  32.363  32.200  1.00  0.00    -0.049 C 
ATOM     17  H   UNL A   1      35.202  32.254  33.262  1.00  0.00     0.024 H 
ATOM     18  H   UNL A   1      36.124  31.784  31.854  1.00  0.00     0.024 H 
ATOM     19  H   UNL A   1      34.397  32.019  31.729  1.00  0.00     0.024 H 
ENDBRANCH  14  16
BRANCH  14  20
ATOM     20  C   UNL A   1      36.915  33.966  31.242  1.00  0.00    -0.036 A 
ATOM     21  C   UNL A   1      37.166  33.767  29.878  1.00  0.00    -0.058 A 
ATOM     22  C   UNL A   1      37.976  34.402  32.051  1.00  0.00    -0.058 A 
ATOM     23  C   UNL A   1      38.449  33.933  29.351  1.00  0.00    -0.051 A 
ATOM     24  H   UNL A   1      36.393  33.493  29.254  1.00  0.00     0.063 H 
ATOM     25  C   UNL A   1      39.253  34.611  31.516  1.00  0.00    -0.051 A 
ATOM     26  H   UNL A   1      37.813  34.570  33.056  1.00  0.00     0.063 H 
ATOM     27  C   UNL A   1      39.506  34.360  30.162  1.00  0.00     0.023 A 
ATOM     28  H   UNL A   1      38.618  33.740  28.352  1.00  0.00     0.063 H 
ATOM     29  H   UNL A   1      40.012  34.955  32.124  1.00  0.00     0.063 H 
BRANCH  27  30
ATOM     30  C   UNL A   1      40.842  34.578  29.514  1.00  0.00     0.202 C 
ATOM     31  O   UNL A   1      40.932  35.440  28.640  1.00  0.00    -0.288 OA
BRANCH  30  32
ATOM     32  C   UNL A   1      41.984  33.807  29.963  1.00  0.00     0.075 A 
ATOM     33  C   UNL A   1      42.122  32.443  30.127  1.00  0.00    -0.040 A 
ATOM     34  S   UNL A   1      43.430  34.641  30.338  1.00  0.00    -0.140 S 
ATOM     35  C   UNL A   1      43.412  32.090  30.621  1.00  0.00    -0.051 A 
ATOM     36  H   UNL A   1      41.379  31.758  29.916  1.00  0.00     0.064 H 
ATOM     37  C   UNL A   1      44.221  33.194  30.784  1.00  0.00    -0.009 A 
ATOM     38  H   UNL A   1      43.705  31.123  30.831  1.00  0.00     0.063 H 
ATOM     39  H   UNL A   1      45.191  33.149  31.135  1.00  0.00     0.074 H 
ENDBRANCH  30  32
ENDBRANCH  27  30
ENDBRANCH  14  20
ENDBRANCH  11  14
ENDBRANCH   7  10
ENDBRANCH   4   7
ENDBRANCH   1   4
BRANCH   1  40
ATOM     40  C   UNL A   1      34.110  35.621  28.502  1.00  0.00    -0.052 C 
ATOM     41  H   UNL A   1      35.012  35.931  28.987  1.00  0.00     0.027 H 
ATOM     42  H   UNL A   1      33.776  36.309  27.753  1.00  0.00     0.027 H 
BRANCH  40  43
ATOM     43  C   UNL A   1      34.386  34.300  27.781  1.00  0.00    -0.036 C 
ATOM     44  H   UNL A   1      35.429  34.259  27.547  1.00  0.00     0.028 H 
ATOM     45  H   UNL A   1      33.763  34.292  26.912  1.00  0.00     0.028 H 
BRANCH  43  46
ATOM     46  C   UNL A   1      34.028  33.057  28.586  1.00  0.00     0.018 C 
ATOM     47  H   UNL A   1      33.231  33.298  29.258  1.00  0.00     0.049 H 
ATOM     48  H   UNL A   1      34.903  32.746  29.119  1.00  0.00     0.049 H 
BRANCH  46  49
ATOM     49  N   UNL A   1      33.607  31.957  27.734  1.00  0.00    -0.352 N 
ATOM     50  C   UNL A   1      34.284  30.814  27.396  1.00  0.00     0.251 C 
ATOM     51  H   UNL A   1      32.707  32.046  27.344  1.00  0.00     0.163 HD
ATOM     52  O   UNL A   1      33.863  30.085  26.501  1.00  0.00    -0.269 OA
BRANCH  50  53
ATOM     53  C   UNL A   1      35.539  30.469  28.096  1.00  0.00     0.039 A 
ATOM     54  C   UNL A   1      35.474  29.706  29.263  1.00  0.00    -0.049 A 
ATOM     55  C   UNL A   1      36.776  30.894  27.601  1.00  0.00    -0.049 A 
ATOM     56  C   UNL A   1      36.653  29.311  29.897  1.00  0.00    -0.053 A 
ATOM     57  H   UNL A   1      34.558  29.434  29.654  1.00  0.00     0.063 H 
ATOM     58  C   UNL A   1      37.952  30.438  28.191  1.00  0.00    -0.053 A 
ATOM     59  H   UNL A   1      36.817  31.544  26.800  1.00  0.00     0.063 H 
ATOM     60  C   UNL A   1      37.902  29.640  29.344  1.00  0.00    -0.014 A 
ATOM     61  H   UNL A   1      36.606  28.776  30.778  1.00  0.00     0.063 H 
ATOM     62  H   UNL A   1      38.864  30.688  27.779  1.00  0.00     0.063 H 
BRANCH  60  63
ATOM     63  C   UNL A   1      39.162  29.137  29.949  1.00  0.00     0.031 A 
ATOM     64  C   UNL A   1      39.723  29.781  31.187  1.00  0.00     0.074 A 
ATOM     65  C   UNL A   1      39.832  28.135  29.345  1.00  0.00     0.049 A 
ATOM     66  N   UNL A   1      40.836  29.518  31.823  1.00  0.00    -0.248 NA
ATOM     67  C   UNL A   1      38.942  30.880  31.776  1.00  0.00    -0.034 C 
ATOM     68  C   UNL A   1      39.415  27.461  28.113  1.00  0.00    -0.036 A 
ATOM     69  N   UNL A   1      41.011  27.514  29.677  1.00  0.00    -0.354 N 
ATOM     70  C   UNL A   1      40.895  30.422  32.876  1.00  0.00     0.074 A 
ATOM     71  C   UNL A   1      39.730  31.274  32.766  1.00  0.00    -0.034 C 
ATOM     72  H   UNL A   1      38.021  31.249  31.492  1.00  0.00     0.065 H 
ATOM     73  C   UNL A   1      40.310  26.509  27.807  1.00  0.00    -0.036 A 
ATOM     74  H   UNL A   1      38.568  27.683  27.568  1.00  0.00     0.065 H 
ATOM     75  C   UNL A   1      41.387  26.533  28.792  1.00  0.00     0.049 A 
ATOM     76  H   UNL A   1      41.538  27.750  30.475  1.00  0.00     0.167 HD
ATOM     77  C   UNL A   1      41.824  30.518  33.856  1.00  0.00     0.037 A 
ATOM     78  H   UNL A   1      39.539  32.082  33.379  1.00  0.00     0.065 H 
ATOM     79  H   UNL A   1      40.247  25.863  27.005  1.00  0.00     0.065 H 
ATOM     80  C   UNL A   1      42.483  25.751  28.769  1.00  0.00     0.037 A 
ATOM     81  C   UNL A   1      42.968  29.651  33.975  1.00  0.00     0.049 A 
ATOM     82  C   UNL A   1      43.507  25.893  29.865  1.00  0.00     0.074 A 
ATOM     83  C   UNL A   1      43.929  29.627  34.970  1.00  0.00    -0.036 A 
ATOM     84  N   UNL A   1      43.309  28.661  33.066  1.00  0.00    -0.354 N 
ATOM     85  N   UNL A   1      43.508  26.697  30.899  1.00  0.00    -0.248 NA
ATOM     86  C   UNL A   1      44.682  25.013  29.791  1.00  0.00    -0.034 C 
ATOM     87  C   UNL A   1      44.884  28.663  34.633  1.00  0.00    -0.036 A 
ATOM     88  H   UNL A   1      43.939  30.217  35.816  1.00  0.00     0.065 H 
ATOM     89  C   UNL A   1      44.484  28.042  33.462  1.00  0.00     0.049 A 
ATOM     90  H   UNL A   1      42.793  28.432  32.259  1.00  0.00     0.167 HD
ATOM     91  C   UNL A   1      44.659  26.399  31.615  1.00  0.00     0.074 A 
ATOM     92  C   UNL A   1      45.323  25.325  30.907  1.00  0.00    -0.034 C 
ATOM     93  H   UNL A   1      44.939  24.330  29.062  1.00  0.00     0.065 H 
ATOM     94  H   UNL A   1      45.741  28.451  35.167  1.00  0.00     0.065 H 
ATOM     95  C   UNL A   1      45.127  26.965  32.753  1.00  0.00     0.037 A 
ATOM     96  H   UNL A   1      46.186  24.861  31.232  1.00  0.00     0.065 H 
BRANCH  77  97
ATOM     97  C   UNL A   1      41.651  31.593  34.889  1.00  0.00     0.064 A 
ATOM     98  C   UNL A   1      42.362  32.801  34.821  1.00  0.00     0.173 A 
ATOM     99  C   UNL A   1      40.704  31.447  35.914  1.00  0.00     0.173 A 
ATOM    100  F   UNL A   1      43.287  32.989  33.868  1.00  0.00    -0.203 F 
ATOM    101  C   UNL A   1      42.142  33.815  35.750  1.00  0.00     0.198 A 
ATOM    102  C   UNL A   1      40.464  32.475  36.822  1.00  0.00     0.198 A 
ATOM    103  F   UNL A   1      39.992  30.314  36.021  1.00  0.00    -0.203 F 
ATOM    104  F   UNL A   1      42.857  34.947  35.687  1.00  0.00    -0.200 F 
ATOM    105  C   UNL A   1      41.185  33.656  36.742  1.00  0.00     0.200 A 
ATOM    106  F   UNL A   1      39.528  32.325  37.769  1.00  0.00    -0.200 F 
ATOM    107  F   UNL A   1      40.961  34.641  37.623  1.00  0.00    -0.200 F 
ENDBRANCH  77  97
BRANCH  80 108
ATOM    108  C   UNL A   1      42.677  24.760  27.676  1.00  0.00     0.064 A 
ATOM    109  C   UNL A   1      42.254  23.431  27.820  1.00  0.00     0.173 A 
ATOM    110  C   UNL A   1      43.327  25.109  26.482  1.00  0.00     0.173 A 
ATOM    111  F   UNL A   1      41.646  23.041  28.950  1.00  0.00    -0.203 F 
ATOM    112  C   UNL A   1      42.506  22.482  26.831  1.00  0.00     0.198 A 
ATOM    113  C   UNL A   1      43.546  24.167  25.478  1.00  0.00     0.198 A 
ATOM    114  F   UNL A   1      43.747  26.367  26.289  1.00  0.00    -0.203 F 
ATOM    115  F   UNL A   1      42.151  21.205  27.026  1.00  0.00    -0.200 F 
ATOM    116  C   UNL A   1      43.148  22.852  25.660  1.00  0.00     0.200 A 
ATOM    117  F   UNL A   1      44.152  24.534  24.340  1.00  0.00    -0.200 F 
ATOM    118  F   UNL A   1      43.395  21.939  24.710  1.00  0.00    -0.200 F 
ENDBRANCH  80 108
BRANCH  95 119
ATOM    119  C   UNL A   1      46.396  26.407  33.330  1.00  0.00     0.064 A 
ATOM    120  C   UNL A   1      46.390  25.323  34.221  1.00  0.00     0.173 A 
ATOM    121  C   UNL A   1      47.640  26.942  32.958  1.00  0.00     0.173 A 
ATOM    122  F   UNL A   1      45.227  24.784  34.619  1.00  0.00    -0.203 F 
ATOM    123  C   UNL A   1      47.577  24.816  34.742  1.00  0.00     0.198 A 
ATOM    124  C   UNL A   1      48.827  26.409  33.453  1.00  0.00     0.198 A 
ATOM    125  F   UNL A   1      47.704  27.973  32.103  1.00  0.00    -0.203 F 
ATOM    126  F   UNL A   1      47.543  23.817  35.635  1.00  0.00    -0.200 F 
ATOM    127  C   UNL A   1      48.795  25.354  34.351  1.00  0.00     0.200 A 
ATOM    128  F   UNL A   1      50.003  26.919  33.060  1.00  0.00    -0.200 F 
ATOM    129  F   UNL A   1      49.937  24.859  34.848  1.00  0.00    -0.200 F 
ENDBRANCH  95 119
ENDBRANCH  60  63
ENDBRANCH  50  53
ENDBRANCH  46  49
ENDBRANCH  43  46
ENDBRANCH  40  43
ENDBRANCH   1  40
TORSDOF 17
ENDMDL
MODEL 9
REMARK VINA RESULT:     -11.7      5.428     10.653
REMARK SMILES C[C@@H](C(=O)NCCCCCCNC(=O)c1ccc(-c2c3nc(c(-c4c(F)c(F)c(F)c(F)c4F)c4ccc([nH]4)c(-c4c(F)c(F)c(F)c(F)c4F)c4nc(c(-c5c(F)c(F)c(F)c(F)c5F)c5ccc2[nH]5)C=C4)C=C3)cc1)c1ccc(C(=O)c2cccs2)cc1
REMARK SMILES IDX 8 1 7 4 6 7 5 10 3 11 4 12 2 14 1 16 78 20 79 21 90 22 80 23
REMARK SMILES IDX 89 25 81 27 82 30 83 31 84 32 85 33 88 34 86 35 87 37 9 40
REMARK SMILES IDX 10 43 11 46 12 49 13 50 14 52 15 53 16 54 77 55 17 56 76 58
REMARK SMILES IDX 18 60 19 63 20 64 70 65 21 66 75 67 69 68 71 69 22 70 74 71
REMARK SMILES IDX 68 73 67 75 23 77 55 80 35 81 54 82 36 83 39 84 53 85 72 86
REMARK SMILES IDX 37 87 38 89 52 91 73 92 40 95 24 97 25 98 33 99 26 100
REMARK SMILES IDX 27 101 31 102 34 103 28 104 29 105 32 106 30 107 56 108
REMARK SMILES IDX 57 109 65 110 58 111 59 112 63 113 66 114 60 115 61 116
REMARK SMILES IDX 64 117 62 118 41 119 42 120 50 121 43 122 44 123 48 124
REMARK SMILES IDX 51 125 45 126 46 127 49 128 47 129
REMARK H PARENT 8 2 8 3 7 5 7 6 6 8 6 9 5 13 2 15 1 17 1 18 1 19 79 24 90 26
REMARK H PARENT 80 28 89 29 85 36 86 38 87 39 9 41 9 42 10 44 10 45 11 47
REMARK H PARENT 11 48 12 51 16 57 77 59 17 61 76 62 75 72 69 74 71 76 74 78
REMARK H PARENT 68 79 36 88 39 90 72 93 37 94 73 96
REMARK Flexibility Score: inf
ROOT
ATOM      1  C   UNL A   1      36.209  21.876  25.142  1.00  0.00    -0.052 C 
ATOM      2  H   UNL A   1      35.856  22.070  26.134  1.00  0.00     0.027 H 
ATOM      3  H   UNL A   1      37.153  22.334  24.928  1.00  0.00     0.027 H 
ENDROOT
BRANCH   1   4
ATOM      4  C   UNL A   1      35.205  22.485  24.152  1.00  0.00    -0.036 C 
ATOM      5  H   UNL A   1      35.537  23.471  23.901  1.00  0.00     0.028 H 
ATOM      6  H   UNL A   1      35.172  21.831  23.307  1.00  0.00     0.028 H 
BRANCH   4   7
ATOM      7  C   UNL A   1      33.775  22.584  24.688  1.00  0.00     0.017 C 
ATOM      8  H   UNL A   1      33.086  22.474  23.876  1.00  0.00     0.049 H 
ATOM      9  H   UNL A   1      33.620  21.808  25.409  1.00  0.00     0.049 H 
BRANCH   7  10
ATOM     10  N   UNL A   1      33.558  23.863  25.325  1.00  0.00    -0.356 N 
ATOM     11  C   UNL A   1      33.027  25.022  24.848  1.00  0.00     0.227 C 
ATOM     12  O   UNL A   1      33.092  25.984  25.615  1.00  0.00    -0.274 OA
ATOM     13  H   UNL A   1      33.847  23.903  26.265  1.00  0.00     0.163 HD
BRANCH  11  14
ATOM     14  C   UNL A   1      32.350  25.054  23.464  1.00  0.00     0.060 C 
ATOM     15  H   UNL A   1      31.978  24.055  23.381  1.00  0.00     0.045 H 
BRANCH  14  16
ATOM     16  C   UNL A   1      33.323  25.357  22.321  1.00  0.00    -0.049 C 
ATOM     17  H   UNL A   1      32.831  25.957  21.583  1.00  0.00     0.024 H 
ATOM     18  H   UNL A   1      33.649  24.441  21.876  1.00  0.00     0.024 H 
ATOM     19  H   UNL A   1      34.169  25.889  22.705  1.00  0.00     0.024 H 
ENDBRANCH  14  16
BRANCH  14  20
ATOM     20  C   UNL A   1      31.162  26.010  23.331  1.00  0.00    -0.036 A 
ATOM     21  C   UNL A   1      29.944  25.804  23.993  1.00  0.00    -0.058 A 
ATOM     22  C   UNL A   1      31.323  27.198  22.602  1.00  0.00    -0.058 A 
ATOM     23  C   UNL A   1      28.898  26.723  23.876  1.00  0.00    -0.051 A 
ATOM     24  H   UNL A   1      29.818  24.962  24.574  1.00  0.00     0.063 H 
ATOM     25  C   UNL A   1      30.291  28.141  22.520  1.00  0.00    -0.051 A 
ATOM     26  H   UNL A   1      32.216  27.380  22.118  1.00  0.00     0.063 H 
ATOM     27  C   UNL A   1      29.059  27.902  23.142  1.00  0.00     0.023 A 
ATOM     28  H   UNL A   1      27.995  26.528  24.338  1.00  0.00     0.063 H 
ATOM     29  H   UNL A   1      30.440  29.018  21.999  1.00  0.00     0.063 H 
BRANCH  27  30
ATOM     30  C   UNL A   1      27.914  28.872  23.114  1.00  0.00     0.202 C 
ATOM     31  O   UNL A   1      26.788  28.452  23.378  1.00  0.00    -0.288 OA
BRANCH  30  32
ATOM     32  C   UNL A   1      28.172  30.268  22.825  1.00  0.00     0.075 A 
ATOM     33  C   UNL A   1      28.559  31.290  23.670  1.00  0.00    -0.040 A 
ATOM     34  S   UNL A   1      28.028  30.803  21.207  1.00  0.00    -0.140 S 
ATOM     35  C   UNL A   1      28.679  32.535  22.986  1.00  0.00    -0.051 A 
ATOM     36  H   UNL A   1      28.740  31.167  24.680  1.00  0.00     0.064 H 
ATOM     37  C   UNL A   1      28.413  32.411  21.640  1.00  0.00    -0.009 A 
ATOM     38  H   UNL A   1      28.935  33.423  23.445  1.00  0.00     0.063 H 
ATOM     39  H   UNL A   1      28.443  33.198  20.973  1.00  0.00     0.074 H 
ENDBRANCH  30  32
ENDBRANCH  27  30
ENDBRANCH  14  20
ENDBRANCH  11  14
ENDBRANCH   7  10
ENDBRANCH   4   7
ENDBRANCH   1   4
BRANCH   1  40
ATOM     40  C   UNL A   1      36.424  20.367  25.001  1.00  0.00    -0.052 C 
ATOM     41  H   UNL A   1      35.783  20.010  24.223  1.00  0.00     0.027 H 
ATOM     42  H   UNL A   1      36.203  19.940  25.957  1.00  0.00     0.027 H 
BRANCH  40  43
ATOM     43  C   UNL A   1      37.858  19.954  24.665  1.00  0.00    -0.036 C 
ATOM     44  H   UNL A   1      38.150  20.458  23.768  1.00  0.00     0.028 H 
ATOM     45  H   UNL A   1      37.852  18.889  24.562  1.00  0.00     0.028 H 
BRANCH  43  46
ATOM     46  C   UNL A   1      38.878  20.281  25.749  1.00  0.00     0.018 C 
ATOM     47  H   UNL A   1      38.362  20.430  26.675  1.00  0.00     0.049 H 
ATOM     48  H   UNL A   1      39.402  21.166  25.452  1.00  0.00     0.049 H 
BRANCH  46  49
ATOM     49  N   UNL A   1      39.853  19.217  25.921  1.00  0.00    -0.352 N 
ATOM     50  C   UNL A   1      41.205  19.305  26.126  1.00  0.00     0.251 C 
ATOM     51  H   UNL A   1      39.490  18.302  25.886  1.00  0.00     0.163 HD
ATOM     52  O   UNL A   1      41.912  18.303  26.046  1.00  0.00    -0.269 OA
BRANCH  50  53
ATOM     53  C   UNL A   1      41.820  20.617  26.420  1.00  0.00     0.039 A 
ATOM     54  C   UNL A   1      42.148  21.462  25.358  1.00  0.00    -0.049 A 
ATOM     55  C   UNL A   1      42.068  21.014  27.738  1.00  0.00    -0.049 A 
ATOM     56  C   UNL A   1      42.664  22.732  25.620  1.00  0.00    -0.053 A 
ATOM     57  H   UNL A   1      42.010  21.148  24.385  1.00  0.00     0.063 H 
ATOM     58  C   UNL A   1      42.511  22.307  28.000  1.00  0.00    -0.053 A 
ATOM     59  H   UNL A   1      41.923  20.349  28.515  1.00  0.00     0.063 H 
ATOM     60  C   UNL A   1      42.811  23.180  26.944  1.00  0.00    -0.014 A 
ATOM     61  H   UNL A   1      42.939  23.345  24.837  1.00  0.00     0.063 H 
ATOM     62  H   UNL A   1      42.619  22.625  28.975  1.00  0.00     0.063 H 
BRANCH  60  63
ATOM     63  C   UNL A   1      43.257  24.567  27.236  1.00  0.00     0.031 A 
ATOM     64  C   UNL A   1      42.286  25.583  27.771  1.00  0.00     0.074 A 
ATOM     65  C   UNL A   1      44.528  24.925  26.961  1.00  0.00     0.049 A 
ATOM     66  N   UNL A   1      42.478  26.852  28.032  1.00  0.00    -0.248 NA
ATOM     67  C   UNL A   1      40.914  25.119  28.029  1.00  0.00    -0.034 C 
ATOM     68  C   UNL A   1      45.551  24.043  26.394  1.00  0.00    -0.036 A 
ATOM     69  N   UNL A   1      45.175  26.127  27.109  1.00  0.00    -0.354 N 
ATOM     70  C   UNL A   1      41.253  27.338  28.470  1.00  0.00     0.074 A 
ATOM     71  C   UNL A   1      40.312  26.242  28.396  1.00  0.00    -0.034 C 
ATOM     72  H   UNL A   1      40.522  24.168  27.945  1.00  0.00     0.065 H 
ATOM     73  C   UNL A   1      46.699  24.726  26.265  1.00  0.00    -0.036 A 
ATOM     74  H   UNL A   1      45.410  23.054  26.136  1.00  0.00     0.065 H 
ATOM     75  C   UNL A   1      46.485  26.104  26.695  1.00  0.00     0.049 A 
ATOM     76  H   UNL A   1      44.741  26.930  27.479  1.00  0.00     0.167 HD
ATOM     77  C   UNL A   1      40.948  28.580  28.915  1.00  0.00     0.037 A 
ATOM     78  H   UNL A   1      39.303  26.323  28.601  1.00  0.00     0.065 H 
ATOM     79  H   UNL A   1      47.590  24.339  25.918  1.00  0.00     0.065 H 
ATOM     80  C   UNL A   1      47.405  27.086  26.653  1.00  0.00     0.037 A 
ATOM     81  C   UNL A   1      41.895  29.661  29.011  1.00  0.00     0.049 A 
ATOM     82  C   UNL A   1      47.030  28.462  27.139  1.00  0.00     0.074 A 
ATOM     83  C   UNL A   1      41.697  30.936  29.512  1.00  0.00    -0.036 A 
ATOM     84  N   UNL A   1      43.216  29.596  28.593  1.00  0.00    -0.354 N 
ATOM     85  N   UNL A   1      45.890  28.886  27.627  1.00  0.00    -0.248 NA
ATOM     86  C   UNL A   1      48.073  29.495  27.073  1.00  0.00    -0.034 C 
ATOM     87  C   UNL A   1      42.880  31.661  29.342  1.00  0.00    -0.036 A 
ATOM     88  H   UNL A   1      40.827  31.290  29.938  1.00  0.00     0.065 H 
ATOM     89  C   UNL A   1      43.835  30.819  28.795  1.00  0.00     0.049 A 
ATOM     90  H   UNL A   1      43.649  28.800  28.209  1.00  0.00     0.167 HD
ATOM     91  C   UNL A   1      46.088  30.220  27.956  1.00  0.00     0.074 A 
ATOM     92  C   UNL A   1      47.464  30.529  27.631  1.00  0.00    -0.034 C 
ATOM     93  H   UNL A   1      49.030  29.430  26.692  1.00  0.00     0.065 H 
ATOM     94  H   UNL A   1      43.018  32.655  29.583  1.00  0.00     0.065 H 
ATOM     95  C   UNL A   1      45.209  31.110  28.477  1.00  0.00     0.037 A 
ATOM     96  H   UNL A   1      47.913  31.442  27.811  1.00  0.00     0.065 H 
BRANCH  77  97
ATOM     97  C   UNL A   1      39.534  28.850  29.339  1.00  0.00     0.064 A 
ATOM     98  C   UNL A   1      39.102  28.620  30.654  1.00  0.00     0.173 A 
ATOM     99  C   UNL A   1      38.620  29.421  28.439  1.00  0.00     0.173 A 
ATOM    100  F   UNL A   1      39.932  28.067  31.551  1.00  0.00    -0.203 F 
ATOM    101  C   UNL A   1      37.804  28.937  31.048  1.00  0.00     0.198 A 
ATOM    102  C   UNL A   1      37.333  29.766  28.846  1.00  0.00     0.198 A 
ATOM    103  F   UNL A   1      38.983  29.667  27.171  1.00  0.00    -0.203 F 
ATOM    104  F   UNL A   1      37.404  28.677  32.300  1.00  0.00    -0.200 F 
ATOM    105  C   UNL A   1      36.925  29.520  30.148  1.00  0.00     0.200 A 
ATOM    106  F   UNL A   1      36.491  30.343  27.978  1.00  0.00    -0.200 F 
ATOM    107  F   UNL A   1      35.684  29.843  30.534  1.00  0.00    -0.200 F 
ENDBRANCH  77  97
BRANCH  80 108
ATOM    108  C   UNL A   1      48.773  26.814  26.134  1.00  0.00     0.064 A 
ATOM    109  C   UNL A   1      49.091  27.032  24.785  1.00  0.00     0.173 A 
ATOM    110  C   UNL A   1      49.777  26.291  26.962  1.00  0.00     0.173 A 
ATOM    111  F   UNL A   1      48.161  27.512  23.947  1.00  0.00    -0.203 F 
ATOM    112  C   UNL A   1      50.347  26.703  24.279  1.00  0.00     0.198 A 
ATOM    113  C   UNL A   1      51.044  25.996  26.462  1.00  0.00     0.198 A 
ATOM    114  F   UNL A   1      49.528  26.069  28.261  1.00  0.00    -0.203 F 
ATOM    115  F   UNL A   1      50.601  26.857  22.972  1.00  0.00    -0.200 F 
ATOM    116  C   UNL A   1      51.323  26.189  25.118  1.00  0.00     0.200 A 
ATOM    117  F   UNL A   1      51.989  25.516  27.281  1.00  0.00    -0.200 F 
ATOM    118  F   UNL A   1      52.529  25.867  24.630  1.00  0.00    -0.200 F 
ENDBRANCH  80 108
BRANCH  95 119
ATOM    119  C   UNL A   1      45.718  32.493  28.768  1.00  0.00     0.064 A 
ATOM    120  C   UNL A   1      46.324  32.815  29.992  1.00  0.00     0.173 A 
ATOM    121  C   UNL A   1      45.631  33.500  27.795  1.00  0.00     0.173 A 
ATOM    122  F   UNL A   1      46.419  31.892  30.962  1.00  0.00    -0.203 F 
ATOM    123  C   UNL A   1      46.794  34.102  30.242  1.00  0.00     0.198 A 
ATOM    124  C   UNL A   1      46.135  34.775  28.034  1.00  0.00     0.198 A 
ATOM    125  F   UNL A   1      45.069  33.243  26.604  1.00  0.00    -0.203 F 
ATOM    126  F   UNL A   1      47.317  34.401  31.439  1.00  0.00    -0.200 F 
ATOM    127  C   UNL A   1      46.707  35.078  29.260  1.00  0.00     0.200 A 
ATOM    128  F   UNL A   1      46.066  35.712  27.078  1.00  0.00    -0.200 F 
ATOM    129  F   UNL A   1      47.167  36.313  29.500  1.00  0.00    -0.200 F 
ENDBRANCH  95 119
ENDBRANCH  60  63
ENDBRANCH  50  53
ENDBRANCH  46  49
ENDBRANCH  43  46
ENDBRANCH  40  43
ENDBRANCH   1  40
TORSDOF 17
ENDMDL
MODEL 10
REMARK VINA RESULT:     -11.7      2.590      4.611
REMARK SMILES C[C@@H](C(=O)NCCCCCCNC(=O)c1ccc(-c2c3nc(c(-c4c(F)c(F)c(F)c(F)c4F)c4ccc([nH]4)c(-c4c(F)c(F)c(F)c(F)c4F)c4nc(c(-c5c(F)c(F)c(F)c(F)c5F)c5ccc2[nH]5)C=C4)C=C3)cc1)c1ccc(C(=O)c2cccs2)cc1
REMARK SMILES IDX 8 1 7 4 6 7 5 10 3 11 4 12 2 14 1 16 78 20 79 21 90 22 80 23
REMARK SMILES IDX 89 25 81 27 82 30 83 31 84 32 85 33 88 34 86 35 87 37 9 40
REMARK SMILES IDX 10 43 11 46 12 49 13 50 14 52 15 53 16 54 77 55 17 56 76 58
REMARK SMILES IDX 18 60 19 63 20 64 70 65 21 66 75 67 69 68 71 69 22 70 74 71
REMARK SMILES IDX 68 73 67 75 23 77 55 80 35 81 54 82 36 83 39 84 53 85 72 86
REMARK SMILES IDX 37 87 38 89 52 91 73 92 40 95 24 97 25 98 33 99 26 100
REMARK SMILES IDX 27 101 31 102 34 103 28 104 29 105 32 106 30 107 56 108
REMARK SMILES IDX 57 109 65 110 58 111 59 112 63 113 66 114 60 115 61 116
REMARK SMILES IDX 64 117 62 118 41 119 42 120 50 121 43 122 44 123 48 124
REMARK SMILES IDX 51 125 45 126 46 127 49 128 47 129
REMARK H PARENT 8 2 8 3 7 5 7 6 6 8 6 9 5 13 2 15 1 17 1 18 1 19 79 24 90 26
REMARK H PARENT 80 28 89 29 85 36 86 38 87 39 9 41 9 42 10 44 10 45 11 47
REMARK H PARENT 11 48 12 51 16 57 77 59 17 61 76 62 75 72 69 74 71 76 74 78
REMARK H PARENT 68 79 36 88 39 90 72 93 37 94 73 96
REMARK Flexibility Score: inf
ROOT
ATOM      1  C   UNL A   1      32.515  29.943  27.185  1.00  0.00    -0.052 C 
ATOM      2  H   UNL A   1      33.433  30.488  27.125  1.00  0.00     0.027 H 
ATOM      3  H   UNL A   1      32.097  29.918  28.170  1.00  0.00     0.027 H 
ENDROOT
BRANCH   1   4
ATOM      4  C   UNL A   1      32.801  28.482  26.806  1.00  0.00    -0.036 C 
ATOM      5  H   UNL A   1      33.614  28.470  26.110  1.00  0.00     0.028 H 
ATOM      6  H   UNL A   1      33.026  27.967  27.716  1.00  0.00     0.028 H 
BRANCH   4   7
ATOM      7  C   UNL A   1      31.614  27.754  26.170  1.00  0.00     0.017 C 
ATOM      8  H   UNL A   1      30.748  28.380  26.222  1.00  0.00     0.049 H 
ATOM      9  H   UNL A   1      31.848  27.534  25.149  1.00  0.00     0.049 H 
BRANCH   7  10
ATOM     10  N   UNL A   1      31.347  26.515  26.866  1.00  0.00    -0.356 N 
ATOM     11  C   UNL A   1      31.369  25.224  26.434  1.00  0.00     0.227 C 
ATOM     12  O   UNL A   1      30.971  24.391  27.251  1.00  0.00    -0.274 OA
ATOM     13  H   UNL A   1      31.107  26.624  27.814  1.00  0.00     0.163 HD
BRANCH  11  14
ATOM     14  C   UNL A   1      31.919  24.882  25.036  1.00  0.00     0.060 C 
ATOM     15  H   UNL A   1      32.574  25.707  24.853  1.00  0.00     0.045 H 
BRANCH  14  16
ATOM     16  C   UNL A   1      30.833  24.812  23.959  1.00  0.00    -0.049 C 
ATOM     17  H   UNL A   1      30.822  23.832  23.527  1.00  0.00     0.024 H 
ATOM     18  H   UNL A   1      31.038  25.535  23.197  1.00  0.00     0.024 H 
ATOM     19  H   UNL A   1      29.880  25.016  24.400  1.00  0.00     0.024 H 
ENDBRANCH  14  16
BRANCH  14  20
ATOM     20  C   UNL A   1      32.747  23.597  24.949  1.00  0.00    -0.036 A 
ATOM     21  C   UNL A   1      33.842  23.341  25.785  1.00  0.00    -0.058 A 
ATOM     22  C   UNL A   1      32.339  22.583  24.069  1.00  0.00    -0.058 A 
ATOM     23  C   UNL A   1      34.547  22.138  25.699  1.00  0.00    -0.051 A 
ATOM     24  H   UNL A   1      34.133  24.052  26.473  1.00  0.00     0.063 H 
ATOM     25  C   UNL A   1      33.017  21.359  24.013  1.00  0.00    -0.051 A 
ATOM     26  H   UNL A   1      31.525  22.741  23.454  1.00  0.00     0.063 H 
ATOM     27  C   UNL A   1      34.142  21.133  24.816  1.00  0.00     0.023 A 
ATOM     28  H   UNL A   1      35.376  21.990  26.296  1.00  0.00     0.063 H 
ATOM     29  H   UNL A   1      32.685  20.619  23.376  1.00  0.00     0.063 H 
BRANCH  27  30
ATOM     30  C   UNL A   1      34.909  19.842  24.823  1.00  0.00     0.202 C 
ATOM     31  O   UNL A   1      36.126  19.889  25.001  1.00  0.00    -0.288 OA
BRANCH  30  32
ATOM     32  C   UNL A   1      34.195  18.591  24.670  1.00  0.00     0.075 A 
ATOM     33  C   UNL A   1      34.403  17.556  23.778  1.00  0.00    -0.040 A 
ATOM     34  S   UNL A   1      32.903  18.256  25.740  1.00  0.00    -0.140 S 
ATOM     35  C   UNL A   1      33.451  16.508  23.943  1.00  0.00    -0.051 A 
ATOM     36  H   UNL A   1      35.159  17.544  23.075  1.00  0.00     0.064 H 
ATOM     37  C   UNL A   1      32.575  16.764  24.974  1.00  0.00    -0.009 A 
ATOM     38  H   UNL A   1      33.423  15.657  23.359  1.00  0.00     0.063 H 
ATOM     39  H   UNL A   1      31.810  16.128  25.251  1.00  0.00     0.074 H 
ENDBRANCH  30  32
ENDBRANCH  27  30
ENDBRANCH  14  20
ENDBRANCH  11  14
ENDBRANCH   7  10
ENDBRANCH   4   7
ENDBRANCH   1   4
BRANCH   1  40
ATOM     40  C   UNL A   1      31.483  30.651  26.303  1.00  0.00    -0.052 C 
ATOM     41  H   UNL A   1      30.521  30.236  26.516  1.00  0.00     0.027 H 
ATOM     42  H   UNL A   1      31.795  30.495  25.291  1.00  0.00     0.027 H 
BRANCH  40  43
ATOM     43  C   UNL A   1      31.404  32.166  26.501  1.00  0.00    -0.036 C 
ATOM     44  H   UNL A   1      30.481  32.391  26.993  1.00  0.00     0.028 H 
ATOM     45  H   UNL A   1      31.476  32.605  25.528  1.00  0.00     0.028 H 
BRANCH  43  46
ATOM     46  C   UNL A   1      32.541  32.752  27.329  1.00  0.00     0.018 C 
ATOM     47  H   UNL A   1      33.459  32.624  26.794  1.00  0.00     0.049 H 
ATOM     48  H   UNL A   1      32.564  32.239  28.268  1.00  0.00     0.049 H 
BRANCH  46  49
ATOM     49  N   UNL A   1      32.348  34.168  27.596  1.00  0.00    -0.352 N 
ATOM     50  C   UNL A   1      32.957  34.965  28.531  1.00  0.00     0.251 C 
ATOM     51  H   UNL A   1      31.686  34.620  27.023  1.00  0.00     0.163 HD
ATOM     52  O   UNL A   1      32.528  36.094  28.758  1.00  0.00    -0.269 OA
BRANCH  50  53
ATOM     53  C   UNL A   1      34.120  34.454  29.287  1.00  0.00     0.039 A 
ATOM     54  C   UNL A   1      33.903  33.829  30.516  1.00  0.00    -0.049 A 
ATOM     55  C   UNL A   1      35.418  34.587  28.783  1.00  0.00    -0.049 A 
ATOM     56  C   UNL A   1      34.982  33.278  31.210  1.00  0.00    -0.053 A 
ATOM     57  H   UNL A   1      32.951  33.775  30.910  1.00  0.00     0.063 H 
ATOM     58  C   UNL A   1      36.481  33.972  29.438  1.00  0.00    -0.053 A 
ATOM     59  H   UNL A   1      35.586  35.140  27.927  1.00  0.00     0.063 H 
ATOM     60  C   UNL A   1      36.273  33.309  30.657  1.00  0.00    -0.014 A 
ATOM     61  H   UNL A   1      34.830  32.846  32.135  1.00  0.00     0.063 H 
ATOM     62  H   UNL A   1      37.426  34.004  29.025  1.00  0.00     0.063 H 
BRANCH  60  63
ATOM     63  C   UNL A   1      37.411  32.634  31.333  1.00  0.00     0.031 A 
ATOM     64  C   UNL A   1      38.107  31.474  30.677  1.00  0.00     0.074 A 
ATOM     65  C   UNL A   1      37.777  33.032  32.568  1.00  0.00     0.049 A 
ATOM     66  N   UNL A   1      39.079  30.726  31.136  1.00  0.00    -0.248 NA
ATOM     67  C   UNL A   1      37.638  31.089  29.336  1.00  0.00    -0.034 C 
ATOM     68  C   UNL A   1      37.147  34.113  33.329  1.00  0.00    -0.036 A 
ATOM     69  N   UNL A   1      38.759  32.567  33.408  1.00  0.00    -0.354 N 
ATOM     70  C   UNL A   1      39.327  29.779  30.151  1.00  0.00     0.074 A 
ATOM     71  C   UNL A   1      38.374  30.015  29.089  1.00  0.00    -0.034 C 
ATOM     72  H   UNL A   1      36.923  31.538  28.744  1.00  0.00     0.065 H 
ATOM     73  C   UNL A   1      37.772  34.243  34.511  1.00  0.00    -0.036 A 
ATOM     74  H   UNL A   1      36.350  34.684  33.008  1.00  0.00     0.065 H 
ATOM     75  C   UNL A   1      38.815  33.227  34.611  1.00  0.00     0.049 A 
ATOM     76  H   UNL A   1      39.368  31.830  33.169  1.00  0.00     0.167 HD
ATOM     77  C   UNL A   1      40.278  28.815  30.127  1.00  0.00     0.037 A 
ATOM     78  H   UNL A   1      38.279  29.423  28.248  1.00  0.00     0.065 H 
ATOM     79  H   UNL A   1      37.551  34.948  35.231  1.00  0.00     0.065 H 
ATOM     80  C   UNL A   1      39.608  33.027  35.682  1.00  0.00     0.037 A 
ATOM     81  C   UNL A   1      41.241  28.602  31.176  1.00  0.00     0.049 A 
ATOM     82  C   UNL A   1      40.645  31.936  35.630  1.00  0.00     0.074 A 
ATOM     83  C   UNL A   1      42.286  27.695  31.214  1.00  0.00    -0.036 A 
ATOM     84  N   UNL A   1      41.274  29.298  32.376  1.00  0.00    -0.354 N 
ATOM     85  N   UNL A   1      40.922  31.101  34.659  1.00  0.00    -0.248 NA
ATOM     86  C   UNL A   1      41.484  31.764  36.824  1.00  0.00    -0.034 C 
ATOM     87  C   UNL A   1      42.913  27.800  32.458  1.00  0.00    -0.036 A 
ATOM     88  H   UNL A   1      42.556  27.052  30.454  1.00  0.00     0.065 H 
ATOM     89  C   UNL A   1      42.301  28.818  33.172  1.00  0.00     0.049 A 
ATOM     90  H   UNL A   1      40.658  30.025  32.624  1.00  0.00     0.167 HD
ATOM     91  C   UNL A   1      41.985  30.330  35.109  1.00  0.00     0.074 A 
ATOM     92  C   UNL A   1      42.316  30.810  36.434  1.00  0.00    -0.034 C 
ATOM     93  H   UNL A   1      41.438  32.257  37.729  1.00  0.00     0.065 H 
ATOM     94  H   UNL A   1      43.699  27.219  32.789  1.00  0.00     0.065 H 
ATOM     95  C   UNL A   1      42.627  29.313  34.484  1.00  0.00     0.037 A 
ATOM     96  H   UNL A   1      43.101  30.454  37.002  1.00  0.00     0.065 H 
BRANCH  77  97
ATOM     97  C   UNL A   1      40.338  27.913  28.929  1.00  0.00     0.064 A 
ATOM     98  C   UNL A   1      41.123  28.226  27.809  1.00  0.00     0.173 A 
ATOM     99  C   UNL A   1      39.664  26.682  28.934  1.00  0.00     0.173 A 
ATOM    100  F   UNL A   1      41.779  29.394  27.749  1.00  0.00    -0.203 F 
ATOM    101  C   UNL A   1      41.219  27.346  26.733  1.00  0.00     0.198 A 
ATOM    102  C   UNL A   1      39.787  25.792  27.870  1.00  0.00     0.198 A 
ATOM    103  F   UNL A   1      38.904  26.331  29.983  1.00  0.00    -0.203 F 
ATOM    104  F   UNL A   1      41.947  27.681  25.660  1.00  0.00    -0.200 F 
ATOM    105  C   UNL A   1      40.561  26.126  26.769  1.00  0.00     0.200 A 
ATOM    106  F   UNL A   1      39.163  24.607  27.915  1.00  0.00    -0.200 F 
ATOM    107  F   UNL A   1      40.671  25.273  25.742  1.00  0.00    -0.200 F 
ENDBRANCH  77  97
BRANCH  80 108
ATOM    108  C   UNL A   1      39.460  33.874  36.897  1.00  0.00     0.064 A 
ATOM    109  C   UNL A   1      40.139  35.095  37.015  1.00  0.00     0.173 A 
ATOM    110  C   UNL A   1      38.671  33.461  37.982  1.00  0.00     0.173 A 
ATOM    111  F   UNL A   1      40.922  35.525  36.014  1.00  0.00    -0.203 F 
ATOM    112  C   UNL A   1      40.065  35.852  38.183  1.00  0.00     0.198 A 
ATOM    113  C   UNL A   1      38.570  34.236  39.135  1.00  0.00     0.198 A 
ATOM    114  F   UNL A   1      37.996  32.305  37.920  1.00  0.00    -0.203 F 
ATOM    115  F   UNL A   1      40.779  36.979  38.293  1.00  0.00    -0.200 F 
ATOM    116  C   UNL A   1      39.278  35.423  39.240  1.00  0.00     0.200 A 
ATOM    117  F   UNL A   1      37.794  33.827  40.148  1.00  0.00    -0.200 F 
ATOM    118  F   UNL A   1      39.211  36.147  40.366  1.00  0.00    -0.200 F 
ENDBRANCH  80 108
BRANCH  95 119
ATOM    119  C   UNL A   1      43.780  28.678  35.207  1.00  0.00     0.064 A 
ATOM    120  C   UNL A   1      43.605  27.569  36.047  1.00  0.00     0.173 A 
ATOM    121  C   UNL A   1      45.084  29.165  35.026  1.00  0.00     0.173 A 
ATOM    122  F   UNL A   1      42.377  27.074  36.265  1.00  0.00    -0.203 F 
ATOM    123  C   UNL A   1      44.687  26.990  36.706  1.00  0.00     0.198 A 
ATOM    124  C   UNL A   1      46.169  28.561  35.657  1.00  0.00     0.198 A 
ATOM    125  F   UNL A   1      45.309  30.217  34.227  1.00  0.00    -0.203 F 
ATOM    126  F   UNL A   1      44.488  25.967  37.548  1.00  0.00    -0.200 F 
ATOM    127  C   UNL A   1      45.969  27.481  36.503  1.00  0.00     0.200 A 
ATOM    128  F   UNL A   1      47.408  29.027  35.446  1.00  0.00    -0.200 F 
ATOM    129  F   UNL A   1      47.010  26.919  37.132  1.00  0.00    -0.200 F 
ENDBRANCH  95 119
ENDBRANCH  60  63
ENDBRANCH  50  53
ENDBRANCH  46  49
ENDBRANCH  43  46
ENDBRANCH  40  43
ENDBRANCH   1  40
TORSDOF 17
ENDMDL
