MODEL 1
REMARK VINA RESULT:     -12.9      0.000      0.000
REMARK SMILES NS(=O)(=O)c1ccc(-c2coc(=O)n2-c2ccc(C(=O)NCCCCCCNC(=O)c3ccc(-c4c5nc(c(-c6c(F)c(F)c(F)c(F)c6F)c6ccc([nH]6)c(-c6c(F)c(F)c(F)c(F)c6F)c6nc(c(-c7c(F)c(F)c(F)c(F)c7F)c7ccc4[nH]7)C=C6)C=C5)cc3)cc2)cc1
REMARK SMILES IDX 23 1 22 4 21 7 19 8 20 9 18 11 15 12 16 13 95 14 17 15 94 17
REMARK SMILES IDX 14 21 9 22 10 23 11 24 12 26 13 27 8 28 5 29 6 30 97 31 7 32
REMARK SMILES IDX 96 34 2 38 3 39 4 40 1 41 24 44 25 47 26 50 27 53 28 56
REMARK SMILES IDX 29 57 30 59 31 60 32 61 93 62 33 63 92 65 34 67 35 70 36 71
REMARK SMILES IDX 86 72 37 73 91 74 85 75 87 76 38 77 90 78 84 80 83 82 39 84
REMARK SMILES IDX 71 87 51 88 70 89 52 90 55 91 69 92 88 93 53 94 54 96 68 98
REMARK SMILES IDX 89 99 56 102 40 104 41 105 49 106 42 107 43 108 47 109
REMARK SMILES IDX 50 110 44 111 45 112 48 113 46 114 72 115 73 116 81 117
REMARK SMILES IDX 74 118 75 119 79 120 82 121 76 122 77 123 80 124 78 125
REMARK SMILES IDX 57 126 58 127 66 128 59 129 60 130 64 131 67 132 61 133
REMARK SMILES IDX 62 134 65 135 63 136
REMARK H PARENT 23 2 23 3 22 5 22 6 21 10 16 16 95 18 17 19 94 20 10 25 6 33
REMARK H PARENT 97 35 7 36 96 37 1 42 1 43 24 45 24 46 25 48 25 49 26 51 26 52
REMARK H PARENT 27 54 27 55 28 58 32 64 93 66 33 68 92 69 91 79 85 81 87 83
REMARK H PARENT 90 85 84 86 52 95 55 97 88 100 53 101 89 103
REMARK Flexibility Score: inf
ROOT
ATOM      1  C   UNL A   1      33.241  33.153  28.109  1.00  0.00    -0.036 C 
ATOM      2  H   UNL A   1      32.912  33.143  29.126  1.00  0.00     0.028 H 
ATOM      3  H   UNL A   1      32.648  33.802  27.498  1.00  0.00     0.028 H 
ENDROOT
BRANCH   1   4
ATOM      4  C   UNL A   1      33.098  31.740  27.536  1.00  0.00     0.018 C 
ATOM      5  H   UNL A   1      32.183  31.309  27.887  1.00  0.00     0.049 H 
ATOM      6  H   UNL A   1      33.091  31.796  26.469  1.00  0.00     0.049 H 
BRANCH   4   7
ATOM      7  N   UNL A   1      34.211  30.911  27.959  1.00  0.00    -0.352 N 
ATOM      8  C   UNL A   1      34.577  29.617  27.690  1.00  0.00     0.251 C 
ATOM      9  O   UNL A   1      35.613  29.204  28.212  1.00  0.00    -0.269 OA
ATOM     10  H   UNL A   1      34.833  31.374  28.565  1.00  0.00     0.163 HD
BRANCH   8  11
ATOM     11  C   UNL A   1      33.833  28.721  26.757  1.00  0.00     0.039 A 
ATOM     12  C   UNL A   1      32.406  26.851  25.207  1.00  0.00     0.053 A 
ATOM     13  C   UNL A   1      31.920  27.230  26.458  1.00  0.00    -0.037 A 
ATOM     14  C   UNL A   1      33.553  27.470  24.702  1.00  0.00    -0.037 A 
ATOM     15  C   UNL A   1      32.650  28.133  27.239  1.00  0.00    -0.047 A 
ATOM     16  H   UNL A   1      31.027  26.846  26.805  1.00  0.00     0.065 H 
ATOM     17  C   UNL A   1      34.223  28.443  25.448  1.00  0.00    -0.047 A 
ATOM     18  H   UNL A   1      33.909  27.206  23.769  1.00  0.00     0.065 H 
ATOM     19  H   UNL A   1      32.315  28.370  28.186  1.00  0.00     0.063 H 
ATOM     20  H   UNL A   1      35.010  28.960  25.026  1.00  0.00     0.063 H 
BRANCH  12  21
ATOM     21  N   UNL A   1      31.771  25.848  24.455  1.00  0.00    -0.242 N 
ATOM     22  C   UNL A   1      30.647  25.954  23.686  1.00  0.00     0.095 A 
ATOM     23  C   UNL A   1      30.358  24.721  23.288  1.00  0.00     0.121 A 
ATOM     24  O   UNL A   1      31.245  23.748  23.744  1.00  0.00    -0.415 OA
ATOM     25  H   UNL A   1      29.545  24.502  22.690  1.00  0.00     0.107 H 
ATOM     26  C   UNL A   1      32.159  24.511  24.473  1.00  0.00     0.424 A 
ATOM     27  O   UNL A   1      33.117  24.014  25.051  1.00  0.00    -0.223 OA
BRANCH  22  28
ATOM     28  C   UNL A   1      30.035  27.203  23.236  1.00  0.00     0.002 A 
ATOM     29  C   UNL A   1      28.816  29.593  22.428  1.00  0.00     0.082 A 
ATOM     30  C   UNL A   1      28.075  28.652  23.140  1.00  0.00    -0.041 A 
ATOM     31  C   UNL A   1      30.160  29.359  22.121  1.00  0.00    -0.041 A 
ATOM     32  C   UNL A   1      28.687  27.461  23.540  1.00  0.00    -0.051 A 
ATOM     33  H   UNL A   1      27.086  28.832  23.370  1.00  0.00     0.064 H 
ATOM     34  C   UNL A   1      30.769  28.167  22.532  1.00  0.00    -0.051 A 
ATOM     35  H   UNL A   1      30.701  30.062  21.594  1.00  0.00     0.064 H 
ATOM     36  H   UNL A   1      28.140  26.761  24.066  1.00  0.00     0.063 H 
ATOM     37  H   UNL A   1      31.763  27.997  22.315  1.00  0.00     0.063 H 
BRANCH  29  38
ATOM     38  S   UNL A   1      28.047  31.103  21.921  1.00  0.00     0.238 S 
ATOM     39  O   UNL A   1      27.129  31.536  22.960  1.00  0.00    -0.207 OA
ATOM     40  O   UNL A   1      27.663  30.979  20.545  1.00  0.00    -0.207 OA
BRANCH  38  41
ATOM     41  N   UNL A   1      29.310  32.210  21.973  1.00  0.00    -0.225 NA
ATOM     42  H   UNL A   1      30.197  31.711  22.033  1.00  0.00     0.137 HD
ATOM     43  H   UNL A   1      29.202  32.812  22.789  1.00  0.00     0.137 HD
ENDBRANCH  38  41
ENDBRANCH  29  38
ENDBRANCH  22  28
ENDBRANCH  12  21
ENDBRANCH   8  11
ENDBRANCH   4   7
ENDBRANCH   1   4
BRANCH   1  44
ATOM     44  C   UNL A   1      34.680  33.687  28.068  1.00  0.00    -0.052 C 
ATOM     45  H   UNL A   1      35.054  33.547  27.075  1.00  0.00     0.027 H 
ATOM     46  H   UNL A   1      35.215  33.141  28.815  1.00  0.00     0.027 H 
BRANCH  44  47
ATOM     47  C   UNL A   1      34.849  35.172  28.431  1.00  0.00    -0.052 C 
ATOM     48  H   UNL A   1      35.314  35.659  27.600  1.00  0.00     0.027 H 
ATOM     49  H   UNL A   1      35.430  35.181  29.330  1.00  0.00     0.027 H 
BRANCH  47  50
ATOM     50  C   UNL A   1      33.564  35.940  28.767  1.00  0.00    -0.036 C 
ATOM     51  H   UNL A   1      32.799  35.230  29.001  1.00  0.00     0.028 H 
ATOM     52  H   UNL A   1      33.326  36.535  27.910  1.00  0.00     0.028 H 
BRANCH  50  53
ATOM     53  C   UNL A   1      33.703  36.897  29.942  1.00  0.00     0.018 C 
ATOM     54  H   UNL A   1      33.515  37.894  29.600  1.00  0.00     0.049 H 
ATOM     55  H   UNL A   1      34.696  36.801  30.330  1.00  0.00     0.049 H 
BRANCH  53  56
ATOM     56  N   UNL A   1      32.766  36.585  31.020  1.00  0.00    -0.352 N 
ATOM     57  C   UNL A   1      32.784  35.530  31.905  1.00  0.00     0.251 C 
ATOM     58  H   UNL A   1      32.018  37.216  31.127  1.00  0.00     0.163 HD
ATOM     59  O   UNL A   1      31.773  35.202  32.514  1.00  0.00    -0.269 OA
BRANCH  57  60
ATOM     60  C   UNL A   1      34.037  34.780  32.097  1.00  0.00     0.039 A 
ATOM     61  C   UNL A   1      34.145  33.456  31.671  1.00  0.00    -0.049 A 
ATOM     62  C   UNL A   1      35.124  35.430  32.673  1.00  0.00    -0.049 A 
ATOM     63  C   UNL A   1      35.385  32.823  31.746  1.00  0.00    -0.053 A 
ATOM     64  H   UNL A   1      33.321  32.952  31.307  1.00  0.00     0.063 H 
ATOM     65  C   UNL A   1      36.374  34.857  32.608  1.00  0.00    -0.053 A 
ATOM     66  H   UNL A   1      34.994  36.338  33.146  1.00  0.00     0.063 H 
ATOM     67  C   UNL A   1      36.512  33.537  32.187  1.00  0.00    -0.014 A 
ATOM     68  H   UNL A   1      35.474  31.831  31.477  1.00  0.00     0.063 H 
ATOM     69  H   UNL A   1      37.208  35.404  32.872  1.00  0.00     0.063 H 
BRANCH  67  70
ATOM     70  C   UNL A   1      37.838  32.915  32.133  1.00  0.00     0.031 A 
ATOM     71  C   UNL A   1      38.606  32.890  33.413  1.00  0.00     0.074 A 
ATOM     72  C   UNL A   1      38.320  32.247  31.062  1.00  0.00     0.049 A 
ATOM     73  N   UNL A   1      39.742  33.455  33.666  1.00  0.00    -0.248 NA
ATOM     74  C   UNL A   1      38.010  32.209  34.572  1.00  0.00    -0.034 C 
ATOM     75  C   UNL A   1      37.642  31.896  29.810  1.00  0.00    -0.036 A 
ATOM     76  N   UNL A   1      39.537  31.648  30.922  1.00  0.00    -0.354 N 
ATOM     77  C   UNL A   1      40.084  33.092  34.967  1.00  0.00     0.074 A 
ATOM     78  C   UNL A   1      38.935  32.417  35.513  1.00  0.00    -0.034 C 
ATOM     79  H   UNL A   1      37.113  31.703  34.640  1.00  0.00     0.065 H 
ATOM     80  C   UNL A   1      38.362  30.965  29.149  1.00  0.00    -0.036 A 
ATOM     81  H   UNL A   1      36.750  32.301  29.483  1.00  0.00     0.065 H 
ATOM     82  C   UNL A   1      39.632  30.802  29.828  1.00  0.00     0.049 A 
ATOM     83  H   UNL A   1      40.285  31.804  31.542  1.00  0.00     0.167 HD
ATOM     84  C   UNL A   1      41.359  33.224  35.433  1.00  0.00     0.037 A 
ATOM     85  H   UNL A   1      38.839  32.131  36.500  1.00  0.00     0.065 H 
ATOM     86  H   UNL A   1      38.059  30.456  28.304  1.00  0.00     0.065 H 
ATOM     87  C   UNL A   1      40.678  30.012  29.496  1.00  0.00     0.037 A 
ATOM     88  C   UNL A   1      42.128  34.120  34.610  1.00  0.00     0.049 A 
ATOM     89  C   UNL A   1      41.881  30.565  30.158  1.00  0.00     0.074 A 
ATOM     90  C   UNL A   1      42.031  35.455  34.267  1.00  0.00    -0.036 A 
ATOM     91  N   UNL A   1      43.016  33.579  33.716  1.00  0.00    -0.354 N 
ATOM     92  N   UNL A   1      42.429  31.704  29.841  1.00  0.00    -0.248 NA
ATOM     93  C   UNL A   1      42.252  30.033  31.459  1.00  0.00    -0.034 C 
ATOM     94  C   UNL A   1      42.463  35.521  32.909  1.00  0.00    -0.036 A 
ATOM     95  H   UNL A   1      41.714  36.235  34.864  1.00  0.00     0.065 H 
ATOM     96  C   UNL A   1      42.839  34.233  32.525  1.00  0.00     0.049 A 
ATOM     97  H   UNL A   1      43.661  32.856  33.895  1.00  0.00     0.167 HD
ATOM     98  C   UNL A   1      42.855  32.235  31.048  1.00  0.00     0.074 A 
ATOM     99  C   UNL A   1      42.830  31.115  31.984  1.00  0.00    -0.034 C 
ATOM    100  H   UNL A   1      42.109  29.093  31.861  1.00  0.00     0.065 H 
ATOM    101  H   UNL A   1      42.491  36.366  32.318  1.00  0.00     0.065 H 
ATOM    102  C   UNL A   1      42.920  33.585  31.236  1.00  0.00     0.037 A 
ATOM    103  H   UNL A   1      43.217  31.156  32.940  1.00  0.00     0.065 H 
BRANCH  84 104
ATOM    104  C   UNL A   1      42.019  32.300  36.429  1.00  0.00     0.064 A 
ATOM    105  C   UNL A   1      42.625  32.844  37.582  1.00  0.00     0.173 A 
ATOM    106  C   UNL A   1      42.351  30.959  36.146  1.00  0.00     0.173 A 
ATOM    107  F   UNL A   1      42.391  34.116  37.944  1.00  0.00    -0.203 F 
ATOM    108  C   UNL A   1      43.561  32.129  38.335  1.00  0.00     0.198 A 
ATOM    109  C   UNL A   1      43.246  30.231  36.931  1.00  0.00     0.198 A 
ATOM    110  F   UNL A   1      41.917  30.337  35.043  1.00  0.00    -0.203 F 
ATOM    111  F   UNL A   1      44.208  32.732  39.341  1.00  0.00    -0.200 F 
ATOM    112  C   UNL A   1      43.877  30.825  38.003  1.00  0.00     0.200 A 
ATOM    113  F   UNL A   1      43.552  28.973  36.584  1.00  0.00    -0.200 F 
ATOM    114  F   UNL A   1      44.822  30.160  38.679  1.00  0.00    -0.200 F 
ENDBRANCH  84 104
BRANCH  87 115
ATOM    115  C   UNL A   1      40.653  28.685  28.847  1.00  0.00     0.064 A 
ATOM    116  C   UNL A   1      39.931  27.619  29.404  1.00  0.00     0.173 A 
ATOM    117  C   UNL A   1      41.103  28.520  27.523  1.00  0.00     0.173 A 
ATOM    118  F   UNL A   1      39.436  27.716  30.647  1.00  0.00    -0.203 F 
ATOM    119  C   UNL A   1      39.647  26.467  28.666  1.00  0.00     0.198 A 
ATOM    120  C   UNL A   1      40.823  27.367  26.790  1.00  0.00     0.198 A 
ATOM    121  F   UNL A   1      41.736  29.515  26.882  1.00  0.00    -0.203 F 
ATOM    122  F   UNL A   1      38.897  25.497  29.207  1.00  0.00    -0.200 F 
ATOM    123  C   UNL A   1      40.081  26.347  27.356  1.00  0.00     0.200 A 
ATOM    124  F   UNL A   1      41.218  27.280  25.511  1.00  0.00    -0.200 F 
ATOM    125  F   UNL A   1      39.749  25.273  26.627  1.00  0.00    -0.200 F 
ENDBRANCH  87 115
BRANCH 102 126
ATOM    126  C   UNL A   1      42.814  34.467  30.024  1.00  0.00     0.064 A 
ATOM    127  C   UNL A   1      43.918  34.915  29.277  1.00  0.00     0.173 A 
ATOM    128  C   UNL A   1      41.539  34.762  29.526  1.00  0.00     0.173 A 
ATOM    129  F   UNL A   1      45.167  34.589  29.627  1.00  0.00    -0.203 F 
ATOM    130  C   UNL A   1      43.748  35.665  28.115  1.00  0.00     0.198 A 
ATOM    131  C   UNL A   1      41.371  35.478  28.344  1.00  0.00     0.198 A 
ATOM    132  F   UNL A   1      40.447  34.312  30.165  1.00  0.00    -0.203 F 
ATOM    133  F   UNL A   1      44.818  36.096  27.430  1.00  0.00    -0.200 F 
ATOM    134  C   UNL A   1      42.474  35.941  27.646  1.00  0.00     0.200 A 
ATOM    135  F   UNL A   1      40.138  35.700  27.869  1.00  0.00    -0.200 F 
ATOM    136  F   UNL A   1      42.310  36.630  26.507  1.00  0.00    -0.200 F 
ENDBRANCH 102 126
ENDBRANCH  67  70
ENDBRANCH  57  60
ENDBRANCH  53  56
ENDBRANCH  50  53
ENDBRANCH  47  50
ENDBRANCH  44  47
ENDBRANCH   1  44
TORSDOF 17
ENDMDL
MODEL 2
REMARK VINA RESULT:     -12.2      4.246      6.975
REMARK SMILES NS(=O)(=O)c1ccc(-c2coc(=O)n2-c2ccc(C(=O)NCCCCCCNC(=O)c3ccc(-c4c5nc(c(-c6c(F)c(F)c(F)c(F)c6F)c6ccc([nH]6)c(-c6c(F)c(F)c(F)c(F)c6F)c6nc(c(-c7c(F)c(F)c(F)c(F)c7F)c7ccc4[nH]7)C=C6)C=C5)cc3)cc2)cc1
REMARK SMILES IDX 23 1 22 4 21 7 19 8 20 9 18 11 15 12 16 13 95 14 17 15 94 17
REMARK SMILES IDX 14 21 9 22 10 23 11 24 12 26 13 27 8 28 5 29 6 30 97 31 7 32
REMARK SMILES IDX 96 34 2 38 3 39 4 40 1 41 24 44 25 47 26 50 27 53 28 56
REMARK SMILES IDX 29 57 30 59 31 60 32 61 93 62 33 63 92 65 34 67 35 70 36 71
REMARK SMILES IDX 86 72 37 73 91 74 85 75 87 76 38 77 90 78 84 80 83 82 39 84
REMARK SMILES IDX 71 87 51 88 70 89 52 90 55 91 69 92 88 93 53 94 54 96 68 98
REMARK SMILES IDX 89 99 56 102 40 104 41 105 49 106 42 107 43 108 47 109
REMARK SMILES IDX 50 110 44 111 45 112 48 113 46 114 72 115 73 116 81 117
REMARK SMILES IDX 74 118 75 119 79 120 82 121 76 122 77 123 80 124 78 125
REMARK SMILES IDX 57 126 58 127 66 128 59 129 60 130 64 131 67 132 61 133
REMARK SMILES IDX 62 134 65 135 63 136
REMARK H PARENT 23 2 23 3 22 5 22 6 21 10 16 16 95 18 17 19 94 20 10 25 6 33
REMARK H PARENT 97 35 7 36 96 37 1 42 1 43 24 45 24 46 25 48 25 49 26 51 26 52
REMARK H PARENT 27 54 27 55 28 58 32 64 93 66 33 68 92 69 91 79 85 81 87 83
REMARK H PARENT 90 85 84 86 52 95 55 97 88 100 53 101 89 103
REMARK Flexibility Score: inf
ROOT
ATOM      1  C   UNL A   1      30.656  27.906  24.255  1.00  0.00    -0.036 C 
ATOM      2  H   UNL A   1      29.750  27.793  24.812  1.00  0.00     0.028 H 
ATOM      3  H   UNL A   1      30.488  27.875  23.198  1.00  0.00     0.028 H 
ENDROOT
BRANCH   1   4
ATOM      4  C   UNL A   1      31.588  26.740  24.598  1.00  0.00     0.018 C 
ATOM      5  H   UNL A   1      31.824  26.203  23.703  1.00  0.00     0.049 H 
ATOM      6  H   UNL A   1      32.481  27.127  25.040  1.00  0.00     0.049 H 
BRANCH   4   7
ATOM      7  N   UNL A   1      30.945  25.842  25.539  1.00  0.00    -0.352 N 
ATOM      8  C   UNL A   1      31.385  24.766  26.265  1.00  0.00     0.251 C 
ATOM      9  O   UNL A   1      30.569  24.210  27.001  1.00  0.00    -0.269 OA
ATOM     10  H   UNL A   1      29.994  26.050  25.688  1.00  0.00     0.163 HD
BRANCH   8  11
ATOM     11  C   UNL A   1      32.796  24.282  26.259  1.00  0.00     0.039 A 
ATOM     12  C   UNL A   1      35.423  23.304  25.983  1.00  0.00     0.053 A 
ATOM     13  C   UNL A   1      34.921  24.213  25.053  1.00  0.00    -0.037 A 
ATOM     14  C   UNL A   1      34.644  22.954  27.089  1.00  0.00    -0.037 A 
ATOM     15  C   UNL A   1      33.603  24.670  25.175  1.00  0.00    -0.047 A 
ATOM     16  H   UNL A   1      35.517  24.548  24.280  1.00  0.00     0.065 H 
ATOM     17  C   UNL A   1      33.365  23.491  27.256  1.00  0.00    -0.047 A 
ATOM     18  H   UNL A   1      35.017  22.293  27.790  1.00  0.00     0.065 H 
ATOM     19  H   UNL A   1      33.218  25.302  24.456  1.00  0.00     0.063 H 
ATOM     20  H   UNL A   1      32.838  23.300  28.123  1.00  0.00     0.063 H 
BRANCH  12  21
ATOM     21  N   UNL A   1      36.692  22.722  25.817  1.00  0.00    -0.242 N 
ATOM     22  C   UNL A   1      36.994  21.415  25.561  1.00  0.00     0.095 A 
ATOM     23  C   UNL A   1      38.317  21.326  25.626  1.00  0.00     0.121 A 
ATOM     24  O   UNL A   1      38.960  22.528  25.912  1.00  0.00    -0.415 OA
ATOM     25  H   UNL A   1      38.827  20.440  25.478  1.00  0.00     0.107 H 
ATOM     26  C   UNL A   1      37.886  23.414  26.003  1.00  0.00     0.424 A 
ATOM     27  O   UNL A   1      38.034  24.604  26.252  1.00  0.00    -0.223 OA
BRANCH  22  28
ATOM     28  C   UNL A   1      36.053  20.394  25.104  1.00  0.00     0.002 A 
ATOM     29  C   UNL A   1      34.215  18.487  24.190  1.00  0.00     0.082 A 
ATOM     30  C   UNL A   1      33.824  19.820  24.300  1.00  0.00    -0.041 A 
ATOM     31  C   UNL A   1      35.515  18.096  24.525  1.00  0.00    -0.041 A 
ATOM     32  C   UNL A   1      34.743  20.767  24.756  1.00  0.00    -0.051 A 
ATOM     33  H   UNL A   1      32.865  20.105  24.046  1.00  0.00     0.064 H 
ATOM     34  C   UNL A   1      36.434  19.052  24.975  1.00  0.00    -0.051 A 
ATOM     35  H   UNL A   1      35.797  17.106  24.441  1.00  0.00     0.064 H 
ATOM     36  H   UNL A   1      34.455  21.755  24.840  1.00  0.00     0.063 H 
ATOM     37  H   UNL A   1      37.397  18.767  25.212  1.00  0.00     0.063 H 
BRANCH  29  38
ATOM     38  S   UNL A   1      33.055  17.283  23.612  1.00  0.00     0.238 S 
ATOM     39  O   UNL A   1      33.631  15.960  23.773  1.00  0.00    -0.207 OA
ATOM     40  O   UNL A   1      32.498  17.745  22.374  1.00  0.00    -0.207 OA
BRANCH  38  41
ATOM     41  N   UNL A   1      31.825  17.359  24.755  1.00  0.00    -0.225 NA
ATOM     42  H   UNL A   1      31.765  16.470  25.249  1.00  0.00     0.137 HD
ATOM     43  H   UNL A   1      30.938  17.550  24.288  1.00  0.00     0.137 HD
ENDBRANCH  38  41
ENDBRANCH  29  38
ENDBRANCH  22  28
ENDBRANCH  12  21
ENDBRANCH   8  11
ENDBRANCH   4   7
ENDBRANCH   1   4
BRANCH   1  44
ATOM     44  C   UNL A   1      31.255  29.283  24.575  1.00  0.00    -0.052 C 
ATOM     45  H   UNL A   1      30.488  30.016  24.431  1.00  0.00     0.027 H 
ATOM     46  H   UNL A   1      32.092  29.397  23.919  1.00  0.00     0.027 H 
BRANCH  44  47
ATOM     47  C   UNL A   1      31.809  29.453  25.999  1.00  0.00    -0.052 C 
ATOM     48  H   UNL A   1      31.624  28.544  26.532  1.00  0.00     0.027 H 
ATOM     49  H   UNL A   1      31.307  30.310  26.399  1.00  0.00     0.027 H 
BRANCH  47  50
ATOM     50  C   UNL A   1      33.307  29.768  26.111  1.00  0.00    -0.036 C 
ATOM     51  H   UNL A   1      33.567  30.453  25.332  1.00  0.00     0.028 H 
ATOM     52  H   UNL A   1      33.826  28.835  26.030  1.00  0.00     0.028 H 
BRANCH  50  53
ATOM     53  C   UNL A   1      33.713  30.382  27.443  1.00  0.00     0.018 C 
ATOM     54  H   UNL A   1      34.489  29.785  27.876  1.00  0.00     0.049 H 
ATOM     55  H   UNL A   1      32.847  30.409  28.072  1.00  0.00     0.049 H 
BRANCH  53  56
ATOM     56  N   UNL A   1      34.202  31.751  27.292  1.00  0.00    -0.352 N 
ATOM     57  C   UNL A   1      35.338  32.329  27.816  1.00  0.00     0.251 C 
ATOM     58  H   UNL A   1      33.640  32.343  26.740  1.00  0.00     0.163 HD
ATOM     59  O   UNL A   1      35.442  33.547  27.900  1.00  0.00    -0.269 OA
BRANCH  57  60
ATOM     60  C   UNL A   1      36.424  31.459  28.296  1.00  0.00     0.039 A 
ATOM     61  C   UNL A   1      36.423  30.094  28.005  1.00  0.00    -0.049 A 
ATOM     62  C   UNL A   1      37.472  32.029  29.011  1.00  0.00    -0.049 A 
ATOM     63  C   UNL A   1      37.532  29.328  28.359  1.00  0.00    -0.053 A 
ATOM     64  H   UNL A   1      35.614  29.658  27.535  1.00  0.00     0.063 H 
ATOM     65  C   UNL A   1      38.624  31.307  29.226  1.00  0.00    -0.053 A 
ATOM     66  H   UNL A   1      37.387  32.990  29.377  1.00  0.00     0.063 H 
ATOM     67  C   UNL A   1      38.652  29.943  28.944  1.00  0.00    -0.014 A 
ATOM     68  H   UNL A   1      37.530  28.310  28.192  1.00  0.00     0.063 H 
ATOM     69  H   UNL A   1      39.466  31.775  29.596  1.00  0.00     0.063 H 
BRANCH  67  70
ATOM     70  C   UNL A   1      39.869  29.165  29.187  1.00  0.00     0.031 A 
ATOM     71  C   UNL A   1      40.214  28.912  30.618  1.00  0.00     0.074 A 
ATOM     72  C   UNL A   1      40.584  28.552  28.219  1.00  0.00     0.049 A 
ATOM     73  N   UNL A   1      41.271  29.299  31.257  1.00  0.00    -0.248 NA
ATOM     74  C   UNL A   1      39.238  28.201  31.457  1.00  0.00    -0.034 C 
ATOM     75  C   UNL A   1      40.281  28.419  26.790  1.00  0.00    -0.036 A 
ATOM     76  N   UNL A   1      41.727  27.819  28.352  1.00  0.00    -0.354 N 
ATOM     77  C   UNL A   1      41.174  28.765  32.541  1.00  0.00     0.074 A 
ATOM     78  C   UNL A   1      39.856  28.192  32.641  1.00  0.00    -0.034 C 
ATOM     79  H   UNL A   1      38.319  27.810  31.198  1.00  0.00     0.065 H 
ATOM     80  C   UNL A   1      41.076  27.475  26.243  1.00  0.00    -0.036 A 
ATOM     81  H   UNL A   1      39.569  28.966  26.279  1.00  0.00     0.065 H 
ATOM     82  C   UNL A   1      42.064  27.082  27.228  1.00  0.00     0.049 A 
ATOM     83  H   UNL A   1      42.266  27.814  29.175  1.00  0.00     0.167 HD
ATOM     84  C   UNL A   1      42.258  28.685  33.364  1.00  0.00     0.037 A 
ATOM     85  H   UNL A   1      39.443  27.823  33.513  1.00  0.00     0.065 H 
ATOM     86  H   UNL A   1      40.993  27.096  25.286  1.00  0.00     0.065 H 
ATOM     87  C   UNL A   1      43.083  26.201  27.105  1.00  0.00     0.037 A 
ATOM     88  C   UNL A   1      43.317  29.552  32.922  1.00  0.00     0.049 A 
ATOM     89  C   UNL A   1      44.079  26.525  28.150  1.00  0.00     0.074 A 
ATOM     90  C   UNL A   1      43.452  30.916  32.748  1.00  0.00    -0.036 A 
ATOM     91  N   UNL A   1      44.377  28.995  32.254  1.00  0.00    -0.354 N 
ATOM     92  N   UNL A   1      44.801  27.611  28.158  1.00  0.00    -0.248 NA
ATOM     93  C   UNL A   1      43.993  25.822  29.419  1.00  0.00    -0.034 C 
ATOM     94  C   UNL A   1      44.274  31.062  31.591  1.00  0.00    -0.036 A 
ATOM     95  H   UNL A   1      43.046  31.667  33.329  1.00  0.00     0.065 H 
ATOM     96  C   UNL A   1      44.625  29.782  31.161  1.00  0.00     0.049 A 
ATOM     97  H   UNL A   1      44.869  28.180  32.512  1.00  0.00     0.167 HD
ATOM     98  C   UNL A   1      44.895  27.958  29.496  1.00  0.00     0.074 A 
ATOM     99  C   UNL A   1      44.488  26.762  30.227  1.00  0.00    -0.034 C 
ATOM    100  H   UNL A   1      43.650  24.872  29.634  1.00  0.00     0.065 H 
ATOM    101  H   UNL A   1      44.556  31.952  31.151  1.00  0.00     0.065 H 
ATOM    102  C   UNL A   1      45.026  29.263  29.875  1.00  0.00     0.037 A 
ATOM    103  H   UNL A   1      44.573  26.656  31.250  1.00  0.00     0.065 H 
BRANCH  84 104
ATOM    104  C   UNL A   1      42.501  27.587  34.374  1.00  0.00     0.064 A 
ATOM    105  C   UNL A   1      43.060  26.364  33.945  1.00  0.00     0.173 A 
ATOM    106  C   UNL A   1      41.926  27.572  35.662  1.00  0.00     0.173 A 
ATOM    107  F   UNL A   1      43.624  26.257  32.732  1.00  0.00    -0.203 F 
ATOM    108  C   UNL A   1      42.965  25.197  34.709  1.00  0.00     0.198 A 
ATOM    109  C   UNL A   1      41.880  26.418  36.444  1.00  0.00     0.198 A 
ATOM    110  F   UNL A   1      41.288  28.634  36.167  1.00  0.00    -0.203 F 
ATOM    111  F   UNL A   1      43.391  24.033  34.203  1.00  0.00    -0.200 F 
ATOM    112  C   UNL A   1      42.366  25.224  35.955  1.00  0.00     0.200 A 
ATOM    113  F   UNL A   1      41.282  26.459  37.642  1.00  0.00    -0.200 F 
ATOM    114  F   UNL A   1      42.213  24.096  36.661  1.00  0.00    -0.200 F 
ENDBRANCH  84 104
BRANCH  87 115
ATOM    115  C   UNL A   1      43.129  24.961  26.303  1.00  0.00     0.064 A 
ATOM    116  C   UNL A   1      44.104  24.774  25.313  1.00  0.00     0.173 A 
ATOM    117  C   UNL A   1      42.393  23.824  26.689  1.00  0.00     0.173 A 
ATOM    118  F   UNL A   1      44.872  25.800  24.920  1.00  0.00    -0.203 F 
ATOM    119  C   UNL A   1      44.353  23.513  24.765  1.00  0.00     0.198 A 
ATOM    120  C   UNL A   1      42.638  22.567  26.136  1.00  0.00     0.198 A 
ATOM    121  F   UNL A   1      41.491  23.892  27.680  1.00  0.00    -0.203 F 
ATOM    122  F   UNL A   1      45.340  23.358  23.870  1.00  0.00    -0.200 F 
ATOM    123  C   UNL A   1      43.630  22.409  25.185  1.00  0.00     0.200 A 
ATOM    124  F   UNL A   1      41.956  21.502  26.579  1.00  0.00    -0.200 F 
ATOM    125  F   UNL A   1      43.916  21.189  24.711  1.00  0.00    -0.200 F 
ENDBRANCH  87 115
BRANCH 102 126
ATOM    126  C   UNL A   1      45.370  30.269  28.813  1.00  0.00     0.064 A 
ATOM    127  C   UNL A   1      44.421  30.906  27.995  1.00  0.00     0.173 A 
ATOM    128  C   UNL A   1      46.699  30.699  28.710  1.00  0.00     0.173 A 
ATOM    129  F   UNL A   1      43.117  30.628  28.103  1.00  0.00    -0.203 F 
ATOM    130  C   UNL A   1      44.797  31.891  27.082  1.00  0.00     0.198 A 
ATOM    131  C   UNL A   1      47.067  31.709  27.826  1.00  0.00     0.198 A 
ATOM    132  F   UNL A   1      47.641  30.167  29.506  1.00  0.00    -0.203 F 
ATOM    133  F   UNL A   1      43.874  32.471  26.300  1.00  0.00    -0.200 F 
ATOM    134  C   UNL A   1      46.119  32.295  27.003  1.00  0.00     0.200 A 
ATOM    135  F   UNL A   1      48.339  32.131  27.787  1.00  0.00    -0.200 F 
ATOM    136  F   UNL A   1      46.476  33.269  26.153  1.00  0.00    -0.200 F 
ENDBRANCH 102 126
ENDBRANCH  67  70
ENDBRANCH  57  60
ENDBRANCH  53  56
ENDBRANCH  50  53
ENDBRANCH  47  50
ENDBRANCH  44  47
ENDBRANCH   1  44
TORSDOF 17
ENDMDL
MODEL 3
REMARK VINA RESULT:     -12.1      3.242      8.678
REMARK SMILES NS(=O)(=O)c1ccc(-c2coc(=O)n2-c2ccc(C(=O)NCCCCCCNC(=O)c3ccc(-c4c5nc(c(-c6c(F)c(F)c(F)c(F)c6F)c6ccc([nH]6)c(-c6c(F)c(F)c(F)c(F)c6F)c6nc(c(-c7c(F)c(F)c(F)c(F)c7F)c7ccc4[nH]7)C=C6)C=C5)cc3)cc2)cc1
REMARK SMILES IDX 23 1 22 4 21 7 19 8 20 9 18 11 15 12 16 13 95 14 17 15 94 17
REMARK SMILES IDX 14 21 9 22 10 23 11 24 12 26 13 27 8 28 5 29 6 30 97 31 7 32
REMARK SMILES IDX 96 34 2 38 3 39 4 40 1 41 24 44 25 47 26 50 27 53 28 56
REMARK SMILES IDX 29 57 30 59 31 60 32 61 93 62 33 63 92 65 34 67 35 70 36 71
REMARK SMILES IDX 86 72 37 73 91 74 85 75 87 76 38 77 90 78 84 80 83 82 39 84
REMARK SMILES IDX 71 87 51 88 70 89 52 90 55 91 69 92 88 93 53 94 54 96 68 98
REMARK SMILES IDX 89 99 56 102 40 104 41 105 49 106 42 107 43 108 47 109
REMARK SMILES IDX 50 110 44 111 45 112 48 113 46 114 72 115 73 116 81 117
REMARK SMILES IDX 74 118 75 119 79 120 82 121 76 122 77 123 80 124 78 125
REMARK SMILES IDX 57 126 58 127 66 128 59 129 60 130 64 131 67 132 61 133
REMARK SMILES IDX 62 134 65 135 63 136
REMARK H PARENT 23 2 23 3 22 5 22 6 21 10 16 16 95 18 17 19 94 20 10 25 6 33
REMARK H PARENT 97 35 7 36 96 37 1 42 1 43 24 45 24 46 25 48 25 49 26 51 26 52
REMARK H PARENT 27 54 27 55 28 58 32 64 93 66 33 68 92 69 91 79 85 81 87 83
REMARK H PARENT 90 85 84 86 52 95 55 97 88 100 53 101 89 103
REMARK Flexibility Score: inf
ROOT
ATOM      1  C   UNL A   1      34.450  22.851  27.602  1.00  0.00    -0.036 C 
ATOM      2  H   UNL A   1      35.080  22.040  27.306  1.00  0.00     0.028 H 
ATOM      3  H   UNL A   1      34.776  23.306  28.514  1.00  0.00     0.028 H 
ENDROOT
BRANCH   1   4
ATOM      4  C   UNL A   1      33.040  22.308  27.849  1.00  0.00     0.018 C 
ATOM      5  H   UNL A   1      32.891  22.179  28.901  1.00  0.00     0.049 H 
ATOM      6  H   UNL A   1      32.326  23.001  27.459  1.00  0.00     0.049 H 
BRANCH   4   7
ATOM      7  N   UNL A   1      32.869  21.030  27.183  1.00  0.00    -0.352 N 
ATOM      8  C   UNL A   1      32.663  20.668  25.876  1.00  0.00     0.251 C 
ATOM      9  O   UNL A   1      32.568  19.465  25.632  1.00  0.00    -0.269 OA
ATOM     10  H   UNL A   1      32.911  20.262  27.797  1.00  0.00     0.163 HD
BRANCH   8  11
ATOM     11  C   UNL A   1      32.615  21.640  24.745  1.00  0.00     0.039 A 
ATOM     12  C   UNL A   1      32.772  23.564  22.693  1.00  0.00     0.053 A 
ATOM     13  C   UNL A   1      33.845  22.702  22.919  1.00  0.00    -0.037 A 
ATOM     14  C   UNL A   1      31.597  23.405  23.434  1.00  0.00    -0.037 A 
ATOM     15  C   UNL A   1      33.776  21.771  23.961  1.00  0.00    -0.047 A 
ATOM     16  H   UNL A   1      34.684  22.750  22.320  1.00  0.00     0.065 H 
ATOM     17  C   UNL A   1      31.501  22.408  24.408  1.00  0.00    -0.047 A 
ATOM     18  H   UNL A   1      30.794  24.029  23.261  1.00  0.00     0.065 H 
ATOM     19  H   UNL A   1      34.592  21.170  24.160  1.00  0.00     0.063 H 
ATOM     20  H   UNL A   1      30.599  22.238  24.881  1.00  0.00     0.063 H 
BRANCH  12  21
ATOM     21  N   UNL A   1      32.859  24.598  21.745  1.00  0.00    -0.242 N 
ATOM     22  C   UNL A   1      32.623  25.931  21.926  1.00  0.00     0.095 A 
ATOM     23  C   UNL A   1      32.697  26.483  20.721  1.00  0.00     0.121 A 
ATOM     24  O   UNL A   1      32.984  25.585  19.695  1.00  0.00    -0.415 OA
ATOM     25  H   UNL A   1      32.553  27.492  20.558  1.00  0.00     0.107 H 
ATOM     26  C   UNL A   1      33.108  24.382  20.392  1.00  0.00     0.424 A 
ATOM     27  O   UNL A   1      33.361  23.322  19.835  1.00  0.00    -0.223 OA
BRANCH  22  28
ATOM     28  C   UNL A   1      32.525  26.613  23.215  1.00  0.00     0.002 A 
ATOM     29  C   UNL A   1      32.267  27.905  25.688  1.00  0.00     0.082 A 
ATOM     30  C   UNL A   1      31.164  27.817  24.842  1.00  0.00    -0.041 A 
ATOM     31  C   UNL A   1      33.496  27.350  25.317  1.00  0.00    -0.041 A 
ATOM     32  C   UNL A   1      31.296  27.173  23.610  1.00  0.00    -0.051 A 
ATOM     33  H   UNL A   1      30.257  28.222  25.123  1.00  0.00     0.064 H 
ATOM     34  C   UNL A   1      33.621  26.699  24.084  1.00  0.00    -0.051 A 
ATOM     35  H   UNL A   1      34.309  27.419  25.950  1.00  0.00     0.064 H 
ATOM     36  H   UNL A   1      30.481  27.107  22.981  1.00  0.00     0.063 H 
ATOM     37  H   UNL A   1      34.523  26.280  23.813  1.00  0.00     0.063 H 
BRANCH  29  38
ATOM     38  S   UNL A   1      32.104  28.719  27.250  1.00  0.00     0.238 S 
ATOM     39  O   UNL A   1      31.399  27.840  28.167  1.00  0.00    -0.207 OA
ATOM     40  O   UNL A   1      31.713  30.078  27.018  1.00  0.00    -0.207 OA
BRANCH  38  41
ATOM     41  N   UNL A   1      33.684  28.761  27.824  1.00  0.00    -0.225 NA
ATOM     42  H   UNL A   1      34.313  29.030  27.068  1.00  0.00     0.137 HD
ATOM     43  H   UNL A   1      33.945  27.839  28.172  1.00  0.00     0.137 HD
ENDBRANCH  38  41
ENDBRANCH  29  38
ENDBRANCH  22  28
ENDBRANCH  12  21
ENDBRANCH   8  11
ENDBRANCH   4   7
ENDBRANCH   1   4
BRANCH   1  44
ATOM     44  C   UNL A   1      34.507  23.933  26.514  1.00  0.00    -0.052 C 
ATOM     45  H   UNL A   1      34.321  24.878  26.981  1.00  0.00     0.027 H 
ATOM     46  H   UNL A   1      33.773  23.656  25.788  1.00  0.00     0.027 H 
BRANCH  44  47
ATOM     47  C   UNL A   1      35.837  24.038  25.749  1.00  0.00    -0.052 C 
ATOM     48  H   UNL A   1      36.289  24.973  26.007  1.00  0.00     0.027 H 
ATOM     49  H   UNL A   1      35.579  23.943  24.715  1.00  0.00     0.027 H 
BRANCH  47  50
ATOM     50  C   UNL A   1      36.864  22.930  26.017  1.00  0.00    -0.036 C 
ATOM     51  H   UNL A   1      36.501  22.022  25.583  1.00  0.00     0.028 H 
ATOM     52  H   UNL A   1      36.978  22.863  27.079  1.00  0.00     0.028 H 
BRANCH  50  53
ATOM     53  C   UNL A   1      38.245  23.213  25.444  1.00  0.00     0.018 C 
ATOM     54  H   UNL A   1      38.499  24.234  25.643  1.00  0.00     0.049 H 
ATOM     55  H   UNL A   1      38.212  23.019  24.392  1.00  0.00     0.049 H 
BRANCH  53  56
ATOM     56  N   UNL A   1      39.272  22.352  26.028  1.00  0.00    -0.352 N 
ATOM     57  C   UNL A   1      40.492  22.699  26.566  1.00  0.00     0.251 C 
ATOM     58  H   UNL A   1      39.063  21.390  26.037  1.00  0.00     0.163 HD
ATOM     59  O   UNL A   1      41.381  21.867  26.696  1.00  0.00    -0.269 OA
BRANCH  57  60
ATOM     60  C   UNL A   1      40.722  24.098  26.967  1.00  0.00     0.039 A 
ATOM     61  C   UNL A   1      40.274  25.149  26.166  1.00  0.00    -0.049 A 
ATOM     62  C   UNL A   1      41.359  24.351  28.177  1.00  0.00    -0.049 A 
ATOM     63  C   UNL A   1      40.390  26.454  26.641  1.00  0.00    -0.053 A 
ATOM     64  H   UNL A   1      39.863  24.964  25.238  1.00  0.00     0.063 H 
ATOM     65  C   UNL A   1      41.338  25.620  28.706  1.00  0.00    -0.053 A 
ATOM     66  H   UNL A   1      41.845  23.589  28.676  1.00  0.00     0.063 H 
ATOM     67  C   UNL A   1      40.896  26.690  27.931  1.00  0.00    -0.014 A 
ATOM     68  H   UNL A   1      40.104  27.247  26.046  1.00  0.00     0.063 H 
ATOM     69  H   UNL A   1      41.650  25.782  29.677  1.00  0.00     0.063 H 
BRANCH  67  70
ATOM     70  C   UNL A   1      40.886  28.047  28.483  1.00  0.00     0.031 A 
ATOM     71  C   UNL A   1      41.990  28.947  28.035  1.00  0.00     0.074 A 
ATOM     72  C   UNL A   1      39.880  28.558  29.226  1.00  0.00     0.049 A 
ATOM     73  N   UNL A   1      42.907  29.498  28.763  1.00  0.00    -0.248 NA
ATOM     74  C   UNL A   1      42.132  29.216  26.596  1.00  0.00    -0.034 C 
ATOM     75  C   UNL A   1      38.578  27.966  29.549  1.00  0.00    -0.036 A 
ATOM     76  N   UNL A   1      39.792  29.799  29.784  1.00  0.00    -0.354 N 
ATOM     77  C   UNL A   1      43.663  30.299  27.908  1.00  0.00     0.074 A 
ATOM     78  C   UNL A   1      43.210  30.003  26.573  1.00  0.00    -0.034 C 
ATOM     79  H   UNL A   1      41.550  28.884  25.811  1.00  0.00     0.065 H 
ATOM     80  C   UNL A   1      37.754  28.919  30.037  1.00  0.00    -0.036 A 
ATOM     81  H   UNL A   1      38.328  26.972  29.424  1.00  0.00     0.065 H 
ATOM     82  C   UNL A   1      38.526  30.129  30.240  1.00  0.00     0.049 A 
ATOM     83  H   UNL A   1      40.561  30.409  29.857  1.00  0.00     0.167 HD
ATOM     84  C   UNL A   1      44.485  31.275  28.387  1.00  0.00     0.037 A 
ATOM     85  H   UNL A   1      43.660  30.354  25.712  1.00  0.00     0.065 H 
ATOM     86  H   UNL A   1      36.747  28.804  30.230  1.00  0.00     0.065 H 
ATOM     87  C   UNL A   1      38.125  31.316  30.750  1.00  0.00     0.037 A 
ATOM     88  C   UNL A   1      44.769  31.083  29.785  1.00  0.00     0.049 A 
ATOM     89  C   UNL A   1      39.333  32.025  31.228  1.00  0.00     0.074 A 
ATOM     90  C   UNL A   1      45.383  30.093  30.528  1.00  0.00    -0.036 A 
ATOM     91  N   UNL A   1      44.100  31.859  30.697  1.00  0.00    -0.354 N 
ATOM     92  N   UNL A   1      40.048  31.641  32.248  1.00  0.00    -0.248 NA
ATOM     93  C   UNL A   1      39.988  32.952  30.319  1.00  0.00    -0.034 C 
ATOM     94  C   UNL A   1      44.648  30.037  31.749  1.00  0.00    -0.036 A 
ATOM     95  H   UNL A   1      46.196  29.518  30.257  1.00  0.00     0.065 H 
ATOM     96  C   UNL A   1      43.664  31.026  31.693  1.00  0.00     0.049 A 
ATOM     97  H   UNL A   1      43.958  32.833  30.645  1.00  0.00     0.167 HD
ATOM     98  C   UNL A   1      41.355  31.923  31.885  1.00  0.00     0.074 A 
ATOM     99  C   UNL A   1      41.245  32.834  30.750  1.00  0.00    -0.034 C 
ATOM    100  H   UNL A   1      39.594  33.532  29.562  1.00  0.00     0.065 H 
ATOM    101  H   UNL A   1      44.812  29.385  32.531  1.00  0.00     0.065 H 
ATOM    102  C   UNL A   1      42.392  31.173  32.361  1.00  0.00     0.037 A 
ATOM    103  H   UNL A   1      42.047  33.330  30.331  1.00  0.00     0.065 H 
BRANCH  84 104
ATOM    104  C   UNL A   1      44.769  32.588  27.694  1.00  0.00     0.064 A 
ATOM    105  C   UNL A   1      46.000  32.764  27.025  1.00  0.00     0.173 A 
ATOM    106  C   UNL A   1      44.030  33.766  27.923  1.00  0.00     0.173 A 
ATOM    107  F   UNL A   1      46.794  31.714  26.763  1.00  0.00    -0.203 F 
ATOM    108  C   UNL A   1      46.490  34.032  26.699  1.00  0.00     0.198 A 
ATOM    109  C   UNL A   1      44.499  35.025  27.549  1.00  0.00     0.198 A 
ATOM    110  F   UNL A   1      42.885  33.763  28.616  1.00  0.00    -0.203 F 
ATOM    111  F   UNL A   1      47.722  34.158  26.187  1.00  0.00    -0.200 F 
ATOM    112  C   UNL A   1      45.743  35.162  26.969  1.00  0.00     0.200 A 
ATOM    113  F   UNL A   1      43.767  36.112  27.833  1.00  0.00    -0.200 F 
ATOM    114  F   UNL A   1      46.238  36.382  26.721  1.00  0.00    -0.200 F 
ENDBRANCH  84 104
BRANCH  87 115
ATOM    115  C   UNL A   1      36.805  31.966  30.626  1.00  0.00     0.064 A 
ATOM    116  C   UNL A   1      35.916  32.013  31.711  1.00  0.00     0.173 A 
ATOM    117  C   UNL A   1      36.508  32.798  29.530  1.00  0.00     0.173 A 
ATOM    118  F   UNL A   1      36.151  31.279  32.808  1.00  0.00    -0.203 F 
ATOM    119  C   UNL A   1      34.812  32.871  31.712  1.00  0.00     0.198 A 
ATOM    120  C   UNL A   1      35.403  33.649  29.529  1.00  0.00     0.198 A 
ATOM    121  F   UNL A   1      37.340  32.874  28.480  1.00  0.00    -0.203 F 
ATOM    122  F   UNL A   1      34.023  32.941  32.793  1.00  0.00    -0.200 F 
ATOM    123  C   UNL A   1      34.564  33.697  30.627  1.00  0.00     0.200 A 
ATOM    124  F   UNL A   1      35.196  34.468  28.489  1.00  0.00    -0.200 F 
ATOM    125  F   UNL A   1      33.547  34.569  30.658  1.00  0.00    -0.200 F 
ENDBRANCH  87 115
BRANCH 102 126
ATOM    126  C   UNL A   1      42.116  30.246  33.510  1.00  0.00     0.064 A 
ATOM    127  C   UNL A   1      41.698  28.911  33.363  1.00  0.00     0.173 A 
ATOM    128  C   UNL A   1      42.413  30.687  34.806  1.00  0.00     0.173 A 
ATOM    129  F   UNL A   1      41.494  28.381  32.152  1.00  0.00    -0.203 F 
ATOM    130  C   UNL A   1      41.537  28.078  34.469  1.00  0.00     0.198 A 
ATOM    131  C   UNL A   1      42.288  29.842  35.905  1.00  0.00     0.198 A 
ATOM    132  F   UNL A   1      42.871  31.933  35.003  1.00  0.00    -0.203 F 
ATOM    133  F   UNL A   1      41.119  26.813  34.303  1.00  0.00    -0.200 F 
ATOM    134  C   UNL A   1      41.838  28.542  35.738  1.00  0.00     0.200 A 
ATOM    135  F   UNL A   1      42.627  30.280  37.125  1.00  0.00    -0.200 F 
ATOM    136  F   UNL A   1      41.720  27.729  36.798  1.00  0.00    -0.200 F 
ENDBRANCH 102 126
ENDBRANCH  67  70
ENDBRANCH  57  60
ENDBRANCH  53  56
ENDBRANCH  50  53
ENDBRANCH  47  50
ENDBRANCH  44  47
ENDBRANCH   1  44
TORSDOF 17
ENDMDL
MODEL 4
REMARK VINA RESULT:     -12.0      2.863      8.499
REMARK SMILES NS(=O)(=O)c1ccc(-c2coc(=O)n2-c2ccc(C(=O)NCCCCCCNC(=O)c3ccc(-c4c5nc(c(-c6c(F)c(F)c(F)c(F)c6F)c6ccc([nH]6)c(-c6c(F)c(F)c(F)c(F)c6F)c6nc(c(-c7c(F)c(F)c(F)c(F)c7F)c7ccc4[nH]7)C=C6)C=C5)cc3)cc2)cc1
REMARK SMILES IDX 23 1 22 4 21 7 19 8 20 9 18 11 15 12 16 13 95 14 17 15 94 17
REMARK SMILES IDX 14 21 9 22 10 23 11 24 12 26 13 27 8 28 5 29 6 30 97 31 7 32
REMARK SMILES IDX 96 34 2 38 3 39 4 40 1 41 24 44 25 47 26 50 27 53 28 56
REMARK SMILES IDX 29 57 30 59 31 60 32 61 93 62 33 63 92 65 34 67 35 70 36 71
REMARK SMILES IDX 86 72 37 73 91 74 85 75 87 76 38 77 90 78 84 80 83 82 39 84
REMARK SMILES IDX 71 87 51 88 70 89 52 90 55 91 69 92 88 93 53 94 54 96 68 98
REMARK SMILES IDX 89 99 56 102 40 104 41 105 49 106 42 107 43 108 47 109
REMARK SMILES IDX 50 110 44 111 45 112 48 113 46 114 72 115 73 116 81 117
REMARK SMILES IDX 74 118 75 119 79 120 82 121 76 122 77 123 80 124 78 125
REMARK SMILES IDX 57 126 58 127 66 128 59 129 60 130 64 131 67 132 61 133
REMARK SMILES IDX 62 134 65 135 63 136
REMARK H PARENT 23 2 23 3 22 5 22 6 21 10 16 16 95 18 17 19 94 20 10 25 6 33
REMARK H PARENT 97 35 7 36 96 37 1 42 1 43 24 45 24 46 25 48 25 49 26 51 26 52
REMARK H PARENT 27 54 27 55 28 58 32 64 93 66 33 68 92 69 91 79 85 81 87 83
REMARK H PARENT 90 85 84 86 52 95 55 97 88 100 53 101 89 103
REMARK Flexibility Score: inf
ROOT
ATOM      1  C   UNL A   1      35.160  22.918  23.531  1.00  0.00    -0.036 C 
ATOM      2  H   UNL A   1      34.826  23.845  23.114  1.00  0.00     0.028 H 
ATOM      3  H   UNL A   1      34.923  22.083  22.906  1.00  0.00     0.028 H 
ENDROOT
BRANCH   1   4
ATOM      4  C   UNL A   1      34.443  22.700  24.867  1.00  0.00     0.018 C 
ATOM      5  H   UNL A   1      34.665  21.717  25.229  1.00  0.00     0.049 H 
ATOM      6  H   UNL A   1      34.779  23.434  25.567  1.00  0.00     0.049 H 
BRANCH   4   7
ATOM      7  N   UNL A   1      33.008  22.833  24.695  1.00  0.00    -0.352 N 
ATOM      8  C   UNL A   1      32.124  23.858  24.913  1.00  0.00     0.251 C 
ATOM      9  O   UNL A   1      30.940  23.648  24.650  1.00  0.00    -0.269 OA
ATOM     10  H   UNL A   1      32.580  22.016  24.349  1.00  0.00     0.163 HD
BRANCH   8  11
ATOM     11  C   UNL A   1      32.528  25.215  25.383  1.00  0.00     0.039 A 
ATOM     12  C   UNL A   1      33.023  27.846  26.261  1.00  0.00     0.053 A 
ATOM     13  C   UNL A   1      32.039  27.080  26.885  1.00  0.00    -0.037 A 
ATOM     14  C   UNL A   1      33.810  27.267  25.261  1.00  0.00    -0.037 A 
ATOM     15  C   UNL A   1      31.773  25.786  26.423  1.00  0.00    -0.047 A 
ATOM     16  H   UNL A   1      31.511  27.465  27.684  1.00  0.00     0.065 H 
ATOM     17  C   UNL A   1      33.603  25.941  24.872  1.00  0.00    -0.047 A 
ATOM     18  H   UNL A   1      34.551  27.824  24.806  1.00  0.00     0.065 H 
ATOM     19  H   UNL A   1      31.009  25.241  26.853  1.00  0.00     0.063 H 
ATOM     20  H   UNL A   1      34.251  25.497  24.203  1.00  0.00     0.063 H 
BRANCH  12  21
ATOM     21  N   UNL A   1      33.225  29.193  26.609  1.00  0.00    -0.242 N 
ATOM     22  C   UNL A   1      32.650  30.302  26.057  1.00  0.00     0.095 A 
ATOM     23  C   UNL A   1      33.252  31.344  26.620  1.00  0.00     0.121 A 
ATOM     24  O   UNL A   1      34.227  31.007  27.556  1.00  0.00    -0.415 OA
ATOM     25  H   UNL A   1      33.016  32.321  26.383  1.00  0.00     0.107 H 
ATOM     26  C   UNL A   1      34.167  29.612  27.544  1.00  0.00     0.424 A 
ATOM     27  O   UNL A   1      34.888  28.917  28.248  1.00  0.00    -0.223 OA
BRANCH  22  28
ATOM     28  C   UNL A   1      31.474  30.313  25.190  1.00  0.00     0.002 A 
ATOM     29  C   UNL A   1      29.221  30.406  23.526  1.00  0.00     0.082 A 
ATOM     30  C   UNL A   1      29.473  31.462  24.399  1.00  0.00    -0.041 A 
ATOM     31  C   UNL A   1      30.085  29.307  23.468  1.00  0.00    -0.041 A 
ATOM     32  C   UNL A   1      30.597  31.412  25.227  1.00  0.00    -0.051 A 
ATOM     33  H   UNL A   1      28.837  32.274  24.434  1.00  0.00     0.064 H 
ATOM     34  C   UNL A   1      31.214  29.267  24.295  1.00  0.00    -0.051 A 
ATOM     35  H   UNL A   1      29.891  28.529  22.818  1.00  0.00     0.064 H 
ATOM     36  H   UNL A   1      30.785  32.192  25.876  1.00  0.00     0.063 H 
ATOM     37  H   UNL A   1      31.857  28.462  24.247  1.00  0.00     0.063 H 
BRANCH  29  38
ATOM     38  S   UNL A   1      27.800  30.466  22.474  1.00  0.00     0.238 S 
ATOM     39  O   UNL A   1      28.181  30.025  21.144  1.00  0.00    -0.207 OA
ATOM     40  O   UNL A   1      27.103  31.695  22.718  1.00  0.00    -0.207 OA
BRANCH  38  41
ATOM     41  N   UNL A   1      26.830  29.231  23.075  1.00  0.00    -0.225 NA
ATOM     42  H   UNL A   1      26.204  28.903  22.340  1.00  0.00     0.137 HD
ATOM     43  H   UNL A   1      26.280  29.581  23.859  1.00  0.00     0.137 HD
ENDBRANCH  38  41
ENDBRANCH  29  38
ENDBRANCH  22  28
ENDBRANCH  12  21
ENDBRANCH   8  11
ENDBRANCH   4   7
ENDBRANCH   1   4
BRANCH   1  44
ATOM     44  C   UNL A   1      36.690  22.965  23.658  1.00  0.00    -0.052 C 
ATOM     45  H   UNL A   1      37.008  23.961  23.424  1.00  0.00     0.027 H 
ATOM     46  H   UNL A   1      37.061  22.222  22.985  1.00  0.00     0.027 H 
BRANCH  44  47
ATOM     47  C   UNL A   1      37.255  22.602  25.041  1.00  0.00    -0.052 C 
ATOM     48  H   UNL A   1      37.798  21.685  24.940  1.00  0.00     0.027 H 
ATOM     49  H   UNL A   1      36.405  22.543  25.689  1.00  0.00     0.027 H 
BRANCH  47  50
ATOM     50  C   UNL A   1      38.190  23.634  25.686  1.00  0.00    -0.036 C 
ATOM     51  H   UNL A   1      37.594  24.442  26.057  1.00  0.00     0.028 H 
ATOM     52  H   UNL A   1      38.878  23.944  24.928  1.00  0.00     0.028 H 
BRANCH  50  53
ATOM     53  C   UNL A   1      39.020  23.084  26.836  1.00  0.00     0.018 C 
ATOM     54  H   UNL A   1      38.487  22.276  27.291  1.00  0.00     0.049 H 
ATOM     55  H   UNL A   1      39.187  23.880  27.532  1.00  0.00     0.049 H 
BRANCH  53  56
ATOM     56  N   UNL A   1      40.324  22.595  26.390  1.00  0.00    -0.352 N 
ATOM     57  C   UNL A   1      41.469  23.310  26.113  1.00  0.00     0.251 C 
ATOM     58  H   UNL A   1      40.392  21.621  26.270  1.00  0.00     0.163 HD
ATOM     59  O   UNL A   1      42.361  22.826  25.428  1.00  0.00    -0.269 OA
BRANCH  57  60
ATOM     60  C   UNL A   1      41.598  24.680  26.636  1.00  0.00     0.039 A 
ATOM     61  C   UNL A   1      41.187  25.774  25.874  1.00  0.00    -0.049 A 
ATOM     62  C   UNL A   1      42.102  24.862  27.920  1.00  0.00    -0.049 A 
ATOM     63  C   UNL A   1      41.199  27.042  26.452  1.00  0.00    -0.053 A 
ATOM     64  H   UNL A   1      40.877  25.646  24.897  1.00  0.00     0.063 H 
ATOM     65  C   UNL A   1      41.974  26.085  28.536  1.00  0.00    -0.053 A 
ATOM     66  H   UNL A   1      42.569  24.082  28.409  1.00  0.00     0.063 H 
ATOM     67  C   UNL A   1      41.565  27.195  27.800  1.00  0.00    -0.014 A 
ATOM     68  H   UNL A   1      40.939  27.867  25.890  1.00  0.00     0.063 H 
ATOM     69  H   UNL A   1      42.182  26.182  29.542  1.00  0.00     0.063 H 
BRANCH  67  70
ATOM     70  C   UNL A   1      41.443  28.505  28.446  1.00  0.00     0.031 A 
ATOM     71  C   UNL A   1      42.538  29.481  28.166  1.00  0.00     0.074 A 
ATOM     72  C   UNL A   1      40.353  28.915  29.130  1.00  0.00     0.049 A 
ATOM     73  N   UNL A   1      43.361  30.011  29.012  1.00  0.00    -0.248 NA
ATOM     74  C   UNL A   1      42.792  29.864  26.769  1.00  0.00    -0.034 C 
ATOM     75  C   UNL A   1      39.057  28.248  29.290  1.00  0.00    -0.036 A 
ATOM     76  N   UNL A   1      40.158  30.106  29.766  1.00  0.00    -0.354 N 
ATOM     77  C   UNL A   1      44.149  30.905  28.290  1.00  0.00     0.074 A 
ATOM     78  C   UNL A   1      43.829  30.694  26.901  1.00  0.00    -0.034 C 
ATOM     79  H   UNL A   1      42.297  29.570  25.913  1.00  0.00     0.065 H 
ATOM     80  C   UNL A   1      38.150  29.126  29.770  1.00  0.00    -0.036 A 
ATOM     81  H   UNL A   1      38.867  27.257  29.071  1.00  0.00     0.065 H 
ATOM     82  C   UNL A   1      38.843  30.347  30.129  1.00  0.00     0.049 A 
ATOM     83  H   UNL A   1      40.888  30.739  29.952  1.00  0.00     0.167 HD
ATOM     84  C   UNL A   1      44.879  31.875  28.911  1.00  0.00     0.037 A 
ATOM     85  H   UNL A   1      44.335  31.128  26.112  1.00  0.00     0.065 H 
ATOM     86  H   UNL A   1      37.136  28.956  29.863  1.00  0.00     0.065 H 
ATOM     87  C   UNL A   1      38.343  31.475  30.685  1.00  0.00     0.037 A 
ATOM     88  C   UNL A   1      45.050  31.588  30.311  1.00  0.00     0.049 A 
ATOM     89  C   UNL A   1      39.470  32.194  31.321  1.00  0.00     0.074 A 
ATOM     90  C   UNL A   1      45.642  30.570  31.032  1.00  0.00    -0.036 A 
ATOM     91  N   UNL A   1      44.268  32.264  31.212  1.00  0.00    -0.354 N 
ATOM     92  N   UNL A   1      40.111  31.762  32.371  1.00  0.00    -0.248 NA
ATOM     93  C   UNL A   1      40.157  33.214  30.545  1.00  0.00    -0.034 C 
ATOM     94  C   UNL A   1      44.807  30.391  32.175  1.00  0.00    -0.036 A 
ATOM     95  H   UNL A   1      46.503  30.051  30.795  1.00  0.00     0.065 H 
ATOM     96  C   UNL A   1      43.787  31.340  32.102  1.00  0.00     0.049 A 
ATOM     97  H   UNL A   1      44.085  33.232  31.218  1.00  0.00     0.167 HD
ATOM     98  C   UNL A   1      41.429  32.124  32.149  1.00  0.00     0.074 A 
ATOM     99  C   UNL A   1      41.376  33.114  31.078  1.00  0.00    -0.034 C 
ATOM    100  H   UNL A   1      39.803  33.834  29.799  1.00  0.00     0.065 H 
ATOM    101  H   UNL A   1      44.934  29.687  32.919  1.00  0.00     0.065 H 
ATOM    102  C   UNL A   1      42.456  31.383  32.661  1.00  0.00     0.037 A 
ATOM    103  H   UNL A   1      42.187  33.674  30.770  1.00  0.00     0.065 H 
BRANCH  84 104
ATOM    104  C   UNL A   1      45.160  33.247  28.343  1.00  0.00     0.064 A 
ATOM    105  C   UNL A   1      44.080  34.093  28.012  1.00  0.00     0.173 A 
ATOM    106  C   UNL A   1      46.414  33.634  27.825  1.00  0.00     0.173 A 
ATOM    107  F   UNL A   1      42.838  33.817  28.439  1.00  0.00    -0.203 F 
ATOM    108  C   UNL A   1      44.231  35.186  27.153  1.00  0.00     0.198 A 
ATOM    109  C   UNL A   1      46.570  34.756  27.011  1.00  0.00     0.198 A 
ATOM    110  F   UNL A   1      47.511  32.886  27.989  1.00  0.00    -0.203 F 
ATOM    111  F   UNL A   1      43.154  35.879  26.762  1.00  0.00    -0.200 F 
ATOM    112  C   UNL A   1      45.475  35.510  26.646  1.00  0.00     0.200 A 
ATOM    113  F   UNL A   1      47.781  35.046  26.516  1.00  0.00    -0.200 F 
ATOM    114  F   UNL A   1      45.613  36.515  25.770  1.00  0.00    -0.200 F 
ENDBRANCH  84 104
BRANCH  87 115
ATOM    115  C   UNL A   1      37.009  32.078  30.491  1.00  0.00     0.064 A 
ATOM    116  C   UNL A   1      36.031  32.013  31.494  1.00  0.00     0.173 A 
ATOM    117  C   UNL A   1      36.768  32.973  29.430  1.00  0.00     0.173 A 
ATOM    118  F   UNL A   1      36.206  31.214  32.556  1.00  0.00    -0.203 F 
ATOM    119  C   UNL A   1      34.893  32.823  31.456  1.00  0.00     0.198 A 
ATOM    120  C   UNL A   1      35.629  33.776  29.390  1.00  0.00     0.198 A 
ATOM    121  F   UNL A   1      37.682  33.156  28.465  1.00  0.00    -0.203 F 
ATOM    122  F   UNL A   1      34.013  32.784  32.466  1.00  0.00    -0.200 F 
ATOM    123  C   UNL A   1      34.699  33.713  30.411  1.00  0.00     0.200 A 
ATOM    124  F   UNL A   1      35.472  34.658  28.393  1.00  0.00    -0.200 F 
ATOM    125  F   UNL A   1      33.643  34.538  30.411  1.00  0.00    -0.200 F 
ENDBRANCH  87 115
BRANCH 102 126
ATOM    126  C   UNL A   1      42.125  30.360  33.710  1.00  0.00     0.064 A 
ATOM    127  C   UNL A   1      41.725  29.043  33.427  1.00  0.00     0.173 A 
ATOM    128  C   UNL A   1      42.349  30.689  35.053  1.00  0.00     0.173 A 
ATOM    129  F   UNL A   1      41.589  28.617  32.166  1.00  0.00    -0.203 F 
ATOM    130  C   UNL A   1      41.510  28.117  34.447  1.00  0.00     0.198 A 
ATOM    131  C   UNL A   1      42.172  29.752  36.067  1.00  0.00     0.198 A 
ATOM    132  F   UNL A   1      42.788  31.915  35.380  1.00  0.00    -0.203 F 
ATOM    133  F   UNL A   1      41.110  26.870  34.151  1.00  0.00    -0.200 F 
ATOM    134  C   UNL A   1      41.740  28.471  35.766  1.00  0.00     0.200 A 
ATOM    135  F   UNL A   1      42.442  30.085  37.337  1.00  0.00    -0.200 F 
ATOM    136  F   UNL A   1      41.571  27.570  36.745  1.00  0.00    -0.200 F 
ENDBRANCH 102 126
ENDBRANCH  67  70
ENDBRANCH  57  60
ENDBRANCH  53  56
ENDBRANCH  50  53
ENDBRANCH  47  50
ENDBRANCH  44  47
ENDBRANCH   1  44
TORSDOF 17
ENDMDL
MODEL 5
REMARK VINA RESULT:     -12.0      4.437      6.883
REMARK SMILES NS(=O)(=O)c1ccc(-c2coc(=O)n2-c2ccc(C(=O)NCCCCCCNC(=O)c3ccc(-c4c5nc(c(-c6c(F)c(F)c(F)c(F)c6F)c6ccc([nH]6)c(-c6c(F)c(F)c(F)c(F)c6F)c6nc(c(-c7c(F)c(F)c(F)c(F)c7F)c7ccc4[nH]7)C=C6)C=C5)cc3)cc2)cc1
REMARK SMILES IDX 23 1 22 4 21 7 19 8 20 9 18 11 15 12 16 13 95 14 17 15 94 17
REMARK SMILES IDX 14 21 9 22 10 23 11 24 12 26 13 27 8 28 5 29 6 30 97 31 7 32
REMARK SMILES IDX 96 34 2 38 3 39 4 40 1 41 24 44 25 47 26 50 27 53 28 56
REMARK SMILES IDX 29 57 30 59 31 60 32 61 93 62 33 63 92 65 34 67 35 70 36 71
REMARK SMILES IDX 86 72 37 73 91 74 85 75 87 76 38 77 90 78 84 80 83 82 39 84
REMARK SMILES IDX 71 87 51 88 70 89 52 90 55 91 69 92 88 93 53 94 54 96 68 98
REMARK SMILES IDX 89 99 56 102 40 104 41 105 49 106 42 107 43 108 47 109
REMARK SMILES IDX 50 110 44 111 45 112 48 113 46 114 72 115 73 116 81 117
REMARK SMILES IDX 74 118 75 119 79 120 82 121 76 122 77 123 80 124 78 125
REMARK SMILES IDX 57 126 58 127 66 128 59 129 60 130 64 131 67 132 61 133
REMARK SMILES IDX 62 134 65 135 63 136
REMARK H PARENT 23 2 23 3 22 5 22 6 21 10 16 16 95 18 17 19 94 20 10 25 6 33
REMARK H PARENT 97 35 7 36 96 37 1 42 1 43 24 45 24 46 25 48 25 49 26 51 26 52
REMARK H PARENT 27 54 27 55 28 58 32 64 93 66 33 68 92 69 91 79 85 81 87 83
REMARK H PARENT 90 85 84 86 52 95 55 97 88 100 53 101 89 103
REMARK Flexibility Score: inf
ROOT
ATOM      1  C   UNL A   1      31.565  27.876  25.297  1.00  0.00    -0.036 C 
ATOM      2  H   UNL A   1      30.573  28.037  24.929  1.00  0.00     0.028 H 
ATOM      3  H   UNL A   1      32.144  27.257  24.643  1.00  0.00     0.028 H 
ENDROOT
BRANCH   1   4
ATOM      4  C   UNL A   1      31.473  27.149  26.642  1.00  0.00     0.018 C 
ATOM      5  H   UNL A   1      32.461  26.955  27.006  1.00  0.00     0.049 H 
ATOM      6  H   UNL A   1      30.941  27.764  27.335  1.00  0.00     0.049 H 
BRANCH   4   7
ATOM      7  N   UNL A   1      30.765  25.892  26.486  1.00  0.00    -0.352 N 
ATOM      8  C   UNL A   1      31.175  24.594  26.317  1.00  0.00     0.251 C 
ATOM      9  O   UNL A   1      30.299  23.733  26.225  1.00  0.00    -0.269 OA
ATOM     10  H   UNL A   1      29.785  25.991  26.508  1.00  0.00     0.163 HD
BRANCH   8  11
ATOM     11  C   UNL A   1      32.605  24.171  26.306  1.00  0.00     0.039 A 
ATOM     12  C   UNL A   1      35.269  23.302  26.021  1.00  0.00     0.053 A 
ATOM     13  C   UNL A   1      34.723  24.179  25.086  1.00  0.00    -0.037 A 
ATOM     14  C   UNL A   1      34.513  22.931  27.137  1.00  0.00    -0.037 A 
ATOM     15  C   UNL A   1      33.388  24.581  25.212  1.00  0.00    -0.047 A 
ATOM     16  H   UNL A   1      35.299  24.530  24.305  1.00  0.00     0.065 H 
ATOM     17  C   UNL A   1      33.214  23.415  27.307  1.00  0.00    -0.047 A 
ATOM     18  H   UNL A   1      34.919  22.295  27.842  1.00  0.00     0.065 H 
ATOM     19  H   UNL A   1      32.971  25.188  24.489  1.00  0.00     0.063 H 
ATOM     20  H   UNL A   1      32.702  23.212  28.180  1.00  0.00     0.063 H 
BRANCH  12  21
ATOM     21  N   UNL A   1      36.561  22.773  25.853  1.00  0.00    -0.242 N 
ATOM     22  C   UNL A   1      36.915  21.481  25.583  1.00  0.00     0.095 A 
ATOM     23  C   UNL A   1      38.241  21.444  25.651  1.00  0.00     0.121 A 
ATOM     24  O   UNL A   1      38.835  22.667  25.952  1.00  0.00    -0.415 OA
ATOM     25  H   UNL A   1      38.785  20.581  25.493  1.00  0.00     0.107 H 
ATOM     26  C   UNL A   1      37.726  23.509  26.051  1.00  0.00     0.424 A 
ATOM     27  O   UNL A   1      37.826  24.700  26.314  1.00  0.00    -0.223 OA
BRANCH  22  28
ATOM     28  C   UNL A   1      36.016  20.430  25.111  1.00  0.00     0.002 A 
ATOM     29  C   UNL A   1      34.330  18.366  24.246  1.00  0.00     0.082 A 
ATOM     30  C   UNL A   1      35.647  18.074  24.597  1.00  0.00    -0.041 A 
ATOM     31  C   UNL A   1      33.843  19.675  24.328  1.00  0.00    -0.041 A 
ATOM     32  C   UNL A   1      36.484  19.106  25.028  1.00  0.00    -0.051 A 
ATOM     33  H   UNL A   1      35.999  17.107  24.541  1.00  0.00     0.064 H 
ATOM     34  C   UNL A   1      34.686  20.703  24.768  1.00  0.00    -0.051 A 
ATOM     35  H   UNL A   1      32.867  19.882  24.066  1.00  0.00     0.064 H 
ATOM     36  H   UNL A   1      37.460  18.893  25.287  1.00  0.00     0.063 H 
ATOM     37  H   UNL A   1      34.326  21.667  24.838  1.00  0.00     0.063 H 
BRANCH  29  38
ATOM     38  S   UNL A   1      33.265  17.063  23.701  1.00  0.00     0.238 S 
ATOM     39  O   UNL A   1      32.313  16.762  24.756  1.00  0.00    -0.207 OA
ATOM     40  O   UNL A   1      34.063  16.058  23.062  1.00  0.00    -0.207 OA
BRANCH  38  41
ATOM     41  N   UNL A   1      32.352  17.796  22.495  1.00  0.00    -0.225 NA
ATOM     42  H   UNL A   1      31.552  18.268  22.914  1.00  0.00     0.137 HD
ATOM     43  H   UNL A   1      32.024  17.088  21.838  1.00  0.00     0.137 HD
ENDBRANCH  38  41
ENDBRANCH  29  38
ENDBRANCH  22  28
ENDBRANCH  12  21
ENDBRANCH   8  11
ENDBRANCH   4   7
ENDBRANCH   1   4
BRANCH   1  44
ATOM     44  C   UNL A   1      32.278  29.233  25.382  1.00  0.00    -0.052 C 
ATOM     45  H   UNL A   1      31.731  29.929  24.780  1.00  0.00     0.027 H 
ATOM     46  H   UNL A   1      33.277  29.059  25.043  1.00  0.00     0.027 H 
BRANCH  44  47
ATOM     47  C   UNL A   1      32.409  29.829  26.793  1.00  0.00    -0.052 C 
ATOM     48  H   UNL A   1      31.651  29.388  27.405  1.00  0.00     0.027 H 
ATOM     49  H   UNL A   1      32.313  30.887  26.665  1.00  0.00     0.027 H 
BRANCH  47  50
ATOM     50  C   UNL A   1      33.758  29.622  27.495  1.00  0.00    -0.036 C 
ATOM     51  H   UNL A   1      34.212  28.738  27.098  1.00  0.00     0.028 H 
ATOM     52  H   UNL A   1      33.554  29.546  28.542  1.00  0.00     0.028 H 
BRANCH  50  53
ATOM     53  C   UNL A   1      34.732  30.779  27.320  1.00  0.00     0.018 C 
ATOM     54  H   UNL A   1      34.440  31.349  26.462  1.00  0.00     0.049 H 
ATOM     55  H   UNL A   1      35.713  30.369  27.198  1.00  0.00     0.049 H 
BRANCH  53  56
ATOM     56  N   UNL A   1      34.754  31.661  28.485  1.00  0.00    -0.352 N 
ATOM     57  C   UNL A   1      35.526  31.575  29.623  1.00  0.00     0.251 C 
ATOM     58  H   UNL A   1      34.130  32.422  28.453  1.00  0.00     0.163 HD
ATOM     59  O   UNL A   1      35.203  32.162  30.648  1.00  0.00    -0.269 OA
BRANCH  57  60
ATOM     60  C   UNL A   1      36.742  30.745  29.598  1.00  0.00     0.039 A 
ATOM     61  C   UNL A   1      37.985  31.314  29.321  1.00  0.00    -0.049 A 
ATOM     62  C   UNL A   1      36.634  29.391  29.897  1.00  0.00    -0.049 A 
ATOM     63  C   UNL A   1      39.129  30.526  29.438  1.00  0.00    -0.053 A 
ATOM     64  H   UNL A   1      38.058  32.302  29.032  1.00  0.00     0.063 H 
ATOM     65  C   UNL A   1      37.769  28.657  30.156  1.00  0.00    -0.053 A 
ATOM     66  H   UNL A   1      35.707  28.938  29.924  1.00  0.00     0.063 H 
ATOM     67  C   UNL A   1      39.024  29.199  29.889  1.00  0.00    -0.014 A 
ATOM     68  H   UNL A   1      40.052  30.918  29.195  1.00  0.00     0.063 H 
ATOM     69  H   UNL A   1      37.692  27.705  30.548  1.00  0.00     0.063 H 
BRANCH  67  70
ATOM     70  C   UNL A   1      40.236  28.417  30.148  1.00  0.00     0.031 A 
ATOM     71  C   UNL A   1      40.705  28.379  31.565  1.00  0.00     0.074 A 
ATOM     72  C   UNL A   1      40.839  27.628  29.232  1.00  0.00     0.049 A 
ATOM     73  N   UNL A   1      41.827  28.815  32.039  1.00  0.00    -0.248 NA
ATOM     74  C   UNL A   1      39.791  27.853  32.589  1.00  0.00    -0.034 C 
ATOM     75  C   UNL A   1      40.401  27.284  27.876  1.00  0.00    -0.036 A 
ATOM     76  N   UNL A   1      41.967  26.876  29.382  1.00  0.00    -0.354 N 
ATOM     77  C   UNL A   1      41.834  28.496  33.396  1.00  0.00     0.074 A 
ATOM     78  C   UNL A   1      40.515  28.004  33.701  1.00  0.00    -0.034 C 
ATOM     79  H   UNL A   1      38.841  27.466  32.478  1.00  0.00     0.065 H 
ATOM     80  C   UNL A   1      41.113  26.231  27.421  1.00  0.00    -0.036 A 
ATOM     81  H   UNL A   1      39.661  27.773  27.347  1.00  0.00     0.065 H 
ATOM     82  C   UNL A   1      42.177  25.956  28.367  1.00  0.00     0.049 A 
ATOM     83  H   UNL A   1      42.580  26.978  30.145  1.00  0.00     0.167 HD
ATOM     84  C   UNL A   1      42.987  28.500  34.123  1.00  0.00     0.037 A 
ATOM     85  H   UNL A   1      40.175  27.796  34.653  1.00  0.00     0.065 H 
ATOM     86  H   UNL A   1      40.930  25.710  26.549  1.00  0.00     0.065 H 
ATOM     87  C   UNL A   1      43.154  25.024  28.299  1.00  0.00     0.037 A 
ATOM     88  C   UNL A   1      44.026  29.240  33.456  1.00  0.00     0.049 A 
ATOM     89  C   UNL A   1      44.252  25.465  29.187  1.00  0.00     0.074 A 
ATOM     90  C   UNL A   1      44.184  30.552  33.053  1.00  0.00    -0.036 A 
ATOM     91  N   UNL A   1      45.003  28.538  32.797  1.00  0.00    -0.354 N 
ATOM     92  N   UNL A   1      45.003  26.506  28.957  1.00  0.00    -0.248 NA
ATOM     93  C   UNL A   1      44.265  24.976  30.556  1.00  0.00    -0.034 C 
ATOM     94  C   UNL A   1      44.898  30.477  31.820  1.00  0.00    -0.036 A 
ATOM     95  H   UNL A   1      43.856  31.402  33.538  1.00  0.00     0.065 H 
ATOM     96  C   UNL A   1      45.171  29.131  31.573  1.00  0.00     0.049 A 
ATOM     97  H   UNL A   1      45.492  27.753  33.139  1.00  0.00     0.167 HD
ATOM     98  C   UNL A   1      45.231  27.056  30.208  1.00  0.00     0.074 A 
ATOM     99  C   UNL A   1      44.859  26.010  31.155  1.00  0.00    -0.034 C 
ATOM    100  H   UNL A   1      43.915  24.088  30.950  1.00  0.00     0.065 H 
ATOM    101  H   UNL A   1      45.164  31.273  31.219  1.00  0.00     0.065 H 
ATOM    102  C   UNL A   1      45.435  28.397  30.358  1.00  0.00     0.037 A 
ATOM    103  H   UNL A   1      45.036  26.064  32.170  1.00  0.00     0.065 H 
BRANCH  84 104
ATOM    104  C   UNL A   1      43.292  27.566  35.272  1.00  0.00     0.064 A 
ATOM    105  C   UNL A   1      43.744  28.102  36.497  1.00  0.00     0.173 A 
ATOM    106  C   UNL A   1      43.457  26.174  35.121  1.00  0.00     0.173 A 
ATOM    107  F   UNL A   1      43.648  29.417  36.747  1.00  0.00    -0.203 F 
ATOM    108  C   UNL A   1      44.395  27.317  37.453  1.00  0.00     0.198 A 
ATOM    109  C   UNL A   1      44.060  25.385  36.100  1.00  0.00     0.198 A 
ATOM    110  F   UNL A   1      43.149  25.542  33.983  1.00  0.00    -0.203 F 
ATOM    111  F   UNL A   1      44.925  27.894  38.540  1.00  0.00    -0.200 F 
ATOM    112  C   UNL A   1      44.560  25.960  37.249  1.00  0.00     0.200 A 
ATOM    113  F   UNL A   1      44.226  24.073  35.878  1.00  0.00    -0.200 F 
ATOM    114  F   UNL A   1      45.242  25.217  38.131  1.00  0.00    -0.200 F 
ENDBRANCH  84 104
BRANCH  87 115
ATOM    115  C   UNL A   1      43.089  23.672  27.708  1.00  0.00     0.064 A 
ATOM    116  C   UNL A   1      42.172  22.719  28.176  1.00  0.00     0.173 A 
ATOM    117  C   UNL A   1      43.730  23.385  26.487  1.00  0.00     0.173 A 
ATOM    118  F   UNL A   1      41.492  22.938  29.311  1.00  0.00    -0.203 F 
ATOM    119  C   UNL A   1      41.887  21.562  27.446  1.00  0.00     0.198 A 
ATOM    120  C   UNL A   1      43.449  22.227  25.763  1.00  0.00     0.198 A 
ATOM    121  F   UNL A   1      44.567  24.271  25.925  1.00  0.00    -0.203 F 
ATOM    122  F   UNL A   1      40.955  20.707  27.889  1.00  0.00    -0.200 F 
ATOM    123  C   UNL A   1      42.516  21.323  26.235  1.00  0.00     0.200 A 
ATOM    124  F   UNL A   1      44.038  22.027  24.575  1.00  0.00    -0.200 F 
ATOM    125  F   UNL A   1      42.191  20.249  25.502  1.00  0.00    -0.200 F 
ENDBRANCH  87 115
BRANCH 102 126
ATOM    126  C   UNL A   1      45.707  29.207  29.121  1.00  0.00     0.064 A 
ATOM    127  C   UNL A   1      46.975  29.335  28.527  1.00  0.00     0.173 A 
ATOM    128  C   UNL A   1      44.619  29.766  28.439  1.00  0.00     0.173 A 
ATOM    129  F   UNL A   1      48.051  28.743  29.059  1.00  0.00    -0.203 F 
ATOM    130  C   UNL A   1      47.147  30.035  27.334  1.00  0.00     0.198 A 
ATOM    131  C   UNL A   1      44.787  30.431  27.228  1.00  0.00     0.198 A 
ATOM    132  F   UNL A   1      43.376  29.626  28.929  1.00  0.00    -0.203 F 
ATOM    133  F   UNL A   1      48.371  30.158  26.797  1.00  0.00    -0.200 F 
ATOM    134  C   UNL A   1      46.052  30.577  26.682  1.00  0.00     0.200 A 
ATOM    135  F   UNL A   1      43.719  30.911  26.577  1.00  0.00    -0.200 F 
ATOM    136  F   UNL A   1      46.212  31.217  25.515  1.00  0.00    -0.200 F 
ENDBRANCH 102 126
ENDBRANCH  67  70
ENDBRANCH  57  60
ENDBRANCH  53  56
ENDBRANCH  50  53
ENDBRANCH  47  50
ENDBRANCH  44  47
ENDBRANCH   1  44
TORSDOF 17
ENDMDL
MODEL 6
REMARK VINA RESULT:     -11.7      3.184      4.841
REMARK SMILES NS(=O)(=O)c1ccc(-c2coc(=O)n2-c2ccc(C(=O)NCCCCCCNC(=O)c3ccc(-c4c5nc(c(-c6c(F)c(F)c(F)c(F)c6F)c6ccc([nH]6)c(-c6c(F)c(F)c(F)c(F)c6F)c6nc(c(-c7c(F)c(F)c(F)c(F)c7F)c7ccc4[nH]7)C=C6)C=C5)cc3)cc2)cc1
REMARK SMILES IDX 23 1 22 4 21 7 19 8 20 9 18 11 15 12 16 13 95 14 17 15 94 17
REMARK SMILES IDX 14 21 9 22 10 23 11 24 12 26 13 27 8 28 5 29 6 30 97 31 7 32
REMARK SMILES IDX 96 34 2 38 3 39 4 40 1 41 24 44 25 47 26 50 27 53 28 56
REMARK SMILES IDX 29 57 30 59 31 60 32 61 93 62 33 63 92 65 34 67 35 70 36 71
REMARK SMILES IDX 86 72 37 73 91 74 85 75 87 76 38 77 90 78 84 80 83 82 39 84
REMARK SMILES IDX 71 87 51 88 70 89 52 90 55 91 69 92 88 93 53 94 54 96 68 98
REMARK SMILES IDX 89 99 56 102 40 104 41 105 49 106 42 107 43 108 47 109
REMARK SMILES IDX 50 110 44 111 45 112 48 113 46 114 72 115 73 116 81 117
REMARK SMILES IDX 74 118 75 119 79 120 82 121 76 122 77 123 80 124 78 125
REMARK SMILES IDX 57 126 58 127 66 128 59 129 60 130 64 131 67 132 61 133
REMARK SMILES IDX 62 134 65 135 63 136
REMARK H PARENT 23 2 23 3 22 5 22 6 21 10 16 16 95 18 17 19 94 20 10 25 6 33
REMARK H PARENT 97 35 7 36 96 37 1 42 1 43 24 45 24 46 25 48 25 49 26 51 26 52
REMARK H PARENT 27 54 27 55 28 58 32 64 93 66 33 68 92 69 91 79 85 81 87 83
REMARK H PARENT 90 85 84 86 52 95 55 97 88 100 53 101 89 103
REMARK Flexibility Score: inf
ROOT
ATOM      1  C   UNL A   1      32.416  32.968  27.174  1.00  0.00    -0.036 C 
ATOM      2  H   UNL A   1      31.424  33.349  27.294  1.00  0.00     0.028 H 
ATOM      3  H   UNL A   1      32.866  33.292  26.257  1.00  0.00     0.028 H 
ENDROOT
BRANCH   1   4
ATOM      4  C   UNL A   1      32.349  31.439  27.127  1.00  0.00     0.018 C 
ATOM      5  H   UNL A   1      31.521  31.105  27.718  1.00  0.00     0.049 H 
ATOM      6  H   UNL A   1      32.224  31.127  26.113  1.00  0.00     0.049 H 
BRANCH   4   7
ATOM      7  N   UNL A   1      33.574  30.865  27.651  1.00  0.00    -0.352 N 
ATOM      8  C   UNL A   1      34.112  29.604  27.620  1.00  0.00     0.251 C 
ATOM      9  O   UNL A   1      35.205  29.444  28.165  1.00  0.00    -0.269 OA
ATOM     10  H   UNL A   1      34.137  31.517  28.128  1.00  0.00     0.163 HD
BRANCH   8  11
ATOM     11  C   UNL A   1      33.484  28.451  26.913  1.00  0.00     0.039 A 
ATOM     12  C   UNL A   1      32.339  26.412  25.342  1.00  0.00     0.053 A 
ATOM     13  C   UNL A   1      33.587  26.931  25.001  1.00  0.00    -0.037 A 
ATOM     14  C   UNL A   1      31.710  26.852  26.510  1.00  0.00    -0.037 A 
ATOM     15  C   UNL A   1      34.136  27.968  25.764  1.00  0.00    -0.047 A 
ATOM     16  H   UNL A   1      34.104  26.553  24.191  1.00  0.00     0.065 H 
ATOM     17  C   UNL A   1      32.310  27.818  27.320  1.00  0.00    -0.047 A 
ATOM     18  H   UNL A   1      30.792  26.458  26.776  1.00  0.00     0.065 H 
ATOM     19  H   UNL A   1      35.036  28.387  25.479  1.00  0.00     0.063 H 
ATOM     20  H   UNL A   1      31.882  28.065  28.227  1.00  0.00     0.063 H 
BRANCH  12  21
ATOM     21  N   UNL A   1      31.699  25.466  24.523  1.00  0.00    -0.242 N 
ATOM     22  C   UNL A   1      30.581  25.633  23.756  1.00  0.00     0.095 A 
ATOM     23  C   UNL A   1      30.282  24.430  23.278  1.00  0.00     0.121 A 
ATOM     24  O   UNL A   1      31.155  23.421  23.677  1.00  0.00    -0.415 OA
ATOM     25  H   UNL A   1      29.471  24.259  22.663  1.00  0.00     0.107 H 
ATOM     26  C   UNL A   1      32.072  24.126  24.458  1.00  0.00     0.424 A 
ATOM     27  O   UNL A   1      33.021  23.583  25.009  1.00  0.00    -0.223 OA
BRANCH  22  28
ATOM     28  C   UNL A   1      29.985  26.914  23.383  1.00  0.00     0.002 A 
ATOM     29  C   UNL A   1      28.890  29.377  22.615  1.00  0.00     0.082 A 
ATOM     30  C   UNL A   1      30.241  29.124  22.383  1.00  0.00    -0.041 A 
ATOM     31  C   UNL A   1      28.078  28.412  23.220  1.00  0.00    -0.041 A 
ATOM     32  C   UNL A   1      30.782  27.895  22.768  1.00  0.00    -0.051 A 
ATOM     33  H   UNL A   1      30.835  29.836  21.931  1.00  0.00     0.064 H 
ATOM     34  C   UNL A   1      28.626  27.179  23.596  1.00  0.00    -0.051 A 
ATOM     35  H   UNL A   1      27.078  28.607  23.388  1.00  0.00     0.064 H 
ATOM     36  H   UNL A   1      31.783  27.706  22.598  1.00  0.00     0.063 H 
ATOM     37  H   UNL A   1      28.026  26.463  24.033  1.00  0.00     0.063 H 
BRANCH  29  38
ATOM     38  S   UNL A   1      28.198  30.930  22.129  1.00  0.00     0.238 S 
ATOM     39  O   UNL A   1      27.299  31.391  23.172  1.00  0.00    -0.207 OA
ATOM     40  O   UNL A   1      27.815  30.848  20.750  1.00  0.00    -0.207 OA
BRANCH  38  41
ATOM     41  N   UNL A   1      29.515  31.973  22.204  1.00  0.00    -0.225 NA
ATOM     42  H   UNL A   1      29.569  32.386  23.135  1.00  0.00     0.137 HD
ATOM     43  H   UNL A   1      29.403  32.713  21.510  1.00  0.00     0.137 HD
ENDBRANCH  38  41
ENDBRANCH  29  38
ENDBRANCH  22  28
ENDBRANCH  12  21
ENDBRANCH   8  11
ENDBRANCH   4   7
ENDBRANCH   1   4
BRANCH   1  44
ATOM     44  C   UNL A   1      33.286  33.508  28.317  1.00  0.00    -0.052 C 
ATOM     45  H   UNL A   1      33.539  32.686  28.954  1.00  0.00     0.027 H 
ATOM     46  H   UNL A   1      32.702  34.264  28.797  1.00  0.00     0.027 H 
BRANCH  44  47
ATOM     47  C   UNL A   1      34.594  34.195  27.891  1.00  0.00    -0.052 C 
ATOM     48  H   UNL A   1      34.764  35.015  28.558  1.00  0.00     0.027 H 
ATOM     49  H   UNL A   1      34.447  34.480  26.870  1.00  0.00     0.027 H 
BRANCH  47  50
ATOM     50  C   UNL A   1      35.854  33.319  27.893  1.00  0.00    -0.036 C 
ATOM     51  H   UNL A   1      36.422  33.544  27.015  1.00  0.00     0.028 H 
ATOM     52  H   UNL A   1      35.524  32.302  27.921  1.00  0.00     0.028 H 
BRANCH  50  53
ATOM     53  C   UNL A   1      36.750  33.524  29.106  1.00  0.00     0.018 C 
ATOM     54  H   UNL A   1      37.235  34.474  29.020  1.00  0.00     0.049 H 
ATOM     55  H   UNL A   1      37.462  32.724  29.129  1.00  0.00     0.049 H 
BRANCH  53  56
ATOM     56  N   UNL A   1      35.997  33.492  30.359  1.00  0.00    -0.352 N 
ATOM     57  C   UNL A   1      35.997  32.530  31.346  1.00  0.00     0.251 C 
ATOM     58  H   UNL A   1      35.407  34.263  30.518  1.00  0.00     0.163 HD
ATOM     59  O   UNL A   1      35.080  32.459  32.154  1.00  0.00    -0.269 OA
BRANCH  57  60
ATOM     60  C   UNL A   1      37.112  31.569  31.405  1.00  0.00     0.039 A 
ATOM     61  C   UNL A   1      36.909  30.225  31.091  1.00  0.00    -0.049 A 
ATOM     62  C   UNL A   1      38.379  32.034  31.742  1.00  0.00    -0.049 A 
ATOM     63  C   UNL A   1      38.010  29.374  31.027  1.00  0.00    -0.053 A 
ATOM     64  H   UNL A   1      35.958  29.867  30.908  1.00  0.00     0.063 H 
ATOM     65  C   UNL A   1      39.477  31.231  31.534  1.00  0.00    -0.053 A 
ATOM     66  H   UNL A   1      38.495  32.977  32.144  1.00  0.00     0.063 H 
ATOM     67  C   UNL A   1      39.305  29.886  31.218  1.00  0.00    -0.014 A 
ATOM     68  H   UNL A   1      37.875  28.368  30.839  1.00  0.00     0.063 H 
ATOM     69  H   UNL A   1      40.428  31.625  31.612  1.00  0.00     0.063 H 
BRANCH  67  70
ATOM     70  C   UNL A   1      40.470  29.021  31.013  1.00  0.00     0.031 A 
ATOM     71  C   UNL A   1      41.260  28.680  32.233  1.00  0.00     0.074 A 
ATOM     72  C   UNL A   1      40.766  28.411  29.845  1.00  0.00     0.049 A 
ATOM     73  N   UNL A   1      42.497  28.968  32.482  1.00  0.00    -0.248 NA
ATOM     74  C   UNL A   1      40.576  27.994  33.339  1.00  0.00    -0.034 C 
ATOM     75  C   UNL A   1      39.987  28.365  28.603  1.00  0.00    -0.036 A 
ATOM     76  N   UNL A   1      41.827  27.601  29.563  1.00  0.00    -0.354 N 
ATOM     77  C   UNL A   1      42.801  28.382  33.710  1.00  0.00     0.074 A 
ATOM     78  C   UNL A   1      41.555  27.890  34.240  1.00  0.00    -0.034 C 
ATOM     79  H   UNL A   1      39.596  27.674  33.401  1.00  0.00     0.065 H 
ATOM     80  C   UNL A   1      40.475  27.398  27.796  1.00  0.00    -0.036 A 
ATOM     81  H   UNL A   1      39.188  28.979  28.379  1.00  0.00     0.065 H 
ATOM     82  C   UNL A   1      41.706  26.898  28.375  1.00  0.00     0.049 A 
ATOM     83  H   UNL A   1      42.611  27.523  30.152  1.00  0.00     0.167 HD
ATOM     84  C   UNL A   1      44.090  28.195  34.110  1.00  0.00     0.037 A 
ATOM     85  H   UNL A   1      41.436  27.507  35.192  1.00  0.00     0.065 H 
ATOM     86  H   UNL A   1      40.044  27.071  26.917  1.00  0.00     0.065 H 
ATOM     87  C   UNL A   1      42.553  25.961  27.891  1.00  0.00     0.037 A 
ATOM     88  C   UNL A   1      45.000  29.014  33.353  1.00  0.00     0.049 A 
ATOM     89  C   UNL A   1      43.867  26.172  28.540  1.00  0.00     0.074 A 
ATOM     90  C   UNL A   1      45.170  30.373  33.174  1.00  0.00    -0.036 A 
ATOM     91  N   UNL A   1      45.725  28.422  32.350  1.00  0.00    -0.354 N 
ATOM     92  N   UNL A   1      44.628  27.208  28.326  1.00  0.00    -0.248 NA
ATOM     93  C   UNL A   1      44.164  25.417  29.746  1.00  0.00    -0.034 C 
ATOM     94  C   UNL A   1      45.559  30.521  31.809  1.00  0.00    -0.036 A 
ATOM     95  H   UNL A   1      45.043  31.119  33.876  1.00  0.00     0.065 H 
ATOM     96  C   UNL A   1      45.646  29.243  31.256  1.00  0.00     0.049 A 
ATOM     97  H   UNL A   1      46.211  27.566  32.406  1.00  0.00     0.167 HD
ATOM     98  C   UNL A   1      45.196  27.485  29.558  1.00  0.00     0.074 A 
ATOM     99  C   UNL A   1      44.972  26.285  30.358  1.00  0.00    -0.034 C 
ATOM    100  H   UNL A   1      43.842  24.481  30.043  1.00  0.00     0.065 H 
ATOM    101  H   UNL A   1      45.742  31.411  31.320  1.00  0.00     0.065 H 
ATOM    102  C   UNL A   1      45.546  28.760  29.899  1.00  0.00     0.037 A 
ATOM    103  H   UNL A   1      45.391  26.126  31.287  1.00  0.00     0.065 H 
BRANCH  84 104
ATOM    104  C   UNL A   1      44.578  27.038  34.951  1.00  0.00     0.064 A 
ATOM    105  C   UNL A   1      44.343  25.717  34.512  1.00  0.00     0.173 A 
ATOM    106  C   UNL A   1      44.978  27.167  36.297  1.00  0.00     0.173 A 
ATOM    107  F   UNL A   1      43.946  25.473  33.253  1.00  0.00    -0.203 F 
ATOM    108  C   UNL A   1      44.413  24.624  35.382  1.00  0.00     0.198 A 
ATOM    109  C   UNL A   1      45.098  26.068  37.148  1.00  0.00     0.198 A 
ATOM    110  F   UNL A   1      45.157  28.362  36.873  1.00  0.00    -0.203 F 
ATOM    111  F   UNL A   1      44.051  23.408  34.953  1.00  0.00    -0.200 F 
ATOM    112  C   UNL A   1      44.782  24.803  36.702  1.00  0.00     0.200 A 
ATOM    113  F   UNL A   1      45.441  26.262  38.429  1.00  0.00    -0.200 F 
ATOM    114  F   UNL A   1      44.784  23.769  37.554  1.00  0.00    -0.200 F 
ENDBRANCH  84 104
BRANCH  87 115
ATOM    115  C   UNL A   1      42.231  24.760  27.095  1.00  0.00     0.064 A 
ATOM    116  C   UNL A   1      42.961  24.438  25.941  1.00  0.00     0.173 A 
ATOM    117  C   UNL A   1      41.386  23.757  27.609  1.00  0.00     0.173 A 
ATOM    118  F   UNL A   1      43.816  25.326  25.414  1.00  0.00    -0.203 F 
ATOM    119  C   UNL A   1      42.877  23.172  25.356  1.00  0.00     0.198 A 
ATOM    120  C   UNL A   1      41.299  22.496  27.020  1.00  0.00     0.198 A 
ATOM    121  F   UNL A   1      40.706  23.949  28.749  1.00  0.00    -0.203 F 
ATOM    122  F   UNL A   1      43.641  22.876  24.294  1.00  0.00    -0.200 F 
ATOM    123  C   UNL A   1      42.057  22.198  25.902  1.00  0.00     0.200 A 
ATOM    124  F   UNL A   1      40.529  21.553  27.580  1.00  0.00    -0.200 F 
ATOM    125  F   UNL A   1      42.030  20.964  25.382  1.00  0.00    -0.200 F 
ENDBRANCH  87 115
BRANCH 102 126
ATOM    126  C   UNL A   1      45.585  29.791  28.806  1.00  0.00     0.064 A 
ATOM    127  C   UNL A   1      44.488  30.589  28.438  1.00  0.00     0.173 A 
ATOM    128  C   UNL A   1      46.816  30.071  28.199  1.00  0.00     0.173 A 
ATOM    129  F   UNL A   1      43.302  30.457  29.043  1.00  0.00    -0.203 F 
ATOM    130  C   UNL A   1      44.610  31.585  27.470  1.00  0.00     0.198 A 
ATOM    131  C   UNL A   1      46.945  31.091  27.261  1.00  0.00     0.198 A 
ATOM    132  F   UNL A   1      47.911  29.380  28.553  1.00  0.00    -0.203 F 
ATOM    133  F   UNL A   1      43.543  32.321  27.123  1.00  0.00    -0.200 F 
ATOM    134  C   UNL A   1      45.841  31.839  26.887  1.00  0.00     0.200 A 
ATOM    135  F   UNL A   1      48.147  31.365  26.736  1.00  0.00    -0.200 F 
ATOM    136  F   UNL A   1      45.968  32.822  25.983  1.00  0.00    -0.200 F 
ENDBRANCH 102 126
ENDBRANCH  67  70
ENDBRANCH  57  60
ENDBRANCH  53  56
ENDBRANCH  50  53
ENDBRANCH  47  50
ENDBRANCH  44  47
ENDBRANCH   1  44
TORSDOF 17
ENDMDL
MODEL 7
REMARK VINA RESULT:     -11.6      2.901      8.536
REMARK SMILES NS(=O)(=O)c1ccc(-c2coc(=O)n2-c2ccc(C(=O)NCCCCCCNC(=O)c3ccc(-c4c5nc(c(-c6c(F)c(F)c(F)c(F)c6F)c6ccc([nH]6)c(-c6c(F)c(F)c(F)c(F)c6F)c6nc(c(-c7c(F)c(F)c(F)c(F)c7F)c7ccc4[nH]7)C=C6)C=C5)cc3)cc2)cc1
REMARK SMILES IDX 23 1 22 4 21 7 19 8 20 9 18 11 15 12 16 13 95 14 17 15 94 17
REMARK SMILES IDX 14 21 9 22 10 23 11 24 12 26 13 27 8 28 5 29 6 30 97 31 7 32
REMARK SMILES IDX 96 34 2 38 3 39 4 40 1 41 24 44 25 47 26 50 27 53 28 56
REMARK SMILES IDX 29 57 30 59 31 60 32 61 93 62 33 63 92 65 34 67 35 70 36 71
REMARK SMILES IDX 86 72 37 73 91 74 85 75 87 76 38 77 90 78 84 80 83 82 39 84
REMARK SMILES IDX 71 87 51 88 70 89 52 90 55 91 69 92 88 93 53 94 54 96 68 98
REMARK SMILES IDX 89 99 56 102 40 104 41 105 49 106 42 107 43 108 47 109
REMARK SMILES IDX 50 110 44 111 45 112 48 113 46 114 72 115 73 116 81 117
REMARK SMILES IDX 74 118 75 119 79 120 82 121 76 122 77 123 80 124 78 125
REMARK SMILES IDX 57 126 58 127 66 128 59 129 60 130 64 131 67 132 61 133
REMARK SMILES IDX 62 134 65 135 63 136
REMARK H PARENT 23 2 23 3 22 5 22 6 21 10 16 16 95 18 17 19 94 20 10 25 6 33
REMARK H PARENT 97 35 7 36 96 37 1 42 1 43 24 45 24 46 25 48 25 49 26 51 26 52
REMARK H PARENT 27 54 27 55 28 58 32 64 93 66 33 68 92 69 91 79 85 81 87 83
REMARK H PARENT 90 85 84 86 52 95 55 97 88 100 53 101 89 103
REMARK Flexibility Score: inf
ROOT
ATOM      1  C   UNL A   1      32.988  21.714  25.564  1.00  0.00    -0.036 C 
ATOM      2  H   UNL A   1      33.376  21.214  24.702  1.00  0.00     0.028 H 
ATOM      3  H   UNL A   1      32.214  21.151  26.045  1.00  0.00     0.028 H 
ENDROOT
BRANCH   1   4
ATOM      4  C   UNL A   1      32.367  23.042  25.119  1.00  0.00     0.018 C 
ATOM      5  H   UNL A   1      31.304  22.933  25.065  1.00  0.00     0.049 H 
ATOM      6  H   UNL A   1      32.623  23.800  25.827  1.00  0.00     0.049 H 
BRANCH   4   7
ATOM      7  N   UNL A   1      32.876  23.423  23.814  1.00  0.00    -0.352 N 
ATOM      8  C   UNL A   1      33.366  24.595  23.300  1.00  0.00     0.251 C 
ATOM      9  O   UNL A   1      33.736  24.585  22.125  1.00  0.00    -0.269 OA
ATOM     10  H   UNL A   1      32.869  22.684  23.163  1.00  0.00     0.163 HD
BRANCH   8  11
ATOM     11  C   UNL A   1      33.533  25.845  24.097  1.00  0.00     0.039 A 
ATOM     12  C   UNL A   1      33.592  28.163  25.696  1.00  0.00     0.053 A 
ATOM     13  C   UNL A   1      33.190  26.949  26.251  1.00  0.00    -0.037 A 
ATOM     14  C   UNL A   1      34.042  28.197  24.373  1.00  0.00    -0.037 A 
ATOM     15  C   UNL A   1      33.129  25.807  25.444  1.00  0.00    -0.047 A 
ATOM     16  H   UNL A   1      32.940  26.892  27.251  1.00  0.00     0.065 H 
ATOM     17  C   UNL A   1      34.070  27.033  23.602  1.00  0.00    -0.047 A 
ATOM     18  H   UNL A   1      34.356  29.091  23.962  1.00  0.00     0.065 H 
ATOM     19  H   UNL A   1      32.782  24.921  25.844  1.00  0.00     0.063 H 
ATOM     20  H   UNL A   1      34.493  27.051  22.661  1.00  0.00     0.063 H 
BRANCH  12  21
ATOM     21  N   UNL A   1      33.537  29.355  26.440  1.00  0.00    -0.242 N 
ATOM     22  C   UNL A   1      32.733  30.440  26.238  1.00  0.00     0.095 A 
ATOM     23  C   UNL A   1      33.138  31.362  27.102  1.00  0.00     0.121 A 
ATOM     24  O   UNL A   1      34.198  30.963  27.914  1.00  0.00    -0.415 OA
ATOM     25  H   UNL A   1      32.704  32.297  27.167  1.00  0.00     0.107 H 
ATOM     26  C   UNL A   1      34.414  29.654  27.479  1.00  0.00     0.424 A 
ATOM     27  O   UNL A   1      35.287  28.939  27.955  1.00  0.00    -0.223 OA
BRANCH  22  28
ATOM     28  C   UNL A   1      31.543  30.475  25.389  1.00  0.00     0.002 A 
ATOM     29  C   UNL A   1      29.258  30.472  23.767  1.00  0.00     0.082 A 
ATOM     30  C   UNL A   1      30.077  29.344  23.802  1.00  0.00    -0.041 A 
ATOM     31  C   UNL A   1      29.563  31.598  24.537  1.00  0.00    -0.041 A 
ATOM     32  C   UNL A   1      31.215  29.350  24.611  1.00  0.00    -0.051 A 
ATOM     33  H   UNL A   1      29.844  28.513  23.236  1.00  0.00     0.064 H 
ATOM     34  C   UNL A   1      30.702  31.595  25.353  1.00  0.00    -0.051 A 
ATOM     35  H   UNL A   1      28.952  32.429  24.506  1.00  0.00     0.064 H 
ATOM     36  H   UNL A   1      31.824  28.517  24.638  1.00  0.00     0.063 H 
ATOM     37  H   UNL A   1      30.923  32.421  25.929  1.00  0.00     0.063 H 
BRANCH  29  38
ATOM     38  S   UNL A   1      27.815  30.469  22.744  1.00  0.00     0.238 S 
ATOM     39  O   UNL A   1      27.365  31.838  22.562  1.00  0.00    -0.207 OA
ATOM     40  O   UNL A   1      26.947  29.416  23.184  1.00  0.00    -0.207 OA
BRANCH  38  41
ATOM     41  N   UNL A   1      28.413  30.009  21.242  1.00  0.00    -0.225 NA
ATOM     42  H   UNL A   1      28.172  29.034  21.065  1.00  0.00     0.137 HD
ATOM     43  H   UNL A   1      29.427  30.116  21.232  1.00  0.00     0.137 HD
ENDBRANCH  38  41
ENDBRANCH  29  38
ENDBRANCH  22  28
ENDBRANCH  12  21
ENDBRANCH   8  11
ENDBRANCH   4   7
ENDBRANCH   1   4
BRANCH   1  44
ATOM     44  C   UNL A   1      34.124  21.880  26.583  1.00  0.00    -0.052 C 
ATOM     45  H   UNL A   1      34.051  21.079  27.289  1.00  0.00     0.027 H 
ATOM     46  H   UNL A   1      33.992  22.850  27.013  1.00  0.00     0.027 H 
BRANCH  44  47
ATOM     47  C   UNL A   1      35.547  21.868  26.001  1.00  0.00    -0.052 C 
ATOM     48  H   UNL A   1      35.500  21.412  25.034  1.00  0.00     0.027 H 
ATOM     49  H   UNL A   1      36.141  21.334  26.713  1.00  0.00     0.027 H 
BRANCH  47  50
ATOM     50  C   UNL A   1      36.228  23.235  25.843  1.00  0.00    -0.036 C 
ATOM     51  H   UNL A   1      36.138  23.764  26.769  1.00  0.00     0.028 H 
ATOM     52  H   UNL A   1      35.737  23.734  25.034  1.00  0.00     0.028 H 
BRANCH  50  53
ATOM     53  C   UNL A   1      37.703  23.154  25.481  1.00  0.00     0.018 C 
ATOM     54  H   UNL A   1      38.121  24.139  25.512  1.00  0.00     0.049 H 
ATOM     55  H   UNL A   1      37.780  22.730  24.501  1.00  0.00     0.049 H 
BRANCH  53  56
ATOM     56  N   UNL A   1      38.450  22.297  26.400  1.00  0.00    -0.352 N 
ATOM     57  C   UNL A   1      39.569  22.596  27.147  1.00  0.00     0.251 C 
ATOM     58  H   UNL A   1      38.107  21.380  26.498  1.00  0.00     0.163 HD
ATOM     59  O   UNL A   1      40.283  21.706  27.593  1.00  0.00    -0.269 OA
BRANCH  57  60
ATOM     60  C   UNL A   1      39.911  24.008  27.386  1.00  0.00     0.039 A 
ATOM     61  C   UNL A   1      39.029  25.025  27.019  1.00  0.00    -0.049 A 
ATOM     62  C   UNL A   1      41.112  24.307  28.021  1.00  0.00    -0.049 A 
ATOM     63  C   UNL A   1      39.325  26.337  27.383  1.00  0.00    -0.053 A 
ATOM     64  H   UNL A   1      38.171  24.809  26.487  1.00  0.00     0.063 H 
ATOM     65  C   UNL A   1      41.329  25.576  28.507  1.00  0.00    -0.053 A 
ATOM     66  H   UNL A   1      41.837  23.580  28.129  1.00  0.00     0.063 H 
ATOM     67  C   UNL A   1      40.465  26.611  28.158  1.00  0.00    -0.014 A 
ATOM     68  H   UNL A   1      38.707  27.107  27.082  1.00  0.00     0.063 H 
ATOM     69  H   UNL A   1      42.131  25.762  29.129  1.00  0.00     0.063 H 
BRANCH  67  70
ATOM     70  C   UNL A   1      40.699  27.969  28.658  1.00  0.00     0.031 A 
ATOM     71  C   UNL A   1      41.891  28.677  28.102  1.00  0.00     0.074 A 
ATOM     72  C   UNL A   1      39.838  28.647  29.447  1.00  0.00     0.049 A 
ATOM     73  N   UNL A   1      42.930  29.101  28.745  1.00  0.00    -0.248 NA
ATOM     74  C   UNL A   1      41.967  28.882  26.648  1.00  0.00    -0.034 C 
ATOM     75  C   UNL A   1      38.488  28.270  29.879  1.00  0.00    -0.036 A 
ATOM     76  N   UNL A   1      39.978  29.902  29.962  1.00  0.00    -0.354 N 
ATOM     77  C   UNL A   1      43.734  29.754  27.812  1.00  0.00     0.074 A 
ATOM     78  C   UNL A   1      43.146  29.495  26.523  1.00  0.00    -0.034 C 
ATOM     79  H   UNL A   1      41.286  28.622  25.917  1.00  0.00     0.065 H 
ATOM     80  C   UNL A   1      37.855  29.350  30.384  1.00  0.00    -0.036 A 
ATOM     81  H   UNL A   1      38.084  27.322  29.809  1.00  0.00     0.065 H 
ATOM     82  C   UNL A   1      38.812  30.433  30.490  1.00  0.00     0.049 A 
ATOM     83  H   UNL A   1      40.833  30.389  29.959  1.00  0.00     0.167 HD
ATOM     84  C   UNL A   1      44.726  30.606  28.198  1.00  0.00     0.037 A 
ATOM     85  H   UNL A   1      43.581  29.749  25.621  1.00  0.00     0.065 H 
ATOM     86  H   UNL A   1      36.858  29.396  30.650  1.00  0.00     0.065 H 
ATOM     87  C   UNL A   1      38.632  31.681  30.980  1.00  0.00     0.037 A 
ATOM     88  C   UNL A   1      45.078  30.411  29.579  1.00  0.00     0.049 A 
ATOM     89  C   UNL A   1      39.965  32.210  31.348  1.00  0.00     0.074 A 
ATOM     90  C   UNL A   1      45.588  29.359  30.316  1.00  0.00    -0.036 A 
ATOM     91  N   UNL A   1      44.601  31.304  30.504  1.00  0.00    -0.354 N 
ATOM     92  N   UNL A   1      40.686  31.749  32.332  1.00  0.00    -0.248 NA
ATOM     93  C   UNL A   1      40.684  33.001  30.364  1.00  0.00    -0.034 C 
ATOM     94  C   UNL A   1      44.944  29.449  31.585  1.00  0.00    -0.036 A 
ATOM     95  H   UNL A   1      46.285  28.660  30.013  1.00  0.00     0.065 H 
ATOM     96  C   UNL A   1      44.119  30.575  31.558  1.00  0.00     0.049 A 
ATOM     97  H   UNL A   1      44.604  32.287  30.425  1.00  0.00     0.167 HD
ATOM     98  C   UNL A   1      41.990  31.818  31.871  1.00  0.00     0.074 A 
ATOM     99  C   UNL A   1      41.937  32.704  30.713  1.00  0.00    -0.034 C 
ATOM    100  H   UNL A   1      40.328  33.614  29.612  1.00  0.00     0.065 H 
ATOM    101  H   UNL A   1      45.064  28.801  32.379  1.00  0.00     0.065 H 
ATOM    102  C   UNL A   1      42.935  30.932  32.304  1.00  0.00     0.037 A 
ATOM    103  H   UNL A   1      42.772  33.061  30.222  1.00  0.00     0.065 H 
BRANCH  84 104
ATOM    104  C   UNL A   1      45.154  31.840  27.437  1.00  0.00     0.064 A 
ATOM    105  C   UNL A   1      46.465  31.915  26.921  1.00  0.00     0.173 A 
ATOM    106  C   UNL A   1      44.445  33.059  27.468  1.00  0.00     0.173 A 
ATOM    107  F   UNL A   1      47.238  30.819  26.854  1.00  0.00    -0.203 F 
ATOM    108  C   UNL A   1      47.049  33.131  26.553  1.00  0.00     0.198 A 
ATOM    109  C   UNL A   1      45.013  34.263  27.052  1.00  0.00     0.198 A 
ATOM    110  F   UNL A   1      43.223  33.156  28.005  1.00  0.00    -0.203 F 
ATOM    111  F   UNL A   1      48.339  33.169  26.196  1.00  0.00    -0.200 F 
ATOM    112  C   UNL A   1      46.324  34.305  26.628  1.00  0.00     0.200 A 
ATOM    113  F   UNL A   1      44.300  35.394  27.146  1.00  0.00    -0.200 F 
ATOM    114  F   UNL A   1      46.900  35.480  26.343  1.00  0.00    -0.200 F 
ENDBRANCH  84 104
BRANCH  87 115
ATOM    115  C   UNL A   1      37.419  32.521  30.921  1.00  0.00     0.064 A 
ATOM    116  C   UNL A   1      37.097  33.249  29.766  1.00  0.00     0.173 A 
ATOM    117  C   UNL A   1      36.409  32.401  31.895  1.00  0.00     0.173 A 
ATOM    118  F   UNL A   1      37.993  33.376  28.777  1.00  0.00    -0.203 F 
ATOM    119  C   UNL A   1      35.824  33.796  29.581  1.00  0.00     0.198 A 
ATOM    120  C   UNL A   1      35.141  32.953  31.711  1.00  0.00     0.198 A 
ATOM    121  F   UNL A   1      36.601  31.661  32.998  1.00  0.00    -0.203 F 
ATOM    122  F   UNL A   1      35.530  34.427  28.436  1.00  0.00    -0.200 F 
ATOM    123  C   UNL A   1      34.844  33.637  30.547  1.00  0.00     0.200 A 
ATOM    124  F   UNL A   1      34.192  32.759  32.638  1.00  0.00    -0.200 F 
ATOM    125  F   UNL A   1      33.604  34.101  30.338  1.00  0.00    -0.200 F 
ENDBRANCH  87 115
BRANCH 102 126
ATOM    126  C   UNL A   1      42.606  30.089  33.503  1.00  0.00     0.064 A 
ATOM    127  C   UNL A   1      42.768  30.515  34.834  1.00  0.00     0.173 A 
ATOM    128  C   UNL A   1      41.981  28.853  33.296  1.00  0.00     0.173 A 
ATOM    129  F   UNL A   1      43.261  31.726  35.117  1.00  0.00    -0.203 F 
ATOM    130  C   UNL A   1      42.368  29.715  35.903  1.00  0.00     0.198 A 
ATOM    131  C   UNL A   1      41.548  28.072  34.364  1.00  0.00     0.198 A 
ATOM    132  F   UNL A   1      41.748  28.420  32.047  1.00  0.00    -0.203 F 
ATOM    133  F   UNL A   1      42.551  30.136  37.164  1.00  0.00    -0.200 F 
ATOM    134  C   UNL A   1      41.753  28.496  35.667  1.00  0.00     0.200 A 
ATOM    135  F   UNL A   1      40.910  26.917  34.130  1.00  0.00    -0.200 F 
ATOM    136  F   UNL A   1      41.334  27.743  36.694  1.00  0.00    -0.200 F 
ENDBRANCH 102 126
ENDBRANCH  67  70
ENDBRANCH  57  60
ENDBRANCH  53  56
ENDBRANCH  50  53
ENDBRANCH  47  50
ENDBRANCH  44  47
ENDBRANCH   1  44
TORSDOF 17
ENDMDL
MODEL 8
REMARK VINA RESULT:     -11.6      5.712     11.369
REMARK SMILES NS(=O)(=O)c1ccc(-c2coc(=O)n2-c2ccc(C(=O)NCCCCCCNC(=O)c3ccc(-c4c5nc(c(-c6c(F)c(F)c(F)c(F)c6F)c6ccc([nH]6)c(-c6c(F)c(F)c(F)c(F)c6F)c6nc(c(-c7c(F)c(F)c(F)c(F)c7F)c7ccc4[nH]7)C=C6)C=C5)cc3)cc2)cc1
REMARK SMILES IDX 23 1 22 4 21 7 19 8 20 9 18 11 15 12 16 13 95 14 17 15 94 17
REMARK SMILES IDX 14 21 9 22 10 23 11 24 12 26 13 27 8 28 5 29 6 30 97 31 7 32
REMARK SMILES IDX 96 34 2 38 3 39 4 40 1 41 24 44 25 47 26 50 27 53 28 56
REMARK SMILES IDX 29 57 30 59 31 60 32 61 93 62 33 63 92 65 34 67 35 70 36 71
REMARK SMILES IDX 86 72 37 73 91 74 85 75 87 76 38 77 90 78 84 80 83 82 39 84
REMARK SMILES IDX 71 87 51 88 70 89 52 90 55 91 69 92 88 93 53 94 54 96 68 98
REMARK SMILES IDX 89 99 56 102 40 104 41 105 49 106 42 107 43 108 47 109
REMARK SMILES IDX 50 110 44 111 45 112 48 113 46 114 72 115 73 116 81 117
REMARK SMILES IDX 74 118 75 119 79 120 82 121 76 122 77 123 80 124 78 125
REMARK SMILES IDX 57 126 58 127 66 128 59 129 60 130 64 131 67 132 61 133
REMARK SMILES IDX 62 134 65 135 63 136
REMARK H PARENT 23 2 23 3 22 5 22 6 21 10 16 16 95 18 17 19 94 20 10 25 6 33
REMARK H PARENT 97 35 7 36 96 37 1 42 1 43 24 45 24 46 25 48 25 49 26 51 26 52
REMARK H PARENT 27 54 27 55 28 58 32 64 93 66 33 68 92 69 91 79 85 81 87 83
REMARK H PARENT 90 85 84 86 52 95 55 97 88 100 53 101 89 103
REMARK Flexibility Score: inf
ROOT
ATOM      1  C   UNL A   1      41.732  27.259  33.922  1.00  0.00    -0.036 C 
ATOM      2  H   UNL A   1      41.604  26.686  33.028  1.00  0.00     0.028 H 
ATOM      3  H   UNL A   1      40.821  27.725  34.238  1.00  0.00     0.028 H 
ENDROOT
BRANCH   1   4
ATOM      4  C   UNL A   1      42.738  28.379  33.643  1.00  0.00     0.018 C 
ATOM      5  H   UNL A   1      42.627  29.145  34.383  1.00  0.00     0.049 H 
ATOM      6  H   UNL A   1      43.727  27.975  33.680  1.00  0.00     0.049 H 
BRANCH   4   7
ATOM      7  N   UNL A   1      42.508  28.946  32.328  1.00  0.00    -0.352 N 
ATOM      8  C   UNL A   1      41.624  29.875  31.844  1.00  0.00     0.251 C 
ATOM      9  O   UNL A   1      41.696  30.154  30.647  1.00  0.00    -0.269 OA
ATOM     10  H   UNL A   1      43.115  28.590  31.639  1.00  0.00     0.163 HD
BRANCH   8  11
ATOM     11  C   UNL A   1      40.638  30.604  32.695  1.00  0.00     0.039 A 
ATOM     12  C   UNL A   1      38.585  31.909  34.116  1.00  0.00     0.053 A 
ATOM     13  C   UNL A   1      38.407  30.592  33.693  1.00  0.00    -0.037 A 
ATOM     14  C   UNL A   1      39.816  32.536  33.903  1.00  0.00    -0.037 A 
ATOM     15  C   UNL A   1      39.416  29.960  32.957  1.00  0.00    -0.047 A 
ATOM     16  H   UNL A   1      37.536  30.087  33.921  1.00  0.00     0.065 H 
ATOM     17  C   UNL A   1      40.854  31.863  33.253  1.00  0.00    -0.047 A 
ATOM     18  H   UNL A   1      39.960  33.506  34.228  1.00  0.00     0.065 H 
ATOM     19  H   UNL A   1      39.259  29.004  32.600  1.00  0.00     0.063 H 
ATOM     20  H   UNL A   1      41.786  32.301  33.186  1.00  0.00     0.063 H 
BRANCH  12  21
ATOM     21  N   UNL A   1      37.544  32.619  34.738  1.00  0.00    -0.242 N 
ATOM     22  C   UNL A   1      36.530  33.319  34.149  1.00  0.00     0.095 A 
ATOM     23  C   UNL A   1      35.882  33.925  35.137  1.00  0.00     0.121 A 
ATOM     24  O   UNL A   1      36.401  33.672  36.405  1.00  0.00    -0.415 OA
ATOM     25  H   UNL A   1      35.063  34.534  34.978  1.00  0.00     0.107 H 
ATOM     26  C   UNL A   1      37.456  32.805  36.115  1.00  0.00     0.424 A 
ATOM     27  O   UNL A   1      38.183  32.342  36.984  1.00  0.00    -0.223 OA
BRANCH  22  28
ATOM     28  C   UNL A   1      36.133  33.229  32.745  1.00  0.00     0.002 A 
ATOM     29  C   UNL A   1      35.308  33.038  30.074  1.00  0.00     0.082 A 
ATOM     30  C   UNL A   1      34.697  32.240  31.040  1.00  0.00    -0.041 A 
ATOM     31  C   UNL A   1      36.321  33.935  30.427  1.00  0.00    -0.041 A 
ATOM     32  C   UNL A   1      35.112  32.338  32.370  1.00  0.00    -0.051 A 
ATOM     33  H   UNL A   1      33.946  31.584  30.776  1.00  0.00     0.064 H 
ATOM     34  C   UNL A   1      36.726  34.034  31.764  1.00  0.00    -0.051 A 
ATOM     35  H   UNL A   1      36.767  34.523  29.706  1.00  0.00     0.064 H 
ATOM     36  H   UNL A   1      34.663  31.747  33.088  1.00  0.00     0.063 H 
ATOM     37  H   UNL A   1      37.466  34.703  32.027  1.00  0.00     0.063 H 
BRANCH  29  38
ATOM     38  S   UNL A   1      34.785  32.918  28.389  1.00  0.00     0.238 S 
ATOM     39  O   UNL A   1      33.577  33.706  28.214  1.00  0.00    -0.207 OA
ATOM     40  O   UNL A   1      34.889  31.549  27.974  1.00  0.00    -0.207 OA
BRANCH  38  41
ATOM     41  N   UNL A   1      35.976  33.767  27.560  1.00  0.00    -0.225 NA
ATOM     42  H   UNL A   1      35.946  34.749  27.833  1.00  0.00     0.137 HD
ATOM     43  H   UNL A   1      35.814  33.688  26.556  1.00  0.00     0.137 HD
ENDBRANCH  38  41
ENDBRANCH  29  38
ENDBRANCH  22  28
ENDBRANCH  12  21
ENDBRANCH   8  11
ENDBRANCH   4   7
ENDBRANCH   1   4
BRANCH   1  44
ATOM     44  C   UNL A   1      42.166  26.311  35.049  1.00  0.00    -0.052 C 
ATOM     45  H   UNL A   1      43.156  25.969  34.826  1.00  0.00     0.027 H 
ATOM     46  H   UNL A   1      41.435  25.532  35.073  1.00  0.00     0.027 H 
BRANCH  44  47
ATOM     47  C   UNL A   1      42.182  26.918  36.461  1.00  0.00    -0.052 C 
ATOM     48  H   UNL A   1      41.309  26.573  36.974  1.00  0.00     0.027 H 
ATOM     49  H   UNL A   1      42.218  27.978  36.315  1.00  0.00     0.027 H 
BRANCH  47  50
ATOM     50  C   UNL A   1      43.401  26.584  37.331  1.00  0.00    -0.036 C 
ATOM     51  H   UNL A   1      43.174  26.845  38.343  1.00  0.00     0.028 H 
ATOM     52  H   UNL A   1      44.225  27.141  36.937  1.00  0.00     0.028 H 
BRANCH  50  53
ATOM     53  C   UNL A   1      43.805  25.117  37.296  1.00  0.00     0.018 C 
ATOM     54  H   UNL A   1      43.483  24.693  36.367  1.00  0.00     0.049 H 
ATOM     55  H   UNL A   1      43.343  24.628  38.128  1.00  0.00     0.049 H 
BRANCH  53  56
ATOM     56  N   UNL A   1      45.251  24.941  37.417  1.00  0.00    -0.352 N 
ATOM     57  C   UNL A   1      46.173  24.646  36.436  1.00  0.00     0.251 C 
ATOM     58  H   UNL A   1      45.616  25.045  38.325  1.00  0.00     0.163 HD
ATOM     59  O   UNL A   1      47.273  24.190  36.724  1.00  0.00    -0.269 OA
BRANCH  57  60
ATOM     60  C   UNL A   1      45.810  24.869  35.026  1.00  0.00     0.039 A 
ATOM     61  C   UNL A   1      45.909  26.139  34.459  1.00  0.00    -0.049 A 
ATOM     62  C   UNL A   1      45.406  23.781  34.260  1.00  0.00    -0.049 A 
ATOM     63  C   UNL A   1      45.687  26.286  33.091  1.00  0.00    -0.053 A 
ATOM     64  H   UNL A   1      46.142  26.958  35.042  1.00  0.00     0.063 H 
ATOM     65  C   UNL A   1      45.334  23.900  32.890  1.00  0.00    -0.053 A 
ATOM     66  H   UNL A   1      45.162  22.887  34.715  1.00  0.00     0.063 H 
ATOM     67  C   UNL A   1      45.429  25.156  32.296  1.00  0.00    -0.014 A 
ATOM     68  H   UNL A   1      45.713  27.224  32.662  1.00  0.00     0.063 H 
ATOM     69  H   UNL A   1      45.209  23.060  32.304  1.00  0.00     0.063 H 
BRANCH  67  70
ATOM     70  C   UNL A   1      45.336  25.292  30.840  1.00  0.00     0.031 A 
ATOM     71  C   UNL A   1      46.340  26.191  30.198  1.00  0.00     0.074 A 
ATOM     72  C   UNL A   1      44.521  24.551  30.059  1.00  0.00     0.049 A 
ATOM     73  N   UNL A   1      46.118  27.277  29.530  1.00  0.00    -0.248 NA
ATOM     74  C   UNL A   1      47.768  25.884  30.374  1.00  0.00    -0.034 C 
ATOM     75  C   UNL A   1      43.665  23.419  30.429  1.00  0.00    -0.036 A 
ATOM     76  N   UNL A   1      44.364  24.615  28.706  1.00  0.00    -0.354 N 
ATOM     77  C   UNL A   1      47.357  27.723  29.074  1.00  0.00     0.074 A 
ATOM     78  C   UNL A   1      48.344  26.890  29.713  1.00  0.00    -0.034 C 
ATOM     79  H   UNL A   1      48.207  25.096  30.875  1.00  0.00     0.065 H 
ATOM     80  C   UNL A   1      43.268  22.767  29.315  1.00  0.00    -0.036 A 
ATOM     81  H   UNL A   1      43.404  23.160  31.394  1.00  0.00     0.065 H 
ATOM     82  C   UNL A   1      43.676  23.542  28.161  1.00  0.00     0.049 A 
ATOM     83  H   UNL A   1      44.709  25.360  28.162  1.00  0.00     0.167 HD
ATOM     84  C   UNL A   1      47.460  28.635  28.066  1.00  0.00     0.037 A 
ATOM     85  H   UNL A   1      49.363  27.051  29.665  1.00  0.00     0.065 H 
ATOM     86  H   UNL A   1      42.760  21.868  29.290  1.00  0.00     0.065 H 
ATOM     87  C   UNL A   1      43.455  23.296  26.850  1.00  0.00     0.037 A 
ATOM     88  C   UNL A   1      46.219  29.334  27.862  1.00  0.00     0.049 A 
ATOM     89  C   UNL A   1      43.592  24.580  26.127  1.00  0.00     0.074 A 
ATOM     90  C   UNL A   1      45.428  30.161  28.635  1.00  0.00    -0.036 A 
ATOM     91  N   UNL A   1      45.430  28.961  26.804  1.00  0.00    -0.354 N 
ATOM     92  N   UNL A   1      42.762  25.578  26.248  1.00  0.00    -0.248 NA
ATOM     93  C   UNL A   1      44.889  24.911  25.559  1.00  0.00    -0.034 C 
ATOM     94  C   UNL A   1      44.087  29.834  28.274  1.00  0.00    -0.036 A 
ATOM     95  H   UNL A   1      45.739  30.864  29.324  1.00  0.00     0.065 H 
ATOM     96  C   UNL A   1      44.146  28.864  27.273  1.00  0.00     0.049 A 
ATOM     97  H   UNL A   1      45.730  28.794  25.880  1.00  0.00     0.167 HD
ATOM     98  C   UNL A   1      43.562  26.707  26.186  1.00  0.00     0.074 A 
ATOM     99  C   UNL A   1      44.833  26.242  25.641  1.00  0.00    -0.034 C 
ATOM    100  H   UNL A   1      45.635  24.295  25.197  1.00  0.00     0.065 H 
ATOM    101  H   UNL A   1      43.229  30.240  28.680  1.00  0.00     0.065 H 
ATOM    102  C   UNL A   1      43.211  27.852  26.840  1.00  0.00     0.037 A 
ATOM    103  H   UNL A   1      45.600  26.869  25.352  1.00  0.00     0.065 H 
BRANCH  84 104
ATOM    104  C   UNL A   1      48.570  28.672  27.040  1.00  0.00     0.064 A 
ATOM    105  C   UNL A   1      48.785  27.548  26.214  1.00  0.00     0.173 A 
ATOM    106  C   UNL A   1      49.610  29.624  27.052  1.00  0.00     0.173 A 
ATOM    107  F   UNL A   1      47.868  26.571  26.133  1.00  0.00    -0.203 F 
ATOM    108  C   UNL A   1      49.988  27.352  25.529  1.00  0.00     0.198 A 
ATOM    109  C   UNL A   1      50.787  29.450  26.325  1.00  0.00     0.198 A 
ATOM    110  F   UNL A   1      49.580  30.699  27.849  1.00  0.00    -0.203 F 
ATOM    111  F   UNL A   1      50.198  26.208  24.865  1.00  0.00    -0.200 F 
ATOM    112  C   UNL A   1      50.992  28.300  25.593  1.00  0.00     0.200 A 
ATOM    113  F   UNL A   1      51.756  30.373  26.412  1.00  0.00    -0.200 F 
ATOM    114  F   UNL A   1      52.171  28.085  24.994  1.00  0.00    -0.200 F 
ENDBRANCH  84 104
BRANCH  87 115
ATOM    115  C   UNL A   1      43.373  21.989  26.165  1.00  0.00     0.064 A 
ATOM    116  C   UNL A   1      44.528  21.341  25.702  1.00  0.00     0.173 A 
ATOM    117  C   UNL A   1      42.192  21.224  26.207  1.00  0.00     0.173 A 
ATOM    118  F   UNL A   1      45.700  21.992  25.668  1.00  0.00    -0.203 F 
ATOM    119  C   UNL A   1      44.508  19.993  25.333  1.00  0.00     0.198 A 
ATOM    120  C   UNL A   1      42.173  19.880  25.834  1.00  0.00     0.198 A 
ATOM    121  F   UNL A   1      41.057  21.737  26.706  1.00  0.00    -0.203 F 
ATOM    122  F   UNL A   1      45.644  19.388  24.960  1.00  0.00    -0.200 F 
ATOM    123  C   UNL A   1      43.335  19.260  25.412  1.00  0.00     0.200 A 
ATOM    124  F   UNL A   1      41.039  19.174  25.950  1.00  0.00    -0.200 F 
ATOM    125  F   UNL A   1      43.332  17.952  25.125  1.00  0.00    -0.200 F 
ENDBRANCH  87 115
BRANCH 102 126
ATOM    126  C   UNL A   1      41.807  27.955  27.367  1.00  0.00     0.064 A 
ATOM    127  C   UNL A   1      41.393  27.449  28.611  1.00  0.00     0.173 A 
ATOM    128  C   UNL A   1      40.878  28.711  26.639  1.00  0.00     0.173 A 
ATOM    129  F   UNL A   1      42.248  26.805  29.414  1.00  0.00    -0.203 F 
ATOM    130  C   UNL A   1      40.095  27.648  29.078  1.00  0.00     0.198 A 
ATOM    131  C   UNL A   1      39.594  28.941  27.124  1.00  0.00     0.198 A 
ATOM    132  F   UNL A   1      41.233  29.268  25.471  1.00  0.00    -0.203 F 
ATOM    133  F   UNL A   1      39.719  27.138  30.261  1.00  0.00    -0.200 F 
ATOM    134  C   UNL A   1      39.198  28.399  28.336  1.00  0.00     0.200 A 
ATOM    135  F   UNL A   1      38.745  29.709  26.427  1.00  0.00    -0.200 F 
ATOM    136  F   UNL A   1      37.961  28.623  28.802  1.00  0.00    -0.200 F 
ENDBRANCH 102 126
ENDBRANCH  67  70
ENDBRANCH  57  60
ENDBRANCH  53  56
ENDBRANCH  50  53
ENDBRANCH  47  50
ENDBRANCH  44  47
ENDBRANCH   1  44
TORSDOF 17
ENDMDL
MODEL 9
REMARK VINA RESULT:     -11.5      3.117      8.798
REMARK SMILES NS(=O)(=O)c1ccc(-c2coc(=O)n2-c2ccc(C(=O)NCCCCCCNC(=O)c3ccc(-c4c5nc(c(-c6c(F)c(F)c(F)c(F)c6F)c6ccc([nH]6)c(-c6c(F)c(F)c(F)c(F)c6F)c6nc(c(-c7c(F)c(F)c(F)c(F)c7F)c7ccc4[nH]7)C=C6)C=C5)cc3)cc2)cc1
REMARK SMILES IDX 23 1 22 4 21 7 19 8 20 9 18 11 15 12 16 13 95 14 17 15 94 17
REMARK SMILES IDX 14 21 9 22 10 23 11 24 12 26 13 27 8 28 5 29 6 30 97 31 7 32
REMARK SMILES IDX 96 34 2 38 3 39 4 40 1 41 24 44 25 47 26 50 27 53 28 56
REMARK SMILES IDX 29 57 30 59 31 60 32 61 93 62 33 63 92 65 34 67 35 70 36 71
REMARK SMILES IDX 86 72 37 73 91 74 85 75 87 76 38 77 90 78 84 80 83 82 39 84
REMARK SMILES IDX 71 87 51 88 70 89 52 90 55 91 69 92 88 93 53 94 54 96 68 98
REMARK SMILES IDX 89 99 56 102 40 104 41 105 49 106 42 107 43 108 47 109
REMARK SMILES IDX 50 110 44 111 45 112 48 113 46 114 72 115 73 116 81 117
REMARK SMILES IDX 74 118 75 119 79 120 82 121 76 122 77 123 80 124 78 125
REMARK SMILES IDX 57 126 58 127 66 128 59 129 60 130 64 131 67 132 61 133
REMARK SMILES IDX 62 134 65 135 63 136
REMARK H PARENT 23 2 23 3 22 5 22 6 21 10 16 16 95 18 17 19 94 20 10 25 6 33
REMARK H PARENT 97 35 7 36 96 37 1 42 1 43 24 45 24 46 25 48 25 49 26 51 26 52
REMARK H PARENT 27 54 27 55 28 58 32 64 93 66 33 68 92 69 91 79 85 81 87 83
REMARK H PARENT 90 85 84 86 52 95 55 97 88 100 53 101 89 103
REMARK Flexibility Score: inf
ROOT
ATOM      1  C   UNL A   1      39.261  23.221  26.431  1.00  0.00    -0.036 C 
ATOM      2  H   UNL A   1      39.629  23.709  27.309  1.00  0.00     0.028 H 
ATOM      3  H   UNL A   1      39.638  23.664  25.533  1.00  0.00     0.028 H 
ENDROOT
BRANCH   1   4
ATOM      4  C   UNL A   1      37.737  23.363  26.399  1.00  0.00     0.018 C 
ATOM      5  H   UNL A   1      37.387  23.635  27.373  1.00  0.00     0.049 H 
ATOM      6  H   UNL A   1      37.472  24.118  25.690  1.00  0.00     0.049 H 
BRANCH   4   7
ATOM      7  N   UNL A   1      37.122  22.109  26.004  1.00  0.00    -0.352 N 
ATOM      8  C   UNL A   1      35.877  21.776  25.538  1.00  0.00     0.251 C 
ATOM      9  O   UNL A   1      35.671  20.590  25.277  1.00  0.00    -0.269 OA
ATOM     10  H   UNL A   1      37.727  21.336  26.088  1.00  0.00     0.163 HD
BRANCH   8  11
ATOM     11  C   UNL A   1      34.798  22.770  25.270  1.00  0.00     0.039 A 
ATOM     12  C   UNL A   1      32.580  24.445  24.810  1.00  0.00     0.053 A 
ATOM     13  C   UNL A   1      32.623  23.651  25.956  1.00  0.00    -0.037 A 
ATOM     14  C   UNL A   1      33.678  24.462  23.946  1.00  0.00    -0.037 A 
ATOM     15  C   UNL A   1      33.711  22.795  26.163  1.00  0.00    -0.047 A 
ATOM     16  H   UNL A   1      31.858  23.695  26.647  1.00  0.00     0.065 H 
ATOM     17  C   UNL A   1      34.803  23.678  24.212  1.00  0.00    -0.047 A 
ATOM     18  H   UNL A   1      33.659  25.061  23.105  1.00  0.00     0.065 H 
ATOM     19  H   UNL A   1      33.715  22.170  26.984  1.00  0.00     0.063 H 
ATOM     20  H   UNL A   1      35.644  23.771  23.620  1.00  0.00     0.063 H 
BRANCH  12  21
ATOM     21  N   UNL A   1      31.444  25.214  24.503  1.00  0.00    -0.242 N 
ATOM     22  C   UNL A   1      31.112  26.454  24.972  1.00  0.00     0.095 A 
ATOM     23  C   UNL A   1      29.894  26.706  24.510  1.00  0.00     0.121 A 
ATOM     24  O   UNL A   1      29.356  25.689  23.724  1.00  0.00    -0.415 OA
ATOM     25  H   UNL A   1      29.387  27.582  24.715  1.00  0.00     0.107 H 
ATOM     26  C   UNL A   1      30.391  24.752  23.718  1.00  0.00     0.424 A 
ATOM     27  O   UNL A   1      30.309  23.686  23.123  1.00  0.00    -0.223 OA
BRANCH  22  28
ATOM     28  C   UNL A   1      32.014  27.376  25.659  1.00  0.00     0.002 A 
ATOM     29  C   UNL A   1      33.758  29.176  26.913  1.00  0.00     0.082 A 
ATOM     30  C   UNL A   1      33.989  28.805  25.590  1.00  0.00    -0.041 A 
ATOM     31  C   UNL A   1      32.662  28.664  27.616  1.00  0.00    -0.041 A 
ATOM     32  C   UNL A   1      33.118  27.908  24.969  1.00  0.00    -0.051 A 
ATOM     33  H   UNL A   1      34.795  29.190  25.073  1.00  0.00     0.064 H 
ATOM     34  C   UNL A   1      31.788  27.771  26.985  1.00  0.00    -0.051 A 
ATOM     35  H   UNL A   1      32.498  28.944  28.595  1.00  0.00     0.064 H 
ATOM     36  H   UNL A   1      33.287  27.631  23.989  1.00  0.00     0.063 H 
ATOM     37  H   UNL A   1      30.974  27.400  27.498  1.00  0.00     0.063 H 
BRANCH  29  38
ATOM     38  S   UNL A   1      34.858  30.313  27.704  1.00  0.00     0.238 S 
ATOM     39  O   UNL A   1      35.127  29.846  29.053  1.00  0.00    -0.207 OA
ATOM     40  O   UNL A   1      34.421  31.647  27.414  1.00  0.00    -0.207 OA
BRANCH  38  41
ATOM     41  N   UNL A   1      36.302  30.086  26.874  1.00  0.00    -0.225 NA
ATOM     42  H   UNL A   1      36.862  30.937  26.927  1.00  0.00     0.137 HD
ATOM     43  H   UNL A   1      36.103  29.869  25.898  1.00  0.00     0.137 HD
ENDBRANCH  38  41
ENDBRANCH  29  38
ENDBRANCH  22  28
ENDBRANCH  12  21
ENDBRANCH   8  11
ENDBRANCH   4   7
ENDBRANCH   1   4
BRANCH   1  44
ATOM     44  C   UNL A   1      39.740  21.762  26.449  1.00  0.00    -0.052 C 
ATOM     45  H   UNL A   1      40.153  21.541  25.487  1.00  0.00     0.027 H 
ATOM     46  H   UNL A   1      38.881  21.176  26.697  1.00  0.00     0.027 H 
BRANCH  44  47
ATOM     47  C   UNL A   1      40.801  21.423  27.509  1.00  0.00    -0.052 C 
ATOM     48  H   UNL A   1      41.698  21.147  26.995  1.00  0.00     0.027 H 
ATOM     49  H   UNL A   1      40.372  20.640  28.100  1.00  0.00     0.027 H 
BRANCH  47  50
ATOM     50  C   UNL A   1      41.152  22.540  28.501  1.00  0.00    -0.036 C 
ATOM     51  H   UNL A   1      41.047  22.153  29.494  1.00  0.00     0.028 H 
ATOM     52  H   UNL A   1      40.483  23.351  28.303  1.00  0.00     0.028 H 
BRANCH  50  53
ATOM     53  C   UNL A   1      42.564  23.085  28.347  1.00  0.00     0.018 C 
ATOM     54  H   UNL A   1      43.232  22.480  28.925  1.00  0.00     0.049 H 
ATOM     55  H   UNL A   1      42.565  24.099  28.688  1.00  0.00     0.049 H 
BRANCH  53  56
ATOM     56  N   UNL A   1      43.008  23.078  26.955  1.00  0.00    -0.352 N 
ATOM     57  C   UNL A   1      42.946  24.089  26.021  1.00  0.00     0.251 C 
ATOM     58  H   UNL A   1      43.405  22.234  26.641  1.00  0.00     0.163 HD
ATOM     59  O   UNL A   1      43.028  23.844  24.823  1.00  0.00    -0.269 OA
BRANCH  57  60
ATOM     60  C   UNL A   1      42.758  25.475  26.481  1.00  0.00     0.039 A 
ATOM     61  C   UNL A   1      41.578  26.164  26.198  1.00  0.00    -0.049 A 
ATOM     62  C   UNL A   1      43.761  26.071  27.237  1.00  0.00    -0.049 A 
ATOM     63  C   UNL A   1      41.380  27.422  26.762  1.00  0.00    -0.053 A 
ATOM     64  H   UNL A   1      40.863  25.749  25.580  1.00  0.00     0.063 H 
ATOM     65  C   UNL A   1      43.503  27.243  27.911  1.00  0.00    -0.053 A 
ATOM     66  H   UNL A   1      44.696  25.636  27.294  1.00  0.00     0.063 H 
ATOM     67  C   UNL A   1      42.333  27.952  27.649  1.00  0.00    -0.014 A 
ATOM     68  H   UNL A   1      40.534  27.965  26.530  1.00  0.00     0.063 H 
ATOM     69  H   UNL A   1      44.175  27.597  28.610  1.00  0.00     0.063 H 
BRANCH  67  70
ATOM     70  C   UNL A   1      42.060  29.209  28.351  1.00  0.00     0.031 A 
ATOM     71  C   UNL A   1      43.062  30.299  28.162  1.00  0.00     0.074 A 
ATOM     72  C   UNL A   1      40.911  29.477  29.008  1.00  0.00     0.049 A 
ATOM     73  N   UNL A   1      43.798  30.863  29.065  1.00  0.00    -0.248 NA
ATOM     74  C   UNL A   1      43.327  30.776  26.796  1.00  0.00    -0.034 C 
ATOM     75  C   UNL A   1      39.682  28.680  29.084  1.00  0.00    -0.036 A 
ATOM     76  N   UNL A   1      40.577  30.609  29.692  1.00  0.00    -0.354 N 
ATOM     77  C   UNL A   1      44.520  31.865  28.418  1.00  0.00     0.074 A 
ATOM     78  C   UNL A   1      44.272  31.695  27.009  1.00  0.00    -0.034 C 
ATOM     79  H   UNL A   1      42.894  30.479  25.907  1.00  0.00     0.065 H 
ATOM     80  C   UNL A   1      38.676  29.441  29.567  1.00  0.00    -0.036 A 
ATOM     81  H   UNL A   1      39.598  27.688  28.811  1.00  0.00     0.065 H 
ATOM     82  C   UNL A   1      39.231  30.704  30.012  1.00  0.00     0.049 A 
ATOM     83  H   UNL A   1      41.233  31.299  29.937  1.00  0.00     0.167 HD
ATOM     84  C   UNL A   1      45.128  32.868  29.113  1.00  0.00     0.037 A 
ATOM     85  H   UNL A   1      44.761  32.215  26.263  1.00  0.00     0.065 H 
ATOM     86  H   UNL A   1      37.681  29.169  29.610  1.00  0.00     0.065 H 
ATOM     87  C   UNL A   1      38.604  31.747  30.600  1.00  0.00     0.037 A 
ATOM     88  C   UNL A   1      45.275  32.528  30.504  1.00  0.00     0.049 A 
ATOM     89  C   UNL A   1      39.631  32.539  31.314  1.00  0.00     0.074 A 
ATOM     90  C   UNL A   1      45.939  31.536  31.200  1.00  0.00    -0.036 A 
ATOM     91  N   UNL A   1      44.399  33.078  31.403  1.00  0.00    -0.354 N 
ATOM     92  N   UNL A   1      40.273  32.119  32.368  1.00  0.00    -0.248 NA
ATOM     93  C   UNL A   1      40.241  33.659  30.615  1.00  0.00    -0.034 C 
ATOM     94  C   UNL A   1      45.086  31.219  32.298  1.00  0.00    -0.036 A 
ATOM     95  H   UNL A   1      46.855  31.116  30.974  1.00  0.00     0.065 H 
ATOM     96  C   UNL A   1      43.980  32.068  32.228  1.00  0.00     0.049 A 
ATOM     97  H   UNL A   1      44.121  34.023  31.448  1.00  0.00     0.167 HD
ATOM     98  C   UNL A   1      41.556  32.617  32.216  1.00  0.00     0.074 A 
ATOM     99  C   UNL A   1      41.444  33.651  31.192  1.00  0.00    -0.034 C 
ATOM    100  H   UNL A   1      39.855  34.279  29.885  1.00  0.00     0.065 H 
ATOM    101  H   UNL A   1      45.254  30.495  33.013  1.00  0.00     0.065 H 
ATOM    102  C   UNL A   1      42.632  31.954  32.734  1.00  0.00     0.037 A 
ATOM    103  H   UNL A   1      42.206  34.301  30.944  1.00  0.00     0.065 H 
BRANCH  84 104
ATOM    104  C   UNL A   1      45.293  34.287  28.622  1.00  0.00     0.064 A 
ATOM    105  C   UNL A   1      44.161  34.997  28.166  1.00  0.00     0.173 A 
ATOM    106  C   UNL A   1      46.539  34.858  28.292  1.00  0.00     0.173 A 
ATOM    107  F   UNL A   1      42.922  34.542  28.411  1.00  0.00    -0.203 F 
ATOM    108  C   UNL A   1      44.275  36.135  27.363  1.00  0.00     0.198 A 
ATOM    109  C   UNL A   1      46.648  36.024  27.534  1.00  0.00     0.198 A 
ATOM    110  F   UNL A   1      47.697  34.255  28.588  1.00  0.00    -0.203 F 
ATOM    111  F   UNL A   1      43.175  36.697  26.843  1.00  0.00    -0.200 F 
ATOM    112  C   UNL A   1      45.520  36.642  27.040  1.00  0.00     0.200 A 
ATOM    113  F   UNL A   1      47.864  36.492  27.218  1.00  0.00    -0.200 F 
ATOM    114  F   UNL A   1      45.635  37.692  26.216  1.00  0.00    -0.200 F 
ENDBRANCH  84 104
BRANCH  87 115
ATOM    115  C   UNL A   1      37.224  32.228  30.379  1.00  0.00     0.064 A 
ATOM    116  C   UNL A   1      36.219  32.006  31.332  1.00  0.00     0.173 A 
ATOM    117  C   UNL A   1      36.937  33.158  29.362  1.00  0.00     0.173 A 
ATOM    118  F   UNL A   1      36.431  31.164  32.354  1.00  0.00    -0.203 F 
ATOM    119  C   UNL A   1      35.008  32.702  31.288  1.00  0.00     0.198 A 
ATOM    120  C   UNL A   1      35.725  33.847  29.316  1.00  0.00     0.198 A 
ATOM    121  F   UNL A   1      37.865  33.489  28.450  1.00  0.00    -0.203 F 
ATOM    122  F   UNL A   1      34.097  32.516  32.254  1.00  0.00    -0.200 F 
ATOM    123  C   UNL A   1      34.766  33.630  30.289  1.00  0.00     0.200 A 
ATOM    124  F   UNL A   1      35.520  34.769  28.364  1.00  0.00    -0.200 F 
ATOM    125  F   UNL A   1      33.635  34.347  30.287  1.00  0.00    -0.200 F 
ENDBRANCH  87 115
BRANCH 102 126
ATOM    126  C   UNL A   1      42.366  30.851  33.720  1.00  0.00     0.064 A 
ATOM    127  C   UNL A   1      42.121  29.515  33.359  1.00  0.00     0.173 A 
ATOM    128  C   UNL A   1      42.495  31.136  35.085  1.00  0.00     0.173 A 
ATOM    129  F   UNL A   1      42.086  29.140  32.075  1.00  0.00    -0.203 F 
ATOM    130  C   UNL A   1      41.962  28.523  34.326  1.00  0.00     0.198 A 
ATOM    131  C   UNL A   1      42.374  30.137  36.047  1.00  0.00     0.198 A 
ATOM    132  F   UNL A   1      42.786  32.383  35.487  1.00  0.00    -0.203 F 
ATOM    133  F   UNL A   1      41.710  27.258  33.956  1.00  0.00    -0.200 F 
ATOM    134  C   UNL A   1      42.094  28.834  35.669  1.00  0.00     0.200 A 
ATOM    135  F   UNL A   1      42.551  30.433  37.342  1.00  0.00    -0.200 F 
ATOM    136  F   UNL A   1      41.979  27.873  36.597  1.00  0.00    -0.200 F 
ENDBRANCH 102 126
ENDBRANCH  67  70
ENDBRANCH  57  60
ENDBRANCH  53  56
ENDBRANCH  50  53
ENDBRANCH  47  50
ENDBRANCH  44  47
ENDBRANCH   1  44
TORSDOF 17
ENDMDL
MODEL 10
REMARK VINA RESULT:     -11.5      5.032     10.484
REMARK SMILES NS(=O)(=O)c1ccc(-c2coc(=O)n2-c2ccc(C(=O)NCCCCCCNC(=O)c3ccc(-c4c5nc(c(-c6c(F)c(F)c(F)c(F)c6F)c6ccc([nH]6)c(-c6c(F)c(F)c(F)c(F)c6F)c6nc(c(-c7c(F)c(F)c(F)c(F)c7F)c7ccc4[nH]7)C=C6)C=C5)cc3)cc2)cc1
REMARK SMILES IDX 23 1 22 4 21 7 19 8 20 9 18 11 15 12 16 13 95 14 17 15 94 17
REMARK SMILES IDX 14 21 9 22 10 23 11 24 12 26 13 27 8 28 5 29 6 30 97 31 7 32
REMARK SMILES IDX 96 34 2 38 3 39 4 40 1 41 24 44 25 47 26 50 27 53 28 56
REMARK SMILES IDX 29 57 30 59 31 60 32 61 93 62 33 63 92 65 34 67 35 70 36 71
REMARK SMILES IDX 86 72 37 73 91 74 85 75 87 76 38 77 90 78 84 80 83 82 39 84
REMARK SMILES IDX 71 87 51 88 70 89 52 90 55 91 69 92 88 93 53 94 54 96 68 98
REMARK SMILES IDX 89 99 56 102 40 104 41 105 49 106 42 107 43 108 47 109
REMARK SMILES IDX 50 110 44 111 45 112 48 113 46 114 72 115 73 116 81 117
REMARK SMILES IDX 74 118 75 119 79 120 82 121 76 122 77 123 80 124 78 125
REMARK SMILES IDX 57 126 58 127 66 128 59 129 60 130 64 131 67 132 61 133
REMARK SMILES IDX 62 134 65 135 63 136
REMARK H PARENT 23 2 23 3 22 5 22 6 21 10 16 16 95 18 17 19 94 20 10 25 6 33
REMARK H PARENT 97 35 7 36 96 37 1 42 1 43 24 45 24 46 25 48 25 49 26 51 26 52
REMARK H PARENT 27 54 27 55 28 58 32 64 93 66 33 68 92 69 91 79 85 81 87 83
REMARK H PARENT 90 85 84 86 52 95 55 97 88 100 53 101 89 103
REMARK Flexibility Score: inf
ROOT
ATOM      1  C   UNL A   1      40.210  20.618  26.431  1.00  0.00    -0.036 C 
ATOM      2  H   UNL A   1      40.836  20.328  25.613  1.00  0.00     0.028 H 
ATOM      3  H   UNL A   1      39.854  19.775  26.987  1.00  0.00     0.028 H 
ENDROOT
BRANCH   1   4
ATOM      4  C   UNL A   1      38.981  21.340  25.871  1.00  0.00     0.018 C 
ATOM      5  H   UNL A   1      38.946  21.205  24.810  1.00  0.00     0.049 H 
ATOM      6  H   UNL A   1      38.102  20.932  26.322  1.00  0.00     0.049 H 
BRANCH   4   7
ATOM      7  N   UNL A   1      39.051  22.758  26.171  1.00  0.00    -0.352 N 
ATOM      8  C   UNL A   1      38.146  23.784  26.088  1.00  0.00     0.251 C 
ATOM      9  O   UNL A   1      38.526  24.902  26.438  1.00  0.00    -0.269 OA
ATOM     10  H   UNL A   1      39.933  23.042  26.504  1.00  0.00     0.163 HD
BRANCH   8  11
ATOM     11  C   UNL A   1      36.726  23.606  25.666  1.00  0.00     0.039 A 
ATOM     12  C   UNL A   1      34.094  23.458  24.674  1.00  0.00     0.053 A 
ATOM     13  C   UNL A   1      35.172  23.362  23.795  1.00  0.00    -0.037 A 
ATOM     14  C   UNL A   1      34.335  23.541  26.048  1.00  0.00    -0.037 A 
ATOM     15  C   UNL A   1      36.478  23.471  24.288  1.00  0.00    -0.047 A 
ATOM     16  H   UNL A   1      35.009  23.211  22.787  1.00  0.00     0.065 H 
ATOM     17  C   UNL A   1      35.642  23.551  26.541  1.00  0.00    -0.047 A 
ATOM     18  H   UNL A   1      33.540  23.596  26.705  1.00  0.00     0.065 H 
ATOM     19  H   UNL A   1      37.272  23.453  23.629  1.00  0.00     0.063 H 
ATOM     20  H   UNL A   1      35.806  23.516  27.560  1.00  0.00     0.063 H 
BRANCH  12  21
ATOM     21  N   UNL A   1      32.771  23.488  24.199  1.00  0.00    -0.242 N 
ATOM     22  C   UNL A   1      32.006  22.442  23.766  1.00  0.00     0.095 A 
ATOM     23  C   UNL A   1      30.889  22.978  23.291  1.00  0.00     0.121 A 
ATOM     24  O   UNL A   1      30.835  24.368  23.380  1.00  0.00    -0.415 OA
ATOM     25  H   UNL A   1      30.124  22.413  22.889  1.00  0.00     0.107 H 
ATOM     26  C   UNL A   1      32.054  24.663  23.994  1.00  0.00     0.424 A 
ATOM     27  O   UNL A   1      32.399  25.809  24.253  1.00  0.00    -0.223 OA
BRANCH  22  28
ATOM     28  C   UNL A   1      32.292  21.026  23.987  1.00  0.00     0.002 A 
ATOM     29  C   UNL A   1      32.862  18.305  24.344  1.00  0.00     0.082 A 
ATOM     30  C   UNL A   1      32.540  18.778  23.073  1.00  0.00    -0.041 A 
ATOM     31  C   UNL A   1      32.910  19.176  25.437  1.00  0.00    -0.041 A 
ATOM     32  C   UNL A   1      32.256  20.135  22.900  1.00  0.00    -0.051 A 
ATOM     33  H   UNL A   1      32.512  18.133  22.268  1.00  0.00     0.064 H 
ATOM     34  C   UNL A   1      32.632  20.536  25.255  1.00  0.00    -0.051 A 
ATOM     35  H   UNL A   1      33.151  18.818  26.375  1.00  0.00     0.064 H 
ATOM     36  H   UNL A   1      32.015  20.487  21.960  1.00  0.00     0.063 H 
ATOM     37  H   UNL A   1      32.677  21.182  26.059  1.00  0.00     0.063 H 
BRANCH  29  38
ATOM     38  S   UNL A   1      33.224  16.589  24.569  1.00  0.00     0.238 S 
ATOM     39  O   UNL A   1      33.731  16.048  23.320  1.00  0.00    -0.207 OA
ATOM     40  O   UNL A   1      32.147  15.987  25.298  1.00  0.00    -0.207 OA
BRANCH  38  41
ATOM     41  N   UNL A   1      34.553  16.611  25.599  1.00  0.00    -0.225 NA
ATOM     42  H   UNL A   1      35.031  17.508  25.516  1.00  0.00     0.137 HD
ATOM     43  H   UNL A   1      35.193  15.859  25.345  1.00  0.00     0.137 HD
ENDBRANCH  38  41
ENDBRANCH  29  38
ENDBRANCH  22  28
ENDBRANCH  12  21
ENDBRANCH   8  11
ENDBRANCH   4   7
ENDBRANCH   1   4
BRANCH   1  44
ATOM     44  C   UNL A   1      41.038  21.476  27.397  1.00  0.00    -0.052 C 
ATOM     45  H   UNL A   1      41.367  20.846  28.197  1.00  0.00     0.027 H 
ATOM     46  H   UNL A   1      40.393  22.270  27.708  1.00  0.00     0.027 H 
BRANCH  44  47
ATOM     47  C   UNL A   1      42.277  22.154  26.790  1.00  0.00    -0.052 C 
ATOM     48  H   UNL A   1      42.969  22.343  27.585  1.00  0.00     0.027 H 
ATOM     49  H   UNL A   1      41.911  23.036  26.305  1.00  0.00     0.027 H 
BRANCH  47  50
ATOM     50  C   UNL A   1      43.018  21.367  25.700  1.00  0.00    -0.036 C 
ATOM     51  H   UNL A   1      43.467  22.066  25.026  1.00  0.00     0.028 H 
ATOM     52  H   UNL A   1      42.293  20.742  25.223  1.00  0.00     0.028 H 
BRANCH  50  53
ATOM     53  C   UNL A   1      44.109  20.449  26.232  1.00  0.00     0.018 C 
ATOM     54  H   UNL A   1      43.738  19.445  26.246  1.00  0.00     0.049 H 
ATOM     55  H   UNL A   1      44.369  20.781  27.215  1.00  0.00     0.049 H 
BRANCH  53  56
ATOM     56  N   UNL A   1      45.315  20.492  25.408  1.00  0.00    -0.352 N 
ATOM     57  C   UNL A   1      45.962  21.586  24.876  1.00  0.00     0.251 C 
ATOM     58  H   UNL A   1      45.721  19.619  25.204  1.00  0.00     0.163 HD
ATOM     59  O   UNL A   1      46.739  21.462  23.937  1.00  0.00    -0.269 OA
BRANCH  57  60
ATOM     60  C   UNL A   1      45.691  22.919  25.439  1.00  0.00     0.039 A 
ATOM     61  C   UNL A   1      44.921  23.845  24.735  1.00  0.00    -0.049 A 
ATOM     62  C   UNL A   1      46.182  23.224  26.704  1.00  0.00    -0.049 A 
ATOM     63  C   UNL A   1      44.572  25.043  25.355  1.00  0.00    -0.053 A 
ATOM     64  H   UNL A   1      44.614  23.647  23.770  1.00  0.00     0.063 H 
ATOM     65  C   UNL A   1      45.716  24.336  27.368  1.00  0.00    -0.053 A 
ATOM     66  H   UNL A   1      46.893  22.618  27.144  1.00  0.00     0.063 H 
ATOM     67  C   UNL A   1      44.945  25.277  26.690  1.00  0.00    -0.014 A 
ATOM     68  H   UNL A   1      44.041  25.758  24.835  1.00  0.00     0.063 H 
ATOM     69  H   UNL A   1      45.938  24.473  28.366  1.00  0.00     0.063 H 
BRANCH  67  70
ATOM     70  C   UNL A   1      44.460  26.472  27.386  1.00  0.00     0.031 A 
ATOM     71  C   UNL A   1      45.271  27.713  27.205  1.00  0.00     0.074 A 
ATOM     72  C   UNL A   1      43.276  26.547  28.030  1.00  0.00     0.049 A 
ATOM     73  N   UNL A   1      45.893  28.391  28.114  1.00  0.00    -0.248 NA
ATOM     74  C   UNL A   1      45.468  28.226  25.841  1.00  0.00    -0.034 C 
ATOM     75  C   UNL A   1      42.194  25.558  28.095  1.00  0.00    -0.036 A 
ATOM     76  N   UNL A   1      42.751  27.609  28.707  1.00  0.00    -0.354 N 
ATOM     77  C   UNL A   1      46.447  29.498  27.473  1.00  0.00     0.074 A 
ATOM     78  C   UNL A   1      46.246  29.289  26.062  1.00  0.00    -0.034 C 
ATOM     79  H   UNL A   1      45.100  27.862  24.948  1.00  0.00     0.065 H 
ATOM     80  C   UNL A   1      41.072  26.143  28.565  1.00  0.00    -0.036 A 
ATOM     81  H   UNL A   1      42.279  24.565  27.823  1.00  0.00     0.065 H 
ATOM     82  C   UNL A   1      41.406  27.480  29.013  1.00  0.00     0.049 A 
ATOM     83  H   UNL A   1      43.282  28.398  28.958  1.00  0.00     0.167 HD
ATOM     84  C   UNL A   1      46.873  30.588  28.173  1.00  0.00     0.037 A 
ATOM     85  H   UNL A   1      46.650  29.882  25.320  1.00  0.00     0.065 H 
ATOM     86  H   UNL A   1      40.135  25.710  28.598  1.00  0.00     0.065 H 
ATOM     87  C   UNL A   1      40.608  28.406  29.591  1.00  0.00     0.037 A 
ATOM     88  C   UNL A   1      47.059  30.278  29.566  1.00  0.00     0.049 A 
ATOM     89  C   UNL A   1      41.482  29.356  30.315  1.00  0.00     0.074 A 
ATOM     90  C   UNL A   1      47.870  29.410  30.271  1.00  0.00    -0.036 A 
ATOM     91  N   UNL A   1      46.094  30.676  30.454  1.00  0.00    -0.354 N 
ATOM     92  N   UNL A   1      42.173  29.048  31.376  1.00  0.00    -0.248 NA
ATOM     93  C   UNL A   1      41.906  30.561  29.620  1.00  0.00    -0.034 C 
ATOM     94  C   UNL A   1      47.069  28.957  31.361  1.00  0.00    -0.036 A 
ATOM     95  H   UNL A   1      48.845  29.146  30.056  1.00  0.00     0.065 H 
ATOM     96  C   UNL A   1      45.839  29.611  31.277  1.00  0.00     0.049 A 
ATOM     97  H   UNL A   1      45.664  31.562  30.494  1.00  0.00     0.167 HD
ATOM     98  C   UNL A   1      43.358  29.752  31.238  1.00  0.00     0.074 A 
ATOM     99  C   UNL A   1      43.088  30.752  30.210  1.00  0.00    -0.034 C 
ATOM    100  H   UNL A   1      41.431  31.109  28.885  1.00  0.00     0.065 H 
ATOM    101  H   UNL A   1      47.347  28.270  32.079  1.00  0.00     0.065 H 
ATOM    102  C   UNL A   1      44.523  29.276  31.769  1.00  0.00     0.037 A 
ATOM    103  H   UNL A   1      43.735  31.519  29.969  1.00  0.00     0.065 H 
BRANCH  84 104
ATOM    104  C   UNL A   1      46.806  32.015  27.681  1.00  0.00     0.064 A 
ATOM    105  C   UNL A   1      45.553  32.576  27.353  1.00  0.00     0.173 A 
ATOM    106  C   UNL A   1      47.930  32.736  27.226  1.00  0.00     0.173 A 
ATOM    107  F   UNL A   1      44.413  31.971  27.723  1.00  0.00    -0.203 F 
ATOM    108  C   UNL A   1      45.438  33.716  26.553  1.00  0.00     0.198 A 
ATOM    109  C   UNL A   1      47.811  33.903  26.472  1.00  0.00     0.198 A 
ATOM    110  F   UNL A   1      49.178  32.284  27.392  1.00  0.00    -0.203 F 
ATOM    111  F   UNL A   1      44.228  34.134  26.157  1.00  0.00    -0.200 F 
ATOM    112  C   UNL A   1      46.568  34.374  26.105  1.00  0.00     0.200 A 
ATOM    113  F   UNL A   1      48.919  34.519  26.033  1.00  0.00    -0.200 F 
ATOM    114  F   UNL A   1      46.463  35.426  25.283  1.00  0.00    -0.200 F 
ENDBRANCH  84 104
BRANCH  87 115
ATOM    115  C   UNL A   1      39.171  28.652  29.355  1.00  0.00     0.064 A 
ATOM    116  C   UNL A   1      38.260  28.708  30.421  1.00  0.00     0.173 A 
ATOM    117  C   UNL A   1      38.712  29.117  28.108  1.00  0.00     0.173 A 
ATOM    118  F   UNL A   1      38.634  28.319  31.649  1.00  0.00    -0.203 F 
ATOM    119  C   UNL A   1      36.975  29.232  30.255  1.00  0.00     0.198 A 
ATOM    120  C   UNL A   1      37.428  29.634  27.942  1.00  0.00     0.198 A 
ATOM    121  F   UNL A   1      39.535  29.170  27.049  1.00  0.00    -0.203 F 
ATOM    122  F   UNL A   1      36.155  29.333  31.311  1.00  0.00    -0.200 F 
ATOM    123  C   UNL A   1      36.564  29.706  29.020  1.00  0.00     0.200 A 
ATOM    124  F   UNL A   1      37.057  30.123  26.750  1.00  0.00    -0.200 F 
ATOM    125  F   UNL A   1      35.358  30.272  28.878  1.00  0.00    -0.200 F 
ENDBRANCH  87 115
BRANCH 102 126
ATOM    126  C   UNL A   1      44.432  28.145  32.754  1.00  0.00     0.064 A 
ATOM    127  C   UNL A   1      44.196  28.316  34.129  1.00  0.00     0.173 A 
ATOM    128  C   UNL A   1      44.455  26.833  32.263  1.00  0.00     0.173 A 
ATOM    129  F   UNL A   1      44.057  29.536  34.661  1.00  0.00    -0.203 F 
ATOM    130  C   UNL A   1      44.042  27.221  34.978  1.00  0.00     0.198 A 
ATOM    131  C   UNL A   1      44.263  25.742  33.106  1.00  0.00     0.198 A 
ATOM    132  F   UNL A   1      44.618  26.610  30.950  1.00  0.00    -0.203 F 
ATOM    133  F   UNL A   1      43.837  27.410  36.291  1.00  0.00    -0.200 F 
ATOM    134  C   UNL A   1      44.070  25.935  34.464  1.00  0.00     0.200 A 
ATOM    135  F   UNL A   1      44.241  24.502  32.597  1.00  0.00    -0.200 F 
ATOM    136  F   UNL A   1      43.884  24.882  35.274  1.00  0.00    -0.200 F 
ENDBRANCH 102 126
ENDBRANCH  67  70
ENDBRANCH  57  60
ENDBRANCH  53  56
ENDBRANCH  50  53
ENDBRANCH  47  50
ENDBRANCH  44  47
ENDBRANCH   1  44
TORSDOF 17
ENDMDL
