MODEL 1
REMARK VINA RESULT:     -12.3      0.000      0.000
REMARK SMILES NS(=O)(=O)c1ccc(/N=N/c2ccc(O)c(C(=O)NCCCCCCNC(=O)c3ccc(-c4c5nc(c(-c6c(F)c(F)c(F)c(F)c6F)c6ccc([nH]6)c(-c6c(F)c(F)c(F)c(F)c6F)c6nc(c(-c7c(F)c(F)c(F)c(F)c7F)c7ccc4[nH]7)C=C6)C=C5)cc3)c2)cc1
REMARK SMILES IDX 21 1 20 4 19 7 17 8 18 9 16 11 11 12 12 13 92 14 13 15 14 18
REMARK SMILES IDX 10 20 9 21 8 22 5 23 6 24 94 25 7 26 93 28 2 32 3 33 4 34
REMARK SMILES IDX 1 35 15 38 22 40 23 43 24 46 25 49 26 52 27 53 28 55 29 56
REMARK SMILES IDX 30 57 91 58 31 59 90 61 32 63 33 66 34 67 84 68 35 69 89 70
REMARK SMILES IDX 83 71 85 72 36 73 88 74 82 76 81 78 37 80 69 83 49 84 68 85
REMARK SMILES IDX 50 86 53 87 67 88 86 89 51 90 52 92 66 94 87 95 54 98 38 100
REMARK SMILES IDX 39 101 47 102 40 103 41 104 45 105 48 106 42 107 43 108
REMARK SMILES IDX 46 109 44 110 70 111 71 112 79 113 72 114 73 115 77 116
REMARK SMILES IDX 80 117 74 118 75 119 78 120 76 121 55 122 56 123 64 124
REMARK SMILES IDX 57 125 58 126 62 127 65 128 59 129 60 130 63 131 61 132
REMARK H PARENT 21 2 21 3 20 5 20 6 19 10 12 16 92 17 13 19 6 27 94 29 7 30
REMARK H PARENT 93 31 1 36 1 37 15 39 22 41 22 42 23 44 23 45 24 47 24 48
REMARK H PARENT 25 50 25 51 26 54 30 60 91 62 31 64 90 65 89 75 83 77 85 79
REMARK H PARENT 88 81 82 82 50 91 53 93 86 96 51 97 87 99
REMARK Flexibility Score: inf
ROOT
ATOM      1  C   UNL A   1      35.291  31.198  27.765  1.00  0.00    -0.036 C 
ATOM      2  H   UNL A   1      35.339  31.717  26.831  1.00  0.00     0.028 H 
ATOM      3  H   UNL A   1      36.226  31.114  28.280  1.00  0.00     0.028 H 
ENDROOT
BRANCH   1   4
ATOM      4  C   UNL A   1      34.864  29.763  27.475  1.00  0.00     0.018 C 
ATOM      5  H   UNL A   1      34.999  29.579  26.429  1.00  0.00     0.049 H 
ATOM      6  H   UNL A   1      35.471  29.133  28.091  1.00  0.00     0.049 H 
BRANCH   4   7
ATOM      7  N   UNL A   1      33.482  29.469  27.813  1.00  0.00    -0.352 N 
ATOM      8  C   UNL A   1      32.576  28.623  27.214  1.00  0.00     0.255 C 
ATOM      9  O   UNL A   1      31.415  28.597  27.624  1.00  0.00    -0.269 OA
ATOM     10  H   UNL A   1      33.138  29.950  28.599  1.00  0.00     0.163 HD
BRANCH   8  11
ATOM     11  C   UNL A   1      32.917  27.797  26.027  1.00  0.00     0.083 A 
ATOM     12  C   UNL A   1      33.537  25.647  25.056  1.00  0.00     0.087 A 
ATOM     13  C   UNL A   1      33.880  26.298  23.866  1.00  0.00    -0.031 A 
ATOM     14  C   UNL A   1      32.962  26.403  26.089  1.00  0.00    -0.018 A 
ATOM     15  C   UNL A   1      33.702  27.679  23.735  1.00  0.00    -0.017 A 
ATOM     16  H   UNL A   1      34.268  25.755  23.080  1.00  0.00     0.065 H 
ATOM     17  H   UNL A   1      32.566  25.919  26.910  1.00  0.00     0.066 H 
ATOM     18  C   UNL A   1      33.237  28.424  24.816  1.00  0.00     0.128 A 
ATOM     19  H   UNL A   1      33.914  28.144  22.838  1.00  0.00     0.066 H 
BRANCH  12  20
ATOM     20  N   UNL A   1      33.846  24.274  25.212  1.00  0.00    -0.151 NA
ATOM     21  N   UNL A   1      33.265  23.608  24.323  1.00  0.00    -0.151 NA
BRANCH  21  22
ATOM     22  C   UNL A   1      33.340  22.223  24.527  1.00  0.00     0.086 A 
ATOM     23  C   UNL A   1      33.660  19.440  24.637  1.00  0.00     0.082 A 
ATOM     24  C   UNL A   1      34.721  20.272  25.001  1.00  0.00    -0.040 A 
ATOM     25  C   UNL A   1      32.439  19.984  24.225  1.00  0.00    -0.040 A 
ATOM     26  C   UNL A   1      34.556  21.659  24.939  1.00  0.00    -0.033 A 
ATOM     27  H   UNL A   1      35.618  19.867  25.311  1.00  0.00     0.064 H 
ATOM     28  C   UNL A   1      32.285  21.372  24.173  1.00  0.00    -0.033 A 
ATOM     29  H   UNL A   1      31.658  19.365  23.961  1.00  0.00     0.064 H 
ATOM     30  H   UNL A   1      35.341  22.277  25.201  1.00  0.00     0.065 H 
ATOM     31  H   UNL A   1      31.384  21.775  23.871  1.00  0.00     0.065 H 
BRANCH  23  32
ATOM     32  S   UNL A   1      33.836  17.678  24.617  1.00  0.00     0.238 S 
ATOM     33  O   UNL A   1      35.246  17.368  24.615  1.00  0.00    -0.207 OA
ATOM     34  O   UNL A   1      32.912  17.145  23.645  1.00  0.00    -0.207 OA
BRANCH  32  35
ATOM     35  N   UNL A   1      33.275  17.177  26.120  1.00  0.00    -0.225 NA
ATOM     36  H   UNL A   1      34.061  17.091  26.764  1.00  0.00     0.137 HD
ATOM     37  H   UNL A   1      32.812  16.273  26.027  1.00  0.00     0.137 HD
ENDBRANCH  32  35
ENDBRANCH  23  32
ENDBRANCH  21  22
ENDBRANCH  12  20
BRANCH  18  38
ATOM     38  O   UNL A   1      33.130  29.776  24.625  1.00  0.00    -0.507 OA
ATOM     39  H   UNL A   1      32.963  30.116  23.768  1.00  0.00     0.293 HD
ENDBRANCH  18  38
ENDBRANCH   8  11
ENDBRANCH   4   7
ENDBRANCH   1   4
BRANCH   1  40
ATOM     40  C   UNL A   1      34.392  32.009  28.699  1.00  0.00    -0.052 C 
ATOM     41  H   UNL A   1      34.587  31.684  29.699  1.00  0.00     0.027 H 
ATOM     42  H   UNL A   1      33.396  31.830  28.356  1.00  0.00     0.027 H 
BRANCH  40  43
ATOM     43  C   UNL A   1      34.560  33.530  28.666  1.00  0.00    -0.052 C 
ATOM     44  H   UNL A   1      35.045  33.784  27.746  1.00  0.00     0.027 H 
ATOM     45  H   UNL A   1      35.119  33.773  29.544  1.00  0.00     0.027 H 
BRANCH  43  46
ATOM     46  C   UNL A   1      33.279  34.361  28.759  1.00  0.00    -0.036 C 
ATOM     47  H   UNL A   1      32.650  33.912  29.499  1.00  0.00     0.028 H 
ATOM     48  H   UNL A   1      32.862  34.361  27.774  1.00  0.00     0.028 H 
BRANCH  46  49
ATOM     49  C   UNL A   1      33.464  35.827  29.130  1.00  0.00     0.018 C 
ATOM     50  H   UNL A   1      33.243  36.426  28.271  1.00  0.00     0.049 H 
ATOM     51  H   UNL A   1      34.476  35.949  29.454  1.00  0.00     0.049 H 
BRANCH  49  52
ATOM     52  N   UNL A   1      32.604  36.251  30.222  1.00  0.00    -0.352 N 
ATOM     53  C   UNL A   1      32.678  35.935  31.557  1.00  0.00     0.251 C 
ATOM     54  H   UNL A   1      31.866  36.851  29.969  1.00  0.00     0.163 HD
ATOM     55  O   UNL A   1      31.788  36.279  32.327  1.00  0.00    -0.269 OA
BRANCH  53  56
ATOM     56  C   UNL A   1      33.825  35.150  32.066  1.00  0.00     0.039 A 
ATOM     57  C   UNL A   1      33.612  33.833  32.484  1.00  0.00    -0.049 A 
ATOM     58  C   UNL A   1      35.103  35.710  32.133  1.00  0.00    -0.049 A 
ATOM     59  C   UNL A   1      34.692  33.056  32.912  1.00  0.00    -0.053 A 
ATOM     60  H   UNL A   1      32.659  33.435  32.478  1.00  0.00     0.063 H 
ATOM     61  C   UNL A   1      36.188  34.915  32.492  1.00  0.00    -0.053 A 
ATOM     62  H   UNL A   1      35.243  36.709  31.917  1.00  0.00     0.063 H 
ATOM     63  C   UNL A   1      35.993  33.582  32.891  1.00  0.00    -0.014 A 
ATOM     64  H   UNL A   1      34.533  32.093  33.246  1.00  0.00     0.063 H 
ATOM     65  H   UNL A   1      37.141  35.308  32.466  1.00  0.00     0.063 H 
BRANCH  63  66
ATOM     66  C   UNL A   1      37.170  32.777  33.308  1.00  0.00     0.031 A 
ATOM     67  C   UNL A   1      37.847  33.078  34.615  1.00  0.00     0.074 A 
ATOM     68  C   UNL A   1      37.679  31.844  32.480  1.00  0.00     0.049 A 
ATOM     69  N   UNL A   1      38.968  32.604  35.098  1.00  0.00    -0.248 NA
ATOM     70  C   UNL A   1      37.192  34.070  35.481  1.00  0.00    -0.034 C 
ATOM     71  C   UNL A   1      37.128  31.478  31.176  1.00  0.00    -0.036 A 
ATOM     72  N   UNL A   1      38.789  31.046  32.609  1.00  0.00    -0.354 N 
ATOM     73  C   UNL A   1      39.163  33.258  36.307  1.00  0.00     0.074 A 
ATOM     74  C   UNL A   1      38.073  34.197  36.462  1.00  0.00    -0.034 C 
ATOM     75  H   UNL A   1      36.284  34.545  35.356  1.00  0.00     0.065 H 
ATOM     76  C   UNL A   1      37.894  30.518  30.630  1.00  0.00    -0.036 A 
ATOM     77  H   UNL A   1      36.287  31.889  30.744  1.00  0.00     0.065 H 
ATOM     78  C   UNL A   1      39.012  30.234  31.524  1.00  0.00     0.049 A 
ATOM     79  H   UNL A   1      39.370  31.055  33.405  1.00  0.00     0.167 HD
ATOM     80  C   UNL A   1      40.151  33.078  37.215  1.00  0.00     0.037 A 
ATOM     81  H   UNL A   1      37.992  34.875  37.236  1.00  0.00     0.065 H 
ATOM     82  H   UNL A   1      37.719  30.057  29.723  1.00  0.00     0.065 H 
ATOM     83  C   UNL A   1      40.015  29.369  31.274  1.00  0.00     0.037 A 
ATOM     84  C   UNL A   1      41.214  32.120  37.073  1.00  0.00     0.049 A 
ATOM     85  C   UNL A   1      41.106  29.190  32.295  1.00  0.00     0.074 A 
ATOM     86  C   UNL A   1      42.237  31.826  37.957  1.00  0.00    -0.036 A 
ATOM     87  N   UNL A   1      41.385  31.291  35.974  1.00  0.00    -0.354 N 
ATOM     88  N   UNL A   1      41.261  29.790  33.450  1.00  0.00    -0.248 NA
ATOM     89  C   UNL A   1      42.160  28.216  31.980  1.00  0.00    -0.034 C 
ATOM     90  C   UNL A   1      43.053  30.853  37.374  1.00  0.00    -0.036 A 
ATOM     91  H   UNL A   1      42.374  32.254  38.887  1.00  0.00     0.065 H 
ATOM     92  C   UNL A   1      42.508  30.500  36.150  1.00  0.00     0.049 A 
ATOM     93  H   UNL A   1      40.796  31.268  35.185  1.00  0.00     0.167 HD
ATOM     94  C   UNL A   1      42.401  29.235  34.018  1.00  0.00     0.074 A 
ATOM     95  C   UNL A   1      42.902  28.255  33.078  1.00  0.00    -0.034 C 
ATOM     96  H   UNL A   1      42.289  27.649  31.127  1.00  0.00     0.065 H 
ATOM     97  H   UNL A   1      43.916  30.463  37.785  1.00  0.00     0.065 H 
ATOM     98  C   UNL A   1      42.977  29.512  35.213  1.00  0.00     0.037 A 
ATOM     99  H   UNL A   1      43.731  27.663  33.242  1.00  0.00     0.065 H 
BRANCH  80 100
ATOM    100  C   UNL A   1      40.133  33.941  38.444  1.00  0.00     0.064 A 
ATOM    101  C   UNL A   1      40.830  35.158  38.501  1.00  0.00     0.173 A 
ATOM    102  C   UNL A   1      39.383  33.563  39.569  1.00  0.00     0.173 A 
ATOM    103  F   UNL A   1      41.571  35.561  37.458  1.00  0.00    -0.203 F 
ATOM    104  C   UNL A   1      40.801  35.948  39.648  1.00  0.00     0.198 A 
ATOM    105  C   UNL A   1      39.330  34.371  40.701  1.00  0.00     0.198 A 
ATOM    106  F   UNL A   1      38.693  32.413  39.565  1.00  0.00    -0.203 F 
ATOM    107  F   UNL A   1      41.517  37.080  39.696  1.00  0.00    -0.200 F 
ATOM    108  C   UNL A   1      40.047  35.558  40.744  1.00  0.00     0.200 A 
ATOM    109  F   UNL A   1      38.589  33.999  41.753  1.00  0.00    -0.200 F 
ATOM    110  F   UNL A   1      40.015  36.322  41.843  1.00  0.00    -0.200 F 
ENDBRANCH  80 100
BRANCH  83 111
ATOM    111  C   UNL A   1      40.026  28.593  30.006  1.00  0.00     0.064 A 
ATOM    112  C   UNL A   1      40.630  29.110  28.851  1.00  0.00     0.173 A 
ATOM    113  C   UNL A   1      39.431  27.326  29.919  1.00  0.00     0.173 A 
ATOM    114  F   UNL A   1      41.193  30.328  28.879  1.00  0.00    -0.203 F 
ATOM    115  C   UNL A   1      40.622  28.400  27.653  1.00  0.00     0.198 A 
ATOM    116  C   UNL A   1      39.450  26.603  28.728  1.00  0.00     0.198 A 
ATOM    117  F   UNL A   1      38.838  26.788  30.996  1.00  0.00    -0.203 F 
ATOM    118  F   UNL A   1      41.166  28.938  26.553  1.00  0.00    -0.200 F 
ATOM    119  C   UNL A   1      40.037  27.143  27.594  1.00  0.00     0.200 A 
ATOM    120  F   UNL A   1      38.896  25.384  28.680  1.00  0.00    -0.200 F 
ATOM    121  F   UNL A   1      40.034  26.457  26.444  1.00  0.00    -0.200 F 
ENDBRANCH  83 111
BRANCH  98 122
ATOM    122  C   UNL A   1      44.182  28.708  35.607  1.00  0.00     0.064 A 
ATOM    123  C   UNL A   1      45.484  29.126  35.296  1.00  0.00     0.173 A 
ATOM    124  C   UNL A   1      44.030  27.540  36.371  1.00  0.00     0.173 A 
ATOM    125  F   UNL A   1      45.679  30.228  34.556  1.00  0.00    -0.203 F 
ATOM    126  C   UNL A   1      46.589  28.396  35.725  1.00  0.00     0.198 A 
ATOM    127  C   UNL A   1      45.138  26.829  36.821  1.00  0.00     0.198 A 
ATOM    128  F   UNL A   1      42.804  27.102  36.698  1.00  0.00    -0.203 F 
ATOM    129  F   UNL A   1      47.823  28.795  35.388  1.00  0.00    -0.200 F 
ATOM    130  C   UNL A   1      46.416  27.255  36.495  1.00  0.00     0.200 A 
ATOM    131  F   UNL A   1      44.968  25.734  37.576  1.00  0.00    -0.200 F 
ATOM    132  F   UNL A   1      47.483  26.565  36.920  1.00  0.00    -0.200 F 
ENDBRANCH  98 122
ENDBRANCH  63  66
ENDBRANCH  53  56
ENDBRANCH  49  52
ENDBRANCH  46  49
ENDBRANCH  43  46
ENDBRANCH  40  43
ENDBRANCH   1  40
TORSDOF 18
ENDMDL
MODEL 2
REMARK VINA RESULT:     -12.2      2.517      7.776
REMARK SMILES NS(=O)(=O)c1ccc(/N=N/c2ccc(O)c(C(=O)NCCCCCCNC(=O)c3ccc(-c4c5nc(c(-c6c(F)c(F)c(F)c(F)c6F)c6ccc([nH]6)c(-c6c(F)c(F)c(F)c(F)c6F)c6nc(c(-c7c(F)c(F)c(F)c(F)c7F)c7ccc4[nH]7)C=C6)C=C5)cc3)c2)cc1
REMARK SMILES IDX 21 1 20 4 19 7 17 8 18 9 16 11 11 12 12 13 92 14 13 15 14 18
REMARK SMILES IDX 10 20 9 21 8 22 5 23 6 24 94 25 7 26 93 28 2 32 3 33 4 34
REMARK SMILES IDX 1 35 15 38 22 40 23 43 24 46 25 49 26 52 27 53 28 55 29 56
REMARK SMILES IDX 30 57 91 58 31 59 90 61 32 63 33 66 34 67 84 68 35 69 89 70
REMARK SMILES IDX 83 71 85 72 36 73 88 74 82 76 81 78 37 80 69 83 49 84 68 85
REMARK SMILES IDX 50 86 53 87 67 88 86 89 51 90 52 92 66 94 87 95 54 98 38 100
REMARK SMILES IDX 39 101 47 102 40 103 41 104 45 105 48 106 42 107 43 108
REMARK SMILES IDX 46 109 44 110 70 111 71 112 79 113 72 114 73 115 77 116
REMARK SMILES IDX 80 117 74 118 75 119 78 120 76 121 55 122 56 123 64 124
REMARK SMILES IDX 57 125 58 126 62 127 65 128 59 129 60 130 63 131 61 132
REMARK H PARENT 21 2 21 3 20 5 20 6 19 10 12 16 92 17 13 19 6 27 94 29 7 30
REMARK H PARENT 93 31 1 36 1 37 15 39 22 41 22 42 23 44 23 45 24 47 24 48
REMARK H PARENT 25 50 25 51 26 54 30 60 91 62 31 64 90 65 89 75 83 77 85 79
REMARK H PARENT 88 81 82 82 50 91 53 93 86 96 51 97 87 99
REMARK Flexibility Score: inf
ROOT
ATOM      1  C   UNL A   1      32.608  27.897  26.676  1.00  0.00    -0.036 C 
ATOM      2  H   UNL A   1      33.402  28.213  26.033  1.00  0.00     0.028 H 
ATOM      3  H   UNL A   1      32.928  27.439  27.590  1.00  0.00     0.028 H 
ENDROOT
BRANCH   1   4
ATOM      4  C   UNL A   1      31.821  26.817  25.942  1.00  0.00     0.018 C 
ATOM      5  H   UNL A   1      30.939  27.266  25.533  1.00  0.00     0.049 H 
ATOM      6  H   UNL A   1      32.473  26.420  25.192  1.00  0.00     0.049 H 
BRANCH   4   7
ATOM      7  N   UNL A   1      31.417  25.698  26.776  1.00  0.00    -0.352 N 
ATOM      8  C   UNL A   1      31.521  24.341  26.562  1.00  0.00     0.255 C 
ATOM      9  O   UNL A   1      31.025  23.564  27.379  1.00  0.00    -0.269 OA
ATOM     10  H   UNL A   1      31.004  25.949  27.633  1.00  0.00     0.163 HD
BRANCH   8  11
ATOM     11  C   UNL A   1      32.134  23.770  25.336  1.00  0.00     0.083 A 
ATOM     12  C   UNL A   1      34.076  22.870  24.166  1.00  0.00     0.087 A 
ATOM     13  C   UNL A   1      33.392  23.003  22.953  1.00  0.00    -0.031 A 
ATOM     14  C   UNL A   1      33.392  23.164  25.356  1.00  0.00    -0.018 A 
ATOM     15  C   UNL A   1      32.074  23.470  22.929  1.00  0.00    -0.017 A 
ATOM     16  H   UNL A   1      33.862  22.754  22.070  1.00  0.00     0.065 H 
ATOM     17  H   UNL A   1      33.827  22.929  26.261  1.00  0.00     0.066 H 
ATOM     18  C   UNL A   1      31.456  23.865  24.114  1.00  0.00     0.128 A 
ATOM     19  H   UNL A   1      31.559  23.521  22.035  1.00  0.00     0.066 H 
BRANCH  12  20
ATOM     20  N   UNL A   1      35.448  22.519  24.155  1.00  0.00    -0.151 NA
ATOM     21  N   UNL A   1      35.636  21.532  24.904  1.00  0.00    -0.151 NA
BRANCH  21  22
ATOM     22  C   UNL A   1      36.993  21.250  25.122  1.00  0.00     0.086 A 
ATOM     23  C   UNL A   1      39.603  20.529  25.847  1.00  0.00     0.082 A 
ATOM     24  C   UNL A   1      38.767  19.585  25.246  1.00  0.00    -0.040 A 
ATOM     25  C   UNL A   1      39.149  21.831  26.084  1.00  0.00    -0.040 A 
ATOM     26  C   UNL A   1      37.465  19.951  24.891  1.00  0.00    -0.033 A 
ATOM     27  H   UNL A   1      39.107  18.628  25.067  1.00  0.00     0.064 H 
ATOM     28  C   UNL A   1      37.848  22.186  25.719  1.00  0.00    -0.033 A 
ATOM     29  H   UNL A   1      39.772  22.525  26.525  1.00  0.00     0.064 H 
ATOM     30  H   UNL A   1      36.843  19.253  24.452  1.00  0.00     0.065 H 
ATOM     31  H   UNL A   1      37.512  23.147  25.893  1.00  0.00     0.065 H 
BRANCH  23  32
ATOM     32  S   UNL A   1      41.233  20.102  26.392  1.00  0.00     0.238 S 
ATOM     33  O   UNL A   1      42.044  21.295  26.356  1.00  0.00    -0.207 OA
ATOM     34  O   UNL A   1      41.614  18.870  25.745  1.00  0.00    -0.207 OA
BRANCH  32  35
ATOM     35  N   UNL A   1      41.054  19.738  28.023  1.00  0.00    -0.225 NA
ATOM     36  H   UNL A   1      40.749  20.572  28.526  1.00  0.00     0.137 HD
ATOM     37  H   UNL A   1      41.946  19.421  28.401  1.00  0.00     0.137 HD
ENDBRANCH  32  35
ENDBRANCH  23  32
ENDBRANCH  21  22
ENDBRANCH  12  20
BRANCH  18  38
ATOM     38  O   UNL A   1      30.180  24.353  24.004  1.00  0.00    -0.507 OA
ATOM     39  H   UNL A   1      29.806  24.847  24.707  1.00  0.00     0.293 HD
ENDBRANCH  18  38
ENDBRANCH   8  11
ENDBRANCH   4   7
ENDBRANCH   1   4
BRANCH   1  40
ATOM     40  C   UNL A   1      31.834  29.144  27.103  1.00  0.00    -0.052 C 
ATOM     41  H   UNL A   1      32.231  29.466  28.043  1.00  0.00     0.027 H 
ATOM     42  H   UNL A   1      30.808  28.844  27.129  1.00  0.00     0.027 H 
BRANCH  40  43
ATOM     43  C   UNL A   1      31.878  30.341  26.149  1.00  0.00    -0.052 C 
ATOM     44  H   UNL A   1      31.151  30.172  25.382  1.00  0.00     0.027 H 
ATOM     45  H   UNL A   1      32.887  30.389  25.801  1.00  0.00     0.027 H 
BRANCH  43  46
ATOM     46  C   UNL A   1      31.594  31.713  26.761  1.00  0.00    -0.036 C 
ATOM     47  H   UNL A   1      30.982  31.567  27.627  1.00  0.00     0.028 H 
ATOM     48  H   UNL A   1      31.125  32.284  25.988  1.00  0.00     0.028 H 
BRANCH  46  49
ATOM     49  C   UNL A   1      32.817  32.517  27.185  1.00  0.00     0.018 C 
ATOM     50  H   UNL A   1      33.505  32.547  26.366  1.00  0.00     0.049 H 
ATOM     51  H   UNL A   1      33.236  32.034  28.043  1.00  0.00     0.049 H 
BRANCH  49  52
ATOM     52  N   UNL A   1      32.497  33.882  27.569  1.00  0.00    -0.352 N 
ATOM     53  C   UNL A   1      33.059  34.660  28.551  1.00  0.00     0.251 C 
ATOM     54  H   UNL A   1      31.776  34.308  27.052  1.00  0.00     0.163 HD
ATOM     55  O   UNL A   1      32.578  35.754  28.830  1.00  0.00    -0.269 OA
BRANCH  53  56
ATOM     56  C   UNL A   1      34.237  34.166  29.299  1.00  0.00     0.039 A 
ATOM     57  C   UNL A   1      34.036  33.436  30.474  1.00  0.00    -0.049 A 
ATOM     58  C   UNL A   1      35.533  34.425  28.846  1.00  0.00    -0.049 A 
ATOM     59  C   UNL A   1      35.133  32.910  31.162  1.00  0.00    -0.053 A 
ATOM     60  H   UNL A   1      33.080  33.285  30.833  1.00  0.00     0.063 H 
ATOM     61  C   UNL A   1      36.620  33.842  29.493  1.00  0.00    -0.053 A 
ATOM     62  H   UNL A   1      35.684  35.044  28.036  1.00  0.00     0.063 H 
ATOM     63  C   UNL A   1      36.432  33.084  30.660  1.00  0.00    -0.014 A 
ATOM     64  H   UNL A   1      34.988  32.392  32.043  1.00  0.00     0.063 H 
ATOM     65  H   UNL A   1      37.570  33.969  29.111  1.00  0.00     0.063 H 
BRANCH  63  66
ATOM     66  C   UNL A   1      37.620  32.514  31.345  1.00  0.00     0.031 A 
ATOM     67  C   UNL A   1      38.359  31.368  30.715  1.00  0.00     0.074 A 
ATOM     68  C   UNL A   1      37.978  32.962  32.564  1.00  0.00     0.049 A 
ATOM     69  N   UNL A   1      39.321  30.628  31.208  1.00  0.00    -0.248 NA
ATOM     70  C   UNL A   1      37.938  30.980  29.360  1.00  0.00    -0.034 C 
ATOM     71  C   UNL A   1      37.326  34.050  33.291  1.00  0.00    -0.036 A 
ATOM     72  N   UNL A   1      38.972  32.542  33.414  1.00  0.00    -0.354 N 
ATOM     73  C   UNL A   1      39.599  29.676  30.236  1.00  0.00     0.074 A 
ATOM     74  C   UNL A   1      38.674  29.899  29.147  1.00  0.00    -0.034 C 
ATOM     75  H   UNL A   1      37.248  31.431  28.738  1.00  0.00     0.065 H 
ATOM     76  C   UNL A   1      37.943  34.222  34.471  1.00  0.00    -0.036 A 
ATOM     77  H   UNL A   1      36.521  34.599  32.952  1.00  0.00     0.065 H 
ATOM     78  C   UNL A   1      39.005  33.229  34.603  1.00  0.00     0.049 A 
ATOM     79  H   UNL A   1      39.601  31.818  33.192  1.00  0.00     0.167 HD
ATOM     80  C   UNL A   1      40.553  28.715  30.244  1.00  0.00     0.037 A 
ATOM     81  H   UNL A   1      38.597  29.296  28.312  1.00  0.00     0.065 H 
ATOM     82  H   UNL A   1      37.704  34.941  35.173  1.00  0.00     0.065 H 
ATOM     83  C   UNL A   1      39.794  33.064  35.683  1.00  0.00     0.037 A 
ATOM     84  C   UNL A   1      41.494  28.519  31.314  1.00  0.00     0.049 A 
ATOM     85  C   UNL A   1      40.844  31.985  35.671  1.00  0.00     0.074 A 
ATOM     86  C   UNL A   1      42.529  27.605  31.398  1.00  0.00    -0.036 A 
ATOM     87  N   UNL A   1      41.516  29.258  32.487  1.00  0.00    -0.354 N 
ATOM     88  N   UNL A   1      41.119  31.113  34.733  1.00  0.00    -0.248 NA
ATOM     89  C   UNL A   1      41.691  31.867  36.866  1.00  0.00    -0.034 C 
ATOM     90  C   UNL A   1      43.149  27.761  32.641  1.00  0.00    -0.036 A 
ATOM     91  H   UNL A   1      42.796  26.925  30.668  1.00  0.00     0.065 H 
ATOM     92  C   UNL A   1      42.536  28.808  33.309  1.00  0.00     0.049 A 
ATOM     93  H   UNL A   1      40.899  29.994  32.705  1.00  0.00     0.167 HD
ATOM     94  C   UNL A   1      42.197  30.374  35.203  1.00  0.00     0.074 A 
ATOM     95  C   UNL A   1      42.522  30.896  36.514  1.00  0.00    -0.034 C 
ATOM     96  H   UNL A   1      41.650  32.400  37.749  1.00  0.00     0.065 H 
ATOM     97  H   UNL A   1      43.932  27.191  33.000  1.00  0.00     0.065 H 
ATOM     98  C   UNL A   1      42.860  29.357  34.600  1.00  0.00     0.037 A 
ATOM     99  H   UNL A   1      43.302  30.556  37.099  1.00  0.00     0.065 H 
BRANCH  80 100
ATOM    100  C   UNL A   1      40.625  27.796  29.058  1.00  0.00     0.064 A 
ATOM    101  C   UNL A   1      39.794  26.670  28.947  1.00  0.00     0.173 A 
ATOM    102  C   UNL A   1      41.513  28.061  28.004  1.00  0.00     0.173 A 
ATOM    103  F   UNL A   1      38.936  26.365  29.931  1.00  0.00    -0.203 F 
ATOM    104  C   UNL A   1      39.872  25.829  27.839  1.00  0.00     0.198 A 
ATOM    105  C   UNL A   1      41.564  27.237  26.884  1.00  0.00     0.198 A 
ATOM    106  F   UNL A   1      42.325  29.128  28.057  1.00  0.00    -0.203 F 
ATOM    107  F   UNL A   1      39.105  24.731  27.781  1.00  0.00    -0.200 F 
ATOM    108  C   UNL A   1      40.751  26.116  26.806  1.00  0.00     0.200 A 
ATOM    109  F   UNL A   1      42.405  27.523  25.880  1.00  0.00    -0.200 F 
ATOM    110  F   UNL A   1      40.820  25.309  25.739  1.00  0.00    -0.200 F 
ENDBRANCH  80 100
BRANCH  83 111
ATOM    111  C   UNL A   1      39.632  33.953  36.864  1.00  0.00     0.064 A 
ATOM    112  C   UNL A   1      40.277  35.197  36.920  1.00  0.00     0.173 A 
ATOM    113  C   UNL A   1      38.839  33.578  37.958  1.00  0.00     0.173 A 
ATOM    114  F   UNL A   1      41.063  35.589  35.907  1.00  0.00    -0.203 F 
ATOM    115  C   UNL A   1      40.150  36.024  38.033  1.00  0.00     0.198 A 
ATOM    116  C   UNL A   1      38.689  34.421  39.058  1.00  0.00     0.198 A 
ATOM    117  F   UNL A   1      38.203  32.397  37.953  1.00  0.00    -0.203 F 
ATOM    118  F   UNL A   1      40.814  37.188  38.080  1.00  0.00    -0.200 F 
ATOM    119  C   UNL A   1      39.351  35.638  39.099  1.00  0.00     0.200 A 
ATOM    120  F   UNL A   1      37.905  34.049  40.079  1.00  0.00    -0.200 F 
ATOM    121  F   UNL A   1      39.225  36.436  40.168  1.00  0.00    -0.200 F 
ENDBRANCH  83 111
BRANCH  98 122
ATOM    122  C   UNL A   1      44.041  28.774  35.319  1.00  0.00     0.064 A 
ATOM    123  C   UNL A   1      45.339  29.272  35.136  1.00  0.00     0.173 A 
ATOM    124  C   UNL A   1      43.856  27.749  36.260  1.00  0.00     0.173 A 
ATOM    125  F   UNL A   1      45.568  30.241  34.237  1.00  0.00    -0.203 F 
ATOM    126  C   UNL A   1      46.410  28.756  35.860  1.00  0.00     0.198 A 
ATOM    127  C   UNL A   1      44.925  27.255  37.002  1.00  0.00     0.198 A 
ATOM    128  F   UNL A   1      42.632  27.242  36.475  1.00  0.00    -0.203 F 
ATOM    129  F   UNL A   1      47.648  29.223  35.645  1.00  0.00    -0.200 F 
ATOM    130  C   UNL A   1      46.201  27.756  36.799  1.00  0.00     0.200 A 
ATOM    131  F   UNL A   1      44.717  26.298  37.918  1.00  0.00    -0.200 F 
ATOM    132  F   UNL A   1      47.232  27.273  37.506  1.00  0.00    -0.200 F 
ENDBRANCH  98 122
ENDBRANCH  63  66
ENDBRANCH  53  56
ENDBRANCH  49  52
ENDBRANCH  46  49
ENDBRANCH  43  46
ENDBRANCH  40  43
ENDBRANCH   1  40
TORSDOF 18
ENDMDL
MODEL 3
REMARK VINA RESULT:     -12.1      2.544      7.859
REMARK SMILES NS(=O)(=O)c1ccc(/N=N/c2ccc(O)c(C(=O)NCCCCCCNC(=O)c3ccc(-c4c5nc(c(-c6c(F)c(F)c(F)c(F)c6F)c6ccc([nH]6)c(-c6c(F)c(F)c(F)c(F)c6F)c6nc(c(-c7c(F)c(F)c(F)c(F)c7F)c7ccc4[nH]7)C=C6)C=C5)cc3)c2)cc1
REMARK SMILES IDX 21 1 20 4 19 7 17 8 18 9 16 11 11 12 12 13 92 14 13 15 14 18
REMARK SMILES IDX 10 20 9 21 8 22 5 23 6 24 94 25 7 26 93 28 2 32 3 33 4 34
REMARK SMILES IDX 1 35 15 38 22 40 23 43 24 46 25 49 26 52 27 53 28 55 29 56
REMARK SMILES IDX 30 57 91 58 31 59 90 61 32 63 33 66 34 67 84 68 35 69 89 70
REMARK SMILES IDX 83 71 85 72 36 73 88 74 82 76 81 78 37 80 69 83 49 84 68 85
REMARK SMILES IDX 50 86 53 87 67 88 86 89 51 90 52 92 66 94 87 95 54 98 38 100
REMARK SMILES IDX 39 101 47 102 40 103 41 104 45 105 48 106 42 107 43 108
REMARK SMILES IDX 46 109 44 110 70 111 71 112 79 113 72 114 73 115 77 116
REMARK SMILES IDX 80 117 74 118 75 119 78 120 76 121 55 122 56 123 64 124
REMARK SMILES IDX 57 125 58 126 62 127 65 128 59 129 60 130 63 131 61 132
REMARK H PARENT 21 2 21 3 20 5 20 6 19 10 12 16 92 17 13 19 6 27 94 29 7 30
REMARK H PARENT 93 31 1 36 1 37 15 39 22 41 22 42 23 44 23 45 24 47 24 48
REMARK H PARENT 25 50 25 51 26 54 30 60 91 62 31 64 90 65 89 75 83 77 85 79
REMARK H PARENT 88 81 82 82 50 91 53 93 86 96 51 97 87 99
REMARK Flexibility Score: inf
ROOT
ATOM      1  C   UNL A   1      32.835  28.102  26.743  1.00  0.00    -0.036 C 
ATOM      2  H   UNL A   1      33.667  28.542  26.233  1.00  0.00     0.028 H 
ATOM      3  H   UNL A   1      33.064  27.698  27.708  1.00  0.00     0.028 H 
ENDROOT
BRANCH   1   4
ATOM      4  C   UNL A   1      32.361  26.915  25.913  1.00  0.00     0.018 C 
ATOM      5  H   UNL A   1      31.734  27.284  25.128  1.00  0.00     0.049 H 
ATOM      6  H   UNL A   1      33.241  26.426  25.549  1.00  0.00     0.049 H 
BRANCH   4   7
ATOM      7  N   UNL A   1      31.613  25.920  26.663  1.00  0.00    -0.352 N 
ATOM      8  C   UNL A   1      31.474  24.565  26.458  1.00  0.00     0.255 C 
ATOM      9  O   UNL A   1      30.709  23.924  27.179  1.00  0.00    -0.269 OA
ATOM     10  H   UNL A   1      31.128  26.270  27.444  1.00  0.00     0.163 HD
BRANCH   8  11
ATOM     11  C   UNL A   1      32.147  23.852  25.342  1.00  0.00     0.083 A 
ATOM     12  C   UNL A   1      34.169  22.936  24.332  1.00  0.00     0.087 A 
ATOM     13  C   UNL A   1      33.490  22.810  23.116  1.00  0.00    -0.031 A 
ATOM     14  C   UNL A   1      33.450  23.366  25.458  1.00  0.00    -0.018 A 
ATOM     15  C   UNL A   1      32.138  23.155  23.018  1.00  0.00    -0.017 A 
ATOM     16  H   UNL A   1      33.989  22.459  22.285  1.00  0.00     0.065 H 
ATOM     17  H   UNL A   1      33.893  23.321  26.389  1.00  0.00     0.066 H 
ATOM     18  C   UNL A   1      31.477  23.687  24.123  1.00  0.00     0.128 A 
ATOM     19  H   UNL A   1      31.631  23.014  22.129  1.00  0.00     0.066 H 
BRANCH  12  20
ATOM     20  N   UNL A   1      35.565  22.705  24.376  1.00  0.00    -0.151 NA
ATOM     21  N   UNL A   1      35.786  21.527  24.745  1.00  0.00    -0.151 NA
BRANCH  21  22
ATOM     22  C   UNL A   1      37.137  21.275  25.022  1.00  0.00     0.086 A 
ATOM     23  C   UNL A   1      39.729  20.638  25.877  1.00  0.00     0.082 A 
ATOM     24  C   UNL A   1      38.916  19.640  25.335  1.00  0.00    -0.040 A 
ATOM     25  C   UNL A   1      39.263  21.951  25.991  1.00  0.00    -0.040 A 
ATOM     26  C   UNL A   1      37.622  19.965  24.914  1.00  0.00    -0.033 A 
ATOM     27  H   UNL A   1      39.266  18.674  25.246  1.00  0.00     0.064 H 
ATOM     28  C   UNL A   1      37.970  22.264  25.562  1.00  0.00    -0.033 A 
ATOM     29  H   UNL A   1      39.869  22.685  26.389  1.00  0.00     0.064 H 
ATOM     30  H   UNL A   1      37.016  19.228  24.519  1.00  0.00     0.065 H 
ATOM     31  H   UNL A   1      37.625  23.234  25.645  1.00  0.00     0.065 H 
BRANCH  23  32
ATOM     32  S   UNL A   1      41.346  20.270  26.500  1.00  0.00     0.238 S 
ATOM     33  O   UNL A   1      41.962  21.511  26.906  1.00  0.00    -0.207 OA
ATOM     34  O   UNL A   1      41.974  19.337  25.597  1.00  0.00    -0.207 OA
BRANCH  32  35
ATOM     35  N   UNL A   1      41.069  19.426  27.927  1.00  0.00    -0.225 NA
ATOM     36  H   UNL A   1      41.624  18.570  27.928  1.00  0.00     0.137 HD
ATOM     37  H   UNL A   1      40.079  19.190  27.996  1.00  0.00     0.137 HD
ENDBRANCH  32  35
ENDBRANCH  23  32
ENDBRANCH  21  22
ENDBRANCH  12  20
BRANCH  18  38
ATOM     38  O   UNL A   1      30.166  24.042  23.937  1.00  0.00    -0.507 OA
ATOM     39  H   UNL A   1      29.536  23.872  24.609  1.00  0.00     0.293 HD
ENDBRANCH  18  38
ENDBRANCH   8  11
ENDBRANCH   4   7
ENDBRANCH   1   4
BRANCH   1  40
ATOM     40  C   UNL A   1      31.816  29.211  27.006  1.00  0.00    -0.052 C 
ATOM     41  H   UNL A   1      31.985  29.578  27.996  1.00  0.00     0.027 H 
ATOM     42  H   UNL A   1      30.860  28.757  26.853  1.00  0.00     0.027 H 
BRANCH  40  43
ATOM     43  C   UNL A   1      31.845  30.412  26.056  1.00  0.00    -0.052 C 
ATOM     44  H   UNL A   1      31.116  30.239  25.291  1.00  0.00     0.027 H 
ATOM     45  H   UNL A   1      32.853  30.470  25.704  1.00  0.00     0.027 H 
BRANCH  43  46
ATOM     46  C   UNL A   1      31.552  31.779  26.675  1.00  0.00    -0.036 C 
ATOM     47  H   UNL A   1      30.807  31.644  27.431  1.00  0.00     0.028 H 
ATOM     48  H   UNL A   1      31.241  32.404  25.864  1.00  0.00     0.028 H 
BRANCH  46  49
ATOM     49  C   UNL A   1      32.740  32.489  27.311  1.00  0.00     0.018 C 
ATOM     50  H   UNL A   1      33.560  32.464  26.623  1.00  0.00     0.049 H 
ATOM     51  H   UNL A   1      32.967  31.978  28.224  1.00  0.00     0.049 H 
BRANCH  49  52
ATOM     52  N   UNL A   1      32.463  33.875  27.648  1.00  0.00    -0.352 N 
ATOM     53  C   UNL A   1      33.069  34.678  28.584  1.00  0.00     0.251 C 
ATOM     54  H   UNL A   1      31.739  34.298  27.132  1.00  0.00     0.163 HD
ATOM     55  O   UNL A   1      32.621  35.793  28.830  1.00  0.00    -0.269 OA
BRANCH  53  56
ATOM     56  C   UNL A   1      34.254  34.185  29.321  1.00  0.00     0.039 A 
ATOM     57  C   UNL A   1      34.067  33.532  30.544  1.00  0.00    -0.049 A 
ATOM     58  C   UNL A   1      35.541  34.367  28.812  1.00  0.00    -0.049 A 
ATOM     59  C   UNL A   1      35.168  33.008  31.227  1.00  0.00    -0.053 A 
ATOM     60  H   UNL A   1      33.119  33.439  30.942  1.00  0.00     0.063 H 
ATOM     61  C   UNL A   1      36.629  33.783  29.457  1.00  0.00    -0.053 A 
ATOM     62  H   UNL A   1      35.687  34.932  27.962  1.00  0.00     0.063 H 
ATOM     63  C   UNL A   1      36.454  33.103  30.673  1.00  0.00    -0.014 A 
ATOM     64  H   UNL A   1      35.035  32.548  32.141  1.00  0.00     0.063 H 
ATOM     65  H   UNL A   1      37.569  33.852  29.038  1.00  0.00     0.063 H 
BRANCH  63  66
ATOM     66  C   UNL A   1      37.644  32.529  31.353  1.00  0.00     0.031 A 
ATOM     67  C   UNL A   1      38.377  31.381  30.719  1.00  0.00     0.074 A 
ATOM     68  C   UNL A   1      38.009  32.977  32.570  1.00  0.00     0.049 A 
ATOM     69  N   UNL A   1      39.340  30.640  31.208  1.00  0.00    -0.248 NA
ATOM     70  C   UNL A   1      37.949  30.994  29.367  1.00  0.00    -0.034 C 
ATOM     71  C   UNL A   1      37.363  34.067  33.299  1.00  0.00    -0.036 A 
ATOM     72  N   UNL A   1      39.006  32.555  33.415  1.00  0.00    -0.354 N 
ATOM     73  C   UNL A   1      39.611  29.687  30.234  1.00  0.00     0.074 A 
ATOM     74  C   UNL A   1      38.680  29.912  29.149  1.00  0.00    -0.034 C 
ATOM     75  H   UNL A   1      37.257  31.447  28.748  1.00  0.00     0.065 H 
ATOM     76  C   UNL A   1      37.987  34.237  34.477  1.00  0.00    -0.036 A 
ATOM     77  H   UNL A   1      36.558  34.618  32.964  1.00  0.00     0.065 H 
ATOM     78  C   UNL A   1      39.047  33.242  34.604  1.00  0.00     0.049 A 
ATOM     79  H   UNL A   1      39.632  31.829  33.190  1.00  0.00     0.167 HD
ATOM     80  C   UNL A   1      40.562  28.723  30.238  1.00  0.00     0.037 A 
ATOM     81  H   UNL A   1      38.598  29.309  28.316  1.00  0.00     0.065 H 
ATOM     82  H   UNL A   1      37.753  34.957  35.179  1.00  0.00     0.065 H 
ATOM     83  C   UNL A   1      39.840  33.074  35.680  1.00  0.00     0.037 A 
ATOM     84  C   UNL A   1      41.507  28.526  31.303  1.00  0.00     0.049 A 
ATOM     85  C   UNL A   1      40.887  31.993  35.663  1.00  0.00     0.074 A 
ATOM     86  C   UNL A   1      42.541  27.608  31.382  1.00  0.00    -0.036 A 
ATOM     87  N   UNL A   1      41.538  29.265  32.476  1.00  0.00    -0.354 N 
ATOM     88  N   UNL A   1      41.156  31.120  34.724  1.00  0.00    -0.248 NA
ATOM     89  C   UNL A   1      41.740  31.873  36.854  1.00  0.00    -0.034 C 
ATOM     90  C   UNL A   1      43.168  27.763  32.622  1.00  0.00    -0.036 A 
ATOM     91  H   UNL A   1      42.803  26.928  30.651  1.00  0.00     0.065 H 
ATOM     92  C   UNL A   1      42.560  28.811  33.293  1.00  0.00     0.049 A 
ATOM     93  H   UNL A   1      40.923  30.002  32.697  1.00  0.00     0.167 HD
ATOM     94  C   UNL A   1      42.234  30.379  35.188  1.00  0.00     0.074 A 
ATOM     95  C   UNL A   1      42.567  30.900  36.498  1.00  0.00    -0.034 C 
ATOM     96  H   UNL A   1      41.705  32.407  37.737  1.00  0.00     0.065 H 
ATOM     97  H   UNL A   1      43.950  27.191  32.978  1.00  0.00     0.065 H 
ATOM     98  C   UNL A   1      42.892  29.360  34.583  1.00  0.00     0.037 A 
ATOM     99  H   UNL A   1      43.348  30.558  37.079  1.00  0.00     0.065 H 
BRANCH  80 100
ATOM    100  C   UNL A   1      40.626  27.804  29.052  1.00  0.00     0.064 A 
ATOM    101  C   UNL A   1      41.519  28.028  27.993  1.00  0.00     0.173 A 
ATOM    102  C   UNL A   1      39.805  26.667  28.988  1.00  0.00     0.173 A 
ATOM    103  F   UNL A   1      42.316  29.106  27.998  1.00  0.00    -0.203 F 
ATOM    104  C   UNL A   1      41.566  27.164  26.901  1.00  0.00     0.198 A 
ATOM    105  C   UNL A   1      39.879  25.789  27.911  1.00  0.00     0.198 A 
ATOM    106  F   UNL A   1      38.939  26.402  29.977  1.00  0.00    -0.203 F 
ATOM    107  F   UNL A   1      42.390  27.428  25.877  1.00  0.00    -0.200 F 
ATOM    108  C   UNL A   1      40.752  26.042  26.863  1.00  0.00     0.200 A 
ATOM    109  F   UNL A   1      39.102  24.697  27.884  1.00  0.00    -0.200 F 
ATOM    110  F   UNL A   1      40.804  25.209  25.816  1.00  0.00    -0.200 F 
ENDBRANCH  80 100
BRANCH  83 111
ATOM    111  C   UNL A   1      39.686  33.965  36.861  1.00  0.00     0.064 A 
ATOM    112  C   UNL A   1      38.890  33.582  37.951  1.00  0.00     0.173 A 
ATOM    113  C   UNL A   1      40.321  35.213  36.923  1.00  0.00     0.173 A 
ATOM    114  F   UNL A   1      38.244  32.407  37.927  1.00  0.00    -0.203 F 
ATOM    115  C   UNL A   1      38.721  34.422  39.049  1.00  0.00     0.198 A 
ATOM    116  C   UNL A   1      40.176  36.039  38.036  1.00  0.00     0.198 A 
ATOM    117  F   UNL A   1      41.092  35.625  35.906  1.00  0.00    -0.203 F 
ATOM    118  F   UNL A   1      37.918  34.051  40.056  1.00  0.00    -0.200 F 
ATOM    119  C   UNL A   1      39.369  35.648  39.094  1.00  0.00     0.200 A 
ATOM    120  F   UNL A   1      40.815  37.216  38.080  1.00  0.00    -0.200 F 
ATOM    121  F   UNL A   1      39.211  36.453  40.152  1.00  0.00    -0.200 F 
ENDBRANCH  83 111
BRANCH  98 122
ATOM    122  C   UNL A   1      44.075  28.774  35.296  1.00  0.00     0.064 A 
ATOM    123  C   UNL A   1      43.943  27.704  36.193  1.00  0.00     0.173 A 
ATOM    124  C   UNL A   1      45.368  29.245  35.019  1.00  0.00     0.173 A 
ATOM    125  F   UNL A   1      42.727  27.230  36.501  1.00  0.00    -0.203 F 
ATOM    126  C   UNL A   1      45.062  27.137  36.796  1.00  0.00     0.198 A 
ATOM    127  C   UNL A   1      46.486  28.657  35.603  1.00  0.00     0.198 A 
ATOM    128  F   UNL A   1      45.547  30.264  34.164  1.00  0.00    -0.203 F 
ATOM    129  F   UNL A   1      44.911  26.137  37.676  1.00  0.00    -0.200 F 
ATOM    130  C   UNL A   1      46.332  27.606  36.493  1.00  0.00     0.200 A 
ATOM    131  F   UNL A   1      47.712  29.104  35.298  1.00  0.00    -0.200 F 
ATOM    132  F   UNL A   1      47.407  27.046  37.063  1.00  0.00    -0.200 F 
ENDBRANCH  98 122
ENDBRANCH  63  66
ENDBRANCH  53  56
ENDBRANCH  49  52
ENDBRANCH  46  49
ENDBRANCH  43  46
ENDBRANCH  40  43
ENDBRANCH   1  40
TORSDOF 18
ENDMDL
MODEL 4
REMARK VINA RESULT:     -12.0      6.453     11.267
REMARK SMILES NS(=O)(=O)c1ccc(/N=N/c2ccc(O)c(C(=O)NCCCCCCNC(=O)c3ccc(-c4c5nc(c(-c6c(F)c(F)c(F)c(F)c6F)c6ccc([nH]6)c(-c6c(F)c(F)c(F)c(F)c6F)c6nc(c(-c7c(F)c(F)c(F)c(F)c7F)c7ccc4[nH]7)C=C6)C=C5)cc3)c2)cc1
REMARK SMILES IDX 21 1 20 4 19 7 17 8 18 9 16 11 11 12 12 13 92 14 13 15 14 18
REMARK SMILES IDX 10 20 9 21 8 22 5 23 6 24 94 25 7 26 93 28 2 32 3 33 4 34
REMARK SMILES IDX 1 35 15 38 22 40 23 43 24 46 25 49 26 52 27 53 28 55 29 56
REMARK SMILES IDX 30 57 91 58 31 59 90 61 32 63 33 66 34 67 84 68 35 69 89 70
REMARK SMILES IDX 83 71 85 72 36 73 88 74 82 76 81 78 37 80 69 83 49 84 68 85
REMARK SMILES IDX 50 86 53 87 67 88 86 89 51 90 52 92 66 94 87 95 54 98 38 100
REMARK SMILES IDX 39 101 47 102 40 103 41 104 45 105 48 106 42 107 43 108
REMARK SMILES IDX 46 109 44 110 70 111 71 112 79 113 72 114 73 115 77 116
REMARK SMILES IDX 80 117 74 118 75 119 78 120 76 121 55 122 56 123 64 124
REMARK SMILES IDX 57 125 58 126 62 127 65 128 59 129 60 130 63 131 61 132
REMARK H PARENT 21 2 21 3 20 5 20 6 19 10 12 16 92 17 13 19 6 27 94 29 7 30
REMARK H PARENT 93 31 1 36 1 37 15 39 22 41 22 42 23 44 23 45 24 47 24 48
REMARK H PARENT 25 50 25 51 26 54 30 60 91 62 31 64 90 65 89 75 83 77 85 79
REMARK H PARENT 88 81 82 82 50 91 53 93 86 96 51 97 87 99
REMARK Flexibility Score: inf
ROOT
ATOM      1  C   UNL A   1      37.264  23.146  25.249  1.00  0.00    -0.036 C 
ATOM      2  H   UNL A   1      37.821  22.781  26.088  1.00  0.00     0.028 H 
ATOM      3  H   UNL A   1      37.789  23.846  24.633  1.00  0.00     0.028 H 
ENDROOT
BRANCH   1   4
ATOM      4  C   UNL A   1      36.062  23.911  25.791  1.00  0.00     0.018 C 
ATOM      5  H   UNL A   1      36.408  24.846  26.182  1.00  0.00     0.049 H 
ATOM      6  H   UNL A   1      35.380  24.028  24.973  1.00  0.00     0.049 H 
BRANCH   4   7
ATOM      7  N   UNL A   1      35.334  23.220  26.842  1.00  0.00    -0.352 N 
ATOM      8  C   UNL A   1      34.175  22.479  26.787  1.00  0.00     0.255 C 
ATOM      9  O   UNL A   1      33.685  22.052  27.833  1.00  0.00    -0.269 OA
ATOM     10  H   UNL A   1      35.735  23.292  27.738  1.00  0.00     0.163 HD
BRANCH   8  11
ATOM     11  C   UNL A   1      33.436  22.243  25.520  1.00  0.00     0.083 A 
ATOM     12  C   UNL A   1      32.005  23.062  23.724  1.00  0.00     0.087 A 
ATOM     13  C   UNL A   1      31.775  21.743  23.322  1.00  0.00    -0.031 A 
ATOM     14  C   UNL A   1      32.919  23.295  24.763  1.00  0.00    -0.018 A 
ATOM     15  C   UNL A   1      32.405  20.680  23.978  1.00  0.00    -0.017 A 
ATOM     16  H   UNL A   1      31.137  21.552  22.534  1.00  0.00     0.065 H 
ATOM     17  H   UNL A   1      33.214  24.262  24.971  1.00  0.00     0.066 H 
ATOM     18  C   UNL A   1      33.218  20.931  25.080  1.00  0.00     0.128 A 
ATOM     19  H   UNL A   1      32.267  19.712  23.645  1.00  0.00     0.066 H 
BRANCH  12  20
ATOM     20  N   UNL A   1      31.259  24.110  23.131  1.00  0.00    -0.151 NA
ATOM     21  N   UNL A   1      31.545  25.197  23.685  1.00  0.00    -0.151 NA
BRANCH  21  22
ATOM     22  C   UNL A   1      30.701  26.252  23.310  1.00  0.00     0.086 A 
ATOM     23  C   UNL A   1      29.153  28.537  22.821  1.00  0.00     0.082 A 
ATOM     24  C   UNL A   1      30.476  28.491  22.376  1.00  0.00    -0.040 A 
ATOM     25  C   UNL A   1      28.594  27.451  23.502  1.00  0.00    -0.040 A 
ATOM     26  C   UNL A   1      31.244  27.350  22.627  1.00  0.00    -0.033 A 
ATOM     27  H   UNL A   1      30.882  29.292  21.868  1.00  0.00     0.064 H 
ATOM     28  C   UNL A   1      29.370  26.314  23.742  1.00  0.00    -0.033 A 
ATOM     29  H   UNL A   1      27.615  27.489  23.826  1.00  0.00     0.064 H 
ATOM     30  H   UNL A   1      32.224  27.315  22.305  1.00  0.00     0.065 H 
ATOM     31  H   UNL A   1      28.958  25.510  24.244  1.00  0.00     0.065 H 
BRANCH  23  32
ATOM     32  S   UNL A   1      28.158  29.986  22.604  1.00  0.00     0.238 S 
ATOM     33  O   UNL A   1      27.024  29.888  23.492  1.00  0.00    -0.207 OA
ATOM     34  O   UNL A   1      28.030  30.235  21.189  1.00  0.00    -0.207 OA
BRANCH  32  35
ATOM     35  N   UNL A   1      29.094  31.240  23.217  1.00  0.00    -0.225 NA
ATOM     36  H   UNL A   1      30.054  30.918  23.341  1.00  0.00     0.137 HD
ATOM     37  H   UNL A   1      28.717  31.538  24.117  1.00  0.00     0.137 HD
ENDBRANCH  32  35
ENDBRANCH  23  32
ENDBRANCH  21  22
ENDBRANCH  12  20
BRANCH  18  38
ATOM     38  O   UNL A   1      33.765  19.836  25.697  1.00  0.00    -0.507 OA
ATOM     39  H   UNL A   1      33.630  18.981  25.340  1.00  0.00     0.293 HD
ENDBRANCH  18  38
ENDBRANCH   8  11
ENDBRANCH   4   7
ENDBRANCH   1   4
BRANCH   1  40
ATOM     40  C   UNL A   1      36.968  21.954  24.338  1.00  0.00    -0.052 C 
ATOM     41  H   UNL A   1      37.728  21.926  23.585  1.00  0.00     0.027 H 
ATOM     42  H   UNL A   1      35.979  22.120  23.969  1.00  0.00     0.027 H 
BRANCH  40  43
ATOM     43  C   UNL A   1      36.923  20.575  25.001  1.00  0.00    -0.052 C 
ATOM     44  H   UNL A   1      36.120  20.026  24.555  1.00  0.00     0.027 H 
ATOM     45  H   UNL A   1      36.802  20.767  26.046  1.00  0.00     0.027 H 
BRANCH  43  46
ATOM     46  C   UNL A   1      38.186  19.721  24.889  1.00  0.00    -0.036 C 
ATOM     47  H   UNL A   1      38.559  19.815  23.891  1.00  0.00     0.028 H 
ATOM     48  H   UNL A   1      37.889  18.728  25.152  1.00  0.00     0.028 H 
BRANCH  46  49
ATOM     49  C   UNL A   1      39.317  20.080  25.844  1.00  0.00     0.018 C 
ATOM     50  H   UNL A   1      38.904  20.227  26.821  1.00  0.00     0.049 H 
ATOM     51  H   UNL A   1      39.784  20.967  25.469  1.00  0.00     0.049 H 
BRANCH  49  52
ATOM     52  N   UNL A   1      40.342  19.052  25.926  1.00  0.00    -0.352 N 
ATOM     53  C   UNL A   1      41.694  19.190  26.127  1.00  0.00     0.251 C 
ATOM     54  H   UNL A   1      40.021  18.127  25.824  1.00  0.00     0.163 HD
ATOM     55  O   UNL A   1      42.438  18.219  26.039  1.00  0.00    -0.269 OA
BRANCH  53  56
ATOM     56  C   UNL A   1      42.262  20.524  26.425  1.00  0.00     0.039 A 
ATOM     57  C   UNL A   1      42.665  21.341  25.363  1.00  0.00    -0.049 A 
ATOM     58  C   UNL A   1      42.401  20.966  27.742  1.00  0.00    -0.049 A 
ATOM     59  C   UNL A   1      43.149  22.626  25.620  1.00  0.00    -0.053 A 
ATOM     60  H   UNL A   1      42.605  20.995  24.392  1.00  0.00     0.063 H 
ATOM     61  C   UNL A   1      42.817  22.271  27.994  1.00  0.00    -0.053 A 
ATOM     62  H   UNL A   1      42.196  20.328  28.527  1.00  0.00     0.063 H 
ATOM     63  C   UNL A   1      43.200  23.112  26.936  1.00  0.00    -0.014 A 
ATOM     64  H   UNL A   1      43.470  23.221  24.841  1.00  0.00     0.063 H 
ATOM     65  H   UNL A   1      42.843  22.622  28.963  1.00  0.00     0.063 H 
BRANCH  63  66
ATOM     66  C   UNL A   1      43.678  24.484  27.246  1.00  0.00     0.031 A 
ATOM     67  C   UNL A   1      42.701  25.514  27.740  1.00  0.00     0.074 A 
ATOM     68  C   UNL A   1      44.958  24.825  27.004  1.00  0.00     0.049 A 
ATOM     69  N   UNL A   1      42.874  26.799  27.926  1.00  0.00    -0.248 NA
ATOM     70  C   UNL A   1      41.340  25.043  28.032  1.00  0.00    -0.034 C 
ATOM     71  C   UNL A   1      45.994  23.924  26.502  1.00  0.00    -0.036 A 
ATOM     72  N   UNL A   1      45.600  26.033  27.131  1.00  0.00    -0.354 N 
ATOM     73  C   UNL A   1      41.639  27.289  28.331  1.00  0.00     0.074 A 
ATOM     74  C   UNL A   1      40.715  26.176  28.316  1.00  0.00    -0.034 C 
ATOM     75  H   UNL A   1      40.967  24.080  28.018  1.00  0.00     0.065 H 
ATOM     76  C   UNL A   1      47.145  24.605  26.376  1.00  0.00    -0.036 A 
ATOM     77  H   UNL A   1      45.863  22.925  26.280  1.00  0.00     0.065 H 
ATOM     78  C   UNL A   1      46.918  25.999  26.746  1.00  0.00     0.049 A 
ATOM     79  H   UNL A   1      45.158  26.846  27.468  1.00  0.00     0.167 HD
ATOM     80  C   UNL A   1      41.310  28.550  28.699  1.00  0.00     0.037 A 
ATOM     81  H   UNL A   1      39.703  26.254  28.503  1.00  0.00     0.065 H 
ATOM     82  H   UNL A   1      48.046  24.206  26.067  1.00  0.00     0.065 H 
ATOM     83  C   UNL A   1      47.834  26.985  26.683  1.00  0.00     0.037 A 
ATOM     84  C   UNL A   1      42.239  29.646  28.745  1.00  0.00     0.049 A 
ATOM     85  C   UNL A   1      47.444  28.380  27.092  1.00  0.00     0.074 A 
ATOM     86  C   UNL A   1      42.017  30.951  29.150  1.00  0.00    -0.036 A 
ATOM     87  N   UNL A   1      43.574  29.562  28.379  1.00  0.00    -0.354 N 
ATOM     88  N   UNL A   1      46.282  28.824  27.505  1.00  0.00    -0.248 NA
ATOM     89  C   UNL A   1      48.489  29.411  27.027  1.00  0.00    -0.034 C 
ATOM     90  C   UNL A   1      43.206  31.667  28.985  1.00  0.00    -0.036 A 
ATOM     91  H   UNL A   1      41.126  31.329  29.510  1.00  0.00     0.065 H 
ATOM     92  C   UNL A   1      44.183  30.797  28.531  1.00  0.00     0.049 A 
ATOM     93  H   UNL A   1      44.023  28.747  28.059  1.00  0.00     0.167 HD
ATOM     94  C   UNL A   1      46.467  30.170  27.792  1.00  0.00     0.074 A 
ATOM     95  C   UNL A   1      47.852  30.474  27.499  1.00  0.00    -0.034 C 
ATOM     96  H   UNL A   1      49.465  29.329  26.700  1.00  0.00     0.065 H 
ATOM     97  H   UNL A   1      43.334  32.675  29.171  1.00  0.00     0.065 H 
ATOM     98  C   UNL A   1      45.571  31.073  28.258  1.00  0.00     0.037 A 
ATOM     99  H   UNL A   1      48.288  31.398  27.640  1.00  0.00     0.065 H 
BRANCH  80 100
ATOM    100  C   UNL A   1      39.881  28.814  29.078  1.00  0.00     0.064 A 
ATOM    101  C   UNL A   1      38.928  29.216  28.129  1.00  0.00     0.173 A 
ATOM    102  C   UNL A   1      39.450  28.632  30.401  1.00  0.00     0.173 A 
ATOM    103  F   UNL A   1      39.290  29.416  26.853  1.00  0.00    -0.203 F 
ATOM    104  C   UNL A   1      37.606  29.454  28.497  1.00  0.00     0.198 A 
ATOM    105  C   UNL A   1      38.121  28.839  30.758  1.00  0.00     0.198 A 
ATOM    106  F   UNL A   1      40.317  28.242  31.347  1.00  0.00    -0.203 F 
ATOM    107  F   UNL A   1      36.728  29.889  27.582  1.00  0.00    -0.200 F 
ATOM    108  C   UNL A   1      37.202  29.260  29.808  1.00  0.00     0.200 A 
ATOM    109  F   UNL A   1      37.729  28.636  32.024  1.00  0.00    -0.200 F 
ATOM    110  F   UNL A   1      35.928  29.484  30.159  1.00  0.00    -0.200 F 
ENDBRANCH  80 100
BRANCH  83 111
ATOM    111  C   UNL A   1      49.217  26.686  26.228  1.00  0.00     0.064 A 
ATOM    112  C   UNL A   1      50.188  26.229  27.132  1.00  0.00     0.173 A 
ATOM    113  C   UNL A   1      49.600  26.855  24.890  1.00  0.00     0.173 A 
ATOM    114  F   UNL A   1      49.876  26.074  28.427  1.00  0.00    -0.203 F 
ATOM    115  C   UNL A   1      51.492  25.971  26.718  1.00  0.00     0.198 A 
ATOM    116  C   UNL A   1      50.897  26.567  24.471  1.00  0.00     0.198 A 
ATOM    117  F   UNL A   1      48.708  27.291  23.987  1.00  0.00    -0.203 F 
ATOM    118  F   UNL A   1      52.412  25.580  27.611  1.00  0.00    -0.200 F 
ATOM    119  C   UNL A   1      51.845  26.135  25.386  1.00  0.00     0.200 A 
ATOM    120  F   UNL A   1      51.229  26.713  23.181  1.00  0.00    -0.200 F 
ATOM    121  F   UNL A   1      53.098  25.881  24.987  1.00  0.00    -0.200 F 
ENDBRANCH  83 111
BRANCH  98 122
ATOM    122  C   UNL A   1      46.064  32.462  28.540  1.00  0.00     0.064 A 
ATOM    123  C   UNL A   1      45.998  33.480  27.579  1.00  0.00     0.173 A 
ATOM    124  C   UNL A   1      46.542  32.792  29.818  1.00  0.00     0.173 A 
ATOM    125  F   UNL A   1      45.562  33.209  26.340  1.00  0.00    -0.203 F 
ATOM    126  C   UNL A   1      46.405  34.776  27.883  1.00  0.00     0.198 A 
ATOM    127  C   UNL A   1      46.922  34.095  30.127  1.00  0.00     0.198 A 
ATOM    128  F   UNL A   1      46.620  31.854  30.774  1.00  0.00    -0.203 F 
ATOM    129  F   UNL A   1      46.365  35.727  26.940  1.00  0.00    -0.200 F 
ATOM    130  C   UNL A   1      46.856  35.085  29.158  1.00  0.00     0.200 A 
ATOM    131  F   UNL A   1      47.344  34.394  31.363  1.00  0.00    -0.200 F 
ATOM    132  F   UNL A   1      47.231  36.338  29.452  1.00  0.00    -0.200 F 
ENDBRANCH  98 122
ENDBRANCH  63  66
ENDBRANCH  53  56
ENDBRANCH  49  52
ENDBRANCH  46  49
ENDBRANCH  43  46
ENDBRANCH  40  43
ENDBRANCH   1  40
TORSDOF 18
ENDMDL
MODEL 5
REMARK VINA RESULT:     -12.0      6.306     11.204
REMARK SMILES NS(=O)(=O)c1ccc(/N=N/c2ccc(O)c(C(=O)NCCCCCCNC(=O)c3ccc(-c4c5nc(c(-c6c(F)c(F)c(F)c(F)c6F)c6ccc([nH]6)c(-c6c(F)c(F)c(F)c(F)c6F)c6nc(c(-c7c(F)c(F)c(F)c(F)c7F)c7ccc4[nH]7)C=C6)C=C5)cc3)c2)cc1
REMARK SMILES IDX 21 1 20 4 19 7 17 8 18 9 16 11 11 12 12 13 92 14 13 15 14 18
REMARK SMILES IDX 10 20 9 21 8 22 5 23 6 24 94 25 7 26 93 28 2 32 3 33 4 34
REMARK SMILES IDX 1 35 15 38 22 40 23 43 24 46 25 49 26 52 27 53 28 55 29 56
REMARK SMILES IDX 30 57 91 58 31 59 90 61 32 63 33 66 34 67 84 68 35 69 89 70
REMARK SMILES IDX 83 71 85 72 36 73 88 74 82 76 81 78 37 80 69 83 49 84 68 85
REMARK SMILES IDX 50 86 53 87 67 88 86 89 51 90 52 92 66 94 87 95 54 98 38 100
REMARK SMILES IDX 39 101 47 102 40 103 41 104 45 105 48 106 42 107 43 108
REMARK SMILES IDX 46 109 44 110 70 111 71 112 79 113 72 114 73 115 77 116
REMARK SMILES IDX 80 117 74 118 75 119 78 120 76 121 55 122 56 123 64 124
REMARK SMILES IDX 57 125 58 126 62 127 65 128 59 129 60 130 63 131 61 132
REMARK H PARENT 21 2 21 3 20 5 20 6 19 10 12 16 92 17 13 19 6 27 94 29 7 30
REMARK H PARENT 93 31 1 36 1 37 15 39 22 41 22 42 23 44 23 45 24 47 24 48
REMARK H PARENT 25 50 25 51 26 54 30 60 91 62 31 64 90 65 89 75 83 77 85 79
REMARK H PARENT 88 81 82 82 50 91 53 93 86 96 51 97 87 99
REMARK Flexibility Score: inf
ROOT
ATOM      1  C   UNL A   1      37.510  23.051  25.600  1.00  0.00    -0.036 C 
ATOM      2  H   UNL A   1      37.964  22.588  26.451  1.00  0.00     0.028 H 
ATOM      3  H   UNL A   1      38.080  23.846  25.165  1.00  0.00     0.028 H 
ENDROOT
BRANCH   1   4
ATOM      4  C   UNL A   1      36.210  23.698  26.064  1.00  0.00     0.018 C 
ATOM      5  H   UNL A   1      36.453  24.595  26.594  1.00  0.00     0.049 H 
ATOM      6  H   UNL A   1      35.628  23.879  25.183  1.00  0.00     0.049 H 
BRANCH   4   7
ATOM      7  N   UNL A   1      35.400  22.861  26.932  1.00  0.00    -0.352 N 
ATOM      8  C   UNL A   1      34.221  22.195  26.685  1.00  0.00     0.255 C 
ATOM      9  O   UNL A   1      33.657  21.608  27.610  1.00  0.00    -0.269 OA
ATOM     10  H   UNL A   1      35.751  22.751  27.845  1.00  0.00     0.163 HD
BRANCH   8  11
ATOM     11  C   UNL A   1      33.548  22.225  25.361  1.00  0.00     0.083 A 
ATOM     12  C   UNL A   1      32.264  23.425  23.669  1.00  0.00     0.087 A 
ATOM     13  C   UNL A   1      31.997  22.211  23.029  1.00  0.00    -0.031 A 
ATOM     14  C   UNL A   1      33.125  23.421  24.778  1.00  0.00    -0.018 A 
ATOM     15  C   UNL A   1      32.536  21.017  23.517  1.00  0.00    -0.017 A 
ATOM     16  H   UNL A   1      31.398  22.197  22.189  1.00  0.00     0.065 H 
ATOM     17  H   UNL A   1      33.453  24.319  25.168  1.00  0.00     0.066 H 
ATOM     18  C   UNL A   1      33.294  21.025  24.685  1.00  0.00     0.128 A 
ATOM     19  H   UNL A   1      32.373  20.131  23.011  1.00  0.00     0.066 H 
BRANCH  12  20
ATOM     20  N   UNL A   1      31.605  24.601  23.235  1.00  0.00    -0.151 NA
ATOM     21  N   UNL A   1      31.764  25.511  24.082  1.00  0.00    -0.151 NA
BRANCH  21  22
ATOM     22  C   UNL A   1      30.970  26.641  23.840  1.00  0.00     0.086 A 
ATOM     23  C   UNL A   1      29.319  28.763  23.046  1.00  0.00     0.082 A 
ATOM     24  C   UNL A   1      28.745  27.573  23.499  1.00  0.00    -0.040 A 
ATOM     25  C   UNL A   1      30.710  28.905  22.992  1.00  0.00    -0.040 A 
ATOM     26  C   UNL A   1      29.574  26.517  23.890  1.00  0.00    -0.033 A 
ATOM     27  H   UNL A   1      27.719  27.474  23.545  1.00  0.00     0.064 H 
ATOM     28  C   UNL A   1      31.528  27.845  23.390  1.00  0.00    -0.033 A 
ATOM     29  H   UNL A   1      31.128  29.787  22.660  1.00  0.00     0.064 H 
ATOM     30  H   UNL A   1      29.153  25.634  24.219  1.00  0.00     0.065 H 
ATOM     31  H   UNL A   1      32.554  27.949  23.352  1.00  0.00     0.065 H 
BRANCH  23  32
ATOM     32  S   UNL A   1      28.320  30.104  22.463  1.00  0.00     0.238 S 
ATOM     33  O   UNL A   1      27.106  30.130  23.242  1.00  0.00    -0.207 OA
ATOM     34  O   UNL A   1      28.331  30.077  21.020  1.00  0.00    -0.207 OA
BRANCH  32  35
ATOM     35  N   UNL A   1      29.163  31.487  22.911  1.00  0.00    -0.225 NA
ATOM     36  H   UNL A   1      28.873  31.774  23.845  1.00  0.00     0.137 HD
ATOM     37  H   UNL A   1      28.964  32.237  22.248  1.00  0.00     0.137 HD
ENDBRANCH  32  35
ENDBRANCH  23  32
ENDBRANCH  21  22
ENDBRANCH  12  20
BRANCH  18  38
ATOM     38  O   UNL A   1      33.751  19.810  25.125  1.00  0.00    -0.507 OA
ATOM     39  H   UNL A   1      33.161  19.086  25.199  1.00  0.00     0.293 HD
ENDBRANCH  18  38
ENDBRANCH   8  11
ENDBRANCH   4   7
ENDBRANCH   1   4
BRANCH   1  40
ATOM     40  C   UNL A   1      37.399  21.992  24.502  1.00  0.00    -0.052 C 
ATOM     41  H   UNL A   1      38.333  21.967  23.981  1.00  0.00     0.027 H 
ATOM     42  H   UNL A   1      36.562  22.289  23.908  1.00  0.00     0.027 H 
BRANCH  40  43
ATOM     43  C   UNL A   1      37.084  20.563  24.954  1.00  0.00    -0.052 C 
ATOM     44  H   UNL A   1      36.337  20.172  24.295  1.00  0.00     0.027 H 
ATOM     45  H   UNL A   1      36.775  20.650  25.974  1.00  0.00     0.027 H 
BRANCH  43  46
ATOM     46  C   UNL A   1      38.253  19.577  24.967  1.00  0.00    -0.036 C 
ATOM     47  H   UNL A   1      38.794  19.698  24.052  1.00  0.00     0.028 H 
ATOM     48  H   UNL A   1      37.813  18.609  25.089  1.00  0.00     0.028 H 
BRANCH  46  49
ATOM     49  C   UNL A   1      39.239  19.731  26.117  1.00  0.00     0.018 C 
ATOM     50  H   UNL A   1      38.739  19.480  27.030  1.00  0.00     0.049 H 
ATOM     51  H   UNL A   1      39.579  20.746  26.113  1.00  0.00     0.049 H 
BRANCH  49  52
ATOM     52  N   UNL A   1      40.409  18.880  25.983  1.00  0.00    -0.352 N 
ATOM     53  C   UNL A   1      41.739  19.222  26.024  1.00  0.00     0.251 C 
ATOM     54  H   UNL A   1      40.222  17.924  25.843  1.00  0.00     0.163 HD
ATOM     55  O   UNL A   1      42.603  18.392  25.762  1.00  0.00    -0.269 OA
BRANCH  53  56
ATOM     56  C   UNL A   1      42.133  20.609  26.361  1.00  0.00     0.039 A 
ATOM     57  C   UNL A   1      42.460  20.918  27.684  1.00  0.00    -0.049 A 
ATOM     58  C   UNL A   1      42.177  21.600  25.377  1.00  0.00    -0.049 A 
ATOM     59  C   UNL A   1      42.892  22.206  28.012  1.00  0.00    -0.053 A 
ATOM     60  H   UNL A   1      42.383  20.196  28.419  1.00  0.00     0.063 H 
ATOM     61  C   UNL A   1      42.674  22.863  25.690  1.00  0.00    -0.053 A 
ATOM     62  H   UNL A   1      41.843  21.397  24.423  1.00  0.00     0.063 H 
ATOM     63  C   UNL A   1      43.031  23.180  27.011  1.00  0.00    -0.014 A 
ATOM     64  H   UNL A   1      43.109  22.443  28.992  1.00  0.00     0.063 H 
ATOM     65  H   UNL A   1      42.779  23.569  24.946  1.00  0.00     0.063 H 
BRANCH  63  66
ATOM     66  C   UNL A   1      43.516  24.551  27.314  1.00  0.00     0.031 A 
ATOM     67  C   UNL A   1      42.562  25.569  27.871  1.00  0.00     0.074 A 
ATOM     68  C   UNL A   1      44.780  24.904  27.009  1.00  0.00     0.049 A 
ATOM     69  N   UNL A   1      42.736  26.852  28.065  1.00  0.00    -0.248 NA
ATOM     70  C   UNL A   1      41.220  25.084  28.228  1.00  0.00    -0.034 C 
ATOM     71  C   UNL A   1      45.794  24.016  26.442  1.00  0.00    -0.036 A 
ATOM     72  N   UNL A   1      45.421  26.113  27.118  1.00  0.00    -0.354 N 
ATOM     73  C   UNL A   1      41.521  27.329  28.540  1.00  0.00     0.074 A 
ATOM     74  C   UNL A   1      40.604  26.209  28.559  1.00  0.00    -0.034 C 
ATOM     75  H   UNL A   1      40.853  24.119  28.221  1.00  0.00     0.065 H 
ATOM     76  C   UNL A   1      46.933  24.705  26.265  1.00  0.00    -0.036 A 
ATOM     77  H   UNL A   1      45.657  23.019  26.214  1.00  0.00     0.065 H 
ATOM     78  C   UNL A   1      46.717  26.093  26.664  1.00  0.00     0.049 A 
ATOM     79  H   UNL A   1      44.992  26.919  27.488  1.00  0.00     0.167 HD
ATOM     80  C   UNL A   1      41.204  28.582  28.942  1.00  0.00     0.037 A 
ATOM     81  H   UNL A   1      39.603  26.279  28.800  1.00  0.00     0.065 H 
ATOM     82  H   UNL A   1      47.818  24.316  25.904  1.00  0.00     0.065 H 
ATOM     83  C   UNL A   1      47.623  27.086  26.566  1.00  0.00     0.037 A 
ATOM     84  C   UNL A   1      42.129  29.684  28.953  1.00  0.00     0.049 A 
ATOM     85  C   UNL A   1      47.246  28.473  27.014  1.00  0.00     0.074 A 
ATOM     86  C   UNL A   1      41.920  30.982  29.386  1.00  0.00    -0.036 A 
ATOM     87  N   UNL A   1      43.443  29.614  28.517  1.00  0.00    -0.354 N 
ATOM     88  N   UNL A   1      46.105  28.904  27.493  1.00  0.00    -0.248 NA
ATOM     89  C   UNL A   1      48.281  29.511  26.908  1.00  0.00    -0.034 C 
ATOM     90  C   UNL A   1      43.095  31.708  29.169  1.00  0.00    -0.036 A 
ATOM     91  H   UNL A   1      41.048  31.350  29.797  1.00  0.00     0.065 H 
ATOM     92  C   UNL A   1      44.052  30.850  28.653  1.00  0.00     0.049 A 
ATOM     93  H   UNL A   1      43.879  28.805  28.163  1.00  0.00     0.167 HD
ATOM     94  C   UNL A   1      46.297  30.248  27.787  1.00  0.00     0.074 A 
ATOM     95  C   UNL A   1      47.664  30.564  27.426  1.00  0.00    -0.034 C 
ATOM     96  H   UNL A   1      49.239  29.439  26.529  1.00  0.00     0.065 H 
ATOM     97  H   UNL A   1      43.227  32.714  29.361  1.00  0.00     0.065 H 
ATOM     98  C   UNL A   1      45.422  31.138  28.312  1.00  0.00     0.037 A 
ATOM     99  H   UNL A   1      48.101  31.489  27.557  1.00  0.00     0.065 H 
BRANCH  80 100
ATOM    100  C   UNL A   1      39.796  28.832  29.398  1.00  0.00     0.064 A 
ATOM    101  C   UNL A   1      39.407  28.634  30.732  1.00  0.00     0.173 A 
ATOM    102  C   UNL A   1      38.829  29.305  28.498  1.00  0.00     0.173 A 
ATOM    103  F   UNL A   1      40.289  28.172  31.631  1.00  0.00    -0.203 F 
ATOM    104  C   UNL A   1      38.097  28.872  31.140  1.00  0.00     0.198 A 
ATOM    105  C   UNL A   1      37.529  29.574  28.916  1.00  0.00     0.198 A 
ATOM    106  F   UNL A   1      39.148  29.518  27.213  1.00  0.00    -0.203 F 
ATOM    107  F   UNL A   1      37.737  28.625  32.407  1.00  0.00    -0.200 F 
ATOM    108  C   UNL A   1      37.160  29.348  30.234  1.00  0.00     0.200 A 
ATOM    109  F   UNL A   1      36.629  30.047  28.043  1.00  0.00    -0.200 F 
ATOM    110  F   UNL A   1      35.902  29.583  30.630  1.00  0.00    -0.200 F 
ENDBRANCH  80 100
BRANCH  83 111
ATOM    111  C   UNL A   1      48.982  26.801  26.036  1.00  0.00     0.064 A 
ATOM    112  C   UNL A   1      49.280  26.995  24.680  1.00  0.00     0.173 A 
ATOM    113  C   UNL A   1      50.006  26.324  26.867  1.00  0.00     0.173 A 
ATOM    114  F   UNL A   1      48.327  27.428  23.841  1.00  0.00    -0.203 F 
ATOM    115  C   UNL A   1      50.544  26.706  24.171  1.00  0.00     0.198 A 
ATOM    116  C   UNL A   1      51.279  26.065  26.363  1.00  0.00     0.198 A 
ATOM    117  F   UNL A   1      49.771  26.120  28.172  1.00  0.00    -0.203 F 
ATOM    118  F   UNL A   1      50.788  26.858  22.862  1.00  0.00    -0.200 F 
ATOM    119  C   UNL A   1      51.545  26.247  25.014  1.00  0.00     0.200 A 
ATOM    120  F   UNL A   1      52.246  25.635  27.185  1.00  0.00    -0.200 F 
ATOM    121  F   UNL A   1      52.762  25.974  24.527  1.00  0.00    -0.200 F 
ENDBRANCH  83 111
BRANCH  98 122
ATOM    122  C   UNL A   1      45.921  32.527  28.586  1.00  0.00     0.064 A 
ATOM    123  C   UNL A   1      46.550  32.862  29.793  1.00  0.00     0.173 A 
ATOM    124  C   UNL A   1      45.833  33.515  27.592  1.00  0.00     0.173 A 
ATOM    125  F   UNL A   1      46.645  31.956  30.778  1.00  0.00    -0.203 F 
ATOM    126  C   UNL A   1      47.060  34.140  30.001  1.00  0.00     0.198 A 
ATOM    127  C   UNL A   1      46.369  34.783  27.793  1.00  0.00     0.198 A 
ATOM    128  F   UNL A   1      45.244  33.241  26.418  1.00  0.00    -0.203 F 
ATOM    129  F   UNL A   1      47.628  34.450  31.175  1.00  0.00    -0.200 F 
ATOM    130  C   UNL A   1      46.979  35.096  28.998  1.00  0.00     0.200 A 
ATOM    131  F   UNL A   1      46.301  35.700  26.818  1.00  0.00    -0.200 F 
ATOM    132  F   UNL A   1      47.486  36.320  29.196  1.00  0.00    -0.200 F 
ENDBRANCH  98 122
ENDBRANCH  63  66
ENDBRANCH  53  56
ENDBRANCH  49  52
ENDBRANCH  46  49
ENDBRANCH  43  46
ENDBRANCH  40  43
ENDBRANCH   1  40
TORSDOF 18
ENDMDL
MODEL 6
REMARK VINA RESULT:     -11.9      1.633      7.506
REMARK SMILES NS(=O)(=O)c1ccc(/N=N/c2ccc(O)c(C(=O)NCCCCCCNC(=O)c3ccc(-c4c5nc(c(-c6c(F)c(F)c(F)c(F)c6F)c6ccc([nH]6)c(-c6c(F)c(F)c(F)c(F)c6F)c6nc(c(-c7c(F)c(F)c(F)c(F)c7F)c7ccc4[nH]7)C=C6)C=C5)cc3)c2)cc1
REMARK SMILES IDX 21 1 20 4 19 7 17 8 18 9 16 11 11 12 12 13 92 14 13 15 14 18
REMARK SMILES IDX 10 20 9 21 8 22 5 23 6 24 94 25 7 26 93 28 2 32 3 33 4 34
REMARK SMILES IDX 1 35 15 38 22 40 23 43 24 46 25 49 26 52 27 53 28 55 29 56
REMARK SMILES IDX 30 57 91 58 31 59 90 61 32 63 33 66 34 67 84 68 35 69 89 70
REMARK SMILES IDX 83 71 85 72 36 73 88 74 82 76 81 78 37 80 69 83 49 84 68 85
REMARK SMILES IDX 50 86 53 87 67 88 86 89 51 90 52 92 66 94 87 95 54 98 38 100
REMARK SMILES IDX 39 101 47 102 40 103 41 104 45 105 48 106 42 107 43 108
REMARK SMILES IDX 46 109 44 110 70 111 71 112 79 113 72 114 73 115 77 116
REMARK SMILES IDX 80 117 74 118 75 119 78 120 76 121 55 122 56 123 64 124
REMARK SMILES IDX 57 125 58 126 62 127 65 128 59 129 60 130 63 131 61 132
REMARK H PARENT 21 2 21 3 20 5 20 6 19 10 12 16 92 17 13 19 6 27 94 29 7 30
REMARK H PARENT 93 31 1 36 1 37 15 39 22 41 22 42 23 44 23 45 24 47 24 48
REMARK H PARENT 25 50 25 51 26 54 30 60 91 62 31 64 90 65 89 75 83 77 85 79
REMARK H PARENT 88 81 82 82 50 91 53 93 86 96 51 97 87 99
REMARK Flexibility Score: inf
ROOT
ATOM      1  C   UNL A   1      32.895  28.676  27.118  1.00  0.00    -0.036 C 
ATOM      2  H   UNL A   1      33.062  28.279  28.098  1.00  0.00     0.028 H 
ATOM      3  H   UNL A   1      32.001  28.331  26.640  1.00  0.00     0.028 H 
ENDROOT
BRANCH   1   4
ATOM      4  C   UNL A   1      34.036  28.197  26.226  1.00  0.00     0.018 C 
ATOM      5  H   UNL A   1      34.959  28.384  26.733  1.00  0.00     0.049 H 
ATOM      6  H   UNL A   1      33.864  27.156  26.043  1.00  0.00     0.049 H 
BRANCH   4   7
ATOM      7  N   UNL A   1      34.091  28.842  24.926  1.00  0.00    -0.352 N 
ATOM      8  C   UNL A   1      33.259  28.727  23.834  1.00  0.00     0.255 C 
ATOM      9  O   UNL A   1      33.553  29.311  22.790  1.00  0.00    -0.269 OA
ATOM     10  H   UNL A   1      34.845  29.464  24.805  1.00  0.00     0.163 HD
BRANCH   8  11
ATOM     11  C   UNL A   1      32.058  27.853  23.833  1.00  0.00     0.083 A 
ATOM     12  C   UNL A   1      31.063  25.629  23.718  1.00  0.00     0.087 A 
ATOM     13  C   UNL A   1      29.812  26.214  23.499  1.00  0.00    -0.031 A 
ATOM     14  C   UNL A   1      32.156  26.468  23.984  1.00  0.00    -0.018 A 
ATOM     15  C   UNL A   1      29.669  27.605  23.493  1.00  0.00    -0.017 A 
ATOM     16  H   UNL A   1      28.988  25.615  23.341  1.00  0.00     0.065 H 
ATOM     17  H   UNL A   1      33.049  26.054  24.295  1.00  0.00     0.066 H 
ATOM     18  C   UNL A   1      30.791  28.418  23.644  1.00  0.00     0.128 A 
ATOM     19  H   UNL A   1      28.735  28.029  23.377  1.00  0.00     0.066 H 
BRANCH  12  20
ATOM     20  N   UNL A   1      31.207  24.226  23.592  1.00  0.00    -0.151 NA
ATOM     21  N   UNL A   1      32.094  23.821  24.379  1.00  0.00    -0.151 NA
BRANCH  21  22
ATOM     22  C   UNL A   1      32.453  22.481  24.170  1.00  0.00     0.086 A 
ATOM     23  C   UNL A   1      32.852  19.724  23.860  1.00  0.00     0.082 A 
ATOM     24  C   UNL A   1      32.154  20.435  22.881  1.00  0.00    -0.040 A 
ATOM     25  C   UNL A   1      33.357  20.378  24.989  1.00  0.00    -0.040 A 
ATOM     26  C   UNL A   1      31.955  21.810  23.045  1.00  0.00    -0.033 A 
ATOM     27  H   UNL A   1      31.790  19.951  22.047  1.00  0.00     0.064 H 
ATOM     28  C   UNL A   1      33.156  21.753  25.138  1.00  0.00    -0.033 A 
ATOM     29  H   UNL A   1      33.875  19.848  25.707  1.00  0.00     0.064 H 
ATOM     30  H   UNL A   1      31.434  22.337  22.326  1.00  0.00     0.065 H 
ATOM     31  H   UNL A   1      33.530  22.236  25.970  1.00  0.00     0.065 H 
BRANCH  23  32
ATOM     32  S   UNL A   1      33.065  17.969  23.748  1.00  0.00     0.238 S 
ATOM     33  O   UNL A   1      34.254  17.614  24.485  1.00  0.00    -0.207 OA
ATOM     34  O   UNL A   1      32.841  17.577  22.377  1.00  0.00    -0.207 OA
BRANCH  32  35
ATOM     35  N   UNL A   1      31.788  17.329  24.632  1.00  0.00    -0.225 NA
ATOM     36  H   UNL A   1      31.046  17.038  23.996  1.00  0.00     0.137 HD
ATOM     37  H   UNL A   1      31.427  18.037  25.272  1.00  0.00     0.137 HD
ENDBRANCH  32  35
ENDBRANCH  23  32
ENDBRANCH  21  22
ENDBRANCH  12  20
BRANCH  18  38
ATOM     38  O   UNL A   1      30.578  29.770  23.584  1.00  0.00    -0.507 OA
ATOM     39  H   UNL A   1      31.155  30.313  23.085  1.00  0.00     0.293 HD
ENDBRANCH  18  38
ENDBRANCH   8  11
ENDBRANCH   4   7
ENDBRANCH   1   4
BRANCH   1  40
ATOM     40  C   UNL A   1      32.717  30.188  27.256  1.00  0.00    -0.052 C 
ATOM     41  H   UNL A   1      33.589  30.656  26.849  1.00  0.00     0.027 H 
ATOM     42  H   UNL A   1      32.563  30.359  28.300  1.00  0.00     0.027 H 
BRANCH  40  43
ATOM     43  C   UNL A   1      31.497  30.803  26.564  1.00  0.00    -0.052 C 
ATOM     44  H   UNL A   1      30.622  30.369  27.002  1.00  0.00     0.027 H 
ATOM     45  H   UNL A   1      31.625  30.593  25.524  1.00  0.00     0.027 H 
BRANCH  43  46
ATOM     46  C   UNL A   1      31.354  32.323  26.656  1.00  0.00    -0.036 C 
ATOM     47  H   UNL A   1      30.625  32.540  27.408  1.00  0.00     0.028 H 
ATOM     48  H   UNL A   1      31.079  32.648  25.674  1.00  0.00     0.028 H 
BRANCH  46  49
ATOM     49  C   UNL A   1      32.624  33.090  27.003  1.00  0.00     0.018 C 
ATOM     50  H   UNL A   1      33.170  33.271  26.100  1.00  0.00     0.049 H 
ATOM     51  H   UNL A   1      33.181  32.491  27.694  1.00  0.00     0.049 H 
BRANCH  49  52
ATOM     52  N   UNL A   1      32.362  34.365  27.648  1.00  0.00    -0.352 N 
ATOM     53  C   UNL A   1      32.982  34.930  28.736  1.00  0.00     0.251 C 
ATOM     54  H   UNL A   1      31.639  34.900  27.248  1.00  0.00     0.163 HD
ATOM     55  O   UNL A   1      32.546  35.963  29.233  1.00  0.00    -0.269 OA
BRANCH  53  56
ATOM     56  C   UNL A   1      34.168  34.274  29.332  1.00  0.00     0.039 A 
ATOM     57  C   UNL A   1      35.439  34.618  28.863  1.00  0.00    -0.049 A 
ATOM     58  C   UNL A   1      34.027  33.322  30.344  1.00  0.00    -0.049 A 
ATOM     59  C   UNL A   1      36.574  34.054  29.453  1.00  0.00    -0.053 A 
ATOM     60  H   UNL A   1      35.540  35.287  28.083  1.00  0.00     0.063 H 
ATOM     61  C   UNL A   1      35.158  32.814  30.978  1.00  0.00    -0.053 A 
ATOM     62  H   UNL A   1      33.088  32.997  30.622  1.00  0.00     0.063 H 
ATOM     63  C   UNL A   1      36.442  33.171  30.535  1.00  0.00    -0.014 A 
ATOM     64  H   UNL A   1      37.512  34.288  29.091  1.00  0.00     0.063 H 
ATOM     65  H   UNL A   1      35.051  32.172  31.777  1.00  0.00     0.063 H 
BRANCH  63  66
ATOM     66  C   UNL A   1      37.625  32.575  31.209  1.00  0.00     0.031 A 
ATOM     67  C   UNL A   1      38.368  31.452  30.543  1.00  0.00     0.074 A 
ATOM     68  C   UNL A   1      37.974  32.980  32.445  1.00  0.00     0.049 A 
ATOM     69  N   UNL A   1      39.326  30.695  31.017  1.00  0.00    -0.248 NA
ATOM     70  C   UNL A   1      37.957  31.112  29.173  1.00  0.00    -0.034 C 
ATOM     71  C   UNL A   1      37.318  34.042  33.205  1.00  0.00    -0.036 A 
ATOM     72  N   UNL A   1      38.962  32.530  33.286  1.00  0.00    -0.354 N 
ATOM     73  C   UNL A   1      39.611  29.777  30.013  1.00  0.00     0.074 A 
ATOM     74  C   UNL A   1      38.693  30.039  28.926  1.00  0.00    -0.034 C 
ATOM     75  H   UNL A   1      37.272  31.586  28.562  1.00  0.00     0.065 H 
ATOM     76  C   UNL A   1      37.927  34.171  34.396  1.00  0.00    -0.036 A 
ATOM     77  H   UNL A   1      36.515  34.603  32.880  1.00  0.00     0.065 H 
ATOM     78  C   UNL A   1      38.987  33.173  34.500  1.00  0.00     0.049 A 
ATOM     79  H   UNL A   1      39.592  31.813  33.043  1.00  0.00     0.167 HD
ATOM     80  C   UNL A   1      40.564  28.816  29.994  1.00  0.00     0.037 A 
ATOM     81  H   UNL A   1      38.623  29.466  28.070  1.00  0.00     0.065 H 
ATOM     82  H   UNL A   1      37.683  34.865  35.120  1.00  0.00     0.065 H 
ATOM     83  C   UNL A   1      39.768  32.969  35.579  1.00  0.00     0.037 A 
ATOM     84  C   UNL A   1      41.496  28.581  31.063  1.00  0.00     0.049 A 
ATOM     85  C   UNL A   1      40.817  31.890  35.536  1.00  0.00     0.074 A 
ATOM     86  C   UNL A   1      42.531  27.663  31.122  1.00  0.00    -0.036 A 
ATOM     87  N   UNL A   1      41.511  29.278  32.262  1.00  0.00    -0.354 N 
ATOM     88  N   UNL A   1      41.099  31.052  34.570  1.00  0.00    -0.248 NA
ATOM     89  C   UNL A   1      41.655  31.729  36.732  1.00  0.00    -0.034 C 
ATOM     90  C   UNL A   1      43.142  27.774  32.375  1.00  0.00    -0.036 A 
ATOM     91  H   UNL A   1      42.803  27.010  30.371  1.00  0.00     0.065 H 
ATOM     92  C   UNL A   1      42.525  28.798  33.075  1.00  0.00     0.049 A 
ATOM     93  H   UNL A   1      40.893  30.006  32.501  1.00  0.00     0.167 HD
ATOM     94  C   UNL A   1      42.173  30.296  35.021  1.00  0.00     0.074 A 
ATOM     95  C   UNL A   1      42.489  30.771  36.352  1.00  0.00    -0.034 C 
ATOM     96  H   UNL A   1      41.608  32.231  37.633  1.00  0.00     0.065 H 
ATOM     97  H   UNL A   1      43.921  27.192  32.719  1.00  0.00     0.065 H 
ATOM     98  C   UNL A   1      42.839  29.301  34.387  1.00  0.00     0.037 A 
ATOM     99  H   UNL A   1      43.263  30.410  36.930  1.00  0.00     0.065 H 
BRANCH  80 100
ATOM    100  C   UNL A   1      40.643  27.939  28.777  1.00  0.00     0.064 A 
ATOM    101  C   UNL A   1      39.924  26.737  28.686  1.00  0.00     0.173 A 
ATOM    102  C   UNL A   1      41.423  28.321  27.675  1.00  0.00     0.173 A 
ATOM    103  F   UNL A   1      39.173  26.320  29.716  1.00  0.00    -0.203 F 
ATOM    104  C   UNL A   1      40.008  25.937  27.549  1.00  0.00     0.198 A 
ATOM    105  C   UNL A   1      41.478  27.535  26.528  1.00  0.00     0.198 A 
ATOM    106  F   UNL A   1      42.125  29.464  27.706  1.00  0.00    -0.203 F 
ATOM    107  F   UNL A   1      39.354  24.767  27.507  1.00  0.00    -0.200 F 
ATOM    108  C   UNL A   1      40.779  26.339  26.469  1.00  0.00     0.200 A 
ATOM    109  F   UNL A   1      42.212  27.932  25.479  1.00  0.00    -0.200 F 
ATOM    110  F   UNL A   1      40.852  25.571  25.374  1.00  0.00    -0.200 F 
ENDBRANCH  80 100
BRANCH  83 111
ATOM    111  C   UNL A   1      39.598  33.816  36.789  1.00  0.00     0.064 A 
ATOM    112  C   UNL A   1      38.781  33.399  37.850  1.00  0.00     0.173 A 
ATOM    113  C   UNL A   1      40.239  35.058  36.908  1.00  0.00     0.173 A 
ATOM    114  F   UNL A   1      38.129  32.230  37.772  1.00  0.00    -0.203 F 
ATOM    115  C   UNL A   1      38.597  34.199  38.975  1.00  0.00     0.198 A 
ATOM    116  C   UNL A   1      40.078  35.844  38.048  1.00  0.00     0.198 A 
ATOM    117  F   UNL A   1      41.029  35.502  35.920  1.00  0.00    -0.203 F 
ATOM    118  F   UNL A   1      37.774  33.797  39.954  1.00  0.00    -0.200 F 
ATOM    119  C   UNL A   1      39.250  35.418  39.076  1.00  0.00     0.200 A 
ATOM    120  F   UNL A   1      40.723  37.014  38.146  1.00  0.00    -0.200 F 
ATOM    121  F   UNL A   1      39.078  36.185  40.160  1.00  0.00    -0.200 F 
ENDBRANCH  83 111
BRANCH  98 122
ATOM    122  C   UNL A   1      44.015  28.691  35.094  1.00  0.00     0.064 A 
ATOM    123  C   UNL A   1      45.305  29.230  34.985  1.00  0.00     0.173 A 
ATOM    124  C   UNL A   1      43.829  27.595  35.950  1.00  0.00     0.173 A 
ATOM    125  F   UNL A   1      45.534  30.269  34.168  1.00  0.00    -0.203 F 
ATOM    126  C   UNL A   1      46.368  28.685  35.698  1.00  0.00     0.198 A 
ATOM    127  C   UNL A   1      44.890  27.070  36.683  1.00  0.00     0.198 A 
ATOM    128  F   UNL A   1      42.613  27.046  36.092  1.00  0.00    -0.203 F 
ATOM    129  F   UNL A   1      47.600  29.195  35.554  1.00  0.00    -0.200 F 
ATOM    130  C   UNL A   1      46.159  27.613  36.554  1.00  0.00     0.200 A 
ATOM    131  F   UNL A   1      44.682  26.042  37.518  1.00  0.00    -0.200 F 
ATOM    132  F   UNL A   1      47.182  27.101  37.251  1.00  0.00    -0.200 F 
ENDBRANCH  98 122
ENDBRANCH  63  66
ENDBRANCH  53  56
ENDBRANCH  49  52
ENDBRANCH  46  49
ENDBRANCH  43  46
ENDBRANCH  40  43
ENDBRANCH   1  40
TORSDOF 18
ENDMDL
MODEL 7
REMARK VINA RESULT:     -11.8      5.017      8.714
REMARK SMILES NS(=O)(=O)c1ccc(/N=N/c2ccc(O)c(C(=O)NCCCCCCNC(=O)c3ccc(-c4c5nc(c(-c6c(F)c(F)c(F)c(F)c6F)c6ccc([nH]6)c(-c6c(F)c(F)c(F)c(F)c6F)c6nc(c(-c7c(F)c(F)c(F)c(F)c7F)c7ccc4[nH]7)C=C6)C=C5)cc3)c2)cc1
REMARK SMILES IDX 21 1 20 4 19 7 17 8 18 9 16 11 11 12 12 13 92 14 13 15 14 18
REMARK SMILES IDX 10 20 9 21 8 22 5 23 6 24 94 25 7 26 93 28 2 32 3 33 4 34
REMARK SMILES IDX 1 35 15 38 22 40 23 43 24 46 25 49 26 52 27 53 28 55 29 56
REMARK SMILES IDX 30 57 91 58 31 59 90 61 32 63 33 66 34 67 84 68 35 69 89 70
REMARK SMILES IDX 83 71 85 72 36 73 88 74 82 76 81 78 37 80 69 83 49 84 68 85
REMARK SMILES IDX 50 86 53 87 67 88 86 89 51 90 52 92 66 94 87 95 54 98 38 100
REMARK SMILES IDX 39 101 47 102 40 103 41 104 45 105 48 106 42 107 43 108
REMARK SMILES IDX 46 109 44 110 70 111 71 112 79 113 72 114 73 115 77 116
REMARK SMILES IDX 80 117 74 118 75 119 78 120 76 121 55 122 56 123 64 124
REMARK SMILES IDX 57 125 58 126 62 127 65 128 59 129 60 130 63 131 61 132
REMARK H PARENT 21 2 21 3 20 5 20 6 19 10 12 16 92 17 13 19 6 27 94 29 7 30
REMARK H PARENT 93 31 1 36 1 37 15 39 22 41 22 42 23 44 23 45 24 47 24 48
REMARK H PARENT 25 50 25 51 26 54 30 60 91 62 31 64 90 65 89 75 83 77 85 79
REMARK H PARENT 88 81 82 82 50 91 53 93 86 96 51 97 87 99
REMARK Flexibility Score: inf
ROOT
ATOM      1  C   UNL A   1      38.378  33.995  30.640  1.00  0.00    -0.036 C 
ATOM      2  H   UNL A   1      39.286  33.450  30.798  1.00  0.00     0.028 H 
ATOM      3  H   UNL A   1      38.475  34.855  30.010  1.00  0.00     0.028 H 
ENDROOT
BRANCH   1   4
ATOM      4  C   UNL A   1      37.923  34.536  31.991  1.00  0.00     0.018 C 
ATOM      5  H   UNL A   1      38.745  34.467  32.673  1.00  0.00     0.049 H 
ATOM      6  H   UNL A   1      37.604  35.545  31.823  1.00  0.00     0.049 H 
BRANCH   4   7
ATOM      7  N   UNL A   1      36.791  33.833  32.568  1.00  0.00    -0.352 N 
ATOM      8  C   UNL A   1      36.746  32.851  33.533  1.00  0.00     0.255 C 
ATOM      9  O   UNL A   1      35.666  32.328  33.809  1.00  0.00    -0.269 OA
ATOM     10  H   UNL A   1      35.913  34.102  32.214  1.00  0.00     0.163 HD
BRANCH   8  11
ATOM     11  C   UNL A   1      37.968  32.329  34.198  1.00  0.00     0.083 A 
ATOM     12  C   UNL A   1      39.615  30.556  34.503  1.00  0.00     0.087 A 
ATOM     13  C   UNL A   1      40.064  31.190  35.666  1.00  0.00    -0.031 A 
ATOM     14  C   UNL A   1      38.633  31.195  33.729  1.00  0.00    -0.018 A 
ATOM     15  C   UNL A   1      39.507  32.407  36.071  1.00  0.00    -0.017 A 
ATOM     16  H   UNL A   1      40.812  30.757  36.228  1.00  0.00     0.065 H 
ATOM     17  H   UNL A   1      38.400  30.820  32.797  1.00  0.00     0.066 H 
ATOM     18  C   UNL A   1      38.454  32.963  35.348  1.00  0.00     0.128 A 
ATOM     19  H   UNL A   1      39.876  32.892  36.905  1.00  0.00     0.066 H 
BRANCH  12  20
ATOM     20  N   UNL A   1      40.101  29.265  34.183  1.00  0.00    -0.151 NA
ATOM     21  N   UNL A   1      41.013  28.948  34.981  1.00  0.00    -0.151 NA
BRANCH  21  22
ATOM     22  C   UNL A   1      41.698  27.782  34.610  1.00  0.00     0.086 A 
ATOM     23  C   UNL A   1      43.277  25.516  34.132  1.00  0.00     0.082 A 
ATOM     24  C   UNL A   1      42.310  25.483  35.139  1.00  0.00    -0.040 A 
ATOM     25  C   UNL A   1      43.458  26.666  33.357  1.00  0.00    -0.040 A 
ATOM     26  C   UNL A   1      41.528  26.619  35.375  1.00  0.00    -0.033 A 
ATOM     27  H   UNL A   1      42.174  24.631  35.704  1.00  0.00     0.064 H 
ATOM     28  C   UNL A   1      42.668  27.793  33.599  1.00  0.00    -0.033 A 
ATOM     29  H   UNL A   1      44.172  26.683  32.613  1.00  0.00     0.064 H 
ATOM     30  H   UNL A   1      40.817  26.601  36.123  1.00  0.00     0.065 H 
ATOM     31  H   UNL A   1      42.800  28.642  33.027  1.00  0.00     0.065 H 
BRANCH  23  32
ATOM     32  S   UNL A   1      44.350  24.137  33.841  1.00  0.00     0.238 S 
ATOM     33  O   UNL A   1      45.369  24.140  34.864  1.00  0.00    -0.207 OA
ATOM     34  O   UNL A   1      44.650  24.091  32.431  1.00  0.00    -0.207 OA
BRANCH  32  35
ATOM     35  N   UNL A   1      43.403  22.786  34.163  1.00  0.00    -0.225 NA
ATOM     36  H   UNL A   1      42.869  22.942  35.018  1.00  0.00     0.137 HD
ATOM     37  H   UNL A   1      44.003  21.970  34.281  1.00  0.00     0.137 HD
ENDBRANCH  32  35
ENDBRANCH  23  32
ENDBRANCH  21  22
ENDBRANCH  12  20
BRANCH  18  38
ATOM     38  O   UNL A   1      37.932  34.134  35.832  1.00  0.00    -0.507 OA
ATOM     39  H   UNL A   1      37.004  34.263  35.845  1.00  0.00     0.293 HD
ENDBRANCH  18  38
ENDBRANCH   8  11
ENDBRANCH   4   7
ENDBRANCH   1   4
BRANCH   1  40
ATOM     40  C   UNL A   1      37.407  33.070  29.905  1.00  0.00    -0.052 C 
ATOM     41  H   UNL A   1      36.549  32.939  30.531  1.00  0.00     0.027 H 
ATOM     42  H   UNL A   1      37.961  32.177  29.712  1.00  0.00     0.027 H 
BRANCH  40  43
ATOM     43  C   UNL A   1      36.912  33.540  28.535  1.00  0.00    -0.052 C 
ATOM     44  H   UNL A   1      37.408  32.951  27.791  1.00  0.00     0.027 H 
ATOM     45  H   UNL A   1      37.136  34.585  28.496  1.00  0.00     0.027 H 
BRANCH  43  46
ATOM     46  C   UNL A   1      35.408  33.438  28.280  1.00  0.00    -0.036 C 
ATOM     47  H   UNL A   1      35.266  33.160  27.256  1.00  0.00     0.028 H 
ATOM     48  H   UNL A   1      35.006  34.396  28.531  1.00  0.00     0.028 H 
BRANCH  46  49
ATOM     49  C   UNL A   1      34.655  32.435  29.144  1.00  0.00     0.018 C 
ATOM     50  H   UNL A   1      33.874  32.951  29.663  1.00  0.00     0.049 H 
ATOM     51  H   UNL A   1      35.362  31.998  29.817  1.00  0.00     0.049 H 
BRANCH  49  52
ATOM     52  N   UNL A   1      34.062  31.352  28.376  1.00  0.00    -0.352 N 
ATOM     53  C   UNL A   1      34.642  30.195  27.917  1.00  0.00     0.251 C 
ATOM     54  H   UNL A   1      33.109  31.465  28.154  1.00  0.00     0.163 HD
ATOM     55  O   UNL A   1      34.026  29.445  27.168  1.00  0.00    -0.269 OA
BRANCH  53  56
ATOM     56  C   UNL A   1      36.031  29.863  28.307  1.00  0.00     0.039 A 
ATOM     57  C   UNL A   1      36.269  29.328  29.576  1.00  0.00    -0.049 A 
ATOM     58  C   UNL A   1      37.094  30.081  27.427  1.00  0.00    -0.049 A 
ATOM     59  C   UNL A   1      37.565  28.953  29.941  1.00  0.00    -0.053 A 
ATOM     60  H   UNL A   1      35.490  29.211  30.244  1.00  0.00     0.063 H 
ATOM     61  C   UNL A   1      38.372  29.643  27.764  1.00  0.00    -0.053 A 
ATOM     62  H   UNL A   1      36.932  30.565  26.530  1.00  0.00     0.063 H 
ATOM     63  C   UNL A   1      38.622  29.080  29.026  1.00  0.00    -0.014 A 
ATOM     64  H   UNL A   1      37.747  28.582  30.887  1.00  0.00     0.063 H 
ATOM     65  H   UNL A   1      39.140  29.734  27.081  1.00  0.00     0.063 H 
BRANCH  63  66
ATOM     66  C   UNL A   1      40.006  28.663  29.365  1.00  0.00     0.031 A 
ATOM     67  C   UNL A   1      40.888  29.593  30.150  1.00  0.00     0.074 A 
ATOM     68  C   UNL A   1      40.496  27.498  28.898  1.00  0.00     0.049 A 
ATOM     69  N   UNL A   1      42.165  29.493  30.422  1.00  0.00    -0.248 NA
ATOM     70  C   UNL A   1      40.257  30.815  30.668  1.00  0.00    -0.034 C 
ATOM     71  C   UNL A   1      39.749  26.522  28.106  1.00  0.00    -0.036 A 
ATOM     72  N   UNL A   1      41.749  26.947  29.009  1.00  0.00    -0.354 N 
ATOM     73  C   UNL A   1      42.492  30.649  31.120  1.00  0.00     0.074 A 
ATOM     74  C   UNL A   1      41.294  31.457  31.186  1.00  0.00    -0.034 C 
ATOM     75  H   UNL A   1      39.265  31.100  30.637  1.00  0.00     0.065 H 
ATOM     76  C   UNL A   1      40.552  25.487  27.813  1.00  0.00    -0.036 A 
ATOM     77  H   UNL A   1      38.762  26.614  27.819  1.00  0.00     0.065 H 
ATOM     78  C   UNL A   1      41.882  25.745  28.358  1.00  0.00     0.049 A 
ATOM     79  H   UNL A   1      42.483  27.373  29.508  1.00  0.00     0.167 HD
ATOM     80  C   UNL A   1      43.679  30.996  31.671  1.00  0.00     0.037 A 
ATOM     81  H   UNL A   1      41.252  32.408  31.585  1.00  0.00     0.065 H 
ATOM     82  H   UNL A   1      40.273  24.644  27.286  1.00  0.00     0.065 H 
ATOM     83  C   UNL A   1      42.959  24.950  28.205  1.00  0.00     0.037 A 
ATOM     84  C   UNL A   1      44.858  30.173  31.633  1.00  0.00     0.049 A 
ATOM     85  C   UNL A   1      44.270  25.359  28.823  1.00  0.00     0.074 A 
ATOM     86  C   UNL A   1      46.097  30.412  32.202  1.00  0.00    -0.036 A 
ATOM     87  N   UNL A   1      44.942  28.946  30.992  1.00  0.00    -0.354 N 
ATOM     88  N   UNL A   1      44.557  26.438  29.508  1.00  0.00    -0.248 NA
ATOM     89  C   UNL A   1      45.404  24.442  28.645  1.00  0.00    -0.034 C 
ATOM     90  C   UNL A   1      46.943  29.350  31.867  1.00  0.00    -0.036 A 
ATOM     91  H   UNL A   1      46.352  31.233  32.774  1.00  0.00     0.065 H 
ATOM     92  C   UNL A   1      46.217  28.424  31.136  1.00  0.00     0.049 A 
ATOM     93  H   UNL A   1      44.205  28.510  30.507  1.00  0.00     0.167 HD
ATOM     94  C   UNL A   1      45.889  26.309  29.882  1.00  0.00     0.074 A 
ATOM     95  C   UNL A   1      46.355  25.049  29.342  1.00  0.00    -0.034 C 
ATOM     96  H   UNL A   1      45.449  23.556  28.117  1.00  0.00     0.065 H 
ATOM     97  H   UNL A   1      47.940  29.270  32.121  1.00  0.00     0.065 H 
ATOM     98  C   UNL A   1      46.654  27.156  30.611  1.00  0.00     0.037 A 
ATOM     99  H   UNL A   1      47.306  24.672  29.480  1.00  0.00     0.065 H 
BRANCH  80 100
ATOM    100  C   UNL A   1      43.763  32.326  32.362  1.00  0.00     0.064 A 
ATOM    101  C   UNL A   1      44.118  33.495  31.669  1.00  0.00     0.173 A 
ATOM    102  C   UNL A   1      43.455  32.441  33.726  1.00  0.00     0.173 A 
ATOM    103  F   UNL A   1      44.433  33.439  30.367  1.00  0.00    -0.203 F 
ATOM    104  C   UNL A   1      44.190  34.722  32.325  1.00  0.00     0.198 A 
ATOM    105  C   UNL A   1      43.496  33.675  34.369  1.00  0.00     0.198 A 
ATOM    106  F   UNL A   1      43.104  31.357  34.433  1.00  0.00    -0.203 F 
ATOM    107  F   UNL A   1      44.582  35.814  31.654  1.00  0.00    -0.200 F 
ATOM    108  C   UNL A   1      43.873  34.813  33.671  1.00  0.00     0.200 A 
ATOM    109  F   UNL A   1      43.175  33.763  35.668  1.00  0.00    -0.200 F 
ATOM    110  F   UNL A   1      43.936  35.995  34.298  1.00  0.00    -0.200 F 
ENDBRANCH  80 100
BRANCH  83 111
ATOM    111  C   UNL A   1      42.840  23.677  27.447  1.00  0.00     0.064 A 
ATOM    112  C   UNL A   1      42.367  22.512  28.068  1.00  0.00     0.173 A 
ATOM    113  C   UNL A   1      43.202  23.595  26.095  1.00  0.00     0.173 A 
ATOM    114  F   UNL A   1      42.030  22.536  29.366  1.00  0.00    -0.203 F 
ATOM    115  C   UNL A   1      42.277  21.310  27.370  1.00  0.00     0.198 A 
ATOM    116  C   UNL A   1      43.083  22.398  25.390  1.00  0.00     0.198 A 
ATOM    117  F   UNL A   1      43.663  24.681  25.456  1.00  0.00    -0.203 F 
ATOM    118  F   UNL A   1      41.865  20.201  28.001  1.00  0.00    -0.200 F 
ATOM    119  C   UNL A   1      42.630  21.255  26.030  1.00  0.00     0.200 A 
ATOM    120  F   UNL A   1      43.412  22.355  24.092  1.00  0.00    -0.200 F 
ATOM    121  F   UNL A   1      42.539  20.100  25.358  1.00  0.00    -0.200 F 
ENDBRANCH  83 111
BRANCH  98 122
ATOM    122  C   UNL A   1      48.060  26.732  30.922  1.00  0.00     0.064 A 
ATOM    123  C   UNL A   1      49.141  27.104  30.111  1.00  0.00     0.173 A 
ATOM    124  C   UNL A   1      48.333  26.004  32.090  1.00  0.00     0.173 A 
ATOM    125  F   UNL A   1      48.928  27.787  28.976  1.00  0.00    -0.203 F 
ATOM    126  C   UNL A   1      50.444  26.750  30.451  1.00  0.00     0.198 A 
ATOM    127  C   UNL A   1      49.639  25.676  32.442  1.00  0.00     0.198 A 
ATOM    128  F   UNL A   1      47.333  25.629  32.902  1.00  0.00    -0.203 F 
ATOM    129  F   UNL A   1      51.460  27.087  29.644  1.00  0.00    -0.200 F 
ATOM    130  C   UNL A   1      50.693  26.047  31.621  1.00  0.00     0.200 A 
ATOM    131  F   UNL A   1      49.878  25.008  33.579  1.00  0.00    -0.200 F 
ATOM    132  F   UNL A   1      51.950  25.723  31.954  1.00  0.00    -0.200 F 
ENDBRANCH  98 122
ENDBRANCH  63  66
ENDBRANCH  53  56
ENDBRANCH  49  52
ENDBRANCH  46  49
ENDBRANCH  43  46
ENDBRANCH  40  43
ENDBRANCH   1  40
TORSDOF 18
ENDMDL
MODEL 8
REMARK VINA RESULT:     -11.7      6.702     12.500
REMARK SMILES NS(=O)(=O)c1ccc(/N=N/c2ccc(O)c(C(=O)NCCCCCCNC(=O)c3ccc(-c4c5nc(c(-c6c(F)c(F)c(F)c(F)c6F)c6ccc([nH]6)c(-c6c(F)c(F)c(F)c(F)c6F)c6nc(c(-c7c(F)c(F)c(F)c(F)c7F)c7ccc4[nH]7)C=C6)C=C5)cc3)c2)cc1
REMARK SMILES IDX 21 1 20 4 19 7 17 8 18 9 16 11 11 12 12 13 92 14 13 15 14 18
REMARK SMILES IDX 10 20 9 21 8 22 5 23 6 24 94 25 7 26 93 28 2 32 3 33 4 34
REMARK SMILES IDX 1 35 15 38 22 40 23 43 24 46 25 49 26 52 27 53 28 55 29 56
REMARK SMILES IDX 30 57 91 58 31 59 90 61 32 63 33 66 34 67 84 68 35 69 89 70
REMARK SMILES IDX 83 71 85 72 36 73 88 74 82 76 81 78 37 80 69 83 49 84 68 85
REMARK SMILES IDX 50 86 53 87 67 88 86 89 51 90 52 92 66 94 87 95 54 98 38 100
REMARK SMILES IDX 39 101 47 102 40 103 41 104 45 105 48 106 42 107 43 108
REMARK SMILES IDX 46 109 44 110 70 111 71 112 79 113 72 114 73 115 77 116
REMARK SMILES IDX 80 117 74 118 75 119 78 120 76 121 55 122 56 123 64 124
REMARK SMILES IDX 57 125 58 126 62 127 65 128 59 129 60 130 63 131 61 132
REMARK H PARENT 21 2 21 3 20 5 20 6 19 10 12 16 92 17 13 19 6 27 94 29 7 30
REMARK H PARENT 93 31 1 36 1 37 15 39 22 41 22 42 23 44 23 45 24 47 24 48
REMARK H PARENT 25 50 25 51 26 54 30 60 91 62 31 64 90 65 89 75 83 77 85 79
REMARK H PARENT 88 81 82 82 50 91 53 93 86 96 51 97 87 99
REMARK Flexibility Score: inf
ROOT
ATOM      1  C   UNL A   1      39.475  22.967  26.837  1.00  0.00    -0.036 C 
ATOM      2  H   UNL A   1      39.377  22.928  27.902  1.00  0.00     0.028 H 
ATOM      3  H   UNL A   1      40.321  23.520  26.485  1.00  0.00     0.028 H 
ENDROOT
BRANCH   1   4
ATOM      4  C   UNL A   1      38.258  23.703  26.288  1.00  0.00     0.018 C 
ATOM      5  H   UNL A   1      37.421  23.483  26.917  1.00  0.00     0.049 H 
ATOM      6  H   UNL A   1      38.510  24.744  26.278  1.00  0.00     0.049 H 
BRANCH   4   7
ATOM      7  N   UNL A   1      37.908  23.348  24.923  1.00  0.00    -0.352 N 
ATOM      8  C   UNL A   1      36.677  23.143  24.341  1.00  0.00     0.255 C 
ATOM      9  O   UNL A   1      36.622  22.757  23.172  1.00  0.00    -0.269 OA
ATOM     10  H   UNL A   1      38.674  23.238  24.316  1.00  0.00     0.163 HD
BRANCH   8  11
ATOM     11  C   UNL A   1      35.404  23.283  25.093  1.00  0.00     0.083 A 
ATOM     12  C   UNL A   1      33.405  24.566  25.645  1.00  0.00     0.087 A 
ATOM     13  C   UNL A   1      33.178  23.721  26.735  1.00  0.00    -0.031 A 
ATOM     14  C   UNL A   1      34.467  24.268  24.777  1.00  0.00    -0.018 A 
ATOM     15  C   UNL A   1      34.025  22.636  26.982  1.00  0.00    -0.017 A 
ATOM     16  H   UNL A   1      32.379  23.899  27.363  1.00  0.00     0.065 H 
ATOM     17  H   UNL A   1      34.558  24.787  23.890  1.00  0.00     0.066 H 
ATOM     18  C   UNL A   1      35.140  22.429  26.172  1.00  0.00     0.128 A 
ATOM     19  H   UNL A   1      33.824  21.989  27.761  1.00  0.00     0.066 H 
BRANCH  12  20
ATOM     20  N   UNL A   1      32.613  25.730  25.490  1.00  0.00    -0.151 NA
ATOM     21  N   UNL A   1      31.548  25.440  24.898  1.00  0.00    -0.151 NA
BRANCH  21  22
ATOM     22  C   UNL A   1      30.802  26.563  24.512  1.00  0.00     0.086 A 
ATOM     23  C   UNL A   1      29.370  28.709  23.417  1.00  0.00     0.082 A 
ATOM     24  C   UNL A   1      28.769  27.452  23.505  1.00  0.00    -0.040 A 
ATOM     25  C   UNL A   1      30.676  28.906  23.876  1.00  0.00    -0.040 A 
ATOM     26  C   UNL A   1      29.491  26.384  24.049  1.00  0.00    -0.033 A 
ATOM     27  H   UNL A   1      27.803  27.311  23.172  1.00  0.00     0.064 H 
ATOM     28  C   UNL A   1      31.385  27.833  24.422  1.00  0.00    -0.033 A 
ATOM     29  H   UNL A   1      31.114  29.838  23.811  1.00  0.00     0.064 H 
ATOM     30  H   UNL A   1      29.051  25.452  24.110  1.00  0.00     0.065 H 
ATOM     31  H   UNL A   1      32.349  27.978  24.763  1.00  0.00     0.065 H 
BRANCH  23  32
ATOM     32  S   UNL A   1      28.535  30.078  22.664  1.00  0.00     0.238 S 
ATOM     33  O   UNL A   1      28.847  30.073  21.255  1.00  0.00    -0.207 OA
ATOM     34  O   UNL A   1      28.718  31.234  23.508  1.00  0.00    -0.207 OA
BRANCH  32  35
ATOM     35  N   UNL A   1      26.904  29.684  22.758  1.00  0.00    -0.225 NA
ATOM     36  H   UNL A   1      26.418  30.054  21.941  1.00  0.00     0.137 HD
ATOM     37  H   UNL A   1      26.503  30.089  23.603  1.00  0.00     0.137 HD
ENDBRANCH  32  35
ENDBRANCH  23  32
ENDBRANCH  21  22
ENDBRANCH  12  20
BRANCH  18  38
ATOM     38  O   UNL A   1      35.947  21.372  26.502  1.00  0.00    -0.507 OA
ATOM     39  H   UNL A   1      35.877  20.565  26.032  1.00  0.00     0.293 HD
ENDBRANCH  18  38
ENDBRANCH   8  11
ENDBRANCH   4   7
ENDBRANCH   1   4
BRANCH   1  40
ATOM     40  C   UNL A   1      39.697  21.537  26.342  1.00  0.00    -0.052 C 
ATOM     41  H   UNL A   1      39.651  21.554  25.274  1.00  0.00     0.027 H 
ATOM     42  H   UNL A   1      38.935  20.955  26.815  1.00  0.00     0.027 H 
BRANCH  40  43
ATOM     43  C   UNL A   1      41.016  20.869  26.738  1.00  0.00    -0.052 C 
ATOM     44  H   UNL A   1      41.014  20.751  27.802  1.00  0.00     0.027 H 
ATOM     45  H   UNL A   1      41.783  21.512  26.364  1.00  0.00     0.027 H 
BRANCH  43  46
ATOM     46  C   UNL A   1      41.299  19.498  26.121  1.00  0.00    -0.036 C 
ATOM     47  H   UNL A   1      41.283  19.607  25.057  1.00  0.00     0.028 H 
ATOM     48  H   UNL A   1      40.543  18.846  26.505  1.00  0.00     0.028 H 
BRANCH  46  49
ATOM     49  C   UNL A   1      42.628  18.859  26.505  1.00  0.00     0.018 C 
ATOM     50  H   UNL A   1      42.429  17.936  27.009  1.00  0.00     0.049 H 
ATOM     51  H   UNL A   1      43.148  19.554  27.131  1.00  0.00     0.049 H 
BRANCH  49  52
ATOM     52  N   UNL A   1      43.480  18.585  25.360  1.00  0.00    -0.352 N 
ATOM     53  C   UNL A   1      44.231  19.457  24.610  1.00  0.00     0.251 C 
ATOM     54  H   UNL A   1      43.526  17.642  25.084  1.00  0.00     0.163 HD
ATOM     55  O   UNL A   1      44.795  19.074  23.590  1.00  0.00    -0.269 OA
BRANCH  53  56
ATOM     56  C   UNL A   1      44.339  20.876  25.018  1.00  0.00     0.039 A 
ATOM     57  C   UNL A   1      45.116  21.202  26.134  1.00  0.00    -0.049 A 
ATOM     58  C   UNL A   1      43.677  21.879  24.306  1.00  0.00    -0.049 A 
ATOM     59  C   UNL A   1      45.279  22.541  26.500  1.00  0.00    -0.053 A 
ATOM     60  H   UNL A   1      45.567  20.456  26.687  1.00  0.00     0.063 H 
ATOM     61  C   UNL A   1      43.896  23.216  24.629  1.00  0.00    -0.053 A 
ATOM     62  H   UNL A   1      43.028  21.630  23.544  1.00  0.00     0.063 H 
ATOM     63  C   UNL A   1      44.695  23.560  25.732  1.00  0.00    -0.014 A 
ATOM     64  H   UNL A   1      45.830  22.782  27.338  1.00  0.00     0.063 H 
ATOM     65  H   UNL A   1      43.469  23.957  24.054  1.00  0.00     0.063 H 
BRANCH  63  66
ATOM     66  C   UNL A   1      44.871  24.995  26.070  1.00  0.00     0.031 A 
ATOM     67  C   UNL A   1      46.226  25.629  25.926  1.00  0.00     0.074 A 
ATOM     68  C   UNL A   1      43.845  25.700  26.586  1.00  0.00     0.049 A 
ATOM     69  N   UNL A   1      46.632  26.815  26.304  1.00  0.00    -0.248 NA
ATOM     70  C   UNL A   1      47.273  24.806  25.302  1.00  0.00    -0.034 C 
ATOM     71  C   UNL A   1      42.491  25.192  26.797  1.00  0.00    -0.036 A 
ATOM     72  N   UNL A   1      43.791  26.994  27.043  1.00  0.00    -0.354 N 
ATOM     73  C   UNL A   1      47.984  26.868  25.988  1.00  0.00     0.074 A 
ATOM     74  C   UNL A   1      48.340  25.580  25.433  1.00  0.00    -0.034 C 
ATOM     75  H   UNL A   1      47.197  23.869  24.876  1.00  0.00     0.065 H 
ATOM     76  C   UNL A   1      41.735  26.166  27.331  1.00  0.00    -0.036 A 
ATOM     77  H   UNL A   1      42.167  24.238  26.574  1.00  0.00     0.065 H 
ATOM     78  C   UNL A   1      42.560  27.351  27.539  1.00  0.00     0.049 A 
ATOM     79  H   UNL A   1      44.560  27.608  27.017  1.00  0.00     0.167 HD
ATOM     80  C   UNL A   1      48.845  27.904  26.130  1.00  0.00     0.037 A 
ATOM     81  H   UNL A   1      49.299  25.302  25.172  1.00  0.00     0.065 H 
ATOM     82  H   UNL A   1      40.730  26.087  27.557  1.00  0.00     0.065 H 
ATOM     83  C   UNL A   1      42.151  28.501  28.111  1.00  0.00     0.037 A 
ATOM     84  C   UNL A   1      48.477  29.193  26.650  1.00  0.00     0.049 A 
ATOM     85  C   UNL A   1      43.128  29.637  28.263  1.00  0.00     0.074 A 
ATOM     86  C   UNL A   1      49.264  30.324  26.790  1.00  0.00    -0.036 A 
ATOM     87  N   UNL A   1      47.212  29.526  27.110  1.00  0.00    -0.354 N 
ATOM     88  N   UNL A   1      44.394  29.686  27.929  1.00  0.00    -0.248 NA
ATOM     89  C   UNL A   1      42.620  30.874  28.871  1.00  0.00    -0.034 C 
ATOM     90  C   UNL A   1      48.485  31.326  27.377  1.00  0.00    -0.036 A 
ATOM     91  H   UNL A   1      50.254  30.410  26.510  1.00  0.00     0.065 H 
ATOM     92  C   UNL A   1      47.201  30.838  27.552  1.00  0.00     0.049 A 
ATOM     93  H   UNL A   1      46.437  28.919  27.121  1.00  0.00     0.167 HD
ATOM     94  C   UNL A   1      44.822  30.969  28.243  1.00  0.00     0.074 A 
ATOM     95  C   UNL A   1      43.682  31.666  28.801  1.00  0.00    -0.034 C 
ATOM     96  H   UNL A   1      41.682  31.076  29.252  1.00  0.00     0.065 H 
ATOM     97  H   UNL A   1      48.813  32.270  27.637  1.00  0.00     0.065 H 
ATOM     98  C   UNL A   1      46.048  31.522  28.080  1.00  0.00     0.037 A 
ATOM     99  H   UNL A   1      43.693  32.652  29.105  1.00  0.00     0.065 H 
BRANCH  80 100
ATOM    100  C   UNL A   1      50.272  27.683  25.720  1.00  0.00     0.064 A 
ATOM    101  C   UNL A   1      50.674  27.758  24.378  1.00  0.00     0.173 A 
ATOM    102  C   UNL A   1      51.258  27.423  26.685  1.00  0.00     0.173 A 
ATOM    103  F   UNL A   1      49.771  27.992  23.415  1.00  0.00    -0.203 F 
ATOM    104  C   UNL A   1      52.003  27.552  24.015  1.00  0.00     0.198 A 
ATOM    105  C   UNL A   1      52.590  27.251  26.322  1.00  0.00     0.198 A 
ATOM    106  F   UNL A   1      50.929  27.347  27.984  1.00  0.00    -0.203 F 
ATOM    107  F   UNL A   1      52.353  27.577  22.721  1.00  0.00    -0.200 F 
ATOM    108  C   UNL A   1      52.961  27.306  24.987  1.00  0.00     0.200 A 
ATOM    109  F   UNL A   1      53.517  27.028  27.264  1.00  0.00    -0.200 F 
ATOM    110  F   UNL A   1      54.240  27.115  24.636  1.00  0.00    -0.200 F 
ENDBRANCH  80 100
BRANCH  83 111
ATOM    111  C   UNL A   1      40.744  28.642  28.568  1.00  0.00     0.064 A 
ATOM    112  C   UNL A   1      39.737  29.049  27.681  1.00  0.00     0.173 A 
ATOM    113  C   UNL A   1      40.378  28.383  29.897  1.00  0.00     0.173 A 
ATOM    114  F   UNL A   1      40.043  29.331  26.406  1.00  0.00    -0.203 F 
ATOM    115  C   UNL A   1      38.421  29.208  28.109  1.00  0.00     0.198 A 
ATOM    116  C   UNL A   1      39.055  28.513  30.316  1.00  0.00     0.198 A 
ATOM    117  F   UNL A   1      41.305  27.993  30.785  1.00  0.00    -0.203 F 
ATOM    118  F   UNL A   1      37.487  29.642  27.251  1.00  0.00    -0.200 F 
ATOM    119  C   UNL A   1      38.080  28.934  29.425  1.00  0.00     0.200 A 
ATOM    120  F   UNL A   1      38.729  28.233  31.585  1.00  0.00    -0.200 F 
ATOM    121  F   UNL A   1      36.814  29.081  29.836  1.00  0.00    -0.200 F 
ENDBRANCH  83 111
BRANCH  98 122
ATOM    122  C   UNL A   1      46.216  32.966  28.454  1.00  0.00     0.064 A 
ATOM    123  C   UNL A   1      45.995  33.999  27.532  1.00  0.00     0.173 A 
ATOM    124  C   UNL A   1      46.532  33.318  29.775  1.00  0.00     0.173 A 
ATOM    125  F   UNL A   1      45.706  33.711  26.254  1.00  0.00    -0.203 F 
ATOM    126  C   UNL A   1      46.097  35.332  27.917  1.00  0.00     0.198 A 
ATOM    127  C   UNL A   1      46.606  34.653  30.163  1.00  0.00     0.198 A 
ATOM    128  F   UNL A   1      46.748  32.366  30.696  1.00  0.00    -0.203 F 
ATOM    129  F   UNL A   1      45.915  36.304  27.012  1.00  0.00    -0.200 F 
ATOM    130  C   UNL A   1      46.392  35.659  29.233  1.00  0.00     0.200 A 
ATOM    131  F   UNL A   1      46.877  34.965  31.438  1.00  0.00    -0.200 F 
ATOM    132  F   UNL A   1      46.472  36.944  29.604  1.00  0.00    -0.200 F 
ENDBRANCH  98 122
ENDBRANCH  63  66
ENDBRANCH  53  56
ENDBRANCH  49  52
ENDBRANCH  46  49
ENDBRANCH  43  46
ENDBRANCH  40  43
ENDBRANCH   1  40
TORSDOF 18
ENDMDL
MODEL 9
REMARK VINA RESULT:     -11.7      0.630      2.082
REMARK SMILES NS(=O)(=O)c1ccc(/N=N/c2ccc(O)c(C(=O)NCCCCCCNC(=O)c3ccc(-c4c5nc(c(-c6c(F)c(F)c(F)c(F)c6F)c6ccc([nH]6)c(-c6c(F)c(F)c(F)c(F)c6F)c6nc(c(-c7c(F)c(F)c(F)c(F)c7F)c7ccc4[nH]7)C=C6)C=C5)cc3)c2)cc1
REMARK SMILES IDX 21 1 20 4 19 7 17 8 18 9 16 11 11 12 12 13 92 14 13 15 14 18
REMARK SMILES IDX 10 20 9 21 8 22 5 23 6 24 94 25 7 26 93 28 2 32 3 33 4 34
REMARK SMILES IDX 1 35 15 38 22 40 23 43 24 46 25 49 26 52 27 53 28 55 29 56
REMARK SMILES IDX 30 57 91 58 31 59 90 61 32 63 33 66 34 67 84 68 35 69 89 70
REMARK SMILES IDX 83 71 85 72 36 73 88 74 82 76 81 78 37 80 69 83 49 84 68 85
REMARK SMILES IDX 50 86 53 87 67 88 86 89 51 90 52 92 66 94 87 95 54 98 38 100
REMARK SMILES IDX 39 101 47 102 40 103 41 104 45 105 48 106 42 107 43 108
REMARK SMILES IDX 46 109 44 110 70 111 71 112 79 113 72 114 73 115 77 116
REMARK SMILES IDX 80 117 74 118 75 119 78 120 76 121 55 122 56 123 64 124
REMARK SMILES IDX 57 125 58 126 62 127 65 128 59 129 60 130 63 131 61 132
REMARK H PARENT 21 2 21 3 20 5 20 6 19 10 12 16 92 17 13 19 6 27 94 29 7 30
REMARK H PARENT 93 31 1 36 1 37 15 39 22 41 22 42 23 44 23 45 24 47 24 48
REMARK H PARENT 25 50 25 51 26 54 30 60 91 62 31 64 90 65 89 75 83 77 85 79
REMARK H PARENT 88 81 82 82 50 91 53 93 86 96 51 97 87 99
REMARK Flexibility Score: inf
ROOT
ATOM      1  C   UNL A   1      35.410  31.139  27.909  1.00  0.00    -0.036 C 
ATOM      2  H   UNL A   1      35.869  31.695  27.118  1.00  0.00     0.028 H 
ATOM      3  H   UNL A   1      36.084  30.802  28.670  1.00  0.00     0.028 H 
ENDROOT
BRANCH   1   4
ATOM      4  C   UNL A   1      34.825  29.869  27.301  1.00  0.00     0.018 C 
ATOM      5  H   UNL A   1      34.852  29.965  26.235  1.00  0.00     0.049 H 
ATOM      6  H   UNL A   1      35.420  29.056  27.662  1.00  0.00     0.049 H 
BRANCH   4   7
ATOM      7  N   UNL A   1      33.456  29.590  27.698  1.00  0.00    -0.352 N 
ATOM      8  C   UNL A   1      32.534  28.711  27.173  1.00  0.00     0.255 C 
ATOM      9  O   UNL A   1      31.387  28.704  27.620  1.00  0.00    -0.269 OA
ATOM     10  H   UNL A   1      33.134  30.112  28.468  1.00  0.00     0.163 HD
BRANCH   8  11
ATOM     11  C   UNL A   1      32.842  27.824  26.022  1.00  0.00     0.083 A 
ATOM     12  C   UNL A   1      33.349  25.608  25.137  1.00  0.00     0.087 A 
ATOM     13  C   UNL A   1      33.743  26.194  23.930  1.00  0.00    -0.031 A 
ATOM     14  C   UNL A   1      32.806  26.433  26.135  1.00  0.00    -0.018 A 
ATOM     15  C   UNL A   1      33.646  27.577  23.746  1.00  0.00    -0.017 A 
ATOM     16  H   UNL A   1      34.108  25.601  23.169  1.00  0.00     0.065 H 
ATOM     17  H   UNL A   1      32.373  26.003  26.967  1.00  0.00     0.066 H 
ATOM     18  C   UNL A   1      33.212  28.386  24.794  1.00  0.00     0.128 A 
ATOM     19  H   UNL A   1      33.894  27.996  22.836  1.00  0.00     0.066 H 
BRANCH  12  20
ATOM     20  N   UNL A   1      33.577  24.226  25.347  1.00  0.00    -0.151 NA
ATOM     21  N   UNL A   1      33.450  23.609  24.264  1.00  0.00    -0.151 NA
BRANCH  21  22
ATOM     22  C   UNL A   1      33.446  22.215  24.415  1.00  0.00     0.086 A 
ATOM     23  C   UNL A   1      33.629  19.418  24.430  1.00  0.00     0.082 A 
ATOM     24  C   UNL A   1      34.699  20.182  24.902  1.00  0.00    -0.040 A 
ATOM     25  C   UNL A   1      32.467  20.037  23.957  1.00  0.00    -0.040 A 
ATOM     26  C   UNL A   1      34.602  21.577  24.887  1.00  0.00    -0.033 A 
ATOM     27  H   UNL A   1      35.551  19.722  25.256  1.00  0.00     0.064 H 
ATOM     28  C   UNL A   1      32.381  21.431  23.953  1.00  0.00    -0.033 A 
ATOM     29  H   UNL A   1      31.679  19.467  23.613  1.00  0.00     0.064 H 
ATOM     30  H   UNL A   1      35.394  22.145  25.229  1.00  0.00     0.065 H 
ATOM     31  H   UNL A   1      31.523  21.889  23.605  1.00  0.00     0.065 H 
BRANCH  23  32
ATOM     32  S   UNL A   1      33.725  17.651  24.348  1.00  0.00     0.238 S 
ATOM     33  O   UNL A   1      32.695  17.106  25.200  1.00  0.00    -0.207 OA
ATOM     34  O   UNL A   1      35.114  17.272  24.450  1.00  0.00    -0.207 OA
BRANCH  32  35
ATOM     35  N   UNL A   1      33.251  17.272  22.781  1.00  0.00    -0.225 NA
ATOM     36  H   UNL A   1      33.670  17.936  22.129  1.00  0.00     0.137 HD
ATOM     37  H   UNL A   1      32.235  17.323  22.711  1.00  0.00     0.137 HD
ENDBRANCH  32  35
ENDBRANCH  23  32
ENDBRANCH  21  22
ENDBRANCH  12  20
BRANCH  18  38
ATOM     38  O   UNL A   1      33.184  29.735  24.552  1.00  0.00    -0.507 OA
ATOM     39  H   UNL A   1      33.273  30.340  25.262  1.00  0.00     0.293 HD
ENDBRANCH  18  38
ENDBRANCH   8  11
ENDBRANCH   4   7
ENDBRANCH   1   4
BRANCH   1  40
ATOM     40  C   UNL A   1      34.434  32.074  28.625  1.00  0.00    -0.052 C 
ATOM     41  H   UNL A   1      34.695  32.082  29.662  1.00  0.00     0.027 H 
ATOM     42  H   UNL A   1      33.462  31.683  28.411  1.00  0.00     0.027 H 
BRANCH  40  43
ATOM     43  C   UNL A   1      34.396  33.527  28.145  1.00  0.00    -0.052 C 
ATOM     44  H   UNL A   1      34.491  33.520  27.079  1.00  0.00     0.027 H 
ATOM     45  H   UNL A   1      35.195  34.016  28.660  1.00  0.00     0.027 H 
BRANCH  43  46
ATOM     46  C   UNL A   1      33.140  34.328  28.493  1.00  0.00    -0.036 C 
ATOM     47  H   UNL A   1      32.612  33.796  29.256  1.00  0.00     0.028 H 
ATOM     48  H   UNL A   1      32.598  34.429  27.576  1.00  0.00     0.028 H 
BRANCH  46  49
ATOM     49  C   UNL A   1      33.375  35.748  28.992  1.00  0.00     0.018 C 
ATOM     50  H   UNL A   1      33.083  36.432  28.223  1.00  0.00     0.049 H 
ATOM     51  H   UNL A   1      34.415  35.834  29.232  1.00  0.00     0.049 H 
BRANCH  49  52
ATOM     52  N   UNL A   1      32.625  36.060  30.197  1.00  0.00    -0.352 N 
ATOM     53  C   UNL A   1      32.823  35.615  31.481  1.00  0.00     0.251 C 
ATOM     54  H   UNL A   1      31.869  36.678  30.075  1.00  0.00     0.163 HD
ATOM     55  O   UNL A   1      32.012  35.878  32.363  1.00  0.00    -0.269 OA
BRANCH  53  56
ATOM     56  C   UNL A   1      34.009  34.789  31.800  1.00  0.00     0.039 A 
ATOM     57  C   UNL A   1      35.283  35.326  31.597  1.00  0.00    -0.049 A 
ATOM     58  C   UNL A   1      33.865  33.490  32.294  1.00  0.00    -0.049 A 
ATOM     59  C   UNL A   1      36.415  34.584  31.947  1.00  0.00    -0.053 A 
ATOM     60  H   UNL A   1      35.389  36.269  31.189  1.00  0.00     0.063 H 
ATOM     61  C   UNL A   1      34.989  32.779  32.708  1.00  0.00    -0.053 A 
ATOM     62  H   UNL A   1      32.930  33.058  32.352  1.00  0.00     0.063 H 
ATOM     63  C   UNL A   1      36.275  33.317  32.534  1.00  0.00    -0.014 A 
ATOM     64  H   UNL A   1      37.357  34.969  31.775  1.00  0.00     0.063 H 
ATOM     65  H   UNL A   1      34.876  31.852  33.144  1.00  0.00     0.063 H 
BRANCH  63  66
ATOM     66  C   UNL A   1      37.452  32.511  32.949  1.00  0.00     0.031 A 
ATOM     67  C   UNL A   1      38.133  32.813  34.254  1.00  0.00     0.074 A 
ATOM     68  C   UNL A   1      37.959  31.577  32.121  1.00  0.00     0.049 A 
ATOM     69  N   UNL A   1      39.255  32.338  34.734  1.00  0.00    -0.248 NA
ATOM     70  C   UNL A   1      37.481  33.806  35.121  1.00  0.00    -0.034 C 
ATOM     71  C   UNL A   1      37.404  31.210  30.819  1.00  0.00    -0.036 A 
ATOM     72  N   UNL A   1      39.068  30.778  32.248  1.00  0.00    -0.354 N 
ATOM     73  C   UNL A   1      39.453  32.993  35.943  1.00  0.00     0.074 A 
ATOM     74  C   UNL A   1      38.364  33.933  36.100  1.00  0.00    -0.034 C 
ATOM     75  H   UNL A   1      36.573  34.282  34.998  1.00  0.00     0.065 H 
ATOM     76  C   UNL A   1      38.168  30.249  30.272  1.00  0.00    -0.036 A 
ATOM     77  H   UNL A   1      36.562  31.622  30.389  1.00  0.00     0.065 H 
ATOM     78  C   UNL A   1      39.288  29.964  31.163  1.00  0.00     0.049 A 
ATOM     79  H   UNL A   1      39.651  30.787  33.042  1.00  0.00     0.167 HD
ATOM     80  C   UNL A   1      40.443  32.814  36.849  1.00  0.00     0.037 A 
ATOM     81  H   UNL A   1      38.285  34.612  36.873  1.00  0.00     0.065 H 
ATOM     82  H   UNL A   1      37.990  29.787  29.366  1.00  0.00     0.065 H 
ATOM     83  C   UNL A   1      40.289  29.098  30.911  1.00  0.00     0.037 A 
ATOM     84  C   UNL A   1      41.504  31.854  36.705  1.00  0.00     0.049 A 
ATOM     85  C   UNL A   1      41.383  28.919  31.931  1.00  0.00     0.074 A 
ATOM     86  C   UNL A   1      42.530  31.561  37.587  1.00  0.00    -0.036 A 
ATOM     87  N   UNL A   1      41.672  31.024  35.606  1.00  0.00    -0.354 N 
ATOM     88  N   UNL A   1      41.541  29.520  33.084  1.00  0.00    -0.248 NA
ATOM     89  C   UNL A   1      42.435  27.944  31.614  1.00  0.00    -0.034 C 
ATOM     90  C   UNL A   1      43.343  30.586  37.002  1.00  0.00    -0.036 A 
ATOM     91  H   UNL A   1      42.669  31.989  38.516  1.00  0.00     0.065 H 
ATOM     92  C   UNL A   1      42.795  30.232  35.781  1.00  0.00     0.049 A 
ATOM     93  H   UNL A   1      41.082  31.001  34.819  1.00  0.00     0.167 HD
ATOM     94  C   UNL A   1      42.681  28.965  33.650  1.00  0.00     0.074 A 
ATOM     95  C   UNL A   1      43.180  27.984  32.710  1.00  0.00    -0.034 C 
ATOM     96  H   UNL A   1      42.562  27.376  30.761  1.00  0.00     0.065 H 
ATOM     97  H   UNL A   1      44.207  30.196  37.412  1.00  0.00     0.065 H 
ATOM     98  C   UNL A   1      43.261  29.242  34.844  1.00  0.00     0.037 A 
ATOM     99  H   UNL A   1      44.009  27.391  32.872  1.00  0.00     0.065 H 
BRANCH  80 100
ATOM    100  C   UNL A   1      40.429  33.678  38.077  1.00  0.00     0.064 A 
ATOM    101  C   UNL A   1      39.618  33.375  39.182  1.00  0.00     0.173 A 
ATOM    102  C   UNL A   1      41.259  34.806  38.163  1.00  0.00     0.173 A 
ATOM    103  F   UNL A   1      38.798  32.316  39.147  1.00  0.00    -0.203 F 
ATOM    104  C   UNL A   1      39.618  34.187  40.314  1.00  0.00     0.198 A 
ATOM    105  C   UNL A   1      41.280  35.596  39.309  1.00  0.00     0.198 A 
ATOM    106  F   UNL A   1      42.059  35.137  37.138  1.00  0.00    -0.203 F 
ATOM    107  F   UNL A   1      38.796  33.907  41.335  1.00  0.00    -0.200 F 
ATOM    108  C   UNL A   1      40.453  35.292  40.380  1.00  0.00     0.200 A 
ATOM    109  F   UNL A   1      42.099  36.655  39.377  1.00  0.00    -0.200 F 
ATOM    110  F   UNL A   1      40.456  36.067  41.472  1.00  0.00    -0.200 F 
ENDBRANCH  80 100
BRANCH  83 111
ATOM    111  C   UNL A   1      40.297  28.321  29.644  1.00  0.00     0.064 A 
ATOM    112  C   UNL A   1      39.589  27.115  29.537  1.00  0.00     0.173 A 
ATOM    113  C   UNL A   1      41.013  28.759  28.522  1.00  0.00     0.173 A 
ATOM    114  F   UNL A   1      38.907  26.643  30.591  1.00  0.00    -0.203 F 
ATOM    115  C   UNL A   1      39.612  26.368  28.361  1.00  0.00     0.198 A 
ATOM    116  C   UNL A   1      41.011  28.026  27.336  1.00  0.00     0.198 A 
ATOM    117  F   UNL A   1      41.708  29.905  28.574  1.00  0.00    -0.203 F 
ATOM    118  F   UNL A   1      38.964  25.196  28.301  1.00  0.00    -0.200 F 
ATOM    119  C   UNL A   1      40.318  26.827  27.260  1.00  0.00     0.200 A 
ATOM    120  F   UNL A   1      41.683  28.482  26.271  1.00  0.00    -0.200 F 
ATOM    121  F   UNL A   1      40.336  26.113  26.127  1.00  0.00    -0.200 F 
ENDBRANCH  83 111
BRANCH  98 122
ATOM    122  C   UNL A   1      44.466  28.438  35.235  1.00  0.00     0.064 A 
ATOM    123  C   UNL A   1      44.352  27.217  35.914  1.00  0.00     0.173 A 
ATOM    124  C   UNL A   1      45.749  28.864  34.857  1.00  0.00     0.173 A 
ATOM    125  F   UNL A   1      43.148  26.776  36.309  1.00  0.00    -0.203 F 
ATOM    126  C   UNL A   1      45.481  26.459  36.213  1.00  0.00     0.198 A 
ATOM    127  C   UNL A   1      46.872  28.090  35.133  1.00  0.00     0.198 A 
ATOM    128  F   UNL A   1      45.910  30.024  34.200  1.00  0.00    -0.203 F 
ATOM    129  F   UNL A   1      45.353  25.311  36.893  1.00  0.00    -0.200 F 
ATOM    130  C   UNL A   1      46.738  26.890  35.813  1.00  0.00     0.200 A 
ATOM    131  F   UNL A   1      48.083  28.503  34.733  1.00  0.00    -0.200 F 
ATOM    132  F   UNL A   1      47.820  26.149  36.087  1.00  0.00    -0.200 F 
ENDBRANCH  98 122
ENDBRANCH  63  66
ENDBRANCH  53  56
ENDBRANCH  49  52
ENDBRANCH  46  49
ENDBRANCH  43  46
ENDBRANCH  40  43
ENDBRANCH   1  40
TORSDOF 18
ENDMDL
MODEL 10
REMARK VINA RESULT:     -11.7      6.010     11.879
REMARK SMILES NS(=O)(=O)c1ccc(/N=N/c2ccc(O)c(C(=O)NCCCCCCNC(=O)c3ccc(-c4c5nc(c(-c6c(F)c(F)c(F)c(F)c6F)c6ccc([nH]6)c(-c6c(F)c(F)c(F)c(F)c6F)c6nc(c(-c7c(F)c(F)c(F)c(F)c7F)c7ccc4[nH]7)C=C6)C=C5)cc3)c2)cc1
REMARK SMILES IDX 21 1 20 4 19 7 17 8 18 9 16 11 11 12 12 13 92 14 13 15 14 18
REMARK SMILES IDX 10 20 9 21 8 22 5 23 6 24 94 25 7 26 93 28 2 32 3 33 4 34
REMARK SMILES IDX 1 35 15 38 22 40 23 43 24 46 25 49 26 52 27 53 28 55 29 56
REMARK SMILES IDX 30 57 91 58 31 59 90 61 32 63 33 66 34 67 84 68 35 69 89 70
REMARK SMILES IDX 83 71 85 72 36 73 88 74 82 76 81 78 37 80 69 83 49 84 68 85
REMARK SMILES IDX 50 86 53 87 67 88 86 89 51 90 52 92 66 94 87 95 54 98 38 100
REMARK SMILES IDX 39 101 47 102 40 103 41 104 45 105 48 106 42 107 43 108
REMARK SMILES IDX 46 109 44 110 70 111 71 112 79 113 72 114 73 115 77 116
REMARK SMILES IDX 80 117 74 118 75 119 78 120 76 121 55 122 56 123 64 124
REMARK SMILES IDX 57 125 58 126 62 127 65 128 59 129 60 130 63 131 61 132
REMARK H PARENT 21 2 21 3 20 5 20 6 19 10 12 16 92 17 13 19 6 27 94 29 7 30
REMARK H PARENT 93 31 1 36 1 37 15 39 22 41 22 42 23 44 23 45 24 47 24 48
REMARK H PARENT 25 50 25 51 26 54 30 60 91 62 31 64 90 65 89 75 83 77 85 79
REMARK H PARENT 88 81 82 82 50 91 53 93 86 96 51 97 87 99
REMARK Flexibility Score: inf
ROOT
ATOM      1  C   UNL A   1      37.488  22.788  25.444  1.00  0.00    -0.036 C 
ATOM      2  H   UNL A   1      37.955  22.322  26.286  1.00  0.00     0.028 H 
ATOM      3  H   UNL A   1      38.100  23.502  24.931  1.00  0.00     0.028 H 
ENDROOT
BRANCH   1   4
ATOM      4  C   UNL A   1      36.292  23.581  25.958  1.00  0.00     0.018 C 
ATOM      5  H   UNL A   1      36.658  24.450  26.463  1.00  0.00     0.049 H 
ATOM      6  H   UNL A   1      35.692  23.817  25.103  1.00  0.00     0.049 H 
BRANCH   4   7
ATOM      7  N   UNL A   1      35.437  22.848  26.875  1.00  0.00    -0.352 N 
ATOM      8  C   UNL A   1      34.214  22.247  26.671  1.00  0.00     0.255 C 
ATOM      9  O   UNL A   1      33.621  21.750  27.629  1.00  0.00    -0.269 OA
ATOM     10  H   UNL A   1      35.788  22.765  27.791  1.00  0.00     0.163 HD
BRANCH   8  11
ATOM     11  C   UNL A   1      33.534  22.248  25.351  1.00  0.00     0.083 A 
ATOM     12  C   UNL A   1      32.229  23.407  23.646  1.00  0.00     0.087 A 
ATOM     13  C   UNL A   1      31.971  22.180  23.028  1.00  0.00    -0.031 A 
ATOM     14  C   UNL A   1      33.097  23.430  24.750  1.00  0.00    -0.018 A 
ATOM     15  C   UNL A   1      32.524  20.999  23.533  1.00  0.00    -0.017 A 
ATOM     16  H   UNL A   1      31.367  22.146  22.192  1.00  0.00     0.065 H 
ATOM     17  H   UNL A   1      33.417  24.337  25.123  1.00  0.00     0.066 H 
ATOM     18  C   UNL A   1      33.289  21.034  24.697  1.00  0.00     0.128 A 
ATOM     19  H   UNL A   1      32.367  20.103  23.043  1.00  0.00     0.066 H 
BRANCH  12  20
ATOM     20  N   UNL A   1      31.556  24.569  23.196  1.00  0.00    -0.151 NA
ATOM     21  N   UNL A   1      31.812  25.527  23.961  1.00  0.00    -0.151 NA
BRANCH  21  22
ATOM     22  C   UNL A   1      31.022  26.660  23.718  1.00  0.00     0.086 A 
ATOM     23  C   UNL A   1      29.352  28.771  22.935  1.00  0.00     0.082 A 
ATOM     24  C   UNL A   1      28.793  27.621  23.497  1.00  0.00    -0.040 A 
ATOM     25  C   UNL A   1      30.736  28.879  22.765  1.00  0.00    -0.040 A 
ATOM     26  C   UNL A   1      29.633  26.570  23.882  1.00  0.00    -0.033 A 
ATOM     27  H   UNL A   1      27.773  27.548  23.628  1.00  0.00     0.064 H 
ATOM     28  C   UNL A   1      31.564  27.824  23.158  1.00  0.00    -0.033 A 
ATOM     29  H   UNL A   1      31.143  29.732  22.352  1.00  0.00     0.064 H 
ATOM     30  H   UNL A   1      29.222  25.716  24.292  1.00  0.00     0.065 H 
ATOM     31  H   UNL A   1      32.586  27.904  23.034  1.00  0.00     0.065 H 
BRANCH  23  32
ATOM     32  S   UNL A   1      28.334  30.100  22.355  1.00  0.00     0.238 S 
ATOM     33  O   UNL A   1      27.118  30.105  23.132  1.00  0.00    -0.207 OA
ATOM     34  O   UNL A   1      28.348  30.078  20.912  1.00  0.00    -0.207 OA
BRANCH  32  35
ATOM     35  N   UNL A   1      29.156  31.494  22.810  1.00  0.00    -0.225 NA
ATOM     36  H   UNL A   1      28.860  31.772  23.745  1.00  0.00     0.137 HD
ATOM     37  H   UNL A   1      28.947  32.243  22.150  1.00  0.00     0.137 HD
ENDBRANCH  32  35
ENDBRANCH  23  32
ENDBRANCH  21  22
ENDBRANCH  12  20
BRANCH  18  38
ATOM     38  O   UNL A   1      33.760  19.832  25.154  1.00  0.00    -0.507 OA
ATOM     39  H   UNL A   1      34.414  19.369  24.668  1.00  0.00     0.293 HD
ENDBRANCH  18  38
ENDBRANCH   8  11
ENDBRANCH   4   7
ENDBRANCH   1   4
BRANCH   1  40
ATOM     40  C   UNL A   1      37.201  21.696  24.413  1.00  0.00    -0.052 C 
ATOM     41  H   UNL A   1      37.975  21.734  23.676  1.00  0.00     0.027 H 
ATOM     42  H   UNL A   1      36.220  21.909  24.044  1.00  0.00     0.027 H 
BRANCH  40  43
ATOM     43  C   UNL A   1      37.129  20.258  24.935  1.00  0.00    -0.052 C 
ATOM     44  H   UNL A   1      36.467  19.713  24.295  1.00  0.00     0.027 H 
ATOM     45  H   UNL A   1      36.799  20.341  25.949  1.00  0.00     0.027 H 
BRANCH  43  46
ATOM     46  C   UNL A   1      38.449  19.489  25.000  1.00  0.00    -0.036 C 
ATOM     47  H   UNL A   1      38.975  19.662  24.085  1.00  0.00     0.028 H 
ATOM     48  H   UNL A   1      38.181  18.467  25.163  1.00  0.00     0.028 H 
BRANCH  46  49
ATOM     49  C   UNL A   1      39.378  19.860  26.149  1.00  0.00     0.018 C 
ATOM     50  H   UNL A   1      38.880  19.647  27.073  1.00  0.00     0.049 H 
ATOM     51  H   UNL A   1      39.610  20.900  26.050  1.00  0.00     0.049 H 
BRANCH  49  52
ATOM     52  N   UNL A   1      40.635  19.131  26.125  1.00  0.00    -0.352 N 
ATOM     53  C   UNL A   1      41.919  19.615  26.188  1.00  0.00     0.251 C 
ATOM     54  H   UNL A   1      40.554  18.153  26.053  1.00  0.00     0.163 HD
ATOM     55  O   UNL A   1      42.875  18.865  26.022  1.00  0.00    -0.269 OA
BRANCH  53  56
ATOM     56  C   UNL A   1      42.153  21.057  26.429  1.00  0.00     0.039 A 
ATOM     57  C   UNL A   1      42.402  21.493  27.733  1.00  0.00    -0.049 A 
ATOM     58  C   UNL A   1      42.122  21.974  25.375  1.00  0.00    -0.049 A 
ATOM     59  C   UNL A   1      42.683  22.841  27.974  1.00  0.00    -0.053 A 
ATOM     60  H   UNL A   1      42.378  20.823  28.518  1.00  0.00     0.063 H 
ATOM     61  C   UNL A   1      42.471  23.302  25.605  1.00  0.00    -0.053 A 
ATOM     62  H   UNL A   1      41.843  21.668  24.431  1.00  0.00     0.063 H 
ATOM     63  C   UNL A   1      42.750  23.750  26.907  1.00  0.00    -0.014 A 
ATOM     64  H   UNL A   1      42.842  23.170  28.939  1.00  0.00     0.063 H 
ATOM     65  H   UNL A   1      42.525  23.961  24.813  1.00  0.00     0.063 H 
BRANCH  63  66
ATOM     66  C   UNL A   1      43.077  25.184  27.118  1.00  0.00     0.031 A 
ATOM     67  C   UNL A   1      44.446  25.691  26.762  1.00  0.00     0.074 A 
ATOM     68  C   UNL A   1      42.183  26.002  27.705  1.00  0.00     0.049 A 
ATOM     69  N   UNL A   1      44.987  26.859  27.002  1.00  0.00    -0.248 NA
ATOM     70  C   UNL A   1      45.339  24.746  26.074  1.00  0.00    -0.034 C 
ATOM     71  C   UNL A   1      40.833  25.624  28.118  1.00  0.00    -0.036 A 
ATOM     72  N   UNL A   1      42.286  27.322  28.072  1.00  0.00    -0.354 N 
ATOM     73  C   UNL A   1      46.286  26.779  26.518  1.00  0.00     0.074 A 
ATOM     74  C   UNL A   1      46.469  25.434  26.016  1.00  0.00    -0.034 C 
ATOM     75  H   UNL A   1      45.137  23.795  25.727  1.00  0.00     0.065 H 
ATOM     76  C   UNL A   1      40.228  26.689  28.671  1.00  0.00    -0.036 A 
ATOM     77  H   UNL A   1      40.411  24.689  28.004  1.00  0.00     0.065 H 
ATOM     78  C   UNL A   1      41.161  27.811  28.690  1.00  0.00     0.049 A 
ATOM     79  H   UNL A   1      43.091  27.866  27.908  1.00  0.00     0.167 HD
ATOM     80  C   UNL A   1      47.234  27.745  26.478  1.00  0.00     0.037 A 
ATOM     81  H   UNL A   1      47.363  25.061  25.659  1.00  0.00     0.065 H 
ATOM     82  H   UNL A   1      39.258  26.709  29.025  1.00  0.00     0.065 H 
ATOM     83  C   UNL A   1      40.918  29.023  29.225  1.00  0.00     0.037 A 
ATOM     84  C   UNL A   1      47.036  29.090  26.947  1.00  0.00     0.049 A 
ATOM     85  C   UNL A   1      41.989  30.080  29.174  1.00  0.00     0.074 A 
ATOM     86  C   UNL A   1      47.918  30.157  26.909  1.00  0.00    -0.036 A 
ATOM     87  N   UNL A   1      45.870  29.555  27.535  1.00  0.00    -0.354 N 
ATOM     88  N   UNL A   1      43.202  30.002  28.684  1.00  0.00    -0.248 NA
ATOM     89  C   UNL A   1      41.659  31.391  29.751  1.00  0.00    -0.034 C 
ATOM     90  C   UNL A   1      47.300  31.255  27.515  1.00  0.00    -0.036 A 
ATOM     91  H   UNL A   1      48.867  30.142  26.503  1.00  0.00     0.065 H 
ATOM     92  C   UNL A   1      46.015  30.889  27.881  1.00  0.00     0.049 A 
ATOM     93  H   UNL A   1      45.059  29.018  27.686  1.00  0.00     0.167 HD
ATOM     94  C   UNL A   1      43.763  31.261  28.851  1.00  0.00     0.074 A 
ATOM     95  C   UNL A   1      42.760  32.084  29.494  1.00  0.00    -0.034 C 
ATOM     96  H   UNL A   1      40.797  31.693  30.231  1.00  0.00     0.065 H 
ATOM     97  H   UNL A   1      47.729  32.182  27.664  1.00  0.00     0.065 H 
ATOM     98  C   UNL A   1      44.996  31.697  28.499  1.00  0.00     0.037 A 
ATOM     99  H   UNL A   1      42.886  33.082  29.724  1.00  0.00     0.065 H 
BRANCH  80 100
ATOM    100  C   UNL A   1      48.576  27.380  25.912  1.00  0.00     0.064 A 
ATOM    101  C   UNL A   1      48.838  27.447  24.535  1.00  0.00     0.173 A 
ATOM    102  C   UNL A   1      49.624  26.988  26.760  1.00  0.00     0.173 A 
ATOM    103  F   UNL A   1      47.869  27.803  23.680  1.00  0.00    -0.203 F 
ATOM    104  C   UNL A   1      50.089  27.106  24.026  1.00  0.00     0.198 A 
ATOM    105  C   UNL A   1      50.882  26.681  26.251  1.00  0.00     0.198 A 
ATOM    106  F   UNL A   1      49.430  26.914  28.085  1.00  0.00    -0.203 F 
ATOM    107  F   UNL A   1      50.299  27.127  22.702  1.00  0.00    -0.200 F 
ATOM    108  C   UNL A   1      51.112  26.731  24.883  1.00  0.00     0.200 A 
ATOM    109  F   UNL A   1      51.874  26.332  27.082  1.00  0.00    -0.200 F 
ATOM    110  F   UNL A   1      52.316  26.410  24.393  1.00  0.00    -0.200 F 
ENDBRANCH  80 100
BRANCH  83 111
ATOM    111  C   UNL A   1      39.596  29.310  29.842  1.00  0.00     0.064 A 
ATOM    112  C   UNL A   1      39.371  29.069  31.206  1.00  0.00     0.173 A 
ATOM    113  C   UNL A   1      38.532  29.822  29.086  1.00  0.00     0.173 A 
ATOM    114  F   UNL A   1      40.352  28.558  31.965  1.00  0.00    -0.203 F 
ATOM    115  C   UNL A   1      38.128  29.312  31.785  1.00  0.00     0.198 A 
ATOM    116  C   UNL A   1      37.297  30.093  29.674  1.00  0.00     0.198 A 
ATOM    117  F   UNL A   1      38.695  30.069  27.778  1.00  0.00    -0.203 F 
ATOM    118  F   UNL A   1      37.928  29.029  33.080  1.00  0.00    -0.200 F 
ATOM    119  C   UNL A   1      37.093  29.829  31.020  1.00  0.00     0.200 A 
ATOM    120  F   UNL A   1      36.306  30.607  28.934  1.00  0.00    -0.200 F 
ATOM    121  F   UNL A   1      35.900  30.068  31.578  1.00  0.00    -0.200 F 
ENDBRANCH  83 111
BRANCH  98 122
ATOM    122  C   UNL A   1      45.320  33.142  28.745  1.00  0.00     0.064 A 
ATOM    123  C   UNL A   1      45.002  34.141  27.814  1.00  0.00     0.173 A 
ATOM    124  C   UNL A   1      45.891  33.537  29.965  1.00  0.00     0.173 A 
ATOM    125  F   UNL A   1      44.469  33.811  26.627  1.00  0.00    -0.203 F 
ATOM    126  C   UNL A   1      45.257  35.481  28.090  1.00  0.00     0.198 A 
ATOM    127  C   UNL A   1      46.118  34.880  30.249  1.00  0.00     0.198 A 
ATOM    128  F   UNL A   1      46.208  32.619  30.891  1.00  0.00    -0.203 F 
ATOM    129  F   UNL A   1      44.976  36.417  27.172  1.00  0.00    -0.200 F 
ATOM    130  C   UNL A   1      45.804  35.851  29.310  1.00  0.00     0.200 A 
ATOM    131  F   UNL A   1      46.634  35.235  31.434  1.00  0.00    -0.200 F 
ATOM    132  F   UNL A   1      46.031  37.144  29.579  1.00  0.00    -0.200 F 
ENDBRANCH  98 122
ENDBRANCH  63  66
ENDBRANCH  53  56
ENDBRANCH  49  52
ENDBRANCH  46  49
ENDBRANCH  43  46
ENDBRANCH  40  43
ENDBRANCH   1  40
TORSDOF 18
ENDMDL
