MODEL 1
REMARK VINA RESULT:      -9.4      0.000      0.000
REMARK SMILES CC1CC[NH+]([C@H](c2ccc(F)cc2)c2ccc([C@@H](C)C(=O)NCCCCCCNC(=O)c3ccc(-c4c5nc(c(-c6c(F)c(F)c(F)c(F)c6F)c6ccc([nH]6)c(-c6c(F)c(F)c(F)c(F)c6F)c6nc(c(-c7c(F)c(F)c(F)c(F)c7F)c7ccc4[nH]7)C=C6)C=C5)cc3)cc2-c2ccc(C(F)(F)F)cc2)CC1
REMARK SMILES IDX 24 1 23 4 22 7 20 8 21 9 18 11 17 13 14 14 15 15 96 16 16 17
REMARK SMILES IDX 95 19 6 22 5 24 2 25 3 26 108 27 4 29 107 32 1 40 7 44 8 45
REMARK SMILES IDX 13 46 9 47 12 49 10 51 11 54 97 55 98 56 106 57 99 58 105 60
REMARK SMILES IDX 100 62 101 65 102 66 103 67 104 68 19 69 25 73 26 76 27 79
REMARK SMILES IDX 28 82 29 85 30 86 31 88 32 89 33 90 94 91 34 92 93 94 35 96
REMARK SMILES IDX 36 99 37 100 87 101 38 102 92 103 86 104 88 105 39 106
REMARK SMILES IDX 91 107 85 109 84 111 40 113 72 116 52 117 71 118 53 119
REMARK SMILES IDX 56 120 70 121 89 122 54 123 55 125 69 127 90 128 57 131
REMARK SMILES IDX 41 133 42 134 50 135 43 136 44 137 48 138 51 139 45 140
REMARK SMILES IDX 46 141 49 142 47 143 73 144 74 145 82 146 75 147 76 148
REMARK SMILES IDX 80 149 83 150 77 151 78 152 81 153 79 154 58 155 59 156
REMARK SMILES IDX 67 157 60 158 61 159 65 160 68 161 62 162 63 163 66 164
REMARK SMILES IDX 64 165
REMARK H PARENT 24 2 24 3 23 5 23 6 22 10 18 12 15 18 16 20 95 21 6 23 2 28
REMARK H PARENT 3 30 3 31 108 33 108 34 4 35 4 36 107 37 107 38 5 39 1 41 1 42
REMARK H PARENT 1 43 8 48 13 50 9 52 12 53 98 59 106 61 99 63 105 64 19 70
REMARK H PARENT 19 71 19 72 25 74 25 75 26 77 26 78 27 80 27 81 28 83 28 84
REMARK H PARENT 29 87 33 93 94 95 34 97 93 98 92 108 86 110 88 112 91 114
REMARK H PARENT 85 115 53 124 56 126 89 129 54 130 90 132
REMARK Flexibility Score: inf
ROOT
ATOM      1  C   UNL A   1      43.958  23.225  30.687  1.00  0.00    -0.036 C 
ATOM      2  H   UNL A   1      44.339  22.226  30.647  1.00  0.00     0.028 H 
ATOM      3  H   UNL A   1      42.925  23.261  30.963  1.00  0.00     0.028 H 
ENDROOT
BRANCH   1   4
ATOM      4  C   UNL A   1      44.064  23.840  29.285  1.00  0.00     0.017 C 
ATOM      5  H   UNL A   1      43.453  23.275  28.611  1.00  0.00     0.049 H 
ATOM      6  H   UNL A   1      43.734  24.857  29.340  1.00  0.00     0.049 H 
BRANCH   4   7
ATOM      7  N   UNL A   1      45.429  23.834  28.799  1.00  0.00    -0.356 N 
ATOM      8  C   UNL A   1      46.102  24.619  27.915  1.00  0.00     0.227 C 
ATOM      9  O   UNL A   1      47.267  24.280  27.672  1.00  0.00    -0.274 OA
ATOM     10  H   UNL A   1      45.981  23.117  29.187  1.00  0.00     0.163 HD
BRANCH   8  11
ATOM     11  C   UNL A   1      45.516  25.871  27.230  1.00  0.00     0.060 C 
ATOM     12  H   UNL A   1      44.453  25.743  27.254  1.00  0.00     0.045 H 
BRANCH  11  13
ATOM     13  C   UNL A   1      45.751  27.147  28.017  1.00  0.00    -0.035 A 
ATOM     14  C   UNL A   1      45.788  29.524  29.621  1.00  0.00     0.022 A 
ATOM     15  C   UNL A   1      46.112  28.257  30.128  1.00  0.00    -0.052 A 
ATOM     16  C   UNL A   1      45.584  29.605  28.215  1.00  0.00    -0.009 A 
ATOM     17  C   UNL A   1      46.193  27.125  29.327  1.00  0.00    -0.058 A 
ATOM     18  H   UNL A   1      46.297  28.161  31.140  1.00  0.00     0.063 H 
ATOM     19  C   UNL A   1      45.487  28.405  27.461  1.00  0.00    -0.050 A 
ATOM     20  H   UNL A   1      46.589  26.255  29.714  1.00  0.00     0.063 H 
ATOM     21  H   UNL A   1      45.213  28.462  26.468  1.00  0.00     0.063 H 
BRANCH  14  22
ATOM     22  C   UNL A   1      45.738  30.766  30.558  1.00  0.00     0.139 C 
ATOM     23  H   UNL A   1      46.618  31.281  30.232  1.00  0.00     0.107 H 
BRANCH  22  24
ATOM     24  N   UNL A   1      45.961  30.552  32.028  1.00  0.00    -0.325 N 
ATOM     25  C   UNL A   1      46.716  31.611  34.651  1.00  0.00    -0.034 C 
ATOM     26  C   UNL A   1      45.255  31.264  34.379  1.00  0.00    -0.001 C 
ATOM     27  C   UNL A   1      47.580  30.569  33.959  1.00  0.00    -0.001 C 
ATOM     28  H   UNL A   1      46.931  32.589  34.273  1.00  0.00     0.030 H 
ATOM     29  C   UNL A   1      44.934  31.158  32.882  1.00  0.00     0.078 C 
ATOM     30  H   UNL A   1      44.637  32.026  34.806  1.00  0.00     0.033 H 
ATOM     31  H   UNL A   1      45.066  30.306  34.815  1.00  0.00     0.033 H 
ATOM     32  C   UNL A   1      47.358  30.624  32.455  1.00  0.00     0.078 C 
ATOM     33  H   UNL A   1      47.319  29.597  34.320  1.00  0.00     0.033 H 
ATOM     34  H   UNL A   1      48.609  30.772  34.169  1.00  0.00     0.033 H 
ATOM     35  H   UNL A   1      44.754  32.148  32.519  1.00  0.00     0.092 H 
ATOM     36  H   UNL A   1      44.094  30.498  32.821  1.00  0.00     0.092 H 
ATOM     37  H   UNL A   1      47.767  31.544  32.093  1.00  0.00     0.092 H 
ATOM     38  H   UNL A   1      47.837  29.756  32.052  1.00  0.00     0.092 H 
ATOM     39  H   UNL A   1      45.787  29.561  32.200  1.00  0.00     0.348 HD
BRANCH  25  40
ATOM     40  C   UNL A   1      47.007  31.633  36.142  1.00  0.00    -0.062 C 
ATOM     41  H   UNL A   1      46.107  31.431  36.685  1.00  0.00     0.023 H 
ATOM     42  H   UNL A   1      47.382  32.596  36.418  1.00  0.00     0.023 H 
ATOM     43  H   UNL A   1      47.738  30.887  36.375  1.00  0.00     0.023 H 
ENDBRANCH  25  40
ENDBRANCH  22  24
BRANCH  22  44
ATOM     44  C   UNL A   1      44.498  31.656  30.332  1.00  0.00     0.014 A 
ATOM     45  C   UNL A   1      43.193  31.123  30.291  1.00  0.00    -0.050 A 
ATOM     46  C   UNL A   1      44.657  33.044  30.162  1.00  0.00    -0.050 A 
ATOM     47  C   UNL A   1      42.086  31.953  30.109  1.00  0.00    -0.026 A 
ATOM     48  H   UNL A   1      43.054  30.105  30.396  1.00  0.00     0.063 H 
ATOM     49  C   UNL A   1      43.551  33.868  29.939  1.00  0.00    -0.026 A 
ATOM     50  H   UNL A   1      45.602  33.459  30.203  1.00  0.00     0.063 H 
ATOM     51  C   UNL A   1      42.278  33.316  29.925  1.00  0.00     0.123 A 
ATOM     52  H   UNL A   1      41.134  31.558  30.111  1.00  0.00     0.065 H 
ATOM     53  H   UNL A   1      43.681  34.880  29.785  1.00  0.00     0.065 H 
ATOM     54  F   UNL A   1      41.216  34.110  29.731  1.00  0.00    -0.207 F 
ENDBRANCH  22  44
ENDBRANCH  14  22
BRANCH  16  55
ATOM     55  C   UNL A   1      45.530  30.879  27.470  1.00  0.00    -0.018 A 
ATOM     56  C   UNL A   1      46.666  31.686  27.311  1.00  0.00    -0.054 A 
ATOM     57  C   UNL A   1      44.312  31.341  26.942  1.00  0.00    -0.054 A 
ATOM     58  C   UNL A   1      46.593  32.898  26.614  1.00  0.00    -0.049 A 
ATOM     59  H   UNL A   1      47.566  31.384  27.712  1.00  0.00     0.063 H 
ATOM     60  C   UNL A   1      44.239  32.543  26.234  1.00  0.00    -0.049 A 
ATOM     61  H   UNL A   1      43.456  30.781  27.081  1.00  0.00     0.063 H 
ATOM     62  C   UNL A   1      45.382  33.330  26.055  1.00  0.00     0.056 A 
ATOM     63  H   UNL A   1      47.440  33.479  26.512  1.00  0.00     0.063 H 
ATOM     64  H   UNL A   1      43.336  32.851  25.840  1.00  0.00     0.063 H 
BRANCH  62  65
ATOM     65  C   UNL A   1      45.318  34.632  25.295  1.00  0.00     0.416 C 
ATOM     66  F   UNL A   1      46.516  35.279  25.269  1.00  0.00    -0.166 F 
ATOM     67  F   UNL A   1      44.953  34.465  23.994  1.00  0.00    -0.166 F 
ATOM     68  F   UNL A   1      44.426  35.520  25.819  1.00  0.00    -0.166 F 
ENDBRANCH  62  65
ENDBRANCH  16  55
ENDBRANCH  11  13
BRANCH  11  69
ATOM     69  C   UNL A   1      45.817  25.959  25.736  1.00  0.00    -0.049 C 
ATOM     70  H   UNL A   1      44.923  25.762  25.180  1.00  0.00     0.024 H 
ATOM     71  H   UNL A   1      46.563  25.237  25.478  1.00  0.00     0.024 H 
ATOM     72  H   UNL A   1      46.173  26.940  25.501  1.00  0.00     0.024 H 
ENDBRANCH  11  69
ENDBRANCH   8  11
ENDBRANCH   4   7
ENDBRANCH   1   4
BRANCH   1  73
ATOM     73  C   UNL A   1      44.730  23.991  31.762  1.00  0.00    -0.052 C 
ATOM     74  H   UNL A   1      44.558  25.036  31.616  1.00  0.00     0.027 H 
ATOM     75  H   UNL A   1      45.758  23.715  31.651  1.00  0.00     0.027 H 
BRANCH  73  76
ATOM     76  C   UNL A   1      44.340  23.639  33.204  1.00  0.00    -0.052 C 
ATOM     77  H   UNL A   1      43.457  23.038  33.171  1.00  0.00     0.027 H 
ATOM     78  H   UNL A   1      44.204  24.572  33.711  1.00  0.00     0.027 H 
BRANCH  76  79
ATOM     79  C   UNL A   1      45.405  22.874  33.997  1.00  0.00    -0.036 C 
ATOM     80  H   UNL A   1      45.724  22.039  33.411  1.00  0.00     0.028 H 
ATOM     81  H   UNL A   1      44.950  22.582  34.920  1.00  0.00     0.028 H 
BRANCH  79  82
ATOM     82  C   UNL A   1      46.632  23.706  34.354  1.00  0.00     0.018 C 
ATOM     83  H   UNL A   1      46.592  24.633  33.821  1.00  0.00     0.049 H 
ATOM     84  H   UNL A   1      47.507  23.151  34.084  1.00  0.00     0.049 H 
BRANCH  82  85
ATOM     85  N   UNL A   1      46.688  23.984  35.785  1.00  0.00    -0.352 N 
ATOM     86  C   UNL A   1      46.241  25.089  36.472  1.00  0.00     0.251 C 
ATOM     87  H   UNL A   1      47.105  23.284  36.336  1.00  0.00     0.163 HD
ATOM     88  O   UNL A   1      46.594  25.300  37.623  1.00  0.00    -0.269 OA
BRANCH  86  89
ATOM     89  C   UNL A   1      45.311  26.015  35.798  1.00  0.00     0.039 A 
ATOM     90  C   UNL A   1      45.796  27.083  35.041  1.00  0.00    -0.049 A 
ATOM     91  C   UNL A   1      43.941  25.801  35.918  1.00  0.00    -0.049 A 
ATOM     92  C   UNL A   1      44.896  27.885  34.331  1.00  0.00    -0.053 A 
ATOM     93  H   UNL A   1      46.808  27.278  35.005  1.00  0.00     0.063 H 
ATOM     94  C   UNL A   1      43.057  26.544  35.147  1.00  0.00    -0.053 A 
ATOM     95  H   UNL A   1      43.582  25.093  36.576  1.00  0.00     0.063 H 
ATOM     96  C   UNL A   1      43.522  27.592  34.341  1.00  0.00    -0.014 A 
ATOM     97  H   UNL A   1      45.244  28.697  33.798  1.00  0.00     0.063 H 
ATOM     98  H   UNL A   1      42.049  26.322  35.167  1.00  0.00     0.063 H 
BRANCH  96  99
ATOM     99  C   UNL A   1      42.532  28.340  33.525  1.00  0.00     0.031 A 
ATOM    100  C   UNL A   1      41.615  29.331  34.187  1.00  0.00     0.074 A 
ATOM    101  C   UNL A   1      42.365  28.033  32.223  1.00  0.00     0.049 A 
ATOM    102  N   UNL A   1      40.568  29.948  33.699  1.00  0.00    -0.248 NA
ATOM    103  C   UNL A   1      41.884  29.638  35.601  1.00  0.00    -0.034 C 
ATOM    104  C   UNL A   1      43.155  27.055  31.478  1.00  0.00    -0.036 A 
ATOM    105  N   UNL A   1      41.456  28.497  31.303  1.00  0.00    -0.354 N 
ATOM    106  C   UNL A   1      40.045  30.690  34.749  1.00  0.00     0.074 A 
ATOM    107  C   UNL A   1      40.849  30.403  35.916  1.00  0.00    -0.034 C 
ATOM    108  H   UNL A   1      42.674  29.336  36.194  1.00  0.00     0.065 H 
ATOM    109  C   UNL A   1      42.713  27.004  30.212  1.00  0.00    -0.036 A 
ATOM    110  H   UNL A   1      43.930  26.492  31.864  1.00  0.00     0.065 H 
ATOM    111  C   UNL A   1      41.574  27.906  30.068  1.00  0.00     0.049 A 
ATOM    112  H   UNL A   1      40.785  29.186  31.508  1.00  0.00     0.167 HD
ATOM    113  C   UNL A   1      39.004  31.554  34.733  1.00  0.00     0.037 A 
ATOM    114  H   UNL A   1      40.644  30.747  36.867  1.00  0.00     0.065 H 
ATOM    115  H   UNL A   1      43.114  26.421  29.460  1.00  0.00     0.065 H 
ATOM    116  C   UNL A   1      40.837  28.058  28.949  1.00  0.00     0.037 A 
ATOM    117  C   UNL A   1      38.234  31.865  33.559  1.00  0.00     0.049 A 
ATOM    118  C   UNL A   1      39.676  29.014  28.956  1.00  0.00     0.074 A 
ATOM    119  C   UNL A   1      37.211  32.786  33.422  1.00  0.00    -0.036 A 
ATOM    120  N   UNL A   1      38.402  31.262  32.320  1.00  0.00    -0.354 N 
ATOM    121  N   UNL A   1      39.228  29.759  29.937  1.00  0.00    -0.248 NA
ATOM    122  C   UNL A   1      38.916  29.153  27.705  1.00  0.00    -0.034 C 
ATOM    123  C   UNL A   1      36.719  32.697  32.119  1.00  0.00    -0.036 A 
ATOM    124  H   UNL A   1      36.872  33.426  34.156  1.00  0.00     0.065 H 
ATOM    125  C   UNL A   1      37.478  31.770  31.422  1.00  0.00     0.049 A 
ATOM    126  H   UNL A   1      39.077  30.577  32.111  1.00  0.00     0.167 HD
ATOM    127  C   UNL A   1      38.156  30.472  29.419  1.00  0.00     0.074 A 
ATOM    128  C   UNL A   1      38.019  30.075  28.034  1.00  0.00    -0.034 C 
ATOM    129  H   UNL A   1      39.045  28.663  26.806  1.00  0.00     0.065 H 
ATOM    130  H   UNL A   1      35.923  33.233  31.738  1.00  0.00     0.065 H 
ATOM    131  C   UNL A   1      37.361  31.377  30.040  1.00  0.00     0.037 A 
ATOM    132  H   UNL A   1      37.314  30.460  27.386  1.00  0.00     0.065 H 
BRANCH 113 133
ATOM    133  C   UNL A   1      38.636  32.240  36.018  1.00  0.00     0.064 A 
ATOM    134  C   UNL A   1      39.022  33.570  36.250  1.00  0.00     0.173 A 
ATOM    135  C   UNL A   1      37.965  31.564  37.048  1.00  0.00     0.173 A 
ATOM    136  F   UNL A   1      39.673  34.261  35.302  1.00  0.00    -0.203 F 
ATOM    137  C   UNL A   1      38.759  34.191  37.468  1.00  0.00     0.198 A 
ATOM    138  C   UNL A   1      37.673  32.199  38.251  1.00  0.00     0.198 A 
ATOM    139  F   UNL A   1      37.567  30.294  36.875  1.00  0.00    -0.203 F 
ATOM    140  F   UNL A   1      39.170  35.449  37.679  1.00  0.00    -0.200 F 
ATOM    141  C   UNL A   1      38.079  33.507  38.465  1.00  0.00     0.200 A 
ATOM    142  F   UNL A   1      36.992  31.546  39.203  1.00  0.00    -0.200 F 
ATOM    143  F   UNL A   1      37.814  34.112  39.632  1.00  0.00    -0.200 F 
ENDBRANCH 113 133
BRANCH 116 144
ATOM    144  C   UNL A   1      41.207  27.299  27.726  1.00  0.00     0.064 A 
ATOM    145  C   UNL A   1      40.887  25.941  27.578  1.00  0.00     0.173 A 
ATOM    146  C   UNL A   1      41.945  27.910  26.702  1.00  0.00     0.173 A 
ATOM    147  F   UNL A   1      40.189  25.308  28.533  1.00  0.00    -0.203 F 
ATOM    148  C   UNL A   1      41.316  25.216  26.468  1.00  0.00     0.198 A 
ATOM    149  C   UNL A   1      42.351  27.189  25.579  1.00  0.00     0.198 A 
ATOM    150  F   UNL A   1      42.260  29.209  26.789  1.00  0.00    -0.203 F 
ATOM    151  F   UNL A   1      41.037  23.909  26.375  1.00  0.00    -0.200 F 
ATOM    152  C   UNL A   1      42.046  25.842  25.468  1.00  0.00     0.200 A 
ATOM    153  F   UNL A   1      43.037  27.803  24.606  1.00  0.00    -0.200 F 
ATOM    154  F   UNL A   1      42.458  25.145  24.400  1.00  0.00    -0.200 F 
ENDBRANCH 116 144
BRANCH 131 155
ATOM    155  C   UNL A   1      36.279  32.040  29.240  1.00  0.00     0.064 A 
ATOM    156  C   UNL A   1      36.305  33.430  29.035  1.00  0.00     0.173 A 
ATOM    157  C   UNL A   1      35.150  31.332  28.807  1.00  0.00     0.173 A 
ATOM    158  F   UNL A   1      37.360  34.152  29.441  1.00  0.00    -0.203 F 
ATOM    159  C   UNL A   1      35.223  34.089  28.461  1.00  0.00     0.198 A 
ATOM    160  C   UNL A   1      34.081  31.993  28.207  1.00  0.00     0.198 A 
ATOM    161  F   UNL A   1      35.083  30.003  28.972  1.00  0.00    -0.203 F 
ATOM    162  F   UNL A   1      35.246  35.423  28.328  1.00  0.00    -0.200 F 
ATOM    163  C   UNL A   1      34.111  33.371  28.049  1.00  0.00     0.200 A 
ATOM    164  F   UNL A   1      33.014  31.295  27.792  1.00  0.00    -0.200 F 
ATOM    165  F   UNL A   1      33.065  34.007  27.505  1.00  0.00    -0.200 F 
ENDBRANCH 131 155
ENDBRANCH  96  99
ENDBRANCH  86  89
ENDBRANCH  82  85
ENDBRANCH  79  82
ENDBRANCH  76  79
ENDBRANCH  73  76
ENDBRANCH   1  73
TORSDOF 21
ENDMDL
MODEL 2
REMARK VINA RESULT:      -9.0      3.616      8.330
REMARK SMILES CC1CC[NH+]([C@H](c2ccc(F)cc2)c2ccc([C@@H](C)C(=O)NCCCCCCNC(=O)c3ccc(-c4c5nc(c(-c6c(F)c(F)c(F)c(F)c6F)c6ccc([nH]6)c(-c6c(F)c(F)c(F)c(F)c6F)c6nc(c(-c7c(F)c(F)c(F)c(F)c7F)c7ccc4[nH]7)C=C6)C=C5)cc3)cc2-c2ccc(C(F)(F)F)cc2)CC1
REMARK SMILES IDX 24 1 23 4 22 7 20 8 21 9 18 11 17 13 14 14 15 15 96 16 16 17
REMARK SMILES IDX 95 19 6 22 5 24 2 25 3 26 108 27 4 29 107 32 1 40 7 44 8 45
REMARK SMILES IDX 13 46 9 47 12 49 10 51 11 54 97 55 98 56 106 57 99 58 105 60
REMARK SMILES IDX 100 62 101 65 102 66 103 67 104 68 19 69 25 73 26 76 27 79
REMARK SMILES IDX 28 82 29 85 30 86 31 88 32 89 33 90 94 91 34 92 93 94 35 96
REMARK SMILES IDX 36 99 37 100 87 101 38 102 92 103 86 104 88 105 39 106
REMARK SMILES IDX 91 107 85 109 84 111 40 113 72 116 52 117 71 118 53 119
REMARK SMILES IDX 56 120 70 121 89 122 54 123 55 125 69 127 90 128 57 131
REMARK SMILES IDX 41 133 42 134 50 135 43 136 44 137 48 138 51 139 45 140
REMARK SMILES IDX 46 141 49 142 47 143 73 144 74 145 82 146 75 147 76 148
REMARK SMILES IDX 80 149 83 150 77 151 78 152 81 153 79 154 58 155 59 156
REMARK SMILES IDX 67 157 60 158 61 159 65 160 68 161 62 162 63 163 66 164
REMARK SMILES IDX 64 165
REMARK H PARENT 24 2 24 3 23 5 23 6 22 10 18 12 15 18 16 20 95 21 6 23 2 28
REMARK H PARENT 3 30 3 31 108 33 108 34 4 35 4 36 107 37 107 38 5 39 1 41 1 42
REMARK H PARENT 1 43 8 48 13 50 9 52 12 53 98 59 106 61 99 63 105 64 19 70
REMARK H PARENT 19 71 19 72 25 74 25 75 26 77 26 78 27 80 27 81 28 83 28 84
REMARK H PARENT 29 87 33 93 94 95 34 97 93 98 92 108 86 110 88 112 91 114
REMARK H PARENT 85 115 53 124 56 126 89 129 54 130 90 132
REMARK Flexibility Score: inf
ROOT
ATOM      1  C   UNL A   1      45.820  24.049  27.286  1.00  0.00    -0.036 C 
ATOM      2  H   UNL A   1      45.755  23.691  28.292  1.00  0.00     0.028 H 
ATOM      3  H   UNL A   1      46.265  23.338  26.622  1.00  0.00     0.028 H 
ENDROOT
BRANCH   1   4
ATOM      4  C   UNL A   1      46.720  25.292  27.273  1.00  0.00     0.017 C 
ATOM      5  H   UNL A   1      46.353  25.994  27.992  1.00  0.00     0.049 H 
ATOM      6  H   UNL A   1      47.717  24.985  27.511  1.00  0.00     0.049 H 
BRANCH   4   7
ATOM      7  N   UNL A   1      46.742  25.924  25.969  1.00  0.00    -0.356 N 
ATOM      8  C   UNL A   1      46.099  27.006  25.452  1.00  0.00     0.227 C 
ATOM      9  O   UNL A   1      46.300  27.229  24.251  1.00  0.00    -0.274 OA
ATOM     10  H   UNL A   1      47.344  25.481  25.328  1.00  0.00     0.163 HD
BRANCH   8  11
ATOM     11  C   UNL A   1      45.173  27.942  26.254  1.00  0.00     0.060 C 
ATOM     12  H   UNL A   1      45.102  27.512  27.232  1.00  0.00     0.045 H 
BRANCH  11  13
ATOM     13  C   UNL A   1      45.777  29.314  26.499  1.00  0.00    -0.035 A 
ATOM     14  C   UNL A   1      46.982  31.769  27.357  1.00  0.00     0.022 A 
ATOM     15  C   UNL A   1      47.719  30.710  26.807  1.00  0.00    -0.052 A 
ATOM     16  C   UNL A   1      45.566  31.631  27.331  1.00  0.00    -0.009 A 
ATOM     17  C   UNL A   1      47.121  29.564  26.298  1.00  0.00    -0.058 A 
ATOM     18  H   UNL A   1      48.749  30.785  26.780  1.00  0.00     0.063 H 
ATOM     19  C   UNL A   1      45.002  30.376  26.982  1.00  0.00    -0.050 A 
ATOM     20  H   UNL A   1      47.689  28.890  25.761  1.00  0.00     0.063 H 
ATOM     21  H   UNL A   1      43.984  30.241  27.086  1.00  0.00     0.063 H 
BRANCH  14  22
ATOM     22  C   UNL A   1      47.700  33.044  27.890  1.00  0.00     0.139 C 
ATOM     23  H   UNL A   1      46.921  33.766  27.754  1.00  0.00     0.107 H 
BRANCH  22  24
ATOM     24  N   UNL A   1      48.851  33.591  27.095  1.00  0.00    -0.325 N 
ATOM     25  C   UNL A   1      50.363  35.886  26.086  1.00  0.00    -0.034 C 
ATOM     26  C   UNL A   1      50.968  35.020  27.187  1.00  0.00    -0.001 C 
ATOM     27  C   UNL A   1      49.615  34.971  25.129  1.00  0.00    -0.001 C 
ATOM     28  H   UNL A   1      49.697  36.604  26.517  1.00  0.00     0.030 H 
ATOM     29  C   UNL A   1      49.925  34.162  27.915  1.00  0.00     0.078 C 
ATOM     30  H   UNL A   1      51.443  35.659  27.902  1.00  0.00     0.033 H 
ATOM     31  H   UNL A   1      51.665  34.352  26.723  1.00  0.00     0.033 H 
ATOM     32  C   UNL A   1      48.475  34.276  25.859  1.00  0.00     0.078 C 
ATOM     33  H   UNL A   1      50.289  34.236  24.743  1.00  0.00     0.033 H 
ATOM     34  H   UNL A   1      49.214  35.555  24.328  1.00  0.00     0.033 H 
ATOM     35  H   UNL A   1      49.469  34.774  28.664  1.00  0.00     0.092 H 
ATOM     36  H   UNL A   1      50.467  33.320  28.292  1.00  0.00     0.092 H 
ATOM     37  H   UNL A   1      47.737  35.013  26.101  1.00  0.00     0.092 H 
ATOM     38  H   UNL A   1      48.117  33.516  25.195  1.00  0.00     0.092 H 
ATOM     39  H   UNL A   1      49.330  32.783  26.696  1.00  0.00     0.348 HD
BRANCH  25  40
ATOM     40  C   UNL A   1      51.438  36.662  25.342  1.00  0.00    -0.062 C 
ATOM     41  H   UNL A   1      51.442  36.369  24.313  1.00  0.00     0.023 H 
ATOM     42  H   UNL A   1      52.393  36.452  25.777  1.00  0.00     0.023 H 
ATOM     43  H   UNL A   1      51.237  37.710  25.413  1.00  0.00     0.023 H 
ENDBRANCH  25  40
ENDBRANCH  22  24
BRANCH  22  44
ATOM     44  C   UNL A   1      48.078  32.958  29.383  1.00  0.00     0.014 A 
ATOM     45  C   UNL A   1      48.881  31.916  29.891  1.00  0.00    -0.050 A 
ATOM     46  C   UNL A   1      47.617  33.942  30.277  1.00  0.00    -0.050 A 
ATOM     47  C   UNL A   1      49.228  31.874  31.243  1.00  0.00    -0.026 A 
ATOM     48  H   UNL A   1      49.216  31.174  29.257  1.00  0.00     0.063 H 
ATOM     49  C   UNL A   1      47.931  33.876  31.636  1.00  0.00    -0.026 A 
ATOM     50  H   UNL A   1      47.040  34.722  29.925  1.00  0.00     0.063 H 
ATOM     51  C   UNL A   1      48.741  32.850  32.104  1.00  0.00     0.123 A 
ATOM     52  H   UNL A   1      49.840  31.125  31.600  1.00  0.00     0.065 H 
ATOM     53  H   UNL A   1      47.563  34.585  32.290  1.00  0.00     0.065 H 
ATOM     54  F   UNL A   1      49.059  32.799  33.404  1.00  0.00    -0.207 F 
ENDBRANCH  22  44
ENDBRANCH  14  22
BRANCH  16  55
ATOM     55  C   UNL A   1      44.632  32.746  27.587  1.00  0.00    -0.018 A 
ATOM     56  C   UNL A   1      43.921  32.848  28.791  1.00  0.00    -0.054 A 
ATOM     57  C   UNL A   1      44.395  33.713  26.595  1.00  0.00    -0.054 A 
ATOM     58  C   UNL A   1      43.028  33.903  29.010  1.00  0.00    -0.049 A 
ATOM     59  H   UNL A   1      44.056  32.136  29.525  1.00  0.00     0.063 H 
ATOM     60  C   UNL A   1      43.515  34.776  26.816  1.00  0.00    -0.049 A 
ATOM     61  H   UNL A   1      44.879  33.635  25.686  1.00  0.00     0.063 H 
ATOM     62  C   UNL A   1      42.829  34.887  28.030  1.00  0.00     0.056 A 
ATOM     63  H   UNL A   1      42.512  33.957  29.901  1.00  0.00     0.063 H 
ATOM     64  H   UNL A   1      43.372  35.484  26.078  1.00  0.00     0.063 H 
BRANCH  62  65
ATOM     65  C   UNL A   1      41.874  36.027  28.282  1.00  0.00     0.416 C 
ATOM     66  F   UNL A   1      41.506  36.661  27.134  1.00  0.00    -0.166 F 
ATOM     67  F   UNL A   1      40.716  35.623  28.874  1.00  0.00    -0.166 F 
ATOM     68  F   UNL A   1      42.387  36.994  29.094  1.00  0.00    -0.166 F 
ENDBRANCH  62  65
ENDBRANCH  16  55
ENDBRANCH  11  13
BRANCH  11  69
ATOM     69  C   UNL A   1      43.723  27.942  25.774  1.00  0.00    -0.049 C 
ATOM     70  H   UNL A   1      43.526  28.846  25.236  1.00  0.00     0.024 H 
ATOM     71  H   UNL A   1      43.068  27.880  26.618  1.00  0.00     0.024 H 
ATOM     72  H   UNL A   1      43.560  27.103  25.133  1.00  0.00     0.024 H 
ENDBRANCH  11  69
ENDBRANCH   8  11
ENDBRANCH   4   7
ENDBRANCH   1   4
BRANCH   1  73
ATOM     73  C   UNL A   1      44.401  24.304  26.774  1.00  0.00    -0.052 C 
ATOM     74  H   UNL A   1      44.385  24.108  25.723  1.00  0.00     0.027 H 
ATOM     75  H   UNL A   1      44.169  25.320  27.016  1.00  0.00     0.027 H 
BRANCH  73  76
ATOM     76  C   UNL A   1      43.317  23.444  27.437  1.00  0.00    -0.052 C 
ATOM     77  H   UNL A   1      42.623  24.098  27.919  1.00  0.00     0.027 H 
ATOM     78  H   UNL A   1      43.829  22.790  28.113  1.00  0.00     0.027 H 
BRANCH  76  79
ATOM     79  C   UNL A   1      42.531  22.539  26.482  1.00  0.00    -0.036 C 
ATOM     80  H   UNL A   1      43.179  21.752  26.157  1.00  0.00     0.028 H 
ATOM     81  H   UNL A   1      42.197  23.159  25.676  1.00  0.00     0.028 H 
BRANCH  79  82
ATOM     82  C   UNL A   1      41.287  21.912  27.101  1.00  0.00     0.018 C 
ATOM     83  H   UNL A   1      41.052  22.427  28.009  1.00  0.00     0.049 H 
ATOM     84  H   UNL A   1      41.490  20.878  27.293  1.00  0.00     0.049 H 
BRANCH  82  85
ATOM     85  N   UNL A   1      40.144  21.996  26.199  1.00  0.00    -0.352 N 
ATOM     86  C   UNL A   1      39.166  22.960  26.127  1.00  0.00     0.251 C 
ATOM     87  H   UNL A   1      40.061  21.261  25.551  1.00  0.00     0.163 HD
ATOM     88  O   UNL A   1      38.131  22.762  25.506  1.00  0.00    -0.269 OA
BRANCH  86  89
ATOM     89  C   UNL A   1      39.390  24.252  26.803  1.00  0.00     0.039 A 
ATOM     90  C   UNL A   1      38.936  24.460  28.106  1.00  0.00    -0.049 A 
ATOM     91  C   UNL A   1      40.075  25.258  26.127  1.00  0.00    -0.049 A 
ATOM     92  C   UNL A   1      39.250  25.656  28.761  1.00  0.00    -0.053 A 
ATOM     93  H   UNL A   1      38.375  23.738  28.583  1.00  0.00     0.063 H 
ATOM     94  C   UNL A   1      40.458  26.407  26.805  1.00  0.00    -0.053 A 
ATOM     95  H   UNL A   1      40.298  25.150  25.125  1.00  0.00     0.063 H 
ATOM     96  C   UNL A   1      40.055  26.620  28.130  1.00  0.00    -0.014 A 
ATOM     97  H   UNL A   1      38.888  25.832  29.711  1.00  0.00     0.063 H 
ATOM     98  H   UNL A   1      41.046  27.110  26.329  1.00  0.00     0.063 H 
BRANCH  96  99
ATOM     99  C   UNL A   1      40.511  27.860  28.810  1.00  0.00     0.031 A 
ATOM    100  C   UNL A   1      41.895  27.927  29.394  1.00  0.00     0.074 A 
ATOM    101  C   UNL A   1      39.641  28.868  29.020  1.00  0.00     0.049 A 
ATOM    102  N   UNL A   1      42.422  28.832  30.178  1.00  0.00    -0.248 NA
ATOM    103  C   UNL A   1      42.795  26.802  29.090  1.00  0.00    -0.034 C 
ATOM    104  C   UNL A   1      38.258  28.902  28.550  1.00  0.00    -0.036 A 
ATOM    105  N   UNL A   1      39.788  30.049  29.707  1.00  0.00    -0.354 N 
ATOM    106  C   UNL A   1      43.697  28.374  30.480  1.00  0.00     0.074 A 
ATOM    107  C   UNL A   1      43.847  27.084  29.845  1.00  0.00    -0.034 C 
ATOM    108  H   UNL A   1      42.646  26.002  28.454  1.00  0.00     0.065 H 
ATOM    109  C   UNL A   1      37.688  30.052  28.942  1.00  0.00    -0.036 A 
ATOM    110  H   UNL A   1      37.792  28.161  28.002  1.00  0.00     0.065 H 
ATOM    111  C   UNL A   1      38.647  30.813  29.738  1.00  0.00     0.049 A 
ATOM    112  H   UNL A   1      40.631  30.321  30.137  1.00  0.00     0.167 HD
ATOM    113  C   UNL A   1      44.664  28.989  31.198  1.00  0.00     0.037 A 
ATOM    114  H   UNL A   1      44.664  26.464  29.965  1.00  0.00     0.065 H 
ATOM    115  H   UNL A   1      36.725  30.351  28.718  1.00  0.00     0.065 H 
ATOM    116  C   UNL A   1      38.393  31.985  30.353  1.00  0.00     0.037 A 
ATOM    117  C   UNL A   1      44.522  30.290  31.793  1.00  0.00     0.049 A 
ATOM    118  C   UNL A   1      39.478  32.647  31.157  1.00  0.00     0.074 A 
ATOM    119  C   UNL A   1      45.471  31.032  32.472  1.00  0.00    -0.036 A 
ATOM    120  N   UNL A   1      43.356  31.042  31.779  1.00  0.00    -0.354 N 
ATOM    121  N   UNL A   1      40.702  32.235  31.383  1.00  0.00    -0.248 NA
ATOM    122  C   UNL A   1      39.153  33.932  31.793  1.00  0.00    -0.034 C 
ATOM    123  C   UNL A   1      44.864  32.205  32.923  1.00  0.00    -0.036 A 
ATOM    124  H   UNL A   1      46.457  30.765  32.619  1.00  0.00     0.065 H 
ATOM    125  C   UNL A   1      43.555  32.228  32.467  1.00  0.00     0.049 A 
ATOM    126  H   UNL A   1      42.514  30.775  31.345  1.00  0.00     0.167 HD
ATOM    127  C   UNL A   1      41.300  33.217  32.161  1.00  0.00     0.074 A 
ATOM    128  C   UNL A   1      40.307  34.249  32.369  1.00  0.00    -0.034 C 
ATOM    129  H   UNL A   1      38.261  34.451  31.794  1.00  0.00     0.065 H 
ATOM    130  H   UNL A   1      45.314  32.934  33.499  1.00  0.00     0.065 H 
ATOM    131  C   UNL A   1      42.561  33.255  32.654  1.00  0.00     0.037 A 
ATOM    132  H   UNL A   1      40.474  35.120  32.896  1.00  0.00     0.065 H 
BRANCH 113 133
ATOM    133  C   UNL A   1      45.974  28.273  31.376  1.00  0.00     0.064 A 
ATOM    134  C   UNL A   1      47.055  28.546  30.525  1.00  0.00     0.173 A 
ATOM    135  C   UNL A   1      46.137  27.268  32.342  1.00  0.00     0.173 A 
ATOM    136  F   UNL A   1      46.951  29.492  29.579  1.00  0.00    -0.203 F 
ATOM    137  C   UNL A   1      48.247  27.832  30.627  1.00  0.00     0.198 A 
ATOM    138  C   UNL A   1      47.342  26.581  32.464  1.00  0.00     0.198 A 
ATOM    139  F   UNL A   1      45.137  26.973  33.186  1.00  0.00    -0.203 F 
ATOM    140  F   UNL A   1      49.253  28.086  29.779  1.00  0.00    -0.200 F 
ATOM    141  C   UNL A   1      48.391  26.855  31.601  1.00  0.00     0.200 A 
ATOM    142  F   UNL A   1      47.488  25.656  33.423  1.00  0.00    -0.200 F 
ATOM    143  F   UNL A   1      49.543  26.179  31.707  1.00  0.00    -0.200 F 
ENDBRANCH 113 133
BRANCH 116 144
ATOM    144  C   UNL A   1      37.055  32.614  30.196  1.00  0.00     0.064 A 
ATOM    145  C   UNL A   1      36.068  32.498  31.188  1.00  0.00     0.173 A 
ATOM    146  C   UNL A   1      36.718  33.295  29.018  1.00  0.00     0.173 A 
ATOM    147  F   UNL A   1      36.337  31.849  32.330  1.00  0.00    -0.203 F 
ATOM    148  C   UNL A   1      34.788  33.014  30.994  1.00  0.00     0.198 A 
ATOM    149  C   UNL A   1      35.445  33.834  28.837  1.00  0.00     0.198 A 
ATOM    150  F   UNL A   1      37.631  33.448  28.050  1.00  0.00    -0.203 F 
ATOM    151  F   UNL A   1      33.851  32.848  31.937  1.00  0.00    -0.200 F 
ATOM    152  C   UNL A   1      34.478  33.683  29.820  1.00  0.00     0.200 A 
ATOM    153  F   UNL A   1      35.156  34.498  27.710  1.00  0.00    -0.200 F 
ATOM    154  F   UNL A   1      33.248  34.180  29.634  1.00  0.00    -0.200 F 
ENDBRANCH 116 144
BRANCH 131 155
ATOM    155  C   UNL A   1      42.978  34.459  33.448  1.00  0.00     0.064 A 
ATOM    156  C   UNL A   1      42.803  34.479  34.842  1.00  0.00     0.173 A 
ATOM    157  C   UNL A   1      43.407  35.637  32.822  1.00  0.00     0.173 A 
ATOM    158  F   UNL A   1      42.384  33.378  35.486  1.00  0.00    -0.203 F 
ATOM    159  C   UNL A   1      43.006  35.644  35.573  1.00  0.00     0.198 A 
ATOM    160  C   UNL A   1      43.637  36.794  33.562  1.00  0.00     0.198 A 
ATOM    161  F   UNL A   1      43.598  35.664  31.495  1.00  0.00    -0.203 F 
ATOM    162  F   UNL A   1      42.777  35.655  36.893  1.00  0.00    -0.200 F 
ATOM    163  C   UNL A   1      43.421  36.802  34.932  1.00  0.00     0.200 A 
ATOM    164  F   UNL A   1      44.055  37.908  32.944  1.00  0.00    -0.200 F 
ATOM    165  F   UNL A   1      43.606  37.928  35.634  1.00  0.00    -0.200 F 
ENDBRANCH 131 155
ENDBRANCH  96  99
ENDBRANCH  86  89
ENDBRANCH  82  85
ENDBRANCH  79  82
ENDBRANCH  76  79
ENDBRANCH  73  76
ENDBRANCH   1  73
TORSDOF 21
ENDMDL
MODEL 3
REMARK VINA RESULT:      -8.7      3.748     10.477
REMARK SMILES CC1CC[NH+]([C@H](c2ccc(F)cc2)c2ccc([C@@H](C)C(=O)NCCCCCCNC(=O)c3ccc(-c4c5nc(c(-c6c(F)c(F)c(F)c(F)c6F)c6ccc([nH]6)c(-c6c(F)c(F)c(F)c(F)c6F)c6nc(c(-c7c(F)c(F)c(F)c(F)c7F)c7ccc4[nH]7)C=C6)C=C5)cc3)cc2-c2ccc(C(F)(F)F)cc2)CC1
REMARK SMILES IDX 24 1 23 4 22 7 20 8 21 9 18 11 17 13 14 14 15 15 96 16 16 17
REMARK SMILES IDX 95 19 6 22 5 24 2 25 3 26 108 27 4 29 107 32 1 40 7 44 8 45
REMARK SMILES IDX 13 46 9 47 12 49 10 51 11 54 97 55 98 56 106 57 99 58 105 60
REMARK SMILES IDX 100 62 101 65 102 66 103 67 104 68 19 69 25 73 26 76 27 79
REMARK SMILES IDX 28 82 29 85 30 86 31 88 32 89 33 90 94 91 34 92 93 94 35 96
REMARK SMILES IDX 36 99 37 100 87 101 38 102 92 103 86 104 88 105 39 106
REMARK SMILES IDX 91 107 85 109 84 111 40 113 72 116 52 117 71 118 53 119
REMARK SMILES IDX 56 120 70 121 89 122 54 123 55 125 69 127 90 128 57 131
REMARK SMILES IDX 41 133 42 134 50 135 43 136 44 137 48 138 51 139 45 140
REMARK SMILES IDX 46 141 49 142 47 143 73 144 74 145 82 146 75 147 76 148
REMARK SMILES IDX 80 149 83 150 77 151 78 152 81 153 79 154 58 155 59 156
REMARK SMILES IDX 67 157 60 158 61 159 65 160 68 161 62 162 63 163 66 164
REMARK SMILES IDX 64 165
REMARK H PARENT 24 2 24 3 23 5 23 6 22 10 18 12 15 18 16 20 95 21 6 23 2 28
REMARK H PARENT 3 30 3 31 108 33 108 34 4 35 4 36 107 37 107 38 5 39 1 41 1 42
REMARK H PARENT 1 43 8 48 13 50 9 52 12 53 98 59 106 61 99 63 105 64 19 70
REMARK H PARENT 19 71 19 72 25 74 25 75 26 77 26 78 27 80 27 81 28 83 28 84
REMARK H PARENT 29 87 33 93 94 95 34 97 93 98 92 108 86 110 88 112 91 114
REMARK H PARENT 85 115 53 124 56 126 89 129 54 130 90 132
REMARK Flexibility Score: inf
ROOT
ATOM      1  C   UNL A   1      39.093  36.049  40.612  1.00  0.00    -0.036 C 
ATOM      2  H   UNL A   1      39.649  35.296  41.130  1.00  0.00     0.028 H 
ATOM      3  H   UNL A   1      38.048  36.024  40.845  1.00  0.00     0.028 H 
ENDROOT
BRANCH   1   4
ATOM      4  C   UNL A   1      39.217  35.791  39.105  1.00  0.00     0.017 C 
ATOM      5  H   UNL A   1      38.236  35.744  38.678  1.00  0.00     0.049 H 
ATOM      6  H   UNL A   1      39.784  36.590  38.674  1.00  0.00     0.049 H 
BRANCH   4   7
ATOM      7  N   UNL A   1      39.908  34.548  38.829  1.00  0.00    -0.356 N 
ATOM      8  C   UNL A   1      39.476  33.297  38.508  1.00  0.00     0.227 C 
ATOM      9  O   UNL A   1      40.356  32.433  38.409  1.00  0.00    -0.274 OA
ATOM     10  H   UNL A   1      40.888  34.623  38.884  1.00  0.00     0.163 HD
BRANCH   8  11
ATOM     11  C   UNL A   1      38.003  32.915  38.261  1.00  0.00     0.060 C 
ATOM     12  H   UNL A   1      37.447  33.825  38.355  1.00  0.00     0.045 H 
BRANCH  11  13
ATOM     13  C   UNL A   1      37.734  32.465  36.837  1.00  0.00    -0.035 A 
ATOM     14  C   UNL A   1      37.574  31.832  34.045  1.00  0.00     0.022 A 
ATOM     15  C   UNL A   1      38.261  31.032  34.970  1.00  0.00    -0.052 A 
ATOM     16  C   UNL A   1      36.818  32.910  34.585  1.00  0.00    -0.009 A 
ATOM     17  C   UNL A   1      38.250  31.285  36.336  1.00  0.00    -0.058 A 
ATOM     18  H   UNL A   1      38.798  30.222  34.621  1.00  0.00     0.063 H 
ATOM     19  C   UNL A   1      36.983  33.251  35.954  1.00  0.00    -0.050 A 
ATOM     20  H   UNL A   1      38.633  30.581  36.986  1.00  0.00     0.063 H 
ATOM     21  H   UNL A   1      36.532  34.108  36.311  1.00  0.00     0.063 H 
BRANCH  14  22
ATOM     22  C   UNL A   1      37.596  31.489  32.526  1.00  0.00     0.139 C 
ATOM     23  H   UNL A   1      36.547  31.375  32.347  1.00  0.00     0.107 H 
BRANCH  22  24
ATOM     24  N   UNL A   1      38.186  30.172  32.108  1.00  0.00    -0.325 N 
ATOM     25  C   UNL A   1      39.215  28.419  30.001  1.00  0.00    -0.034 C 
ATOM     26  C   UNL A   1      40.188  29.031  31.004  1.00  0.00    -0.001 C 
ATOM     27  C   UNL A   1      37.937  28.066  30.746  1.00  0.00    -0.001 C 
ATOM     28  H   UNL A   1      39.012  29.121  29.220  1.00  0.00     0.030 H 
ATOM     29  C   UNL A   1      39.604  30.243  31.742  1.00  0.00     0.078 C 
ATOM     30  H   UNL A   1      41.068  29.342  30.480  1.00  0.00     0.033 H 
ATOM     31  H   UNL A   1      40.405  28.283  31.738  1.00  0.00     0.033 H 
ATOM     32  C   UNL A   1      37.298  29.327  31.309  1.00  0.00     0.078 C 
ATOM     33  H   UNL A   1      38.168  27.397  31.548  1.00  0.00     0.033 H 
ATOM     34  H   UNL A   1      37.254  27.599  30.068  1.00  0.00     0.033 H 
ATOM     35  H   UNL A   1      39.734  31.098  31.112  1.00  0.00     0.092 H 
ATOM     36  H   UNL A   1      40.132  30.286  32.672  1.00  0.00     0.092 H 
ATOM     37  H   UNL A   1      36.936  29.910  30.488  1.00  0.00     0.092 H 
ATOM     38  H   UNL A   1      36.526  28.998  31.972  1.00  0.00     0.092 H 
ATOM     39  H   UNL A   1      38.238  29.603  32.953  1.00  0.00     0.348 HD
BRANCH  25  40
ATOM     40  C   UNL A   1      39.804  27.179  29.348  1.00  0.00    -0.062 C 
ATOM     41  H   UNL A   1      39.465  26.307  29.867  1.00  0.00     0.023 H 
ATOM     42  H   UNL A   1      40.872  27.227  29.392  1.00  0.00     0.023 H 
ATOM     43  H   UNL A   1      39.491  27.130  28.327  1.00  0.00     0.023 H 
ENDBRANCH  25  40
ENDBRANCH  22  24
BRANCH  22  44
ATOM     44  C   UNL A   1      38.157  32.626  31.648  1.00  0.00     0.014 A 
ATOM     45  C   UNL A   1      37.580  32.965  30.407  1.00  0.00    -0.050 A 
ATOM     46  C   UNL A   1      39.277  33.357  32.085  1.00  0.00    -0.050 A 
ATOM     47  C   UNL A   1      38.093  34.014  29.642  1.00  0.00    -0.026 A 
ATOM     48  H   UNL A   1      36.768  32.431  30.058  1.00  0.00     0.063 H 
ATOM     49  C   UNL A   1      39.814  34.379  31.299  1.00  0.00    -0.026 A 
ATOM     50  H   UNL A   1      39.707  33.136  32.997  1.00  0.00     0.063 H 
ATOM     51  C   UNL A   1      39.211  34.704  30.092  1.00  0.00     0.123 A 
ATOM     52  H   UNL A   1      37.645  34.275  28.750  1.00  0.00     0.065 H 
ATOM     53  H   UNL A   1      40.654  34.889  31.614  1.00  0.00     0.065 H 
ATOM     54  F   UNL A   1      39.714  35.699  29.349  1.00  0.00    -0.207 F 
ENDBRANCH  22  44
ENDBRANCH  14  22
BRANCH  16  55
ATOM     55  C   UNL A   1      35.810  33.666  33.815  1.00  0.00    -0.018 A 
ATOM     56  C   UNL A   1      34.544  33.131  33.537  1.00  0.00    -0.054 A 
ATOM     57  C   UNL A   1      36.120  34.934  33.294  1.00  0.00    -0.054 A 
ATOM     58  C   UNL A   1      33.606  33.856  32.793  1.00  0.00    -0.049 A 
ATOM     59  H   UNL A   1      34.300  32.190  33.885  1.00  0.00     0.063 H 
ATOM     60  C   UNL A   1      35.181  35.666  32.563  1.00  0.00    -0.049 A 
ATOM     61  H   UNL A   1      37.060  35.330  33.454  1.00  0.00     0.063 H 
ATOM     62  C   UNL A   1      33.910  35.137  32.313  1.00  0.00     0.056 A 
ATOM     63  H   UNL A   1      32.681  33.442  32.597  1.00  0.00     0.063 H 
ATOM     64  H   UNL A   1      35.427  36.603  32.207  1.00  0.00     0.063 H 
BRANCH  62  65
ATOM     65  C   UNL A   1      32.887  35.915  31.523  1.00  0.00     0.416 C 
ATOM     66  F   UNL A   1      31.673  35.953  32.138  1.00  0.00    -0.166 F 
ATOM     67  F   UNL A   1      33.249  37.213  31.327  1.00  0.00    -0.166 F 
ATOM     68  F   UNL A   1      32.659  35.403  30.280  1.00  0.00    -0.166 F 
ENDBRANCH  62  65
ENDBRANCH  16  55
ENDBRANCH  11  13
BRANCH  11  69
ATOM     69  C   UNL A   1      37.400  32.032  39.351  1.00  0.00    -0.049 C 
ATOM     70  H   UNL A   1      37.781  32.332  40.305  1.00  0.00     0.024 H 
ATOM     71  H   UNL A   1      37.661  31.011  39.169  1.00  0.00     0.024 H 
ATOM     72  H   UNL A   1      36.335  32.135  39.345  1.00  0.00     0.024 H 
ENDBRANCH  11  69
ENDBRANCH   8  11
ENDBRANCH   4   7
ENDBRANCH   1   4
BRANCH   1  73
ATOM     73  C   UNL A   1      39.612  37.418  41.054  1.00  0.00    -0.052 C 
ATOM     74  H   UNL A   1      38.915  37.830  41.753  1.00  0.00     0.027 H 
ATOM     75  H   UNL A   1      39.712  38.005  40.165  1.00  0.00     0.027 H 
BRANCH  73  76
ATOM     76  C   UNL A   1      40.996  37.395  41.716  1.00  0.00    -0.052 C 
ATOM     77  H   UNL A   1      40.869  37.607  42.756  1.00  0.00     0.027 H 
ATOM     78  H   UNL A   1      41.585  38.125  41.200  1.00  0.00     0.027 H 
BRANCH  76  79
ATOM     79  C   UNL A   1      41.754  36.069  41.590  1.00  0.00    -0.036 C 
ATOM     80  H   UNL A   1      41.048  35.300  41.362  1.00  0.00     0.028 H 
ATOM     81  H   UNL A   1      42.252  35.910  42.524  1.00  0.00     0.028 H 
BRANCH  79  82
ATOM     82  C   UNL A   1      42.831  36.068  40.511  1.00  0.00     0.018 C 
ATOM     83  H   UNL A   1      42.550  35.382  39.739  1.00  0.00     0.049 H 
ATOM     84  H   UNL A   1      43.758  35.775  40.959  1.00  0.00     0.049 H 
BRANCH  82  85
ATOM     85  N   UNL A   1      43.002  37.394  39.928  1.00  0.00    -0.352 N 
ATOM     86  C   UNL A   1      43.326  37.739  38.636  1.00  0.00     0.251 C 
ATOM     87  H   UNL A   1      42.866  38.148  40.544  1.00  0.00     0.163 HD
ATOM     88  O   UNL A   1      43.694  38.871  38.360  1.00  0.00    -0.269 OA
BRANCH  86  89
ATOM     89  C   UNL A   1      43.210  36.717  37.578  1.00  0.00     0.039 A 
ATOM     90  C   UNL A   1      41.990  36.492  36.938  1.00  0.00    -0.049 A 
ATOM     91  C   UNL A   1      44.339  35.987  37.218  1.00  0.00    -0.049 A 
ATOM     92  C   UNL A   1      41.931  35.590  35.871  1.00  0.00    -0.053 A 
ATOM     93  H   UNL A   1      41.141  36.988  37.249  1.00  0.00     0.063 H 
ATOM     94  C   UNL A   1      44.298  35.157  36.106  1.00  0.00    -0.053 A 
ATOM     95  H   UNL A   1      45.205  36.062  37.774  1.00  0.00     0.063 H 
ATOM     96  C   UNL A   1      43.096  34.951  35.416  1.00  0.00    -0.014 A 
ATOM     97  H   UNL A   1      41.026  35.393  35.415  1.00  0.00     0.063 H 
ATOM     98  H   UNL A   1      45.160  34.689  35.785  1.00  0.00     0.063 H 
BRANCH  96  99
ATOM     99  C   UNL A   1      43.117  34.065  34.223  1.00  0.00     0.031 A 
ATOM    100  C   UNL A   1      43.092  32.572  34.400  1.00  0.00     0.074 A 
ATOM    101  C   UNL A   1      43.294  34.595  32.996  1.00  0.00     0.049 A 
ATOM    102  N   UNL A   1      43.287  31.628  33.515  1.00  0.00    -0.248 NA
ATOM    103  C   UNL A   1      42.860  32.073  35.766  1.00  0.00    -0.034 C 
ATOM    104  C   UNL A   1      43.385  36.023  32.698  1.00  0.00    -0.036 A 
ATOM    105  N   UNL A   1      43.455  33.990  31.773  1.00  0.00    -0.354 N 
ATOM    106  C   UNL A   1      43.227  30.433  34.219  1.00  0.00     0.074 A 
ATOM    107  C   UNL A   1      43.037  30.769  35.612  1.00  0.00    -0.034 C 
ATOM    108  H   UNL A   1      42.621  32.601  36.620  1.00  0.00     0.065 H 
ATOM    109  C   UNL A   1      43.565  36.187  31.379  1.00  0.00    -0.036 A 
ATOM    110  H   UNL A   1      43.321  36.786  33.392  1.00  0.00     0.065 H 
ATOM    111  C   UNL A   1      43.656  34.875  30.743  1.00  0.00     0.049 A 
ATOM    112  H   UNL A   1      43.429  33.014  31.648  1.00  0.00     0.167 HD
ATOM    113  C   UNL A   1      43.295  29.170  33.740  1.00  0.00     0.037 A 
ATOM    114  H   UNL A   1      43.041  30.084  36.385  1.00  0.00     0.065 H 
ATOM    115  H   UNL A   1      43.628  37.094  30.891  1.00  0.00     0.065 H 
ATOM    116  C   UNL A   1      43.904  34.659  29.436  1.00  0.00     0.037 A 
ATOM    117  C   UNL A   1      43.443  28.843  32.348  1.00  0.00     0.049 A 
ATOM    118  C   UNL A   1      43.989  33.246  28.926  1.00  0.00     0.074 A 
ATOM    119  C   UNL A   1      43.443  27.594  31.754  1.00  0.00    -0.036 A 
ATOM    120  N   UNL A   1      43.618  29.772  31.332  1.00  0.00    -0.354 N 
ATOM    121  N   UNL A   1      43.867  32.123  29.590  1.00  0.00    -0.248 NA
ATOM    122  C   UNL A   1      44.246  33.066  27.489  1.00  0.00    -0.034 C 
ATOM    123  C   UNL A   1      43.679  27.762  30.389  1.00  0.00    -0.036 A 
ATOM    124  H   UNL A   1      43.294  26.694  32.237  1.00  0.00     0.065 H 
ATOM    125  C   UNL A   1      43.759  29.119  30.119  1.00  0.00     0.049 A 
ATOM    126  H   UNL A   1      43.638  30.748  31.454  1.00  0.00     0.167 HD
ATOM    127  C   UNL A   1      44.005  31.107  28.654  1.00  0.00     0.074 A 
ATOM    128  C   UNL A   1      44.218  31.744  27.372  1.00  0.00    -0.034 C 
ATOM    129  H   UNL A   1      44.408  33.781  26.762  1.00  0.00     0.065 H 
ATOM    130  H   UNL A   1      43.778  27.003  29.696  1.00  0.00     0.065 H 
ATOM    131  C   UNL A   1      43.956  29.766  28.846  1.00  0.00     0.037 A 
ATOM    132  H   UNL A   1      44.332  31.236  26.482  1.00  0.00     0.065 H 
BRANCH 113 133
ATOM    133  C   UNL A   1      43.199  28.037  34.723  1.00  0.00     0.064 A 
ATOM    134  C   UNL A   1      44.317  27.654  35.479  1.00  0.00     0.173 A 
ATOM    135  C   UNL A   1      42.023  27.285  34.866  1.00  0.00     0.173 A 
ATOM    136  F   UNL A   1      45.469  28.333  35.376  1.00  0.00    -0.203 F 
ATOM    137  C   UNL A   1      44.264  26.555  36.333  1.00  0.00     0.198 A 
ATOM    138  C   UNL A   1      41.963  26.209  35.747  1.00  0.00     0.198 A 
ATOM    139  F   UNL A   1      40.922  27.613  34.172  1.00  0.00    -0.203 F 
ATOM    140  F   UNL A   1      45.356  26.187  37.017  1.00  0.00    -0.200 F 
ATOM    141  C   UNL A   1      43.085  25.837  36.470  1.00  0.00     0.200 A 
ATOM    142  F   UNL A   1      40.815  25.534  35.898  1.00  0.00    -0.200 F 
ATOM    143  F   UNL A   1      43.031  24.789  37.303  1.00  0.00    -0.200 F 
ENDBRANCH 113 133
BRANCH 116 144
ATOM    144  C   UNL A   1      44.059  35.821  28.522  1.00  0.00     0.064 A 
ATOM    145  C   UNL A   1      45.290  36.478  28.370  1.00  0.00     0.173 A 
ATOM    146  C   UNL A   1      42.956  36.335  27.826  1.00  0.00     0.173 A 
ATOM    147  F   UNL A   1      46.374  36.030  29.020  1.00  0.00    -0.203 F 
ATOM    148  C   UNL A   1      45.404  37.621  27.581  1.00  0.00     0.198 A 
ATOM    149  C   UNL A   1      43.078  37.463  27.016  1.00  0.00     0.198 A 
ATOM    150  F   UNL A   1      41.763  35.732  27.925  1.00  0.00    -0.203 F 
ATOM    151  F   UNL A   1      46.580  38.256  27.491  1.00  0.00    -0.200 F 
ATOM    152  C   UNL A   1      44.298  38.111  26.902  1.00  0.00     0.200 A 
ATOM    153  F   UNL A   1      42.012  37.921  26.346  1.00  0.00    -0.200 F 
ATOM    154  F   UNL A   1      44.408  39.209  26.143  1.00  0.00    -0.200 F 
ENDBRANCH 116 144
BRANCH 131 155
ATOM    155  C   UNL A   1      44.103  28.871  27.650  1.00  0.00     0.064 A 
ATOM    156  C   UNL A   1      42.966  28.457  26.936  1.00  0.00     0.173 A 
ATOM    157  C   UNL A   1      45.339  28.310  27.303  1.00  0.00     0.173 A 
ATOM    158  F   UNL A   1      41.759  28.958  27.238  1.00  0.00    -0.203 F 
ATOM    159  C   UNL A   1      43.058  27.485  25.946  1.00  0.00     0.198 A 
ATOM    160  C   UNL A   1      45.431  27.358  26.291  1.00  0.00     0.198 A 
ATOM    161  F   UNL A   1      46.454  28.682  27.948  1.00  0.00    -0.203 F 
ATOM    162  F   UNL A   1      41.951  27.062  25.318  1.00  0.00    -0.200 F 
ATOM    163  C   UNL A   1      44.289  26.935  25.625  1.00  0.00     0.200 A 
ATOM    164  F   UNL A   1      46.624  26.840  25.969  1.00  0.00    -0.200 F 
ATOM    165  F   UNL A   1      44.376  25.990  24.678  1.00  0.00    -0.200 F 
ENDBRANCH 131 155
ENDBRANCH  96  99
ENDBRANCH  86  89
ENDBRANCH  82  85
ENDBRANCH  79  82
ENDBRANCH  76  79
ENDBRANCH  73  76
ENDBRANCH   1  73
TORSDOF 21
ENDMDL
MODEL 4
REMARK VINA RESULT:      -8.6      3.868      9.832
REMARK SMILES CC1CC[NH+]([C@H](c2ccc(F)cc2)c2ccc([C@@H](C)C(=O)NCCCCCCNC(=O)c3ccc(-c4c5nc(c(-c6c(F)c(F)c(F)c(F)c6F)c6ccc([nH]6)c(-c6c(F)c(F)c(F)c(F)c6F)c6nc(c(-c7c(F)c(F)c(F)c(F)c7F)c7ccc4[nH]7)C=C6)C=C5)cc3)cc2-c2ccc(C(F)(F)F)cc2)CC1
REMARK SMILES IDX 24 1 23 4 22 7 20 8 21 9 18 11 17 13 14 14 15 15 96 16 16 17
REMARK SMILES IDX 95 19 6 22 5 24 2 25 3 26 108 27 4 29 107 32 1 40 7 44 8 45
REMARK SMILES IDX 13 46 9 47 12 49 10 51 11 54 97 55 98 56 106 57 99 58 105 60
REMARK SMILES IDX 100 62 101 65 102 66 103 67 104 68 19 69 25 73 26 76 27 79
REMARK SMILES IDX 28 82 29 85 30 86 31 88 32 89 33 90 94 91 34 92 93 94 35 96
REMARK SMILES IDX 36 99 37 100 87 101 38 102 92 103 86 104 88 105 39 106
REMARK SMILES IDX 91 107 85 109 84 111 40 113 72 116 52 117 71 118 53 119
REMARK SMILES IDX 56 120 70 121 89 122 54 123 55 125 69 127 90 128 57 131
REMARK SMILES IDX 41 133 42 134 50 135 43 136 44 137 48 138 51 139 45 140
REMARK SMILES IDX 46 141 49 142 47 143 73 144 74 145 82 146 75 147 76 148
REMARK SMILES IDX 80 149 83 150 77 151 78 152 81 153 79 154 58 155 59 156
REMARK SMILES IDX 67 157 60 158 61 159 65 160 68 161 62 162 63 163 66 164
REMARK SMILES IDX 64 165
REMARK H PARENT 24 2 24 3 23 5 23 6 22 10 18 12 15 18 16 20 95 21 6 23 2 28
REMARK H PARENT 3 30 3 31 108 33 108 34 4 35 4 36 107 37 107 38 5 39 1 41 1 42
REMARK H PARENT 1 43 8 48 13 50 9 52 12 53 98 59 106 61 99 63 105 64 19 70
REMARK H PARENT 19 71 19 72 25 74 25 75 26 77 26 78 27 80 27 81 28 83 28 84
REMARK H PARENT 29 87 33 93 94 95 34 97 93 98 92 108 86 110 88 112 91 114
REMARK H PARENT 85 115 53 124 56 126 89 129 54 130 90 132
REMARK Flexibility Score: inf
ROOT
ATOM      1  C   UNL A   1      44.412  38.660  29.872  1.00  0.00    -0.036 C 
ATOM      2  H   UNL A   1      43.355  38.736  30.018  1.00  0.00     0.028 H 
ATOM      3  H   UNL A   1      44.902  39.611  29.905  1.00  0.00     0.028 H 
ENDROOT
BRANCH   1   4
ATOM      4  C   UNL A   1      44.667  38.078  28.475  1.00  0.00     0.017 C 
ATOM      5  H   UNL A   1      45.095  38.838  27.855  1.00  0.00     0.049 H 
ATOM      6  H   UNL A   1      45.333  37.246  28.576  1.00  0.00     0.049 H 
BRANCH   4   7
ATOM      7  N   UNL A   1      43.443  37.605  27.860  1.00  0.00    -0.356 N 
ATOM      8  C   UNL A   1      42.779  36.418  27.909  1.00  0.00     0.227 C 
ATOM      9  O   UNL A   1      41.778  36.331  27.187  1.00  0.00    -0.274 OA
ATOM     10  H   UNL A   1      43.003  38.278  27.292  1.00  0.00     0.163 HD
BRANCH   8  11
ATOM     11  C   UNL A   1      43.186  35.222  28.792  1.00  0.00     0.060 C 
ATOM     12  H   UNL A   1      44.087  35.520  29.287  1.00  0.00     0.045 H 
BRANCH  11  13
ATOM     13  C   UNL A   1      42.213  34.958  29.927  1.00  0.00    -0.035 A 
ATOM     14  C   UNL A   1      40.504  34.058  32.046  1.00  0.00     0.022 A 
ATOM     15  C   UNL A   1      41.806  34.531  32.266  1.00  0.00    -0.052 A 
ATOM     16  C   UNL A   1      40.003  34.188  30.721  1.00  0.00    -0.009 A 
ATOM     17  C   UNL A   1      42.593  35.062  31.252  1.00  0.00    -0.058 A 
ATOM     18  H   UNL A   1      42.196  34.482  33.221  1.00  0.00     0.063 H 
ATOM     19  C   UNL A   1      40.895  34.555  29.678  1.00  0.00    -0.050 A 
ATOM     20  H   UNL A   1      43.475  35.542  31.491  1.00  0.00     0.063 H 
ATOM     21  H   UNL A   1      40.560  34.525  28.702  1.00  0.00     0.063 H 
BRANCH  14  22
ATOM     22  C   UNL A   1      39.653  33.497  33.223  1.00  0.00     0.139 C 
ATOM     23  H   UNL A   1      38.699  33.421  32.743  1.00  0.00     0.107 H 
BRANCH  22  24
ATOM     24  N   UNL A   1      39.401  34.393  34.402  1.00  0.00    -0.325 N 
ATOM     25  C   UNL A   1      40.064  35.229  37.129  1.00  0.00    -0.034 C 
ATOM     26  C   UNL A   1      40.423  36.142  35.960  1.00  0.00    -0.001 C 
ATOM     27  C   UNL A   1      38.722  34.584  36.822  1.00  0.00    -0.001 C 
ATOM     28  H   UNL A   1      40.820  34.482  37.249  1.00  0.00     0.030 H 
ATOM     29  C   UNL A   1      40.436  35.411  34.611  1.00  0.00     0.078 C 
ATOM     30  H   UNL A   1      41.396  36.552  36.134  1.00  0.00     0.033 H 
ATOM     31  H   UNL A   1      39.673  36.903  35.904  1.00  0.00     0.033 H 
ATOM     32  C   UNL A   1      38.831  33.724  35.572  1.00  0.00     0.078 C 
ATOM     33  H   UNL A   1      37.990  35.348  36.663  1.00  0.00     0.033 H 
ATOM     34  H   UNL A   1      38.432  33.968  37.647  1.00  0.00     0.033 H 
ATOM     35  H   UNL A   1      41.387  34.930  34.513  1.00  0.00     0.092 H 
ATOM     36  H   UNL A   1      40.238  36.166  33.880  1.00  0.00     0.092 H 
ATOM     37  H   UNL A   1      39.448  32.880  35.803  1.00  0.00     0.092 H 
ATOM     38  H   UNL A   1      37.829  33.460  35.304  1.00  0.00     0.092 H 
ATOM     39  H   UNL A   1      38.608  34.982  34.147  1.00  0.00     0.348 HD
BRANCH  25  40
ATOM     40  C   UNL A   1      39.990  36.007  38.432  1.00  0.00    -0.062 C 
ATOM     41  H   UNL A   1      40.208  35.354  39.251  1.00  0.00     0.023 H 
ATOM     42  H   UNL A   1      39.006  36.411  38.551  1.00  0.00     0.023 H 
ATOM     43  H   UNL A   1      40.702  36.805  38.413  1.00  0.00     0.023 H 
ENDBRANCH  25  40
ENDBRANCH  22  24
BRANCH  22  44
ATOM     44  C   UNL A   1      40.110  32.104  33.702  1.00  0.00     0.014 A 
ATOM     45  C   UNL A   1      39.273  30.972  33.614  1.00  0.00    -0.050 A 
ATOM     46  C   UNL A   1      41.398  31.941  34.244  1.00  0.00    -0.050 A 
ATOM     47  C   UNL A   1      39.720  29.718  34.033  1.00  0.00    -0.026 A 
ATOM     48  H   UNL A   1      38.318  31.072  33.235  1.00  0.00     0.063 H 
ATOM     49  C   UNL A   1      41.828  30.693  34.701  1.00  0.00    -0.026 A 
ATOM     50  H   UNL A   1      42.033  32.752  34.305  1.00  0.00     0.063 H 
ATOM     51  C   UNL A   1      40.990  29.593  34.581  1.00  0.00     0.123 A 
ATOM     52  H   UNL A   1      39.112  28.890  33.936  1.00  0.00     0.065 H 
ATOM     53  H   UNL A   1      42.763  30.589  35.125  1.00  0.00     0.065 H 
ATOM     54  F   UNL A   1      41.412  28.393  35.001  1.00  0.00    -0.207 F 
ENDBRANCH  22  44
ENDBRANCH  14  22
BRANCH  16  55
ATOM     55  C   UNL A   1      38.578  34.025  30.367  1.00  0.00    -0.018 A 
ATOM     56  C   UNL A   1      37.559  34.218  31.310  1.00  0.00    -0.054 A 
ATOM     57  C   UNL A   1      38.212  33.617  29.073  1.00  0.00    -0.054 A 
ATOM     58  C   UNL A   1      36.215  34.045  30.962  1.00  0.00    -0.049 A 
ATOM     59  H   UNL A   1      37.803  34.492  32.275  1.00  0.00     0.063 H 
ATOM     60  C   UNL A   1      36.870  33.456  28.717  1.00  0.00    -0.049 A 
ATOM     61  H   UNL A   1      38.948  33.431  28.373  1.00  0.00     0.063 H 
ATOM     62  C   UNL A   1      35.857  33.678  29.656  1.00  0.00     0.056 A 
ATOM     63  H   UNL A   1      35.481  34.188  31.672  1.00  0.00     0.063 H 
ATOM     64  H   UNL A   1      36.626  33.173  27.755  1.00  0.00     0.063 H 
BRANCH  62  65
ATOM     65  C   UNL A   1      34.404  33.506  29.288  1.00  0.00     0.416 C 
ATOM     66  F   UNL A   1      34.202  33.537  27.941  1.00  0.00    -0.166 F 
ATOM     67  F   UNL A   1      33.890  32.320  29.716  1.00  0.00    -0.166 F 
ATOM     68  F   UNL A   1      33.595  34.471  29.809  1.00  0.00    -0.166 F 
ENDBRANCH  62  65
ENDBRANCH  16  55
ENDBRANCH  11  13
BRANCH  11  69
ATOM     69  C   UNL A   1      43.621  33.988  28.004  1.00  0.00    -0.049 C 
ATOM     70  H   UNL A   1      43.810  33.181  28.681  1.00  0.00     0.024 H 
ATOM     71  H   UNL A   1      44.513  34.210  27.457  1.00  0.00     0.024 H 
ATOM     72  H   UNL A   1      42.845  33.708  27.323  1.00  0.00     0.024 H 
ENDBRANCH  11  69
ENDBRANCH   8  11
ENDBRANCH   4   7
ENDBRANCH   1   4
BRANCH   1  73
ATOM     73  C   UNL A   1      44.995  37.821  31.010  1.00  0.00    -0.052 C 
ATOM     74  H   UNL A   1      46.030  37.648  30.801  1.00  0.00     0.027 H 
ATOM     75  H   UNL A   1      44.418  36.922  31.050  1.00  0.00     0.027 H 
BRANCH  73  76
ATOM     76  C   UNL A   1      44.890  38.466  32.399  1.00  0.00    -0.052 C 
ATOM     77  H   UNL A   1      44.804  39.523  32.268  1.00  0.00     0.027 H 
ATOM     78  H   UNL A   1      45.771  38.171  32.931  1.00  0.00     0.027 H 
BRANCH  76  79
ATOM     79  C   UNL A   1      43.703  37.994  33.246  1.00  0.00    -0.036 C 
ATOM     80  H   UNL A   1      42.844  37.931  32.612  1.00  0.00     0.028 H 
ATOM     81  H   UNL A   1      43.584  38.709  34.034  1.00  0.00     0.028 H 
BRANCH  79  82
ATOM     82  C   UNL A   1      43.912  36.637  33.909  1.00  0.00     0.018 C 
ATOM     83  H   UNL A   1      43.677  35.865  33.205  1.00  0.00     0.049 H 
ATOM     84  H   UNL A   1      43.271  36.577  34.764  1.00  0.00     0.049 H 
BRANCH  82  85
ATOM     85  N   UNL A   1      45.290  36.469  34.354  1.00  0.00    -0.352 N 
ATOM     86  C   UNL A   1      46.113  35.374  34.233  1.00  0.00     0.251 C 
ATOM     87  H   UNL A   1      45.687  37.247  34.805  1.00  0.00     0.163 HD
ATOM     88  O   UNL A   1      47.144  35.284  34.886  1.00  0.00    -0.269 OA
BRANCH  86  89
ATOM     89  C   UNL A   1      45.739  34.306  33.286  1.00  0.00     0.039 A 
ATOM     90  C   UNL A   1      45.972  34.455  31.918  1.00  0.00    -0.049 A 
ATOM     91  C   UNL A   1      45.160  33.139  33.779  1.00  0.00    -0.049 A 
ATOM     92  C   UNL A   1      45.701  33.387  31.055  1.00  0.00    -0.053 A 
ATOM     93  H   UNL A   1      46.343  35.343  31.547  1.00  0.00     0.063 H 
ATOM     94  C   UNL A   1      44.972  32.053  32.935  1.00  0.00    -0.053 A 
ATOM     95  H   UNL A   1      44.873  33.081  34.768  1.00  0.00     0.063 H 
ATOM     96  C   UNL A   1      45.243  32.161  31.565  1.00  0.00    -0.014 A 
ATOM     97  H   UNL A   1      45.838  33.502  30.039  1.00  0.00     0.063 H 
ATOM     98  H   UNL A   1      44.629  31.159  33.321  1.00  0.00     0.063 H 
BRANCH  96  99
ATOM     99  C   UNL A   1      45.039  30.960  30.714  1.00  0.00     0.031 A 
ATOM    100  C   UNL A   1      43.644  30.531  30.351  1.00  0.00     0.074 A 
ATOM    101  C   UNL A   1      46.090  30.183  30.384  1.00  0.00     0.049 A 
ATOM    102  N   UNL A   1      43.238  29.425  29.780  1.00  0.00    -0.248 NA
ATOM    103  C   UNL A   1      42.553  31.451  30.715  1.00  0.00    -0.034 C 
ATOM    104  C   UNL A   1      47.485  30.463  30.721  1.00  0.00    -0.036 A 
ATOM    105  N   UNL A   1      46.144  28.986  29.713  1.00  0.00    -0.354 N 
ATOM    106  C   UNL A   1      41.853  29.506  29.744  1.00  0.00     0.074 A 
ATOM    107  C   UNL A   1      41.481  30.739  30.401  1.00  0.00    -0.034 C 
ATOM    108  H   UNL A   1      42.610  32.402  31.113  1.00  0.00     0.065 H 
ATOM    109  C   UNL A   1      48.259  29.479  30.239  1.00  0.00    -0.036 A 
ATOM    110  H   UNL A   1      47.821  31.286  31.246  1.00  0.00     0.065 H 
ATOM    111  C   UNL A   1      47.413  28.471  29.606  1.00  0.00     0.049 A 
ATOM    112  H   UNL A   1      45.348  28.539  29.344  1.00  0.00     0.167 HD
ATOM    113  C   UNL A   1      40.973  28.642  29.187  1.00  0.00     0.037 A 
ATOM    114  H   UNL A   1      40.510  31.026  30.600  1.00  0.00     0.065 H 
ATOM    115  H   UNL A   1      49.289  29.441  30.304  1.00  0.00     0.065 H 
ATOM    116  C   UNL A   1      47.847  27.311  29.076  1.00  0.00     0.037 A 
ATOM    117  C   UNL A   1      41.353  27.437  28.500  1.00  0.00     0.049 A 
ATOM    118  C   UNL A   1      46.851  26.358  28.473  1.00  0.00     0.074 A 
ATOM    119  C   UNL A   1      40.542  26.538  27.833  1.00  0.00    -0.036 A 
ATOM    120  N   UNL A   1      42.653  26.965  28.392  1.00  0.00    -0.354 N 
ATOM    121  N   UNL A   1      45.548  26.474  28.387  1.00  0.00    -0.248 NA
ATOM    122  C   UNL A   1      47.380  25.114  27.894  1.00  0.00    -0.034 C 
ATOM    123  C   UNL A   1      41.342  25.489  27.375  1.00  0.00    -0.036 A 
ATOM    124  H   UNL A   1      39.523  26.626  27.698  1.00  0.00     0.065 H 
ATOM    125  C   UNL A   1      42.661  25.768  27.696  1.00  0.00     0.049 A 
ATOM    126  H   UNL A   1      43.451  27.413  28.755  1.00  0.00     0.167 HD
ATOM    127  C   UNL A   1      45.104  25.338  27.724  1.00  0.00     0.074 A 
ATOM    128  C   UNL A   1      46.276  24.542  27.426  1.00  0.00    -0.034 C 
ATOM    129  H   UNL A   1      48.353  24.773  27.860  1.00  0.00     0.065 H 
ATOM    130  H   UNL A   1      41.007  24.648  26.879  1.00  0.00     0.065 H 
ATOM    131  C   UNL A   1      43.837  24.992  27.393  1.00  0.00     0.037 A 
ATOM    132  H   UNL A   1      46.256  23.646  26.916  1.00  0.00     0.065 H 
BRANCH 113 133
ATOM    133  C   UNL A   1      39.509  28.966  29.282  1.00  0.00     0.064 A 
ATOM    134  C   UNL A   1      38.830  29.515  28.184  1.00  0.00     0.173 A 
ATOM    135  C   UNL A   1      38.795  28.801  30.478  1.00  0.00     0.173 A 
ATOM    136  F   UNL A   1      39.466  29.703  27.018  1.00  0.00    -0.203 F 
ATOM    137  C   UNL A   1      37.494  29.897  28.284  1.00  0.00     0.198 A 
ATOM    138  C   UNL A   1      37.450  29.150  30.564  1.00  0.00     0.198 A 
ATOM    139  F   UNL A   1      39.395  28.273  31.556  1.00  0.00    -0.203 F 
ATOM    140  F   UNL A   1      36.877  30.453  27.232  1.00  0.00    -0.200 F 
ATOM    141  C   UNL A   1      36.803  29.707  29.472  1.00  0.00     0.200 A 
ATOM    142  F   UNL A   1      36.778  28.941  31.705  1.00  0.00    -0.200 F 
ATOM    143  F   UNL A   1      35.514  30.061  29.562  1.00  0.00    -0.200 F 
ENDBRANCH 113 133
BRANCH 116 144
ATOM    144  C   UNL A   1      49.303  27.012  29.072  1.00  0.00     0.064 A 
ATOM    145  C   UNL A   1      50.110  27.306  27.962  1.00  0.00     0.173 A 
ATOM    146  C   UNL A   1      49.904  26.369  30.163  1.00  0.00     0.173 A 
ATOM    147  F   UNL A   1      49.582  27.913  26.889  1.00  0.00    -0.203 F 
ATOM    148  C   UNL A   1      51.455  26.940  27.932  1.00  0.00     0.198 A 
ATOM    149  C   UNL A   1      51.256  26.029  30.142  1.00  0.00     0.198 A 
ATOM    150  F   UNL A   1      49.179  26.085  31.253  1.00  0.00    -0.203 F 
ATOM    151  F   UNL A   1      52.191  27.190  26.841  1.00  0.00    -0.200 F 
ATOM    152  C   UNL A   1      52.027  26.305  29.024  1.00  0.00     0.200 A 
ATOM    153  F   UNL A   1      51.810  25.434  31.207  1.00  0.00    -0.200 F 
ATOM    154  F   UNL A   1      53.320  25.955  28.996  1.00  0.00    -0.200 F 
ENDBRANCH 116 144
BRANCH 131 155
ATOM    155  C   UNL A   1      43.624  23.711  26.640  1.00  0.00     0.064 A 
ATOM    156  C   UNL A   1      43.131  22.576  27.304  1.00  0.00     0.173 A 
ATOM    157  C   UNL A   1      44.042  23.565  25.310  1.00  0.00     0.173 A 
ATOM    158  F   UNL A   1      42.728  22.664  28.582  1.00  0.00    -0.203 F 
ATOM    159  C   UNL A   1      43.101  21.335  26.677  1.00  0.00     0.198 A 
ATOM    160  C   UNL A   1      43.983  22.327  24.676  1.00  0.00     0.198 A 
ATOM    161  F   UNL A   1      44.510  24.622  24.630  1.00  0.00    -0.203 F 
ATOM    162  F   UNL A   1      42.682  20.255  27.351  1.00  0.00    -0.200 F 
ATOM    163  C   UNL A   1      43.529  21.211  25.364  1.00  0.00     0.200 A 
ATOM    164  F   UNL A   1      44.381  22.210  23.401  1.00  0.00    -0.200 F 
ATOM    165  F   UNL A   1      43.511  20.013  24.763  1.00  0.00    -0.200 F 
ENDBRANCH 131 155
ENDBRANCH  96  99
ENDBRANCH  86  89
ENDBRANCH  82  85
ENDBRANCH  79  82
ENDBRANCH  76  79
ENDBRANCH  73  76
ENDBRANCH   1  73
TORSDOF 21
ENDMDL
MODEL 5
REMARK VINA RESULT:      -8.5      4.099     11.038
REMARK SMILES CC1CC[NH+]([C@H](c2ccc(F)cc2)c2ccc([C@@H](C)C(=O)NCCCCCCNC(=O)c3ccc(-c4c5nc(c(-c6c(F)c(F)c(F)c(F)c6F)c6ccc([nH]6)c(-c6c(F)c(F)c(F)c(F)c6F)c6nc(c(-c7c(F)c(F)c(F)c(F)c7F)c7ccc4[nH]7)C=C6)C=C5)cc3)cc2-c2ccc(C(F)(F)F)cc2)CC1
REMARK SMILES IDX 24 1 23 4 22 7 20 8 21 9 18 11 17 13 14 14 15 15 96 16 16 17
REMARK SMILES IDX 95 19 6 22 5 24 2 25 3 26 108 27 4 29 107 32 1 40 7 44 8 45
REMARK SMILES IDX 13 46 9 47 12 49 10 51 11 54 97 55 98 56 106 57 99 58 105 60
REMARK SMILES IDX 100 62 101 65 102 66 103 67 104 68 19 69 25 73 26 76 27 79
REMARK SMILES IDX 28 82 29 85 30 86 31 88 32 89 33 90 94 91 34 92 93 94 35 96
REMARK SMILES IDX 36 99 37 100 87 101 38 102 92 103 86 104 88 105 39 106
REMARK SMILES IDX 91 107 85 109 84 111 40 113 72 116 52 117 71 118 53 119
REMARK SMILES IDX 56 120 70 121 89 122 54 123 55 125 69 127 90 128 57 131
REMARK SMILES IDX 41 133 42 134 50 135 43 136 44 137 48 138 51 139 45 140
REMARK SMILES IDX 46 141 49 142 47 143 73 144 74 145 82 146 75 147 76 148
REMARK SMILES IDX 80 149 83 150 77 151 78 152 81 153 79 154 58 155 59 156
REMARK SMILES IDX 67 157 60 158 61 159 65 160 68 161 62 162 63 163 66 164
REMARK SMILES IDX 64 165
REMARK H PARENT 24 2 24 3 23 5 23 6 22 10 18 12 15 18 16 20 95 21 6 23 2 28
REMARK H PARENT 3 30 3 31 108 33 108 34 4 35 4 36 107 37 107 38 5 39 1 41 1 42
REMARK H PARENT 1 43 8 48 13 50 9 52 12 53 98 59 106 61 99 63 105 64 19 70
REMARK H PARENT 19 71 19 72 25 74 25 75 26 77 26 78 27 80 27 81 28 83 28 84
REMARK H PARENT 29 87 33 93 94 95 34 97 93 98 92 108 86 110 88 112 91 114
REMARK H PARENT 85 115 53 124 56 126 89 129 54 130 90 132
REMARK Flexibility Score: inf
ROOT
ATOM      1  C   UNL A   1      36.833  32.344  30.887  1.00  0.00    -0.036 C 
ATOM      2  H   UNL A   1      36.204  31.726  30.282  1.00  0.00     0.028 H 
ATOM      3  H   UNL A   1      37.872  32.111  30.776  1.00  0.00     0.028 H 
ENDROOT
BRANCH   1   4
ATOM      4  C   UNL A   1      36.479  32.100  32.360  1.00  0.00     0.017 C 
ATOM      5  H   UNL A   1      36.745  31.096  32.619  1.00  0.00     0.049 H 
ATOM      6  H   UNL A   1      37.022  32.805  32.956  1.00  0.00     0.049 H 
BRANCH   4   7
ATOM      7  N   UNL A   1      35.065  32.292  32.611  1.00  0.00    -0.356 N 
ATOM      8  C   UNL A   1      34.361  33.260  33.258  1.00  0.00     0.227 C 
ATOM      9  O   UNL A   1      33.141  33.069  33.349  1.00  0.00    -0.274 OA
ATOM     10  H   UNL A   1      34.499  31.578  32.237  1.00  0.00     0.163 HD
BRANCH   8  11
ATOM     11  C   UNL A   1      34.976  34.541  33.855  1.00  0.00     0.060 C 
ATOM     12  H   UNL A   1      34.325  34.831  34.654  1.00  0.00     0.045 H 
BRANCH  11  13
ATOM     13  C   UNL A   1      36.311  34.302  34.536  1.00  0.00    -0.035 A 
ATOM     14  C   UNL A   1      38.836  33.479  35.617  1.00  0.00     0.022 A 
ATOM     15  C   UNL A   1      38.719  34.212  34.426  1.00  0.00    -0.052 A 
ATOM     16  C   UNL A   1      37.637  33.289  36.359  1.00  0.00    -0.009 A 
ATOM     17  C   UNL A   1      37.504  34.697  33.959  1.00  0.00    -0.058 A 
ATOM     18  H   UNL A   1      39.571  34.397  33.873  1.00  0.00     0.063 H 
ATOM     19  C   UNL A   1      36.394  33.630  35.762  1.00  0.00    -0.050 A 
ATOM     20  H   UNL A   1      37.491  35.362  33.171  1.00  0.00     0.063 H 
ATOM     21  H   UNL A   1      35.521  33.374  36.249  1.00  0.00     0.063 H 
BRANCH  14  22
ATOM     22  C   UNL A   1      40.226  32.981  36.111  1.00  0.00     0.139 C 
ATOM     23  H   UNL A   1      39.996  32.773  37.135  1.00  0.00     0.107 H 
BRANCH  22  24
ATOM     24  N   UNL A   1      41.349  33.977  36.180  1.00  0.00    -0.325 N 
ATOM     25  C   UNL A   1      42.942  35.886  37.726  1.00  0.00    -0.034 C 
ATOM     26  C   UNL A   1      43.566  34.557  37.312  1.00  0.00    -0.001 C 
ATOM     27  C   UNL A   1      42.056  36.362  36.586  1.00  0.00    -0.001 C 
ATOM     28  H   UNL A   1      42.367  35.752  38.618  1.00  0.00     0.030 H 
ATOM     29  C   UNL A   1      42.523  33.501  36.920  1.00  0.00     0.078 C 
ATOM     30  H   UNL A   1      44.142  34.179  38.131  1.00  0.00     0.033 H 
ATOM     31  H   UNL A   1      44.173  34.742  36.450  1.00  0.00     0.033 H 
ATOM     32  C   UNL A   1      40.929  35.367  36.353  1.00  0.00     0.078 C 
ATOM     33  H   UNL A   1      42.642  36.448  35.695  1.00  0.00     0.033 H 
ATOM     34  H   UNL A   1      41.638  37.313  36.841  1.00  0.00     0.033 H 
ATOM     35  H   UNL A   1      42.174  33.043  37.822  1.00  0.00     0.092 H 
ATOM     36  H   UNL A   1      43.030  32.841  36.248  1.00  0.00     0.092 H 
ATOM     37  H   UNL A   1      40.269  35.410  37.195  1.00  0.00     0.092 H 
ATOM     38  H   UNL A   1      40.465  35.654  35.432  1.00  0.00     0.092 H 
ATOM     39  H   UNL A   1      41.734  34.037  35.237  1.00  0.00     0.348 HD
BRANCH  25  40
ATOM     40  C   UNL A   1      44.010  36.923  38.033  1.00  0.00    -0.062 C 
ATOM     41  H   UNL A   1      44.943  36.432  38.213  1.00  0.00     0.023 H 
ATOM     42  H   UNL A   1      43.726  37.481  38.902  1.00  0.00     0.023 H 
ATOM     43  H   UNL A   1      44.112  37.588  37.201  1.00  0.00     0.023 H 
ENDBRANCH  25  40
ENDBRANCH  22  24
BRANCH  22  44
ATOM     44  C   UNL A   1      40.701  31.692  35.409  1.00  0.00     0.014 A 
ATOM     45  C   UNL A   1      40.763  30.455  36.081  1.00  0.00    -0.050 A 
ATOM     46  C   UNL A   1      41.087  31.736  34.056  1.00  0.00    -0.050 A 
ATOM     47  C   UNL A   1      41.174  29.298  35.416  1.00  0.00    -0.026 A 
ATOM     48  H   UNL A   1      40.502  30.402  37.078  1.00  0.00     0.063 H 
ATOM     49  C   UNL A   1      41.537  30.586  33.403  1.00  0.00    -0.026 A 
ATOM     50  H   UNL A   1      41.036  32.628  33.539  1.00  0.00     0.063 H 
ATOM     51  C   UNL A   1      41.566  29.378  34.086  1.00  0.00     0.123 A 
ATOM     52  H   UNL A   1      41.187  28.392  35.908  1.00  0.00     0.065 H 
ATOM     53  H   UNL A   1      41.847  30.634  32.420  1.00  0.00     0.065 H 
ATOM     54  F   UNL A   1      41.979  28.272  33.454  1.00  0.00    -0.207 F 
ENDBRANCH  22  44
ENDBRANCH  14  22
BRANCH  16  55
ATOM     55  C   UNL A   1      37.608  32.812  37.757  1.00  0.00    -0.018 A 
ATOM     56  C   UNL A   1      37.023  31.586  38.103  1.00  0.00    -0.054 A 
ATOM     57  C   UNL A   1      38.129  33.612  38.789  1.00  0.00    -0.054 A 
ATOM     58  C   UNL A   1      36.992  31.157  39.435  1.00  0.00    -0.049 A 
ATOM     59  H   UNL A   1      36.610  30.993  37.367  1.00  0.00     0.063 H 
ATOM     60  C   UNL A   1      38.112  33.180  40.118  1.00  0.00    -0.049 A 
ATOM     61  H   UNL A   1      38.530  34.535  38.561  1.00  0.00     0.063 H 
ATOM     62  C   UNL A   1      37.550  31.942  40.453  1.00  0.00     0.056 A 
ATOM     63  H   UNL A   1      36.552  30.253  39.669  1.00  0.00     0.063 H 
ATOM     64  H   UNL A   1      38.516  33.777  40.856  1.00  0.00     0.063 H 
BRANCH  62  65
ATOM     65  C   UNL A   1      37.522  31.464  41.884  1.00  0.00     0.416 C 
ATOM     66  F   UNL A   1      36.281  31.062  42.273  1.00  0.00    -0.166 F 
ATOM     67  F   UNL A   1      38.346  30.402  42.100  1.00  0.00    -0.166 F 
ATOM     68  F   UNL A   1      37.903  32.418  42.781  1.00  0.00    -0.166 F 
ENDBRANCH  62  65
ENDBRANCH  16  55
ENDBRANCH  11  13
BRANCH  11  69
ATOM     69  C   UNL A   1      34.926  35.748  32.919  1.00  0.00    -0.049 C 
ATOM     70  H   UNL A   1      35.752  35.707  32.241  1.00  0.00     0.024 H 
ATOM     71  H   UNL A   1      34.981  36.648  33.495  1.00  0.00     0.024 H 
ATOM     72  H   UNL A   1      34.010  35.733  32.367  1.00  0.00     0.024 H 
ENDBRANCH  11  69
ENDBRANCH   8  11
ENDBRANCH   4   7
ENDBRANCH   1   4
BRANCH   1  73
ATOM     73  C   UNL A   1      36.655  33.796  30.438  1.00  0.00    -0.052 C 
ATOM     74  H   UNL A   1      37.558  34.109  29.956  1.00  0.00     0.027 H 
ATOM     75  H   UNL A   1      36.431  34.361  31.318  1.00  0.00     0.027 H 
BRANCH  73  76
ATOM     76  C   UNL A   1      35.490  34.027  29.466  1.00  0.00    -0.052 C 
ATOM     77  H   UNL A   1      35.900  34.221  28.498  1.00  0.00     0.027 H 
ATOM     78  H   UNL A   1      34.928  34.846  29.865  1.00  0.00     0.027 H 
BRANCH  76  79
ATOM     79  C   UNL A   1      34.508  32.857  29.340  1.00  0.00    -0.036 C 
ATOM     80  H   UNL A   1      33.553  33.182  29.693  1.00  0.00     0.028 H 
ATOM     81  H   UNL A   1      34.911  32.053  29.920  1.00  0.00     0.028 H 
BRANCH  79  82
ATOM     82  C   UNL A   1      34.341  32.335  27.917  1.00  0.00     0.018 C 
ATOM     83  H   UNL A   1      35.301  32.299  27.444  1.00  0.00     0.049 H 
ATOM     84  H   UNL A   1      33.684  32.995  27.390  1.00  0.00     0.049 H 
BRANCH  82  85
ATOM     85  N   UNL A   1      33.757  30.999  27.906  1.00  0.00    -0.352 N 
ATOM     86  C   UNL A   1      34.388  29.777  27.895  1.00  0.00     0.251 C 
ATOM     87  H   UNL A   1      32.774  30.967  27.905  1.00  0.00     0.163 HD
ATOM     88  O   UNL A   1      33.777  28.754  27.617  1.00  0.00    -0.269 OA
BRANCH  86  89
ATOM     89  C   UNL A   1      35.821  29.714  28.240  1.00  0.00     0.039 A 
ATOM     90  C   UNL A   1      36.231  29.268  29.497  1.00  0.00    -0.049 A 
ATOM     91  C   UNL A   1      36.762  30.096  27.288  1.00  0.00    -0.049 A 
ATOM     92  C   UNL A   1      37.597  29.122  29.763  1.00  0.00    -0.053 A 
ATOM     93  H   UNL A   1      35.533  29.045  30.223  1.00  0.00     0.063 H 
ATOM     94  C   UNL A   1      38.111  29.872  27.522  1.00  0.00    -0.053 A 
ATOM     95  H   UNL A   1      36.458  30.544  26.409  1.00  0.00     0.063 H 
ATOM     96  C   UNL A   1      38.546  29.379  28.760  1.00  0.00    -0.014 A 
ATOM     97  H   UNL A   1      37.908  28.826  30.701  1.00  0.00     0.063 H 
ATOM     98  H   UNL A   1      38.800  30.069  26.779  1.00  0.00     0.063 H 
BRANCH  96  99
ATOM     99  C   UNL A   1      40.001  29.142  28.947  1.00  0.00     0.031 A 
ATOM    100  C   UNL A   1      40.873  30.242  29.488  1.00  0.00     0.074 A 
ATOM    101  C   UNL A   1      40.558  27.996  28.507  1.00  0.00     0.049 A 
ATOM    102  N   UNL A   1      42.178  30.308  29.557  1.00  0.00    -0.248 NA
ATOM    103  C   UNL A   1      40.186  31.447  29.981  1.00  0.00    -0.034 C 
ATOM    104  C   UNL A   1      39.828  26.876  27.916  1.00  0.00    -0.036 A 
ATOM    105  N   UNL A   1      41.871  27.596  28.465  1.00  0.00    -0.354 N 
ATOM    106  C   UNL A   1      42.465  31.564  30.071  1.00  0.00     0.074 A 
ATOM    107  C   UNL A   1      41.205  32.252  30.243  1.00  0.00    -0.034 C 
ATOM    108  H   UNL A   1      39.175  31.620  30.093  1.00  0.00     0.065 H 
ATOM    109  C   UNL A   1      40.697  25.908  27.589  1.00  0.00    -0.036 A 
ATOM    110  H   UNL A   1      38.806  26.835  27.771  1.00  0.00     0.065 H 
ATOM    111  C   UNL A   1      42.052  26.358  27.898  1.00  0.00     0.049 A 
ATOM    112  H   UNL A   1      42.612  28.145  28.810  1.00  0.00     0.167 HD
ATOM    113  C   UNL A   1      43.671  32.086  30.397  1.00  0.00     0.037 A 
ATOM    114  H   UNL A   1      41.112  33.239  30.532  1.00  0.00     0.065 H 
ATOM    115  H   UNL A   1      40.449  24.991  27.186  1.00  0.00     0.065 H 
ATOM    116  C   UNL A   1      43.180  25.669  27.637  1.00  0.00     0.037 A 
ATOM    117  C   UNL A   1      44.916  31.380  30.261  1.00  0.00     0.049 A 
ATOM    118  C   UNL A   1      44.511  26.272  27.995  1.00  0.00     0.074 A 
ATOM    119  C   UNL A   1      46.182  31.792  30.638  1.00  0.00    -0.036 A 
ATOM    120  N   UNL A   1      45.053  30.117  29.704  1.00  0.00    -0.354 N 
ATOM    121  N   UNL A   1      44.768  27.436  28.541  1.00  0.00    -0.248 NA
ATOM    122  C   UNL A   1      45.710  25.471  27.703  1.00  0.00    -0.034 C 
ATOM    123  C   UNL A   1      47.092  30.806  30.253  1.00  0.00    -0.036 A 
ATOM    124  H   UNL A   1      46.413  32.676  31.119  1.00  0.00     0.065 H 
ATOM    125  C   UNL A   1      46.388  29.749  29.698  1.00  0.00     0.049 A 
ATOM    126  H   UNL A   1      44.312  29.564  29.365  1.00  0.00     0.167 HD
ATOM    127  C   UNL A   1      46.147  27.498  28.683  1.00  0.00     0.074 A 
ATOM    128  C   UNL A   1      46.677  26.253  28.168  1.00  0.00    -0.034 C 
ATOM    129  H   UNL A   1      45.781  24.545  27.254  1.00  0.00     0.065 H 
ATOM    130  H   UNL A   1      48.117  30.856  30.364  1.00  0.00     0.065 H 
ATOM    131  C   UNL A   1      46.902  28.499  29.196  1.00  0.00     0.037 A 
ATOM    132  H   UNL A   1      47.679  26.005  28.163  1.00  0.00     0.065 H 
BRANCH 113 133
ATOM    133  C   UNL A   1      43.710  33.484  30.947  1.00  0.00     0.064 A 
ATOM    134  C   UNL A   1      43.863  33.703  32.324  1.00  0.00     0.173 A 
ATOM    135  C   UNL A   1      43.525  34.604  30.122  1.00  0.00     0.173 A 
ATOM    136  F   UNL A   1      44.035  32.667  33.160  1.00  0.00    -0.203 F 
ATOM    137  C   UNL A   1      43.819  34.989  32.856  1.00  0.00     0.198 A 
ATOM    138  C   UNL A   1      43.517  35.891  30.653  1.00  0.00     0.198 A 
ATOM    139  F   UNL A   1      43.382  34.451  28.797  1.00  0.00    -0.203 F 
ATOM    140  F   UNL A   1      43.931  35.170  34.179  1.00  0.00    -0.200 F 
ATOM    141  C   UNL A   1      43.653  36.083  32.019  1.00  0.00     0.200 A 
ATOM    142  F   UNL A   1      43.384  36.947  29.839  1.00  0.00    -0.200 F 
ATOM    143  F   UNL A   1      43.625  37.321  32.530  1.00  0.00    -0.200 F 
ENDBRANCH 113 133
BRANCH 116 144
ATOM    144  C   UNL A   1      43.083  24.317  27.028  1.00  0.00     0.064 A 
ATOM    145  C   UNL A   1      42.746  23.189  27.793  1.00  0.00     0.173 A 
ATOM    146  C   UNL A   1      43.386  24.119  25.673  1.00  0.00     0.173 A 
ATOM    147  F   UNL A   1      42.455  23.324  29.095  1.00  0.00    -0.203 F 
ATOM    148  C   UNL A   1      42.745  21.913  27.233  1.00  0.00     0.198 A 
ATOM    149  C   UNL A   1      43.358  22.844  25.109  1.00  0.00     0.198 A 
ATOM    150  F   UNL A   1      43.696  25.166  24.898  1.00  0.00    -0.203 F 
ATOM    151  F   UNL A   1      42.466  20.849  27.997  1.00  0.00    -0.200 F 
ATOM    152  C   UNL A   1      43.049  21.742  25.891  1.00  0.00     0.200 A 
ATOM    153  F   UNL A   1      43.632  22.686  23.807  1.00  0.00    -0.200 F 
ATOM    154  F   UNL A   1      43.046  20.515  25.352  1.00  0.00    -0.200 F 
ENDBRANCH 116 144
BRANCH 131 155
ATOM    155  C   UNL A   1      48.388  28.304  29.268  1.00  0.00     0.064 A 
ATOM    156  C   UNL A   1      48.977  27.800  30.440  1.00  0.00     0.173 A 
ATOM    157  C   UNL A   1      49.236  28.750  28.245  1.00  0.00     0.173 A 
ATOM    158  F   UNL A   1      48.207  27.371  31.452  1.00  0.00    -0.203 F 
ATOM    159  C   UNL A   1      50.359  27.786  30.598  1.00  0.00     0.198 A 
ATOM    160  C   UNL A   1      50.619  28.707  28.396  1.00  0.00     0.198 A 
ATOM    161  F   UNL A   1      48.721  29.229  27.103  1.00  0.00    -0.203 F 
ATOM    162  F   UNL A   1      50.896  27.355  31.748  1.00  0.00    -0.200 F 
ATOM    163  C   UNL A   1      51.179  28.241  29.577  1.00  0.00     0.200 A 
ATOM    164  F   UNL A   1      51.412  29.131  27.401  1.00  0.00    -0.200 F 
ATOM    165  F   UNL A   1      52.510  28.238  29.734  1.00  0.00    -0.200 F 
ENDBRANCH 131 155
ENDBRANCH  96  99
ENDBRANCH  86  89
ENDBRANCH  82  85
ENDBRANCH  79  82
ENDBRANCH  76  79
ENDBRANCH  73  76
ENDBRANCH   1  73
TORSDOF 21
ENDMDL
MODEL 6
REMARK VINA RESULT:      -8.5      4.356     11.363
REMARK SMILES CC1CC[NH+]([C@H](c2ccc(F)cc2)c2ccc([C@@H](C)C(=O)NCCCCCCNC(=O)c3ccc(-c4c5nc(c(-c6c(F)c(F)c(F)c(F)c6F)c6ccc([nH]6)c(-c6c(F)c(F)c(F)c(F)c6F)c6nc(c(-c7c(F)c(F)c(F)c(F)c7F)c7ccc4[nH]7)C=C6)C=C5)cc3)cc2-c2ccc(C(F)(F)F)cc2)CC1
REMARK SMILES IDX 24 1 23 4 22 7 20 8 21 9 18 11 17 13 14 14 15 15 96 16 16 17
REMARK SMILES IDX 95 19 6 22 5 24 2 25 3 26 108 27 4 29 107 32 1 40 7 44 8 45
REMARK SMILES IDX 13 46 9 47 12 49 10 51 11 54 97 55 98 56 106 57 99 58 105 60
REMARK SMILES IDX 100 62 101 65 102 66 103 67 104 68 19 69 25 73 26 76 27 79
REMARK SMILES IDX 28 82 29 85 30 86 31 88 32 89 33 90 94 91 34 92 93 94 35 96
REMARK SMILES IDX 36 99 37 100 87 101 38 102 92 103 86 104 88 105 39 106
REMARK SMILES IDX 91 107 85 109 84 111 40 113 72 116 52 117 71 118 53 119
REMARK SMILES IDX 56 120 70 121 89 122 54 123 55 125 69 127 90 128 57 131
REMARK SMILES IDX 41 133 42 134 50 135 43 136 44 137 48 138 51 139 45 140
REMARK SMILES IDX 46 141 49 142 47 143 73 144 74 145 82 146 75 147 76 148
REMARK SMILES IDX 80 149 83 150 77 151 78 152 81 153 79 154 58 155 59 156
REMARK SMILES IDX 67 157 60 158 61 159 65 160 68 161 62 162 63 163 66 164
REMARK SMILES IDX 64 165
REMARK H PARENT 24 2 24 3 23 5 23 6 22 10 18 12 15 18 16 20 95 21 6 23 2 28
REMARK H PARENT 3 30 3 31 108 33 108 34 4 35 4 36 107 37 107 38 5 39 1 41 1 42
REMARK H PARENT 1 43 8 48 13 50 9 52 12 53 98 59 106 61 99 63 105 64 19 70
REMARK H PARENT 19 71 19 72 25 74 25 75 26 77 26 78 27 80 27 81 28 83 28 84
REMARK H PARENT 29 87 33 93 94 95 34 97 93 98 92 108 86 110 88 112 91 114
REMARK H PARENT 85 115 53 124 56 126 89 129 54 130 90 132
REMARK Flexibility Score: inf
ROOT
ATOM      1  C   UNL A   1      36.636  33.631  31.064  1.00  0.00    -0.036 C 
ATOM      2  H   UNL A   1      37.005  32.628  31.113  1.00  0.00     0.028 H 
ATOM      3  H   UNL A   1      36.934  34.138  30.170  1.00  0.00     0.028 H 
ENDROOT
BRANCH   1   4
ATOM      4  C   UNL A   1      37.228  34.421  32.239  1.00  0.00     0.017 C 
ATOM      5  H   UNL A   1      38.188  34.014  32.483  1.00  0.00     0.049 H 
ATOM      6  H   UNL A   1      37.311  35.447  31.945  1.00  0.00     0.049 H 
BRANCH   4   7
ATOM      7  N   UNL A   1      36.379  34.355  33.412  1.00  0.00    -0.356 N 
ATOM      8  C   UNL A   1      36.506  33.732  34.615  1.00  0.00     0.227 C 
ATOM      9  O   UNL A   1      35.535  33.829  35.376  1.00  0.00    -0.274 OA
ATOM     10  H   UNL A   1      35.540  34.863  33.319  1.00  0.00     0.163 HD
BRANCH   8  11
ATOM     11  C   UNL A   1      37.753  32.949  35.070  1.00  0.00     0.060 C 
ATOM     12  H   UNL A   1      38.584  33.422  34.588  1.00  0.00     0.045 H 
BRANCH  11  13
ATOM     13  C   UNL A   1      38.049  33.104  36.551  1.00  0.00    -0.035 A 
ATOM     14  C   UNL A   1      38.216  33.555  39.378  1.00  0.00     0.022 A 
ATOM     15  C   UNL A   1      37.760  32.350  38.823  1.00  0.00    -0.052 A 
ATOM     16  C   UNL A   1      38.745  34.508  38.462  1.00  0.00    -0.009 A 
ATOM     17  C   UNL A   1      37.777  32.097  37.458  1.00  0.00    -0.058 A 
ATOM     18  H   UNL A   1      37.396  31.621  39.457  1.00  0.00     0.063 H 
ATOM     19  C   UNL A   1      38.573  34.296  37.069  1.00  0.00    -0.050 A 
ATOM     20  H   UNL A   1      37.585  31.143  37.114  1.00  0.00     0.063 H 
ATOM     21  H   UNL A   1      38.843  35.047  36.414  1.00  0.00     0.063 H 
BRANCH  14  22
ATOM     22  C   UNL A   1      38.201  33.778  40.918  1.00  0.00     0.139 C 
ATOM     23  H   UNL A   1      38.019  34.832  40.952  1.00  0.00     0.107 H 
BRANCH  22  24
ATOM     24  N   UNL A   1      39.489  33.603  41.670  1.00  0.00    -0.325 N 
ATOM     25  C   UNL A   1      42.368  34.085  41.899  1.00  0.00    -0.034 C 
ATOM     26  C   UNL A   1      41.413  34.813  42.840  1.00  0.00    -0.001 C 
ATOM     27  C   UNL A   1      41.834  32.677  41.688  1.00  0.00    -0.001 C 
ATOM     28  H   UNL A   1      42.426  34.608  40.967  1.00  0.00     0.030 H 
ATOM     29  C   UNL A   1      39.964  34.822  42.333  1.00  0.00     0.078 C 
ATOM     30  H   UNL A   1      41.743  35.825  42.946  1.00  0.00     0.033 H 
ATOM     31  H   UNL A   1      41.422  34.291  43.774  1.00  0.00     0.033 H 
ATOM     32  C   UNL A   1      40.469  32.734  41.018  1.00  0.00     0.078 C 
ATOM     33  H   UNL A   1      41.743  32.187  42.634  1.00  0.00     0.033 H 
ATOM     34  H   UNL A   1      42.510  32.136  41.060  1.00  0.00     0.033 H 
ATOM     35  H   UNL A   1      39.872  35.627  41.635  1.00  0.00     0.092 H 
ATOM     36  H   UNL A   1      39.360  34.917  43.211  1.00  0.00     0.092 H 
ATOM     37  H   UNL A   1      40.606  33.084  40.016  1.00  0.00     0.092 H 
ATOM     38  H   UNL A   1      40.069  31.743  41.072  1.00  0.00     0.092 H 
ATOM     39  H   UNL A   1      39.269  33.023  42.480  1.00  0.00     0.348 HD
BRANCH  25  40
ATOM     40  C   UNL A   1      43.774  34.034  42.473  1.00  0.00    -0.062 C 
ATOM     41  H   UNL A   1      44.146  33.032  42.421  1.00  0.00     0.023 H 
ATOM     42  H   UNL A   1      43.754  34.355  43.494  1.00  0.00     0.023 H 
ATOM     43  H   UNL A   1      44.414  34.681  41.910  1.00  0.00     0.023 H 
ENDBRANCH  25  40
ENDBRANCH  22  24
BRANCH  22  44
ATOM     44  C   UNL A   1      37.060  33.027  41.636  1.00  0.00     0.014 A 
ATOM     45  C   UNL A   1      35.716  33.439  41.536  1.00  0.00    -0.050 A 
ATOM     46  C   UNL A   1      37.355  31.893  42.416  1.00  0.00    -0.050 A 
ATOM     47  C   UNL A   1      34.700  32.728  42.177  1.00  0.00    -0.026 A 
ATOM     48  H   UNL A   1      35.479  34.278  40.984  1.00  0.00     0.063 H 
ATOM     49  C   UNL A   1      36.342  31.207  43.089  1.00  0.00    -0.026 A 
ATOM     50  H   UNL A   1      38.330  31.564  42.491  1.00  0.00     0.063 H 
ATOM     51  C   UNL A   1      35.025  31.624  42.955  1.00  0.00     0.123 A 
ATOM     52  H   UNL A   1      33.716  33.019  42.073  1.00  0.00     0.065 H 
ATOM     53  H   UNL A   1      36.571  30.395  43.684  1.00  0.00     0.065 H 
ATOM     54  F   UNL A   1      34.051  30.952  43.585  1.00  0.00    -0.207 F 
ENDBRANCH  22  44
ENDBRANCH  14  22
BRANCH  16  55
ATOM     55  C   UNL A   1      39.531  35.688  38.876  1.00  0.00    -0.018 A 
ATOM     56  C   UNL A   1      38.911  36.877  39.287  1.00  0.00    -0.054 A 
ATOM     57  C   UNL A   1      40.935  35.662  38.815  1.00  0.00    -0.054 A 
ATOM     58  C   UNL A   1      39.671  37.991  39.661  1.00  0.00    -0.049 A 
ATOM     59  H   UNL A   1      37.881  36.931  39.314  1.00  0.00     0.063 H 
ATOM     60  C   UNL A   1      41.697  36.767  39.201  1.00  0.00    -0.049 A 
ATOM     61  H   UNL A   1      41.411  34.810  38.478  1.00  0.00     0.063 H 
ATOM     62  C   UNL A   1      41.072  37.941  39.637  1.00  0.00     0.056 A 
ATOM     63  H   UNL A   1      39.195  38.857  39.957  1.00  0.00     0.063 H 
ATOM     64  H   UNL A   1      42.727  36.717  39.165  1.00  0.00     0.063 H 
BRANCH  62  65
ATOM     65  C   UNL A   1      41.882  39.144  40.054  1.00  0.00     0.416 C 
ATOM     66  F   UNL A   1      42.976  39.334  39.265  1.00  0.00    -0.166 F 
ATOM     67  F   UNL A   1      41.171  40.303  39.995  1.00  0.00    -0.166 F 
ATOM     68  F   UNL A   1      42.353  39.063  41.331  1.00  0.00    -0.166 F 
ENDBRANCH  62  65
ENDBRANCH  16  55
ENDBRANCH  11  13
BRANCH  11  69
ATOM     69  C   UNL A   1      37.817  31.519  34.537  1.00  0.00    -0.049 C 
ATOM     70  H   UNL A   1      36.985  31.344  33.887  1.00  0.00     0.024 H 
ATOM     71  H   UNL A   1      37.781  30.831  35.355  1.00  0.00     0.024 H 
ATOM     72  H   UNL A   1      38.728  31.381  33.994  1.00  0.00     0.024 H 
ENDBRANCH  11  69
ENDBRANCH   8  11
ENDBRANCH   4   7
ENDBRANCH   1   4
BRANCH   1  73
ATOM     73  C   UNL A   1      35.107  33.581  31.056  1.00  0.00    -0.052 C 
ATOM     74  H   UNL A   1      34.758  33.892  32.019  1.00  0.00     0.027 H 
ATOM     75  H   UNL A   1      34.838  32.574  30.816  1.00  0.00     0.027 H 
BRANCH  73  76
ATOM     76  C   UNL A   1      34.443  34.472  29.997  1.00  0.00    -0.052 C 
ATOM     77  H   UNL A   1      35.205  35.068  29.542  1.00  0.00     0.027 H 
ATOM     78  H   UNL A   1      33.702  35.046  30.514  1.00  0.00     0.027 H 
BRANCH  76  79
ATOM     79  C   UNL A   1      33.702  33.718  28.887  1.00  0.00    -0.036 C 
ATOM     80  H   UNL A   1      33.205  34.436  28.270  1.00  0.00     0.028 H 
ATOM     81  H   UNL A   1      33.023  33.048  29.372  1.00  0.00     0.028 H 
BRANCH  79  82
ATOM     82  C   UNL A   1      34.606  32.867  28.002  1.00  0.00     0.018 C 
ATOM     83  H   UNL A   1      35.497  32.626  28.543  1.00  0.00     0.049 H 
ATOM     84  H   UNL A   1      34.838  33.427  27.120  1.00  0.00     0.049 H 
BRANCH  82  85
ATOM     85  N   UNL A   1      33.945  31.630  27.601  1.00  0.00    -0.352 N 
ATOM     86  C   UNL A   1      34.465  30.360  27.508  1.00  0.00     0.251 C 
ATOM     87  H   UNL A   1      32.995  31.716  27.363  1.00  0.00     0.163 HD
ATOM     88  O   UNL A   1      33.869  29.478  26.906  1.00  0.00    -0.269 OA
BRANCH  86  89
ATOM     89  C   UNL A   1      35.756  30.072  28.162  1.00  0.00     0.039 A 
ATOM     90  C   UNL A   1      35.804  29.695  29.504  1.00  0.00    -0.049 A 
ATOM     91  C   UNL A   1      36.927  30.168  27.415  1.00  0.00    -0.049 A 
ATOM     92  C   UNL A   1      37.029  29.330  30.072  1.00  0.00    -0.053 A 
ATOM     93  H   UNL A   1      34.943  29.685  30.073  1.00  0.00     0.063 H 
ATOM     94  C   UNL A   1      38.127  29.725  27.953  1.00  0.00    -0.053 A 
ATOM     95  H   UNL A   1      36.904  30.567  26.463  1.00  0.00     0.063 H 
ATOM     96  C   UNL A   1      38.194  29.296  29.286  1.00  0.00    -0.014 A 
ATOM     97  H   UNL A   1      37.078  29.084  31.073  1.00  0.00     0.063 H 
ATOM     98  H   UNL A   1      38.976  29.710  27.367  1.00  0.00     0.063 H 
BRANCH  96  99
ATOM     99  C   UNL A   1      39.502  28.816  29.802  1.00  0.00     0.031 A 
ATOM    100  C   UNL A   1      40.259  29.646  30.802  1.00  0.00     0.074 A 
ATOM    101  C   UNL A   1      40.068  27.712  29.276  1.00  0.00     0.049 A 
ATOM    102  N   UNL A   1      41.486  29.505  31.238  1.00  0.00    -0.248 NA
ATOM    103  C   UNL A   1      39.559  30.816  31.357  1.00  0.00    -0.034 C 
ATOM    104  C   UNL A   1      39.458  26.852  28.263  1.00  0.00    -0.036 A 
ATOM    105  N   UNL A   1      41.296  27.140  29.502  1.00  0.00    -0.354 N 
ATOM    106  C   UNL A   1      41.709  30.577  32.090  1.00  0.00     0.074 A 
ATOM    107  C   UNL A   1      40.516  31.394  32.067  1.00  0.00    -0.034 C 
ATOM    108  H   UNL A   1      38.578  31.110  31.225  1.00  0.00     0.065 H 
ATOM    109  C   UNL A   1      40.302  25.851  27.970  1.00  0.00    -0.036 A 
ATOM    110  H   UNL A   1      38.526  26.991  27.841  1.00  0.00     0.065 H 
ATOM    111  C   UNL A   1      41.535  26.028  28.733  1.00  0.00     0.049 A 
ATOM    112  H   UNL A   1      41.943  27.494  30.154  1.00  0.00     0.167 HD
ATOM    113  C   UNL A   1      42.800  30.841  32.845  1.00  0.00     0.037 A 
ATOM    114  H   UNL A   1      40.422  32.306  32.541  1.00  0.00     0.065 H 
ATOM    115  H   UNL A   1      40.111  25.080  27.311  1.00  0.00     0.065 H 
ATOM    116  C   UNL A   1      42.629  25.247  28.636  1.00  0.00     0.037 A 
ATOM    117  C   UNL A   1      43.967  30.002  32.892  1.00  0.00     0.049 A 
ATOM    118  C   UNL A   1      43.838  25.564  29.474  1.00  0.00     0.074 A 
ATOM    119  C   UNL A   1      45.092  30.140  33.685  1.00  0.00    -0.036 A 
ATOM    120  N   UNL A   1      44.159  28.869  32.115  1.00  0.00    -0.354 N 
ATOM    121  N   UNL A   1      44.014  26.545  30.325  1.00  0.00    -0.248 NA
ATOM    122  C   UNL A   1      44.998  24.671  29.342  1.00  0.00    -0.034 C 
ATOM    123  C   UNL A   1      45.990  29.128  33.344  1.00  0.00    -0.036 A 
ATOM    124  H   UNL A   1      45.240  30.866  34.404  1.00  0.00     0.065 H 
ATOM    125  C   UNL A   1      45.400  28.318  32.388  1.00  0.00     0.049 A 
ATOM    126  H   UNL A   1      43.511  28.510  31.467  1.00  0.00     0.167 HD
ATOM    127  C   UNL A   1      45.289  26.375  30.848  1.00  0.00     0.074 A 
ATOM    128  C   UNL A   1      45.844  25.194  30.222  1.00  0.00    -0.034 C 
ATOM    129  H   UNL A   1      45.124  23.853  28.726  1.00  0.00     0.065 H 
ATOM    130  H   UNL A   1      46.936  29.004  33.739  1.00  0.00     0.065 H 
ATOM    131  C   UNL A   1      45.935  27.131  31.768  1.00  0.00     0.037 A 
ATOM    132  H   UNL A   1      46.777  24.808  30.433  1.00  0.00     0.065 H 
BRANCH 113 133
ATOM    133  C   UNL A   1      42.788  32.080  33.695  1.00  0.00     0.064 A 
ATOM    134  C   UNL A   1      42.243  32.050  34.987  1.00  0.00     0.173 A 
ATOM    135  C   UNL A   1      43.252  33.311  33.207  1.00  0.00     0.173 A 
ATOM    136  F   UNL A   1      41.778  30.902  35.500  1.00  0.00    -0.203 F 
ATOM    137  C   UNL A   1      42.151  33.210  35.754  1.00  0.00     0.198 A 
ATOM    138  C   UNL A   1      43.191  34.461  33.990  1.00  0.00     0.198 A 
ATOM    139  F   UNL A   1      43.790  33.393  31.981  1.00  0.00    -0.203 F 
ATOM    140  F   UNL A   1      41.593  33.163  36.971  1.00  0.00    -0.200 F 
ATOM    141  C   UNL A   1      42.632  34.412  35.257  1.00  0.00     0.200 A 
ATOM    142  F   UNL A   1      43.681  35.615  33.518  1.00  0.00    -0.200 F 
ATOM    143  F   UNL A   1      42.557  35.524  36.002  1.00  0.00    -0.200 F 
ENDBRANCH 113 133
BRANCH 116 144
ATOM    144  C   UNL A   1      42.607  24.073  27.725  1.00  0.00     0.064 A 
ATOM    145  C   UNL A   1      42.265  22.792  28.186  1.00  0.00     0.173 A 
ATOM    146  C   UNL A   1      42.988  24.201  26.382  1.00  0.00     0.173 A 
ATOM    147  F   UNL A   1      41.901  22.613  29.465  1.00  0.00    -0.203 F 
ATOM    148  C   UNL A   1      42.334  21.682  27.346  1.00  0.00     0.198 A 
ATOM    149  C   UNL A   1      43.030  23.094  25.537  1.00  0.00     0.198 A 
ATOM    150  F   UNL A   1      43.306  25.407  25.890  1.00  0.00    -0.203 F 
ATOM    151  F   UNL A   1      42.048  20.463  27.825  1.00  0.00    -0.200 F 
ATOM    152  C   UNL A   1      42.714  21.834  26.022  1.00  0.00     0.200 A 
ATOM    153  F   UNL A   1      43.378  23.249  24.252  1.00  0.00    -0.200 F 
ATOM    154  F   UNL A   1      42.779  20.767  25.214  1.00  0.00    -0.200 F 
ENDBRANCH 116 144
BRANCH 131 155
ATOM    155  C   UNL A   1      47.311  26.710  32.195  1.00  0.00     0.064 A 
ATOM    156  C   UNL A   1      47.475  25.838  33.284  1.00  0.00     0.173 A 
ATOM    157  C   UNL A   1      48.460  27.279  31.628  1.00  0.00     0.173 A 
ATOM    158  F   UNL A   1      46.404  25.277  33.866  1.00  0.00    -0.203 F 
ATOM    159  C   UNL A   1      48.735  25.583  33.813  1.00  0.00     0.198 A 
ATOM    160  C   UNL A   1      49.723  26.997  32.143  1.00  0.00     0.198 A 
ATOM    161  F   UNL A   1      48.355  28.109  30.580  1.00  0.00    -0.203 F 
ATOM    162  F   UNL A   1      48.862  24.794  34.890  1.00  0.00    -0.200 F 
ATOM    163  C   UNL A   1      49.858  26.164  33.244  1.00  0.00     0.200 A 
ATOM    164  F   UNL A   1      50.809  27.545  31.581  1.00  0.00    -0.200 F 
ATOM    165  F   UNL A   1      51.072  25.926  33.761  1.00  0.00    -0.200 F 
ENDBRANCH 131 155
ENDBRANCH  96  99
ENDBRANCH  86  89
ENDBRANCH  82  85
ENDBRANCH  79  82
ENDBRANCH  76  79
ENDBRANCH  73  76
ENDBRANCH   1  73
TORSDOF 21
ENDMDL
MODEL 7
REMARK VINA RESULT:      -8.4      2.809     10.160
REMARK SMILES CC1CC[NH+]([C@H](c2ccc(F)cc2)c2ccc([C@@H](C)C(=O)NCCCCCCNC(=O)c3ccc(-c4c5nc(c(-c6c(F)c(F)c(F)c(F)c6F)c6ccc([nH]6)c(-c6c(F)c(F)c(F)c(F)c6F)c6nc(c(-c7c(F)c(F)c(F)c(F)c7F)c7ccc4[nH]7)C=C6)C=C5)cc3)cc2-c2ccc(C(F)(F)F)cc2)CC1
REMARK SMILES IDX 24 1 23 4 22 7 20 8 21 9 18 11 17 13 14 14 15 15 96 16 16 17
REMARK SMILES IDX 95 19 6 22 5 24 2 25 3 26 108 27 4 29 107 32 1 40 7 44 8 45
REMARK SMILES IDX 13 46 9 47 12 49 10 51 11 54 97 55 98 56 106 57 99 58 105 60
REMARK SMILES IDX 100 62 101 65 102 66 103 67 104 68 19 69 25 73 26 76 27 79
REMARK SMILES IDX 28 82 29 85 30 86 31 88 32 89 33 90 94 91 34 92 93 94 35 96
REMARK SMILES IDX 36 99 37 100 87 101 38 102 92 103 86 104 88 105 39 106
REMARK SMILES IDX 91 107 85 109 84 111 40 113 72 116 52 117 71 118 53 119
REMARK SMILES IDX 56 120 70 121 89 122 54 123 55 125 69 127 90 128 57 131
REMARK SMILES IDX 41 133 42 134 50 135 43 136 44 137 48 138 51 139 45 140
REMARK SMILES IDX 46 141 49 142 47 143 73 144 74 145 82 146 75 147 76 148
REMARK SMILES IDX 80 149 83 150 77 151 78 152 81 153 79 154 58 155 59 156
REMARK SMILES IDX 67 157 60 158 61 159 65 160 68 161 62 162 63 163 66 164
REMARK SMILES IDX 64 165
REMARK H PARENT 24 2 24 3 23 5 23 6 22 10 18 12 15 18 16 20 95 21 6 23 2 28
REMARK H PARENT 3 30 3 31 108 33 108 34 4 35 4 36 107 37 107 38 5 39 1 41 1 42
REMARK H PARENT 1 43 8 48 13 50 9 52 12 53 98 59 106 61 99 63 105 64 19 70
REMARK H PARENT 19 71 19 72 25 74 25 75 26 77 26 78 27 80 27 81 28 83 28 84
REMARK H PARENT 29 87 33 93 94 95 34 97 93 98 92 108 86 110 88 112 91 114
REMARK H PARENT 85 115 53 124 56 126 89 129 54 130 90 132
REMARK Flexibility Score: inf
ROOT
ATOM      1  C   UNL A   1      45.379  25.906  37.730  1.00  0.00    -0.036 C 
ATOM      2  H   UNL A   1      46.227  26.043  38.367  1.00  0.00     0.028 H 
ATOM      3  H   UNL A   1      45.632  25.942  36.691  1.00  0.00     0.028 H 
ENDROOT
BRANCH   1   4
ATOM      4  C   UNL A   1      44.392  27.054  37.986  1.00  0.00     0.017 C 
ATOM      5  H   UNL A   1      44.297  27.200  39.042  1.00  0.00     0.049 H 
ATOM      6  H   UNL A   1      44.773  27.934  37.510  1.00  0.00     0.049 H 
BRANCH   4   7
ATOM      7  N   UNL A   1      43.084  26.770  37.431  1.00  0.00    -0.356 N 
ATOM      8  C   UNL A   1      42.248  27.474  36.621  1.00  0.00     0.227 C 
ATOM      9  O   UNL A   1      41.149  26.951  36.396  1.00  0.00    -0.274 OA
ATOM     10  H   UNL A   1      42.728  25.890  37.693  1.00  0.00     0.163 HD
BRANCH   8  11
ATOM     11  C   UNL A   1      42.586  28.836  35.983  1.00  0.00     0.060 C 
ATOM     12  H   UNL A   1      43.607  28.764  35.669  1.00  0.00     0.045 H 
BRANCH  11  13
ATOM     13  C   UNL A   1      41.824  29.100  34.697  1.00  0.00    -0.035 A 
ATOM     14  C   UNL A   1      40.689  29.878  32.181  1.00  0.00     0.022 A 
ATOM     15  C   UNL A   1      41.606  28.823  32.311  1.00  0.00    -0.052 A 
ATOM     16  C   UNL A   1      40.222  30.457  33.394  1.00  0.00    -0.009 A 
ATOM     17  C   UNL A   1      42.074  28.382  33.542  1.00  0.00    -0.058 A 
ATOM     18  H   UNL A   1      41.947  28.356  31.455  1.00  0.00     0.063 H 
ATOM     19  C   UNL A   1      40.861  30.113  34.615  1.00  0.00    -0.050 A 
ATOM     20  H   UNL A   1      42.617  27.506  33.595  1.00  0.00     0.063 H 
ATOM     21  H   UNL A   1      40.606  30.628  35.472  1.00  0.00     0.063 H 
BRANCH  14  22
ATOM     22  C   UNL A   1      40.174  30.315  30.779  1.00  0.00     0.139 C 
ATOM     23  H   UNL A   1      39.118  30.268  30.946  1.00  0.00     0.107 H 
BRANCH  22  24
ATOM     24  N   UNL A   1      40.406  29.388  29.620  1.00  0.00    -0.325 N 
ATOM     25  C   UNL A   1      41.233  28.971  26.842  1.00  0.00    -0.034 C 
ATOM     26  C   UNL A   1      42.139  28.488  27.971  1.00  0.00    -0.001 C 
ATOM     27  C   UNL A   1      39.792  28.730  27.265  1.00  0.00    -0.001 C 
ATOM     28  H   UNL A   1      41.403  30.012  26.662  1.00  0.00     0.030 H 
ATOM     29  C   UNL A   1      41.822  29.151  29.319  1.00  0.00     0.078 C 
ATOM     30  H   UNL A   1      43.154  28.711  27.713  1.00  0.00     0.033 H 
ATOM     31  H   UNL A   1      41.978  27.437  28.086  1.00  0.00     0.033 H 
ATOM     32  C   UNL A   1      39.471  29.549  28.507  1.00  0.00     0.078 C 
ATOM     33  H   UNL A   1      39.655  27.692  27.481  1.00  0.00     0.033 H 
ATOM     34  H   UNL A   1      39.140  29.027  26.471  1.00  0.00     0.033 H 
ATOM     35  H   UNL A   1      42.320  30.097  29.339  1.00  0.00     0.092 H 
ATOM     36  H   UNL A   1      42.153  28.454  30.059  1.00  0.00     0.092 H 
ATOM     37  H   UNL A   1      39.463  30.583  28.229  1.00  0.00     0.092 H 
ATOM     38  H   UNL A   1      38.525  29.195  28.860  1.00  0.00     0.092 H 
ATOM     39  H   UNL A   1      40.124  28.460  29.938  1.00  0.00     0.348 HD
BRANCH  25  40
ATOM     40  C   UNL A   1      41.531  28.236  25.546  1.00  0.00    -0.062 C 
ATOM     41  H   UNL A   1      42.576  28.310  25.326  1.00  0.00     0.023 H 
ATOM     42  H   UNL A   1      40.967  28.676  24.749  1.00  0.00     0.023 H 
ATOM     43  H   UNL A   1      41.261  27.207  25.647  1.00  0.00     0.023 H 
ENDBRANCH  25  40
ENDBRANCH  22  24
BRANCH  22  44
ATOM     44  C   UNL A   1      40.579  31.754  30.397  1.00  0.00     0.014 A 
ATOM     45  C   UNL A   1      39.623  32.770  30.193  1.00  0.00    -0.050 A 
ATOM     46  C   UNL A   1      41.940  32.079  30.246  1.00  0.00    -0.050 A 
ATOM     47  C   UNL A   1      40.018  34.070  29.872  1.00  0.00    -0.026 A 
ATOM     48  H   UNL A   1      38.618  32.551  30.282  1.00  0.00     0.063 H 
ATOM     49  C   UNL A   1      42.331  33.370  29.884  1.00  0.00    -0.026 A 
ATOM     50  H   UNL A   1      42.659  31.354  30.405  1.00  0.00     0.063 H 
ATOM     51  C   UNL A   1      41.368  34.354  29.711  1.00  0.00     0.123 A 
ATOM     52  H   UNL A   1      39.312  34.814  29.755  1.00  0.00     0.065 H 
ATOM     53  H   UNL A   1      43.329  33.591  29.745  1.00  0.00     0.065 H 
ATOM     54  F   UNL A   1      41.745  35.597  29.384  1.00  0.00    -0.207 F 
ENDBRANCH  22  44
ENDBRANCH  14  22
BRANCH  16  55
ATOM     55  C   UNL A   1      39.054  31.359  33.471  1.00  0.00    -0.018 A 
ATOM     56  C   UNL A   1      39.178  32.687  33.904  1.00  0.00    -0.054 A 
ATOM     57  C   UNL A   1      37.770  30.883  33.157  1.00  0.00    -0.054 A 
ATOM     58  C   UNL A   1      38.059  33.522  33.985  1.00  0.00    -0.049 A 
ATOM     59  H   UNL A   1      40.107  33.052  34.166  1.00  0.00     0.063 H 
ATOM     60  C   UNL A   1      36.652  31.719  33.223  1.00  0.00    -0.049 A 
ATOM     61  H   UNL A   1      37.650  29.897  32.873  1.00  0.00     0.063 H 
ATOM     62  C   UNL A   1      36.787  33.051  33.630  1.00  0.00     0.056 A 
ATOM     63  H   UNL A   1      38.172  34.495  34.310  1.00  0.00     0.063 H 
ATOM     64  H   UNL A   1      35.722  31.351  32.971  1.00  0.00     0.063 H 
BRANCH  62  65
ATOM     65  C   UNL A   1      35.589  33.964  33.710  1.00  0.00     0.416 C 
ATOM     66  F   UNL A   1      34.779  33.856  32.621  1.00  0.00    -0.166 F 
ATOM     67  F   UNL A   1      34.801  33.705  34.790  1.00  0.00    -0.166 F 
ATOM     68  F   UNL A   1      35.919  35.284  33.800  1.00  0.00    -0.166 F 
ENDBRANCH  62  65
ENDBRANCH  16  55
ENDBRANCH  11  13
BRANCH  11  69
ATOM     69  C   UNL A   1      42.614  29.997  36.975  1.00  0.00    -0.049 C 
ATOM     70  H   UNL A   1      41.750  30.611  36.830  1.00  0.00     0.024 H 
ATOM     71  H   UNL A   1      43.496  30.581  36.816  1.00  0.00     0.024 H 
ATOM     72  H   UNL A   1      42.615  29.613  37.973  1.00  0.00     0.024 H 
ENDBRANCH  11  69
ENDBRANCH   8  11
ENDBRANCH   4   7
ENDBRANCH   1   4
BRANCH   1  73
ATOM     73  C   UNL A   1      44.798  24.516  37.996  1.00  0.00    -0.052 C 
ATOM     74  H   UNL A   1      45.073  23.878  37.182  1.00  0.00     0.027 H 
ATOM     75  H   UNL A   1      43.740  24.643  38.092  1.00  0.00     0.027 H 
BRANCH  73  76
ATOM     76  C   UNL A   1      45.275  23.861  39.299  1.00  0.00    -0.052 C 
ATOM     77  H   UNL A   1      44.422  23.710  39.926  1.00  0.00     0.027 H 
ATOM     78  H   UNL A   1      46.001  24.527  39.718  1.00  0.00     0.027 H 
BRANCH  76  79
ATOM     79  C   UNL A   1      45.983  22.513  39.127  1.00  0.00    -0.036 C 
ATOM     80  H   UNL A   1      45.268  21.736  39.291  1.00  0.00     0.028 H 
ATOM     81  H   UNL A   1      46.785  22.494  39.837  1.00  0.00     0.028 H 
BRANCH  79  82
ATOM     82  C   UNL A   1      46.607  22.309  37.751  1.00  0.00     0.018 C 
ATOM     83  H   UNL A   1      47.672  22.382  37.837  1.00  0.00     0.049 H 
ATOM     84  H   UNL A   1      46.228  23.063  37.093  1.00  0.00     0.049 H 
BRANCH  82  85
ATOM     85  N   UNL A   1      46.265  21.002  37.200  1.00  0.00    -0.352 N 
ATOM     86  C   UNL A   1      45.601  20.700  36.035  1.00  0.00     0.251 C 
ATOM     87  H   UNL A   1      46.549  20.229  37.738  1.00  0.00     0.163 HD
ATOM     88  O   UNL A   1      45.153  19.579  35.837  1.00  0.00    -0.269 OA
BRANCH  86  89
ATOM     89  C   UNL A   1      45.446  21.752  35.012  1.00  0.00     0.039 A 
ATOM     90  C   UNL A   1      44.181  22.238  34.678  1.00  0.00    -0.049 A 
ATOM     91  C   UNL A   1      46.584  22.264  34.393  1.00  0.00    -0.049 A 
ATOM     92  C   UNL A   1      44.071  23.305  33.779  1.00  0.00    -0.053 A 
ATOM     93  H   UNL A   1      43.336  21.815  35.090  1.00  0.00     0.063 H 
ATOM     94  C   UNL A   1      46.479  23.375  33.569  1.00  0.00    -0.053 A 
ATOM     95  H   UNL A   1      47.502  21.819  34.546  1.00  0.00     0.063 H 
ATOM     96  C   UNL A   1      45.223  23.913  33.254  1.00  0.00    -0.014 A 
ATOM     97  H   UNL A   1      43.138  23.646  33.500  1.00  0.00     0.063 H 
ATOM     98  H   UNL A   1      47.333  23.810  33.185  1.00  0.00     0.063 H 
BRANCH  96  99
ATOM     99  C   UNL A   1      45.175  25.114  32.381  1.00  0.00     0.031 A 
ATOM    100  C   UNL A   1      45.100  24.949  30.888  1.00  0.00     0.074 A 
ATOM    101  C   UNL A   1      45.334  26.341  32.916  1.00  0.00     0.049 A 
ATOM    102  N   UNL A   1      45.232  25.849  29.946  1.00  0.00    -0.248 NA
ATOM    103  C   UNL A   1      44.891  23.582  30.384  1.00  0.00    -0.034 C 
ATOM    104  C   UNL A   1      45.469  26.628  34.343  1.00  0.00    -0.036 A 
ATOM    105  N   UNL A   1      45.435  27.573  32.317  1.00  0.00    -0.354 N 
ATOM    106  C   UNL A   1      45.149  25.154  28.747  1.00  0.00     0.074 A 
ATOM    107  C   UNL A   1      45.015  23.752  29.076  1.00  0.00    -0.034 C 
ATOM    108  H   UNL A   1      44.698  22.716  30.911  1.00  0.00     0.065 H 
ATOM    109  C   UNL A   1      45.614  27.951  34.513  1.00  0.00    -0.036 A 
ATOM    110  H   UNL A   1      45.455  25.926  35.100  1.00  0.00     0.065 H 
ATOM    111  C   UNL A   1      45.636  28.602  33.206  1.00  0.00     0.049 A 
ATOM    112  H   UNL A   1      45.368  27.707  31.344  1.00  0.00     0.167 HD
ATOM    113  C   UNL A   1      45.156  25.646  27.487  1.00  0.00     0.037 A 
ATOM    114  H   UNL A   1      45.017  22.986  28.383  1.00  0.00     0.065 H 
ATOM    115  H   UNL A   1      45.696  28.433  35.423  1.00  0.00     0.065 H 
ATOM    116  C   UNL A   1      45.837  29.917  32.993  1.00  0.00     0.037 A 
ATOM    117  C   UNL A   1      45.248  27.045  27.169  1.00  0.00     0.049 A 
ATOM    118  C   UNL A   1      45.853  30.442  31.584  1.00  0.00     0.074 A 
ATOM    119  C   UNL A   1      45.183  27.649  25.927  1.00  0.00    -0.036 A 
ATOM    120  N   UNL A   1      45.427  28.057  28.101  1.00  0.00    -0.354 N 
ATOM    121  N   UNL A   1      45.710  29.785  30.459  1.00  0.00    -0.248 NA
ATOM    122  C   UNL A   1      46.059  31.888  31.409  1.00  0.00    -0.034 C 
ATOM    123  C   UNL A   1      45.384  29.020  26.100  1.00  0.00    -0.036 A 
ATOM    124  H   UNL A   1      45.016  27.170  25.029  1.00  0.00     0.065 H 
ATOM    125  C   UNL A   1      45.506  29.280  27.456  1.00  0.00     0.049 A 
ATOM    126  H   UNL A   1      45.487  27.927  29.075  1.00  0.00     0.167 HD
ATOM    127  C   UNL A   1      45.781  30.733  29.448  1.00  0.00     0.074 A 
ATOM    128  C   UNL A   1      45.978  32.016  30.090  1.00  0.00    -0.034 C 
ATOM    129  H   UNL A   1      46.225  32.613  32.124  1.00  0.00     0.065 H 
ATOM    130  H   UNL A   1      45.433  29.722  25.345  1.00  0.00     0.065 H 
ATOM    131  C   UNL A   1      45.688  30.553  28.108  1.00  0.00     0.037 A 
ATOM    132  H   UNL A   1      46.046  32.914  29.587  1.00  0.00     0.065 H 
BRANCH 113 133
ATOM    133  C   UNL A   1      45.047  24.671  26.348  1.00  0.00     0.064 A 
ATOM    134  C   UNL A   1      43.809  24.100  26.016  1.00  0.00     0.173 A 
ATOM    135  C   UNL A   1      46.177  24.248  25.632  1.00  0.00     0.173 A 
ATOM    136  F   UNL A   1      42.698  24.462  26.674  1.00  0.00    -0.203 F 
ATOM    137  C   UNL A   1      43.709  23.135  25.017  1.00  0.00     0.198 A 
ATOM    138  C   UNL A   1      46.067  23.309  24.610  1.00  0.00     0.198 A 
ATOM    139  F   UNL A   1      47.383  24.768  25.904  1.00  0.00    -0.203 F 
ATOM    140  F   UNL A   1      42.521  22.577  24.743  1.00  0.00    -0.200 F 
ATOM    141  C   UNL A   1      44.837  22.745  24.311  1.00  0.00     0.200 A 
ATOM    142  F   UNL A   1      47.154  22.954  23.911  1.00  0.00    -0.200 F 
ATOM    143  F   UNL A   1      44.736  21.826  23.340  1.00  0.00    -0.200 F 
ENDBRANCH 113 133
BRANCH 116 144
ATOM    144  C   UNL A   1      46.006  30.825  34.158  1.00  0.00     0.064 A 
ATOM    145  C   UNL A   1      44.950  31.619  34.631  1.00  0.00     0.173 A 
ATOM    146  C   UNL A   1      47.253  30.958  34.786  1.00  0.00     0.173 A 
ATOM    147  F   UNL A   1      43.740  31.535  34.060  1.00  0.00    -0.203 F 
ATOM    148  C   UNL A   1      45.143  32.532  35.666  1.00  0.00     0.198 A 
ATOM    149  C   UNL A   1      47.437  31.853  35.838  1.00  0.00     0.198 A 
ATOM    150  F   UNL A   1      48.288  30.208  34.382  1.00  0.00    -0.203 F 
ATOM    151  F   UNL A   1      44.130  33.312  36.065  1.00  0.00    -0.200 F 
ATOM    152  C   UNL A   1      46.386  32.647  36.270  1.00  0.00     0.200 A 
ATOM    153  F   UNL A   1      48.634  31.945  36.433  1.00  0.00    -0.200 F 
ATOM    154  F   UNL A   1      46.571  33.524  37.266  1.00  0.00    -0.200 F 
ENDBRANCH 116 144
BRANCH 131 155
ATOM    155  C   UNL A   1      45.765  31.760  27.221  1.00  0.00     0.064 A 
ATOM    156  C   UNL A   1      47.009  32.342  26.928  1.00  0.00     0.173 A 
ATOM    157  C   UNL A   1      44.610  32.424  26.785  1.00  0.00     0.173 A 
ATOM    158  F   UNL A   1      48.143  31.749  27.332  1.00  0.00    -0.203 F 
ATOM    159  C   UNL A   1      47.091  33.562  26.265  1.00  0.00     0.198 A 
ATOM    160  C   UNL A   1      44.698  33.631  26.097  1.00  0.00     0.198 A 
ATOM    161  F   UNL A   1      43.399  31.903  27.032  1.00  0.00    -0.203 F 
ATOM    162  F   UNL A   1      48.288  34.126  26.049  1.00  0.00    -0.200 F 
ATOM    163  C   UNL A   1      45.936  34.207  25.852  1.00  0.00     0.200 A 
ATOM    164  F   UNL A   1      43.580  34.245  25.682  1.00  0.00    -0.200 F 
ATOM    165  F   UNL A   1      46.014  35.388  25.224  1.00  0.00    -0.200 F 
ENDBRANCH 131 155
ENDBRANCH  96  99
ENDBRANCH  86  89
ENDBRANCH  82  85
ENDBRANCH  79  82
ENDBRANCH  76  79
ENDBRANCH  73  76
ENDBRANCH   1  73
TORSDOF 21
ENDMDL
MODEL 8
REMARK VINA RESULT:      -8.4      4.716     12.390
REMARK SMILES CC1CC[NH+]([C@H](c2ccc(F)cc2)c2ccc([C@@H](C)C(=O)NCCCCCCNC(=O)c3ccc(-c4c5nc(c(-c6c(F)c(F)c(F)c(F)c6F)c6ccc([nH]6)c(-c6c(F)c(F)c(F)c(F)c6F)c6nc(c(-c7c(F)c(F)c(F)c(F)c7F)c7ccc4[nH]7)C=C6)C=C5)cc3)cc2-c2ccc(C(F)(F)F)cc2)CC1
REMARK SMILES IDX 24 1 23 4 22 7 20 8 21 9 18 11 17 13 14 14 15 15 96 16 16 17
REMARK SMILES IDX 95 19 6 22 5 24 2 25 3 26 108 27 4 29 107 32 1 40 7 44 8 45
REMARK SMILES IDX 13 46 9 47 12 49 10 51 11 54 97 55 98 56 106 57 99 58 105 60
REMARK SMILES IDX 100 62 101 65 102 66 103 67 104 68 19 69 25 73 26 76 27 79
REMARK SMILES IDX 28 82 29 85 30 86 31 88 32 89 33 90 94 91 34 92 93 94 35 96
REMARK SMILES IDX 36 99 37 100 87 101 38 102 92 103 86 104 88 105 39 106
REMARK SMILES IDX 91 107 85 109 84 111 40 113 72 116 52 117 71 118 53 119
REMARK SMILES IDX 56 120 70 121 89 122 54 123 55 125 69 127 90 128 57 131
REMARK SMILES IDX 41 133 42 134 50 135 43 136 44 137 48 138 51 139 45 140
REMARK SMILES IDX 46 141 49 142 47 143 73 144 74 145 82 146 75 147 76 148
REMARK SMILES IDX 80 149 83 150 77 151 78 152 81 153 79 154 58 155 59 156
REMARK SMILES IDX 67 157 60 158 61 159 65 160 68 161 62 162 63 163 66 164
REMARK SMILES IDX 64 165
REMARK H PARENT 24 2 24 3 23 5 23 6 22 10 18 12 15 18 16 20 95 21 6 23 2 28
REMARK H PARENT 3 30 3 31 108 33 108 34 4 35 4 36 107 37 107 38 5 39 1 41 1 42
REMARK H PARENT 1 43 8 48 13 50 9 52 12 53 98 59 106 61 99 63 105 64 19 70
REMARK H PARENT 19 71 19 72 25 74 25 75 26 77 26 78 27 80 27 81 28 83 28 84
REMARK H PARENT 29 87 33 93 94 95 34 97 93 98 92 108 86 110 88 112 91 114
REMARK H PARENT 85 115 53 124 56 126 89 129 54 130 90 132
REMARK Flexibility Score: inf
ROOT
ATOM      1  C   UNL A   1      40.421  32.990  30.275  1.00  0.00    -0.036 C 
ATOM      2  H   UNL A   1      40.939  32.167  30.722  1.00  0.00     0.028 H 
ATOM      3  H   UNL A   1      39.932  32.723  29.362  1.00  0.00     0.028 H 
ENDROOT
BRANCH   1   4
ATOM      4  C   UNL A   1      41.448  34.076  29.927  1.00  0.00     0.017 C 
ATOM      5  H   UNL A   1      42.010  33.761  29.073  1.00  0.00     0.049 H 
ATOM      6  H   UNL A   1      40.918  34.984  29.724  1.00  0.00     0.049 H 
BRANCH   4   7
ATOM      7  N   UNL A   1      42.360  34.323  31.025  1.00  0.00    -0.356 N 
ATOM      8  C   UNL A   1      43.570  33.797  31.362  1.00  0.00     0.227 C 
ATOM      9  O   UNL A   1      44.050  34.194  32.431  1.00  0.00    -0.274 OA
ATOM     10  H   UNL A   1      42.041  35.010  31.655  1.00  0.00     0.163 HD
BRANCH   8  11
ATOM     11  C   UNL A   1      44.351  32.777  30.510  1.00  0.00     0.060 C 
ATOM     12  H   UNL A   1      45.207  32.507  31.092  1.00  0.00     0.045 H 
BRANCH  11  13
ATOM     13  C   UNL A   1      43.608  31.467  30.317  1.00  0.00    -0.035 A 
ATOM     14  C   UNL A   1      41.854  29.220  30.008  1.00  0.00     0.022 A 
ATOM     15  C   UNL A   1      42.277  30.011  28.929  1.00  0.00    -0.052 A 
ATOM     16  C   UNL A   1      42.463  29.492  31.265  1.00  0.00    -0.009 A 
ATOM     17  C   UNL A   1      43.207  31.033  29.067  1.00  0.00    -0.058 A 
ATOM     18  H   UNL A   1      41.881  29.825  27.994  1.00  0.00     0.063 H 
ATOM     19  C   UNL A   1      43.260  30.659  31.408  1.00  0.00    -0.050 A 
ATOM     20  H   UNL A   1      43.605  31.476  28.224  1.00  0.00     0.063 H 
ATOM     21  H   UNL A   1      43.595  30.922  32.348  1.00  0.00     0.063 H 
BRANCH  14  22
ATOM     22  C   UNL A   1      40.830  28.067  29.795  1.00  0.00     0.139 C 
ATOM     23  H   UNL A   1      40.862  27.608  30.762  1.00  0.00     0.107 H 
BRANCH  22  24
ATOM     24  N   UNL A   1      41.199  26.960  28.849  1.00  0.00    -0.325 N 
ATOM     25  C   UNL A   1      41.831  24.140  28.383  1.00  0.00    -0.034 C 
ATOM     26  C   UNL A   1      40.494  24.694  27.900  1.00  0.00    -0.001 C 
ATOM     27  C   UNL A   1      42.886  25.214  28.173  1.00  0.00    -0.001 C 
ATOM     28  H   UNL A   1      41.761  23.880  29.419  1.00  0.00     0.030 H 
ATOM     29  C   UNL A   1      40.110  26.013  28.585  1.00  0.00     0.078 C 
ATOM     30  H   UNL A   1      39.731  23.971  28.103  1.00  0.00     0.033 H 
ATOM     31  H   UNL A   1      40.588  24.893  26.853  1.00  0.00     0.033 H 
ATOM     32  C   UNL A   1      42.555  26.439  29.013  1.00  0.00     0.078 C 
ATOM     33  H   UNL A   1      42.909  25.489  27.139  1.00  0.00     0.033 H 
ATOM     34  H   UNL A   1      43.840  24.831  28.470  1.00  0.00     0.033 H 
ATOM     35  H   UNL A   1      39.657  25.770  29.523  1.00  0.00     0.092 H 
ATOM     36  H   UNL A   1      39.467  26.512  27.892  1.00  0.00     0.092 H 
ATOM     37  H   UNL A   1      42.689  26.180  30.043  1.00  0.00     0.092 H 
ATOM     38  H   UNL A   1      43.214  27.214  28.679  1.00  0.00     0.092 H 
ATOM     39  H   UNL A   1      41.298  27.393  27.931  1.00  0.00     0.348 HD
BRANCH  25  40
ATOM     40  C   UNL A   1      42.207  22.876  27.628  1.00  0.00    -0.062 C 
ATOM     41  H   UNL A   1      43.062  22.426  28.088  1.00  0.00     0.023 H 
ATOM     42  H   UNL A   1      42.437  23.122  26.612  1.00  0.00     0.023 H 
ATOM     43  H   UNL A   1      41.388  22.188  27.651  1.00  0.00     0.023 H 
ENDBRANCH  25  40
ENDBRANCH  22  24
BRANCH  22  44
ATOM     44  C   UNL A   1      39.399  28.564  29.499  1.00  0.00     0.014 A 
ATOM     45  C   UNL A   1      39.007  28.992  28.215  1.00  0.00    -0.050 A 
ATOM     46  C   UNL A   1      38.444  28.595  30.533  1.00  0.00    -0.050 A 
ATOM     47  C   UNL A   1      37.700  29.415  27.969  1.00  0.00    -0.026 A 
ATOM     48  H   UNL A   1      39.696  28.994  27.446  1.00  0.00     0.063 H 
ATOM     49  C   UNL A   1      37.148  29.057  30.295  1.00  0.00    -0.026 A 
ATOM     50  H   UNL A   1      38.704  28.272  31.479  1.00  0.00     0.063 H 
ATOM     51  C   UNL A   1      36.786  29.452  29.014  1.00  0.00     0.123 A 
ATOM     52  H   UNL A   1      37.414  29.697  27.019  1.00  0.00     0.065 H 
ATOM     53  H   UNL A   1      36.464  29.105  31.065  1.00  0.00     0.065 H 
ATOM     54  F   UNL A   1      35.537  29.875  28.782  1.00  0.00    -0.207 F 
ENDBRANCH  22  44
ENDBRANCH  14  22
BRANCH  16  55
ATOM     55  C   UNL A   1      42.370  28.589  32.430  1.00  0.00    -0.018 A 
ATOM     56  C   UNL A   1      43.227  27.489  32.578  1.00  0.00    -0.054 A 
ATOM     57  C   UNL A   1      41.375  28.787  33.402  1.00  0.00    -0.054 A 
ATOM     58  C   UNL A   1      43.115  26.636  33.681  1.00  0.00    -0.049 A 
ATOM     59  H   UNL A   1      43.950  27.306  31.864  1.00  0.00     0.063 H 
ATOM     60  C   UNL A   1      41.269  27.945  34.512  1.00  0.00    -0.049 A 
ATOM     61  H   UNL A   1      40.708  29.568  33.292  1.00  0.00     0.063 H 
ATOM     62  C   UNL A   1      42.145  26.865  34.667  1.00  0.00     0.056 A 
ATOM     63  H   UNL A   1      43.753  25.829  33.769  1.00  0.00     0.063 H 
ATOM     64  H   UNL A   1      40.541  28.121  35.221  1.00  0.00     0.063 H 
BRANCH  62  65
ATOM     65  C   UNL A   1      42.041  25.945  35.859  1.00  0.00     0.416 C 
ATOM     66  F   UNL A   1      40.900  25.202  35.845  1.00  0.00    -0.166 F 
ATOM     67  F   UNL A   1      43.069  25.054  35.927  1.00  0.00    -0.166 F 
ATOM     68  F   UNL A   1      42.043  26.603  37.052  1.00  0.00    -0.166 F 
ENDBRANCH  62  65
ENDBRANCH  16  55
ENDBRANCH  11  13
BRANCH  11  69
ATOM     69  C   UNL A   1      44.970  33.369  29.246  1.00  0.00    -0.049 C 
ATOM     70  H   UNL A   1      44.317  34.117  28.846  1.00  0.00     0.024 H 
ATOM     71  H   UNL A   1      45.111  32.595  28.521  1.00  0.00     0.024 H 
ATOM     72  H   UNL A   1      45.914  33.811  29.484  1.00  0.00     0.024 H 
ENDBRANCH  11  69
ENDBRANCH   8  11
ENDBRANCH   4   7
ENDBRANCH   1   4
BRANCH   1  73
ATOM     73  C   UNL A   1      39.330  33.453  31.243  1.00  0.00    -0.052 C 
ATOM     74  H   UNL A   1      39.805  33.852  32.115  1.00  0.00     0.027 H 
ATOM     75  H   UNL A   1      38.724  32.596  31.449  1.00  0.00     0.027 H 
BRANCH  73  76
ATOM     76  C   UNL A   1      38.387  34.524  30.679  1.00  0.00    -0.052 C 
ATOM     77  H   UNL A   1      38.977  35.233  30.139  1.00  0.00     0.027 H 
ATOM     78  H   UNL A   1      37.879  34.945  31.522  1.00  0.00     0.027 H 
BRANCH  76  79
ATOM     79  C   UNL A   1      37.296  34.000  29.741  1.00  0.00    -0.036 C 
ATOM     80  H   UNL A   1      37.743  33.787  28.793  1.00  0.00     0.028 H 
ATOM     81  H   UNL A   1      36.547  34.763  29.682  1.00  0.00     0.028 H 
BRANCH  79  82
ATOM     82  C   UNL A   1      36.600  32.738  30.238  1.00  0.00     0.018 C 
ATOM     83  H   UNL A   1      37.254  32.221  30.910  1.00  0.00     0.049 H 
ATOM     84  H   UNL A   1      36.365  32.126  29.392  1.00  0.00     0.049 H 
BRANCH  82  85
ATOM     85  N   UNL A   1      35.358  33.054  30.935  1.00  0.00    -0.352 N 
ATOM     86  C   UNL A   1      35.098  33.056  32.286  1.00  0.00     0.251 C 
ATOM     87  H   UNL A   1      34.601  33.300  30.359  1.00  0.00     0.163 HD
ATOM     88  O   UNL A   1      33.950  33.080  32.707  1.00  0.00    -0.269 OA
BRANCH  86  89
ATOM     89  C   UNL A   1      36.234  33.041  33.228  1.00  0.00     0.039 A 
ATOM     90  C   UNL A   1      36.697  34.226  33.801  1.00  0.00    -0.049 A 
ATOM     91  C   UNL A   1      36.831  31.824  33.547  1.00  0.00    -0.049 A 
ATOM     92  C   UNL A   1      37.708  34.173  34.767  1.00  0.00    -0.053 A 
ATOM     93  H   UNL A   1      36.296  35.133  33.517  1.00  0.00     0.063 H 
ATOM     94  C   UNL A   1      37.772  31.764  34.564  1.00  0.00    -0.053 A 
ATOM     95  H   UNL A   1      36.574  30.969  33.029  1.00  0.00     0.063 H 
ATOM     96  C   UNL A   1      38.220  32.935  35.190  1.00  0.00    -0.014 A 
ATOM     97  H   UNL A   1      38.079  35.047  35.170  1.00  0.00     0.063 H 
ATOM     98  H   UNL A   1      38.145  30.849  34.863  1.00  0.00     0.063 H 
BRANCH  96  99
ATOM     99  C   UNL A   1      39.217  32.807  36.285  1.00  0.00     0.031 A 
ATOM    100  C   UNL A   1      40.653  32.503  35.956  1.00  0.00     0.074 A 
ATOM    101  C   UNL A   1      38.810  32.827  37.570  1.00  0.00     0.049 A 
ATOM    102  N   UNL A   1      41.635  32.173  36.756  1.00  0.00    -0.248 NA
ATOM    103  C   UNL A   1      41.025  32.534  34.532  1.00  0.00    -0.034 C 
ATOM    104  C   UNL A   1      37.438  33.061  38.017  1.00  0.00    -0.036 A 
ATOM    105  N   UNL A   1      39.509  32.624  38.735  1.00  0.00    -0.354 N 
ATOM    106  C   UNL A   1      42.726  31.932  35.932  1.00  0.00     0.074 A 
ATOM    107  C   UNL A   1      42.274  32.095  34.568  1.00  0.00    -0.034 C 
ATOM    108  H   UNL A   1      40.460  32.822  33.718  1.00  0.00     0.065 H 
ATOM    109  C   UNL A   1      37.397  33.008  39.357  1.00  0.00    -0.036 A 
ATOM    110  H   UNL A   1      36.628  33.238  37.401  1.00  0.00     0.065 H 
ATOM    111  C   UNL A   1      38.728  32.684  39.863  1.00  0.00     0.049 A 
ATOM    112  H   UNL A   1      40.478  32.451  38.758  1.00  0.00     0.167 HD
ATOM    113  C   UNL A   1      43.997  31.630  36.285  1.00  0.00     0.037 A 
ATOM    114  H   UNL A   1      42.849  31.896  33.734  1.00  0.00     0.065 H 
ATOM    115  H   UNL A   1      36.559  33.171  39.938  1.00  0.00     0.065 H 
ATOM    116  C   UNL A   1      39.042  32.482  41.158  1.00  0.00     0.037 A 
ATOM    117  C   UNL A   1      44.448  31.509  37.645  1.00  0.00     0.049 A 
ATOM    118  C   UNL A   1      40.458  32.135  41.529  1.00  0.00     0.074 A 
ATOM    119  C   UNL A   1      45.732  31.285  38.107  1.00  0.00    -0.036 A 
ATOM    120  N   UNL A   1      43.628  31.603  38.761  1.00  0.00    -0.354 N 
ATOM    121  N   UNL A   1      41.497  31.972  40.746  1.00  0.00    -0.248 NA
ATOM    122  C   UNL A   1      40.749  31.942  42.957  1.00  0.00    -0.034 C 
ATOM    123  C   UNL A   1      45.680  31.180  39.498  1.00  0.00    -0.036 A 
ATOM    124  H   UNL A   1      46.580  31.208  37.524  1.00  0.00     0.065 H 
ATOM    125  C   UNL A   1      44.377  31.407  39.910  1.00  0.00     0.049 A 
ATOM    126  H   UNL A   1      42.661  31.781  38.740  1.00  0.00     0.167 HD
ATOM    127  C   UNL A   1      42.566  31.685  41.583  1.00  0.00     0.074 A 
ATOM    128  C   UNL A   1      42.053  31.697  42.937  1.00  0.00    -0.034 C 
ATOM    129  H   UNL A   1      40.107  31.984  43.764  1.00  0.00     0.065 H 
ATOM    130  H   UNL A   1      46.480  30.970  40.116  1.00  0.00     0.065 H 
ATOM    131  C   UNL A   1      43.857  31.437  41.254  1.00  0.00     0.037 A 
ATOM    132  H   UNL A   1      42.629  31.538  43.778  1.00  0.00     0.065 H 
BRANCH 113 133
ATOM    133  C   UNL A   1      45.002  31.419  35.188  1.00  0.00     0.064 A 
ATOM    134  C   UNL A   1      45.229  30.136  34.669  1.00  0.00     0.173 A 
ATOM    135  C   UNL A   1      45.791  32.473  34.701  1.00  0.00     0.173 A 
ATOM    136  F   UNL A   1      44.510  29.091  35.105  1.00  0.00    -0.203 F 
ATOM    137  C   UNL A   1      46.216  29.914  33.711  1.00  0.00     0.198 A 
ATOM    138  C   UNL A   1      46.751  32.253  33.717  1.00  0.00     0.198 A 
ATOM    139  F   UNL A   1      45.609  33.721  35.158  1.00  0.00    -0.203 F 
ATOM    140  F   UNL A   1      46.439  28.673  33.256  1.00  0.00    -0.200 F 
ATOM    141  C   UNL A   1      46.971  30.974  33.231  1.00  0.00     0.200 A 
ATOM    142  F   UNL A   1      47.461  33.283  33.236  1.00  0.00    -0.200 F 
ATOM    143  F   UNL A   1      47.909  30.761  32.298  1.00  0.00    -0.200 F 
ENDBRANCH 113 133
BRANCH 116 144
ATOM    144  C   UNL A   1      37.988  32.638  42.195  1.00  0.00     0.064 A 
ATOM    145  C   UNL A   1      37.686  33.889  42.754  1.00  0.00     0.173 A 
ATOM    146  C   UNL A   1      37.301  31.520  42.690  1.00  0.00     0.173 A 
ATOM    147  F   UNL A   1      38.320  34.989  42.321  1.00  0.00    -0.203 F 
ATOM    148  C   UNL A   1      36.760  34.012  43.788  1.00  0.00     0.198 A 
ATOM    149  C   UNL A   1      36.355  31.649  43.706  1.00  0.00     0.198 A 
ATOM    150  F   UNL A   1      37.541  30.307  42.175  1.00  0.00    -0.203 F 
ATOM    151  F   UNL A   1      36.526  35.212  44.336  1.00  0.00    -0.200 F 
ATOM    152  C   UNL A   1      36.094  32.892  44.262  1.00  0.00     0.200 A 
ATOM    153  F   UNL A   1      35.699  30.567  44.146  1.00  0.00    -0.200 F 
ATOM    154  F   UNL A   1      35.202  33.010  45.255  1.00  0.00    -0.200 F 
ENDBRANCH 116 144
BRANCH 131 155
ATOM    155  C   UNL A   1      44.837  31.184  42.362  1.00  0.00     0.064 A 
ATOM    156  C   UNL A   1      45.607  32.240  42.876  1.00  0.00     0.173 A 
ATOM    157  C   UNL A   1      45.120  29.886  42.807  1.00  0.00     0.173 A 
ATOM    158  F   UNL A   1      45.381  33.500  42.473  1.00  0.00    -0.203 F 
ATOM    159  C   UNL A   1      46.648  32.000  43.767  1.00  0.00     0.198 A 
ATOM    160  C   UNL A   1      46.144  29.653  43.721  1.00  0.00     0.198 A 
ATOM    161  F   UNL A   1      44.405  28.846  42.353  1.00  0.00    -0.203 F 
ATOM    162  F   UNL A   1      47.407  33.016  44.199  1.00  0.00    -0.200 F 
ATOM    163  C   UNL A   1      46.918  30.706  44.187  1.00  0.00     0.200 A 
ATOM    164  F   UNL A   1      46.393  28.404  44.140  1.00  0.00    -0.200 F 
ATOM    165  F   UNL A   1      47.928  30.473  45.036  1.00  0.00    -0.200 F 
ENDBRANCH 131 155
ENDBRANCH  96  99
ENDBRANCH  86  89
ENDBRANCH  82  85
ENDBRANCH  79  82
ENDBRANCH  76  79
ENDBRANCH  73  76
ENDBRANCH   1  73
TORSDOF 21
ENDMDL
MODEL 9
REMARK VINA RESULT:      -8.4      3.702     10.650
REMARK SMILES CC1CC[NH+]([C@H](c2ccc(F)cc2)c2ccc([C@@H](C)C(=O)NCCCCCCNC(=O)c3ccc(-c4c5nc(c(-c6c(F)c(F)c(F)c(F)c6F)c6ccc([nH]6)c(-c6c(F)c(F)c(F)c(F)c6F)c6nc(c(-c7c(F)c(F)c(F)c(F)c7F)c7ccc4[nH]7)C=C6)C=C5)cc3)cc2-c2ccc(C(F)(F)F)cc2)CC1
REMARK SMILES IDX 24 1 23 4 22 7 20 8 21 9 18 11 17 13 14 14 15 15 96 16 16 17
REMARK SMILES IDX 95 19 6 22 5 24 2 25 3 26 108 27 4 29 107 32 1 40 7 44 8 45
REMARK SMILES IDX 13 46 9 47 12 49 10 51 11 54 97 55 98 56 106 57 99 58 105 60
REMARK SMILES IDX 100 62 101 65 102 66 103 67 104 68 19 69 25 73 26 76 27 79
REMARK SMILES IDX 28 82 29 85 30 86 31 88 32 89 33 90 94 91 34 92 93 94 35 96
REMARK SMILES IDX 36 99 37 100 87 101 38 102 92 103 86 104 88 105 39 106
REMARK SMILES IDX 91 107 85 109 84 111 40 113 72 116 52 117 71 118 53 119
REMARK SMILES IDX 56 120 70 121 89 122 54 123 55 125 69 127 90 128 57 131
REMARK SMILES IDX 41 133 42 134 50 135 43 136 44 137 48 138 51 139 45 140
REMARK SMILES IDX 46 141 49 142 47 143 73 144 74 145 82 146 75 147 76 148
REMARK SMILES IDX 80 149 83 150 77 151 78 152 81 153 79 154 58 155 59 156
REMARK SMILES IDX 67 157 60 158 61 159 65 160 68 161 62 162 63 163 66 164
REMARK SMILES IDX 64 165
REMARK H PARENT 24 2 24 3 23 5 23 6 22 10 18 12 15 18 16 20 95 21 6 23 2 28
REMARK H PARENT 3 30 3 31 108 33 108 34 4 35 4 36 107 37 107 38 5 39 1 41 1 42
REMARK H PARENT 1 43 8 48 13 50 9 52 12 53 98 59 106 61 99 63 105 64 19 70
REMARK H PARENT 19 71 19 72 25 74 25 75 26 77 26 78 27 80 27 81 28 83 28 84
REMARK H PARENT 29 87 33 93 94 95 34 97 93 98 92 108 86 110 88 112 91 114
REMARK H PARENT 85 115 53 124 56 126 89 129 54 130 90 132
REMARK Flexibility Score: inf
ROOT
ATOM      1  C   UNL A   1      39.505  35.759  41.219  1.00  0.00    -0.036 C 
ATOM      2  H   UNL A   1      40.281  35.062  41.458  1.00  0.00     0.028 H 
ATOM      3  H   UNL A   1      38.595  35.559  41.744  1.00  0.00     0.028 H 
ENDROOT
BRANCH   1   4
ATOM      4  C   UNL A   1      39.191  35.639  39.722  1.00  0.00     0.017 C 
ATOM      5  H   UNL A   1      38.140  35.476  39.600  1.00  0.00     0.049 H 
ATOM      6  H   UNL A   1      39.496  36.546  39.242  1.00  0.00     0.049 H 
BRANCH   4   7
ATOM      7  N   UNL A   1      39.910  34.540  39.110  1.00  0.00    -0.356 N 
ATOM      8  C   UNL A   1      39.506  33.390  38.504  1.00  0.00     0.227 C 
ATOM      9  O   UNL A   1      40.409  32.622  38.150  1.00  0.00    -0.274 OA
ATOM     10  H   UNL A   1      40.888  34.647  39.137  1.00  0.00     0.163 HD
BRANCH   8  11
ATOM     11  C   UNL A   1      38.036  33.010  38.236  1.00  0.00     0.060 C 
ATOM     12  H   UNL A   1      37.484  33.926  38.291  1.00  0.00     0.045 H 
BRANCH  11  13
ATOM     13  C   UNL A   1      37.794  32.520  36.819  1.00  0.00    -0.035 A 
ATOM     14  C   UNL A   1      37.684  31.818  34.041  1.00  0.00     0.022 A 
ATOM     15  C   UNL A   1      38.374  31.053  34.995  1.00  0.00    -0.052 A 
ATOM     16  C   UNL A   1      36.901  32.893  34.545  1.00  0.00    -0.009 A 
ATOM     17  C   UNL A   1      38.340  31.339  36.353  1.00  0.00    -0.058 A 
ATOM     18  H   UNL A   1      38.930  30.246  34.672  1.00  0.00     0.063 H 
ATOM     19  C   UNL A   1      37.040  33.270  35.908  1.00  0.00    -0.050 A 
ATOM     20  H   UNL A   1      38.727  30.659  37.026  1.00  0.00     0.063 H 
ATOM     21  H   UNL A   1      36.569  34.127  36.238  1.00  0.00     0.063 H 
BRANCH  14  22
ATOM     22  C   UNL A   1      37.733  31.439  32.532  1.00  0.00     0.139 C 
ATOM     23  H   UNL A   1      36.693  31.258  32.352  1.00  0.00     0.107 H 
BRANCH  22  24
ATOM     24  N   UNL A   1      38.402  30.150  32.149  1.00  0.00    -0.325 N 
ATOM     25  C   UNL A   1      39.061  28.152  30.112  1.00  0.00    -0.034 C 
ATOM     26  C   UNL A   1      40.160  29.071  30.640  1.00  0.00    -0.001 C 
ATOM     27  C   UNL A   1      38.150  27.799  31.276  1.00  0.00    -0.001 C 
ATOM     28  H   UNL A   1      38.511  28.652  29.342  1.00  0.00     0.030 H 
ATOM     29  C   UNL A   1      39.610  30.323  31.335  1.00  0.00     0.078 C 
ATOM     30  H   UNL A   1      40.772  29.379  29.817  1.00  0.00     0.033 H 
ATOM     31  H   UNL A   1      40.718  28.519  31.367  1.00  0.00     0.033 H 
ATOM     32  C   UNL A   1      37.488  29.057  31.820  1.00  0.00     0.078 C 
ATOM     33  H   UNL A   1      38.727  27.339  32.051  1.00  0.00     0.033 H 
ATOM     34  H   UNL A   1      37.393  27.123  30.936  1.00  0.00     0.033 H 
ATOM     35  H   UNL A   1      39.389  31.044  30.576  1.00  0.00     0.092 H 
ATOM     36  H   UNL A   1      40.373  30.619  32.025  1.00  0.00     0.092 H 
ATOM     37  H   UNL A   1      36.798  29.413  31.083  1.00  0.00     0.092 H 
ATOM     38  H   UNL A   1      37.021  28.773  32.740  1.00  0.00     0.092 H 
ATOM     39  H   UNL A   1      38.806  29.774  33.007  1.00  0.00     0.348 HD
BRANCH  25  40
ATOM     40  C   UNL A   1      39.646  26.891  29.498  1.00  0.00    -0.062 C 
ATOM     41  H   UNL A   1      39.687  26.997  28.434  1.00  0.00     0.023 H 
ATOM     42  H   UNL A   1      39.030  26.053  29.750  1.00  0.00     0.023 H 
ATOM     43  H   UNL A   1      40.634  26.734  29.878  1.00  0.00     0.023 H 
ENDBRANCH  25  40
ENDBRANCH  22  24
BRANCH  22  44
ATOM     44  C   UNL A   1      38.229  32.585  31.627  1.00  0.00     0.014 A 
ATOM     45  C   UNL A   1      37.586  32.912  30.415  1.00  0.00    -0.050 A 
ATOM     46  C   UNL A   1      39.355  33.338  32.009  1.00  0.00    -0.050 A 
ATOM     47  C   UNL A   1      38.041  33.970  29.626  1.00  0.00    -0.026 A 
ATOM     48  H   UNL A   1      36.768  32.362  30.107  1.00  0.00     0.063 H 
ATOM     49  C   UNL A   1      39.834  34.369  31.197  1.00  0.00    -0.026 A 
ATOM     50  H   UNL A   1      39.833  33.126  32.899  1.00  0.00     0.063 H 
ATOM     51  C   UNL A   1      39.166  34.682  30.021  1.00  0.00     0.123 A 
ATOM     52  H   UNL A   1      37.545  34.221  28.757  1.00  0.00     0.065 H 
ATOM     53  H   UNL A   1      40.678  34.896  31.470  1.00  0.00     0.065 H 
ATOM     54  F   UNL A   1      39.614  35.684  29.254  1.00  0.00    -0.207 F 
ENDBRANCH  22  44
ENDBRANCH  14  22
BRANCH  16  55
ATOM     55  C   UNL A   1      35.889  33.612  33.744  1.00  0.00    -0.018 A 
ATOM     56  C   UNL A   1      34.867  32.930  33.068  1.00  0.00    -0.054 A 
ATOM     57  C   UNL A   1      35.959  35.008  33.600  1.00  0.00    -0.054 A 
ATOM     58  C   UNL A   1      33.926  33.625  32.301  1.00  0.00    -0.049 A 
ATOM     59  H   UNL A   1      34.810  31.902  33.135  1.00  0.00     0.063 H 
ATOM     60  C   UNL A   1      35.012  35.707  32.847  1.00  0.00    -0.049 A 
ATOM     61  H   UNL A   1      36.726  35.526  34.058  1.00  0.00     0.063 H 
ATOM     62  C   UNL A   1      33.979  35.022  32.196  1.00  0.00     0.056 A 
ATOM     63  H   UNL A   1      33.184  33.103  31.808  1.00  0.00     0.063 H 
ATOM     64  H   UNL A   1      35.075  36.734  32.771  1.00  0.00     0.063 H 
BRANCH  62  65
ATOM     65  C   UNL A   1      32.952  35.763  31.377  1.00  0.00     0.416 C 
ATOM     66  F   UNL A   1      33.419  36.953  30.909  1.00  0.00    -0.166 F 
ATOM     67  F   UNL A   1      32.547  35.062  30.283  1.00  0.00    -0.166 F 
ATOM     68  F   UNL A   1      31.815  36.056  32.071  1.00  0.00    -0.166 F 
ENDBRANCH  62  65
ENDBRANCH  16  55
ENDBRANCH  11  13
BRANCH  11  69
ATOM     69  C   UNL A   1      37.403  32.162  39.337  1.00  0.00    -0.049 C 
ATOM     70  H   UNL A   1      37.433  31.130  39.054  1.00  0.00     0.024 H 
ATOM     71  H   UNL A   1      36.386  32.463  39.479  1.00  0.00     0.024 H 
ATOM     72  H   UNL A   1      37.946  32.298  40.248  1.00  0.00     0.024 H 
ENDBRANCH  11  69
ENDBRANCH   8  11
ENDBRANCH   4   7
ENDBRANCH   1   4
BRANCH   1  73
ATOM     73  C   UNL A   1      39.966  37.154  41.648  1.00  0.00    -0.052 C 
ATOM     74  H   UNL A   1      39.512  37.380  42.590  1.00  0.00     0.027 H 
ATOM     75  H   UNL A   1      39.671  37.823  40.867  1.00  0.00     0.027 H 
BRANCH  73  76
ATOM     76  C   UNL A   1      41.485  37.308  41.800  1.00  0.00    -0.052 C 
ATOM     77  H   UNL A   1      41.683  37.675  42.784  1.00  0.00     0.027 H 
ATOM     78  H   UNL A   1      41.795  37.977  41.024  1.00  0.00     0.027 H 
BRANCH  76  79
ATOM     79  C   UNL A   1      42.292  36.021  41.600  1.00  0.00    -0.036 C 
ATOM     80  H   UNL A   1      41.616  35.193  41.635  1.00  0.00     0.028 H 
ATOM     81  H   UNL A   1      43.022  35.991  42.382  1.00  0.00     0.028 H 
BRANCH  79  82
ATOM     82  C   UNL A   1      43.055  35.963  40.281  1.00  0.00     0.018 C 
ATOM     83  H   UNL A   1      42.582  35.251  39.636  1.00  0.00     0.049 H 
ATOM     84  H   UNL A   1      44.065  35.673  40.488  1.00  0.00     0.049 H 
BRANCH  82  85
ATOM     85  N   UNL A   1      43.075  37.262  39.620  1.00  0.00    -0.352 N 
ATOM     86  C   UNL A   1      43.391  37.568  38.317  1.00  0.00     0.251 C 
ATOM     87  H   UNL A   1      42.828  38.028  40.186  1.00  0.00     0.163 HD
ATOM     88  O   UNL A   1      43.623  38.720  37.978  1.00  0.00    -0.269 OA
BRANCH  86  89
ATOM     89  C   UNL A   1      43.434  36.478  37.323  1.00  0.00     0.039 A 
ATOM     90  C   UNL A   1      42.268  36.052  36.685  1.00  0.00    -0.049 A 
ATOM     91  C   UNL A   1      44.658  35.889  37.019  1.00  0.00    -0.049 A 
ATOM     92  C   UNL A   1      42.351  35.088  35.674  1.00  0.00    -0.053 A 
ATOM     93  H   UNL A   1      41.353  36.445  36.955  1.00  0.00     0.063 H 
ATOM     94  C   UNL A   1      44.751  34.997  35.961  1.00  0.00    -0.053 A 
ATOM     95  H   UNL A   1      45.495  36.115  37.579  1.00  0.00     0.063 H 
ATOM     96  C   UNL A   1      43.601  34.588  35.272  1.00  0.00    -0.014 A 
ATOM     97  H   UNL A   1      41.490  34.743  35.223  1.00  0.00     0.063 H 
ATOM     98  H   UNL A   1      45.674  34.632  35.678  1.00  0.00     0.063 H 
BRANCH  96  99
ATOM     99  C   UNL A   1      43.764  33.644  34.136  1.00  0.00     0.031 A 
ATOM    100  C   UNL A   1      43.876  34.176  32.734  1.00  0.00     0.074 A 
ATOM    101  C   UNL A   1      43.675  32.316  34.348  1.00  0.00     0.049 A 
ATOM    102  N   UNL A   1      43.840  33.529  31.596  1.00  0.00    -0.248 NA
ATOM    103  C   UNL A   1      44.004  35.635  32.588  1.00  0.00    -0.034 C 
ATOM    104  C   UNL A   1      43.514  31.678  35.653  1.00  0.00    -0.036 A 
ATOM    105  N   UNL A   1      43.682  31.265  33.463  1.00  0.00    -0.354 N 
ATOM    106  C   UNL A   1      43.912  34.501  30.608  1.00  0.00     0.074 A 
ATOM    107  C   UNL A   1      43.935  35.785  31.274  1.00  0.00    -0.034 C 
ATOM    108  H   UNL A   1      44.116  36.355  33.320  1.00  0.00     0.065 H 
ATOM    109  C   UNL A   1      43.458  30.348  35.489  1.00  0.00    -0.036 A 
ATOM    110  H   UNL A   1      43.453  32.172  36.558  1.00  0.00     0.065 H 
ATOM    111  C   UNL A   1      43.525  30.039  34.063  1.00  0.00     0.049 A 
ATOM    112  H   UNL A   1      43.790  31.379  32.491  1.00  0.00     0.167 HD
ATOM    113  C   UNL A   1      43.982  34.335  29.267  1.00  0.00     0.037 A 
ATOM    114  H   UNL A   1      43.902  36.696  30.789  1.00  0.00     0.065 H 
ATOM    115  H   UNL A   1      43.381  29.653  36.249  1.00  0.00     0.065 H 
ATOM    116  C   UNL A   1      43.427  28.807  33.527  1.00  0.00     0.037 A 
ATOM    117  C   UNL A   1      44.000  33.054  28.614  1.00  0.00     0.049 A 
ATOM    118  C   UNL A   1      43.494  28.645  32.033  1.00  0.00     0.074 A 
ATOM    119  C   UNL A   1      44.149  32.780  27.267  1.00  0.00    -0.036 A 
ATOM    120  N   UNL A   1      43.864  31.835  29.262  1.00  0.00    -0.354 N 
ATOM    121  N   UNL A   1      43.628  29.566  31.111  1.00  0.00    -0.248 NA
ATOM    122  C   UNL A   1      43.398  27.277  31.502  1.00  0.00    -0.034 C 
ATOM    123  C   UNL A   1      44.041  31.399  27.091  1.00  0.00    -0.036 A 
ATOM    124  H   UNL A   1      44.312  33.475  26.521  1.00  0.00     0.065 H 
ATOM    125  C   UNL A   1      43.893  30.806  28.335  1.00  0.00     0.049 A 
ATOM    126  H   UNL A   1      43.763  31.718  30.234  1.00  0.00     0.167 HD
ATOM    127  C   UNL A   1      43.658  28.893  29.897  1.00  0.00     0.074 A 
ATOM    128  C   UNL A   1      43.531  27.483  30.198  1.00  0.00    -0.034 C 
ATOM    129  H   UNL A   1      43.261  26.389  32.010  1.00  0.00     0.065 H 
ATOM    130  H   UNL A   1      44.068  30.903  26.186  1.00  0.00     0.065 H 
ATOM    131  C   UNL A   1      43.782  29.403  28.648  1.00  0.00     0.037 A 
ATOM    132  H   UNL A   1      43.544  26.733  29.488  1.00  0.00     0.065 H 
BRANCH 113 133
ATOM    133  C   UNL A   1      44.058  35.565  28.407  1.00  0.00     0.064 A 
ATOM    134  C   UNL A   1      45.286  36.213  28.198  1.00  0.00     0.173 A 
ATOM    135  C   UNL A   1      42.909  36.144  27.846  1.00  0.00     0.173 A 
ATOM    136  F   UNL A   1      46.415  35.708  28.717  1.00  0.00    -0.203 F 
ATOM    137  C   UNL A   1      45.357  37.399  27.471  1.00  0.00     0.198 A 
ATOM    138  C   UNL A   1      42.990  37.310  27.090  1.00  0.00     0.198 A 
ATOM    139  F   UNL A   1      41.712  35.561  28.009  1.00  0.00    -0.203 F 
ATOM    140  F   UNL A   1      46.536  38.018  27.317  1.00  0.00    -0.200 F 
ATOM    141  C   UNL A   1      44.210  37.942  26.912  1.00  0.00     0.200 A 
ATOM    142  F   UNL A   1      41.884  37.818  26.529  1.00  0.00    -0.200 F 
ATOM    143  F   UNL A   1      44.283  39.075  26.200  1.00  0.00    -0.200 F 
ENDBRANCH 113 133
BRANCH 116 144
ATOM    144  C   UNL A   1      43.284  27.632  34.426  1.00  0.00     0.064 A 
ATOM    145  C   UNL A   1      42.034  27.043  34.674  1.00  0.00     0.173 A 
ATOM    146  C   UNL A   1      44.395  27.111  35.105  1.00  0.00     0.173 A 
ATOM    147  F   UNL A   1      40.939  27.509  34.056  1.00  0.00    -0.203 F 
ATOM    148  C   UNL A   1      41.898  25.999  35.587  1.00  0.00     0.198 A 
ATOM    149  C   UNL A   1      44.261  26.049  35.998  1.00  0.00     0.198 A 
ATOM    150  F   UNL A   1      45.612  27.627  34.888  1.00  0.00    -0.203 F 
ATOM    151  F   UNL A   1      40.686  25.487  35.840  1.00  0.00    -0.200 F 
ATOM    152  C   UNL A   1      43.011  25.502  36.247  1.00  0.00     0.200 A 
ATOM    153  F   UNL A   1      45.342  25.558  36.617  1.00  0.00    -0.200 F 
ATOM    154  F   UNL A   1      42.880  24.497  37.124  1.00  0.00    -0.200 F 
ENDBRANCH 116 144
BRANCH 131 155
ATOM    155  C   UNL A   1      43.821  28.449  27.491  1.00  0.00     0.064 A 
ATOM    156  C   UNL A   1      42.628  28.054  26.863  1.00  0.00     0.173 A 
ATOM    157  C   UNL A   1      45.010  27.818  27.102  1.00  0.00     0.173 A 
ATOM    158  F   UNL A   1      41.463  28.622  27.208  1.00  0.00    -0.203 F 
ATOM    159  C   UNL A   1      42.621  27.034  25.917  1.00  0.00     0.198 A 
ATOM    160  C   UNL A   1      45.002  26.818  26.133  1.00  0.00     0.198 A 
ATOM    161  F   UNL A   1      46.175  28.169  27.665  1.00  0.00    -0.203 F 
ATOM    162  F   UNL A   1      41.463  26.633  25.374  1.00  0.00    -0.200 F 
ATOM    163  C   UNL A   1      43.807  26.416  25.554  1.00  0.00     0.200 A 
ATOM    164  F   UNL A   1      46.152  26.232  25.770  1.00  0.00    -0.200 F 
ATOM    165  F   UNL A   1      43.799  25.426  24.650  1.00  0.00    -0.200 F 
ENDBRANCH 131 155
ENDBRANCH  96  99
ENDBRANCH  86  89
ENDBRANCH  82  85
ENDBRANCH  79  82
ENDBRANCH  76  79
ENDBRANCH  73  76
ENDBRANCH   1  73
TORSDOF 21
ENDMDL
MODEL 10
REMARK VINA RESULT:      -8.3      4.977      9.242
REMARK SMILES CC1CC[NH+]([C@H](c2ccc(F)cc2)c2ccc([C@@H](C)C(=O)NCCCCCCNC(=O)c3ccc(-c4c5nc(c(-c6c(F)c(F)c(F)c(F)c6F)c6ccc([nH]6)c(-c6c(F)c(F)c(F)c(F)c6F)c6nc(c(-c7c(F)c(F)c(F)c(F)c7F)c7ccc4[nH]7)C=C6)C=C5)cc3)cc2-c2ccc(C(F)(F)F)cc2)CC1
REMARK SMILES IDX 24 1 23 4 22 7 20 8 21 9 18 11 17 13 14 14 15 15 96 16 16 17
REMARK SMILES IDX 95 19 6 22 5 24 2 25 3 26 108 27 4 29 107 32 1 40 7 44 8 45
REMARK SMILES IDX 13 46 9 47 12 49 10 51 11 54 97 55 98 56 106 57 99 58 105 60
REMARK SMILES IDX 100 62 101 65 102 66 103 67 104 68 19 69 25 73 26 76 27 79
REMARK SMILES IDX 28 82 29 85 30 86 31 88 32 89 33 90 94 91 34 92 93 94 35 96
REMARK SMILES IDX 36 99 37 100 87 101 38 102 92 103 86 104 88 105 39 106
REMARK SMILES IDX 91 107 85 109 84 111 40 113 72 116 52 117 71 118 53 119
REMARK SMILES IDX 56 120 70 121 89 122 54 123 55 125 69 127 90 128 57 131
REMARK SMILES IDX 41 133 42 134 50 135 43 136 44 137 48 138 51 139 45 140
REMARK SMILES IDX 46 141 49 142 47 143 73 144 74 145 82 146 75 147 76 148
REMARK SMILES IDX 80 149 83 150 77 151 78 152 81 153 79 154 58 155 59 156
REMARK SMILES IDX 67 157 60 158 61 159 65 160 68 161 62 162 63 163 66 164
REMARK SMILES IDX 64 165
REMARK H PARENT 24 2 24 3 23 5 23 6 22 10 18 12 15 18 16 20 95 21 6 23 2 28
REMARK H PARENT 3 30 3 31 108 33 108 34 4 35 4 36 107 37 107 38 5 39 1 41 1 42
REMARK H PARENT 1 43 8 48 13 50 9 52 12 53 98 59 106 61 99 63 105 64 19 70
REMARK H PARENT 19 71 19 72 25 74 25 75 26 77 26 78 27 80 27 81 28 83 28 84
REMARK H PARENT 29 87 33 93 94 95 34 97 93 98 92 108 86 110 88 112 91 114
REMARK H PARENT 85 115 53 124 56 126 89 129 54 130 90 132
REMARK Flexibility Score: inf
ROOT
ATOM      1  C   UNL A   1      44.186  29.914  30.272  1.00  0.00    -0.036 C 
ATOM      2  H   UNL A   1      43.231  30.333  30.034  1.00  0.00     0.028 H 
ATOM      3  H   UNL A   1      44.936  30.661  30.435  1.00  0.00     0.028 H 
ENDROOT
BRANCH   1   4
ATOM      4  C   UNL A   1      44.654  29.068  29.080  1.00  0.00     0.017 C 
ATOM      5  H   UNL A   1      45.716  29.159  28.986  1.00  0.00     0.049 H 
ATOM      6  H   UNL A   1      44.371  28.052  29.260  1.00  0.00     0.049 H 
BRANCH   4   7
ATOM      7  N   UNL A   1      44.034  29.497  27.842  1.00  0.00    -0.356 N 
ATOM      8  C   UNL A   1      42.854  29.186  27.240  1.00  0.00     0.227 C 
ATOM      9  O   UNL A   1      42.668  29.692  26.126  1.00  0.00    -0.274 OA
ATOM     10  H   UNL A   1      44.576  30.144  27.335  1.00  0.00     0.163 HD
BRANCH   8  11
ATOM     11  C   UNL A   1      41.770  28.277  27.852  1.00  0.00     0.060 C 
ATOM     12  H   UNL A   1      42.183  27.908  28.768  1.00  0.00     0.045 H 
BRANCH  11  13
ATOM     13  C   UNL A   1      40.530  29.036  28.288  1.00  0.00    -0.035 A 
ATOM     14  C   UNL A   1      38.275  30.735  28.792  1.00  0.00     0.022 A 
ATOM     15  C   UNL A   1      38.216  29.621  27.941  1.00  0.00    -0.052 A 
ATOM     16  C   UNL A   1      39.482  30.901  29.526  1.00  0.00    -0.009 A 
ATOM     17  C   UNL A   1      39.278  28.741  27.779  1.00  0.00    -0.058 A 
ATOM     18  H   UNL A   1      37.346  29.448  27.412  1.00  0.00     0.063 H 
ATOM     19  C   UNL A   1      40.608  30.100  29.196  1.00  0.00    -0.050 A 
ATOM     20  H   UNL A   1      39.133  27.855  27.272  1.00  0.00     0.063 H 
ATOM     21  H   UNL A   1      41.515  30.309  29.640  1.00  0.00     0.063 H 
BRANCH  14  22
ATOM     22  C   UNL A   1      37.045  31.674  28.958  1.00  0.00     0.139 C 
ATOM     23  H   UNL A   1      37.374  32.515  28.383  1.00  0.00     0.107 H 
BRANCH  22  24
ATOM     24  N   UNL A   1      36.771  32.245  30.321  1.00  0.00    -0.325 N 
ATOM     25  C   UNL A   1      34.876  33.316  32.278  1.00  0.00    -0.034 C 
ATOM     26  C   UNL A   1      35.476  31.930  32.501  1.00  0.00    -0.001 C 
ATOM     27  C   UNL A   1      35.957  34.203  31.683  1.00  0.00    -0.001 C 
ATOM     28  H   UNL A   1      34.040  33.244  31.613  1.00  0.00     0.030 H 
ATOM     29  C   UNL A   1      36.073  31.324  31.224  1.00  0.00     0.078 C 
ATOM     30  H   UNL A   1      34.706  31.279  32.860  1.00  0.00     0.033 H 
ATOM     31  H   UNL A   1      36.272  32.035  33.208  1.00  0.00     0.033 H 
ATOM     32  C   UNL A   1      36.392  33.657  30.330  1.00  0.00     0.078 C 
ATOM     33  H   UNL A   1      36.799  34.226  32.342  1.00  0.00     0.033 H 
ATOM     34  H   UNL A   1      35.568  35.191  31.554  1.00  0.00     0.033 H 
ATOM     35  H   UNL A   1      35.272  30.876  30.674  1.00  0.00     0.092 H 
ATOM     36  H   UNL A   1      36.823  30.641  31.562  1.00  0.00     0.092 H 
ATOM     37  H   UNL A   1      35.580  33.787  29.644  1.00  0.00     0.092 H 
ATOM     38  H   UNL A   1      37.271  34.203  30.058  1.00  0.00     0.092 H 
ATOM     39  H   UNL A   1      37.676  32.314  30.786  1.00  0.00     0.348 HD
BRANCH  25  40
ATOM     40  C   UNL A   1      34.364  33.909  33.580  1.00  0.00    -0.062 C 
ATOM     41  H   UNL A   1      34.250  34.968  33.470  1.00  0.00     0.023 H 
ATOM     42  H   UNL A   1      35.063  33.705  34.364  1.00  0.00     0.023 H 
ATOM     43  H   UNL A   1      33.418  33.474  33.824  1.00  0.00     0.023 H 
ENDBRANCH  25  40
ENDBRANCH  22  24
BRANCH  22  44
ATOM     44  C   UNL A   1      35.748  31.101  28.351  1.00  0.00     0.014 A 
ATOM     45  C   UNL A   1      35.572  29.719  28.134  1.00  0.00    -0.050 A 
ATOM     46  C   UNL A   1      34.698  31.971  28.001  1.00  0.00    -0.050 A 
ATOM     47  C   UNL A   1      34.378  29.224  27.605  1.00  0.00    -0.026 A 
ATOM     48  H   UNL A   1      36.335  29.064  28.368  1.00  0.00     0.063 H 
ATOM     49  C   UNL A   1      33.521  31.477  27.433  1.00  0.00    -0.026 A 
ATOM     50  H   UNL A   1      34.799  32.985  28.164  1.00  0.00     0.063 H 
ATOM     51  C   UNL A   1      33.369  30.110  27.251  1.00  0.00     0.123 A 
ATOM     52  H   UNL A   1      34.247  28.209  27.478  1.00  0.00     0.065 H 
ATOM     53  H   UNL A   1      32.770  32.125  27.151  1.00  0.00     0.065 H 
ATOM     54  F   UNL A   1      32.231  29.636  26.726  1.00  0.00    -0.207 F 
ENDBRANCH  22  44
ENDBRANCH  14  22
BRANCH  16  55
ATOM     55  C   UNL A   1      39.621  31.824  30.671  1.00  0.00    -0.018 A 
ATOM     56  C   UNL A   1      39.490  31.378  31.994  1.00  0.00    -0.054 A 
ATOM     57  C   UNL A   1      39.839  33.195  30.454  1.00  0.00    -0.054 A 
ATOM     58  C   UNL A   1      39.609  32.269  33.067  1.00  0.00    -0.049 A 
ATOM     59  H   UNL A   1      39.302  30.380  32.180  1.00  0.00     0.063 H 
ATOM     60  C   UNL A   1      39.973  34.085  31.523  1.00  0.00    -0.049 A 
ATOM     61  H   UNL A   1      39.900  33.550  29.487  1.00  0.00     0.063 H 
ATOM     62  C   UNL A   1      39.868  33.629  32.842  1.00  0.00     0.056 A 
ATOM     63  H   UNL A   1      39.505  31.921  34.033  1.00  0.00     0.063 H 
ATOM     64  H   UNL A   1      40.151  35.084  31.338  1.00  0.00     0.063 H 
BRANCH  62  65
ATOM     65  C   UNL A   1      40.008  34.578  34.006  1.00  0.00     0.416 C 
ATOM     66  F   UNL A   1      38.856  35.259  34.263  1.00  0.00    -0.166 F 
ATOM     67  F   UNL A   1      40.336  33.944  35.165  1.00  0.00    -0.166 F 
ATOM     68  F   UNL A   1      40.968  35.527  33.818  1.00  0.00    -0.166 F 
ENDBRANCH  62  65
ENDBRANCH  16  55
ENDBRANCH  11  13
BRANCH  11  69
ATOM     69  C   UNL A   1      41.509  26.999  27.057  1.00  0.00    -0.049 C 
ATOM     70  H   UNL A   1      41.799  26.150  27.640  1.00  0.00     0.024 H 
ATOM     71  H   UNL A   1      42.077  27.021  26.151  1.00  0.00     0.024 H 
ATOM     72  H   UNL A   1      40.467  26.932  26.823  1.00  0.00     0.024 H 
ENDBRANCH  11  69
ENDBRANCH   8  11
ENDBRANCH   4   7
ENDBRANCH   1   4
BRANCH   1  73
ATOM     73  C   UNL A   1      44.054  29.128  31.578  1.00  0.00    -0.052 C 
ATOM     74  H   UNL A   1      44.602  29.646  32.337  1.00  0.00     0.027 H 
ATOM     75  H   UNL A   1      44.433  28.147  31.381  1.00  0.00     0.027 H 
BRANCH  73  76
ATOM     76  C   UNL A   1      42.613  28.944  32.071  1.00  0.00    -0.052 C 
ATOM     77  H   UNL A   1      41.959  29.054  31.232  1.00  0.00     0.027 H 
ATOM     78  H   UNL A   1      42.462  29.683  32.830  1.00  0.00     0.027 H 
BRANCH  76  79
ATOM     79  C   UNL A   1      42.318  27.592  32.728  1.00  0.00    -0.036 C 
ATOM     80  H   UNL A   1      43.157  27.325  33.335  1.00  0.00     0.028 H 
ATOM     81  H   UNL A   1      42.144  26.895  31.934  1.00  0.00     0.028 H 
BRANCH  79  82
ATOM     82  C   UNL A   1      41.070  27.584  33.604  1.00  0.00     0.018 C 
ATOM     83  H   UNL A   1      40.331  26.955  33.152  1.00  0.00     0.049 H 
ATOM     84  H   UNL A   1      40.712  28.589  33.690  1.00  0.00     0.049 H 
BRANCH  82  85
ATOM     85  N   UNL A   1      41.363  27.084  34.943  1.00  0.00    -0.352 N 
ATOM     86  C   UNL A   1      42.162  27.633  35.918  1.00  0.00     0.251 C 
ATOM     87  H   UNL A   1      40.928  26.235  35.182  1.00  0.00     0.163 HD
ATOM     88  O   UNL A   1      42.523  26.973  36.882  1.00  0.00    -0.269 OA
BRANCH  86  89
ATOM     89  C   UNL A   1      42.570  29.045  35.790  1.00  0.00     0.039 A 
ATOM     90  C   UNL A   1      43.906  29.381  35.566  1.00  0.00    -0.049 A 
ATOM     91  C   UNL A   1      41.600  30.039  35.883  1.00  0.00    -0.049 A 
ATOM     92  C   UNL A   1      44.250  30.719  35.347  1.00  0.00    -0.053 A 
ATOM     93  H   UNL A   1      44.633  28.649  35.559  1.00  0.00     0.063 H 
ATOM     94  C   UNL A   1      41.928  31.353  35.583  1.00  0.00    -0.053 A 
ATOM     95  H   UNL A   1      40.639  29.800  36.174  1.00  0.00     0.063 H 
ATOM     96  C   UNL A   1      43.255  31.711  35.307  1.00  0.00    -0.014 A 
ATOM     97  H   UNL A   1      45.240  30.980  35.216  1.00  0.00     0.063 H 
ATOM     98  H   UNL A   1      41.189  32.074  35.562  1.00  0.00     0.063 H 
BRANCH  96  99
ATOM     99  C   UNL A   1      43.544  33.130  34.976  1.00  0.00     0.031 A 
ATOM    100  C   UNL A   1      43.670  34.144  36.079  1.00  0.00     0.074 A 
ATOM    101  C   UNL A   1      43.557  33.530  33.689  1.00  0.00     0.049 A 
ATOM    102  N   UNL A   1      43.736  35.449  36.003  1.00  0.00    -0.248 NA
ATOM    103  C   UNL A   1      43.682  33.623  37.457  1.00  0.00    -0.034 C 
ATOM    104  C   UNL A   1      43.395  32.653  32.530  1.00  0.00    -0.036 A 
ATOM    105  N   UNL A   1      43.689  34.783  33.141  1.00  0.00    -0.354 N 
ATOM    106  C   UNL A   1      43.769  35.901  37.315  1.00  0.00     0.074 A 
ATOM    107  C   UNL A   1      43.657  34.740  38.169  1.00  0.00    -0.034 C 
ATOM    108  H   UNL A   1      43.704  32.644  37.782  1.00  0.00     0.065 H 
ATOM    109  C   UNL A   1      43.457  33.388  31.410  1.00  0.00    -0.036 A 
ATOM    110  H   UNL A   1      43.255  31.630  32.567  1.00  0.00     0.065 H 
ATOM    111  C   UNL A   1      43.609  34.795  31.770  1.00  0.00     0.049 A 
ATOM    112  H   UNL A   1      43.828  35.595  33.680  1.00  0.00     0.167 HD
ATOM    113  C   UNL A   1      43.909  37.170  37.765  1.00  0.00     0.037 A 
ATOM    114  H   UNL A   1      43.568  34.776  39.197  1.00  0.00     0.065 H 
ATOM    115  H   UNL A   1      43.406  33.019  30.447  1.00  0.00     0.065 H 
ATOM    116  C   UNL A   1      43.636  35.824  30.899  1.00  0.00     0.037 A 
ATOM    117  C   UNL A   1      44.061  38.315  36.910  1.00  0.00     0.049 A 
ATOM    118  C   UNL A   1      43.780  37.228  31.420  1.00  0.00     0.074 A 
ATOM    119  C   UNL A   1      44.289  39.631  37.269  1.00  0.00    -0.036 A 
ATOM    120  N   UNL A   1      43.999  38.281  35.524  1.00  0.00    -0.354 N 
ATOM    121  N   UNL A   1      43.875  37.639  32.661  1.00  0.00    -0.248 NA
ATOM    122  C   UNL A   1      43.820  38.311  30.427  1.00  0.00    -0.034 C 
ATOM    123  C   UNL A   1      44.303  40.403  36.106  1.00  0.00    -0.036 A 
ATOM    124  H   UNL A   1      44.424  39.981  38.231  1.00  0.00     0.065 H 
ATOM    125  C   UNL A   1      44.153  39.560  35.016  1.00  0.00     0.049 A 
ATOM    126  H   UNL A   1      43.867  37.470  34.983  1.00  0.00     0.167 HD
ATOM    127  C   UNL A   1      44.012  39.019  32.599  1.00  0.00     0.074 A 
ATOM    128  C   UNL A   1      43.990  39.379  31.197  1.00  0.00    -0.034 C 
ATOM    129  H   UNL A   1      43.736  38.256  29.400  1.00  0.00     0.065 H 
ATOM    130  H   UNL A   1      44.409  41.429  36.065  1.00  0.00     0.065 H 
ATOM    131  C   UNL A   1      44.145  39.904  33.616  1.00  0.00     0.037 A 
ATOM    132  H   UNL A   1      44.096  40.342  30.842  1.00  0.00     0.065 H 
BRANCH 113 133
ATOM    133  C   UNL A   1      43.919  37.394  39.251  1.00  0.00     0.064 A 
ATOM    134  C   UNL A   1      45.109  37.265  39.982  1.00  0.00     0.173 A 
ATOM    135  C   UNL A   1      42.740  37.668  39.961  1.00  0.00     0.173 A 
ATOM    136  F   UNL A   1      46.264  36.995  39.355  1.00  0.00    -0.203 F 
ATOM    137  C   UNL A   1      45.117  37.389  41.369  1.00  0.00     0.198 A 
ATOM    138  C   UNL A   1      42.758  37.828  41.344  1.00  0.00     0.198 A 
ATOM    139  F   UNL A   1      41.576  37.810  39.310  1.00  0.00    -0.203 F 
ATOM    140  F   UNL A   1      46.260  37.225  42.049  1.00  0.00    -0.200 F 
ATOM    141  C   UNL A   1      43.942  37.677  42.048  1.00  0.00     0.200 A 
ATOM    142  F   UNL A   1      41.626  38.132  41.995  1.00  0.00    -0.200 F 
ATOM    143  F   UNL A   1      43.954  37.812  43.382  1.00  0.00    -0.200 F 
ENDBRANCH 113 133
BRANCH 116 144
ATOM    144  C   UNL A   1      43.554  35.545  29.441  1.00  0.00     0.064 A 
ATOM    145  C   UNL A   1      44.681  35.155  28.703  1.00  0.00     0.173 A 
ATOM    146  C   UNL A   1      42.349  35.724  28.746  1.00  0.00     0.173 A 
ATOM    147  F   UNL A   1      45.859  34.978  29.319  1.00  0.00    -0.203 F 
ATOM    148  C   UNL A   1      44.614  34.984  27.321  1.00  0.00     0.198 A 
ATOM    149  C   UNL A   1      42.278  35.526  27.368  1.00  0.00     0.198 A 
ATOM    150  F   UNL A   1      41.241  36.078  29.410  1.00  0.00    -0.203 F 
ATOM    151  F   UNL A   1      45.717  34.657  26.634  1.00  0.00    -0.200 F 
ATOM    152  C   UNL A   1      43.411  35.167  26.656  1.00  0.00     0.200 A 
ATOM    153  F   UNL A   1      41.109  35.683  26.732  1.00  0.00    -0.200 F 
ATOM    154  F   UNL A   1      43.346  35.000  25.328  1.00  0.00    -0.200 F 
ENDBRANCH 116 144
BRANCH 131 155
ATOM    155  C   UNL A   1      44.312  41.356  33.278  1.00  0.00     0.064 A 
ATOM    156  C   UNL A   1      45.596  41.922  33.213  1.00  0.00     0.173 A 
ATOM    157  C   UNL A   1      43.209  42.213  33.164  1.00  0.00     0.173 A 
ATOM    158  F   UNL A   1      46.683  41.143  33.327  1.00  0.00    -0.203 F 
ATOM    159  C   UNL A   1      45.768  43.296  33.087  1.00  0.00     0.198 A 
ATOM    160  C   UNL A   1      43.386  43.586  33.009  1.00  0.00     0.198 A 
ATOM    161  F   UNL A   1      41.963  41.719  33.209  1.00  0.00    -0.203 F 
ATOM    162  F   UNL A   1      47.002  43.820  33.087  1.00  0.00    -0.200 F 
ATOM    163  C   UNL A   1      44.663  44.127  32.987  1.00  0.00     0.200 A 
ATOM    164  F   UNL A   1      42.317  44.387  32.894  1.00  0.00    -0.200 F 
ATOM    165  F   UNL A   1      44.828  45.453  32.876  1.00  0.00    -0.200 F 
ENDBRANCH 131 155
ENDBRANCH  96  99
ENDBRANCH  86  89
ENDBRANCH  82  85
ENDBRANCH  79  82
ENDBRANCH  76  79
ENDBRANCH  73  76
ENDBRANCH   1  73
TORSDOF 21
ENDMDL
