MODEL 1
REMARK VINA RESULT:     -11.8      0.000      0.000
REMARK SMILES CC(C)c1ccc2c(c1)c(SC(C)(C)C)c(CC(C)(C)C(=O)NCCCCCCNC(=O)c1ccc(-c3c4nc(c(-c5c(F)c(F)c(F)c(F)c5F)c5ccc([nH]5)c(-c5c(F)c(F)c(F)c(F)c5F)c5nc(c(-c6c(F)c(F)c(F)c(F)c6F)c6ccc3[nH]6)C=C5)C=C4)cc1)n2Cc1ccc(Cl)cc1
REMARK SMILES IDX 25 1 24 4 23 7 21 8 22 9 18 11 17 12 16 15 4 16 5 17 9 18
REMARK SMILES IDX 6 19 8 21 7 23 10 25 96 26 2 27 1 29 3 33 11 37 12 38 13 39
REMARK SMILES IDX 14 43 15 47 97 51 98 54 99 55 104 56 100 57 103 59 101 61
REMARK SMILES IDX 102 64 19 65 20 69 26 73 27 76 28 79 29 82 30 85 31 86 32 88
REMARK SMILES IDX 33 89 34 90 95 91 35 92 94 94 36 96 37 99 38 100 88 101
REMARK SMILES IDX 39 102 93 103 87 104 89 105 40 106 92 107 86 109 85 111
REMARK SMILES IDX 41 113 73 116 53 117 72 118 54 119 57 120 71 121 90 122
REMARK SMILES IDX 55 123 56 125 70 127 91 128 58 131 42 133 43 134 51 135
REMARK SMILES IDX 44 136 45 137 49 138 52 139 46 140 47 141 50 142 48 143
REMARK SMILES IDX 74 144 75 145 83 146 76 147 77 148 81 149 84 150 78 151
REMARK SMILES IDX 79 152 82 153 80 154 59 155 60 156 68 157 61 158 62 159
REMARK SMILES IDX 66 160 69 161 63 162 64 163 67 164 65 165
REMARK H PARENT 25 2 25 3 24 5 24 6 23 10 17 13 17 14 5 20 9 22 6 24 2 28 1 30
REMARK H PARENT 1 31 1 32 3 34 3 35 3 36 13 40 13 41 13 42 14 44 14 45 14 46
REMARK H PARENT 15 48 15 49 15 50 97 52 97 53 99 58 104 60 100 62 103 63 19 66
REMARK H PARENT 19 67 19 68 20 70 20 71 20 72 26 74 26 75 27 77 27 78 28 80
REMARK H PARENT 28 81 29 83 29 84 30 87 34 93 95 95 35 97 94 98 93 108 87 110
REMARK H PARENT 89 112 92 114 86 115 54 124 57 126 90 129 55 130 91 132
REMARK Flexibility Score: inf
ROOT
ATOM      1  C   UNL A   1      33.553  27.772  25.749  1.00  0.00    -0.036 C 
ATOM      2  H   UNL A   1      33.868  27.803  24.726  1.00  0.00     0.028 H 
ATOM      3  H   UNL A   1      34.323  28.139  26.394  1.00  0.00     0.028 H 
ENDROOT
BRANCH   1   4
ATOM      4  C   UNL A   1      33.256  26.342  26.128  1.00  0.00     0.017 C 
ATOM      5  H   UNL A   1      33.687  25.694  25.393  1.00  0.00     0.049 H 
ATOM      6  H   UNL A   1      33.675  26.163  27.096  1.00  0.00     0.049 H 
BRANCH   4   7
ATOM      7  N   UNL A   1      31.832  26.085  26.200  1.00  0.00    -0.356 N 
ATOM      8  C   UNL A   1      31.187  24.890  26.382  1.00  0.00     0.226 C 
ATOM      9  O   UNL A   1      30.042  24.946  26.810  1.00  0.00    -0.275 OA
ATOM     10  H   UNL A   1      31.251  26.874  26.105  1.00  0.00     0.163 HD
BRANCH   8  11
ATOM     11  C   UNL A   1      31.996  23.591  26.281  1.00  0.00     0.049 C 
BRANCH  11  12
ATOM     12  C   UNL A   1      33.064  23.492  25.149  1.00  0.00     0.003 C 
ATOM     13  H   UNL A   1      32.720  24.084  24.328  1.00  0.00     0.034 H 
ATOM     14  H   UNL A   1      33.974  23.826  25.601  1.00  0.00     0.034 H 
BRANCH  12  15
ATOM     15  C   UNL A   1      33.371  22.152  24.627  1.00  0.00     0.034 A 
ATOM     16  C   UNL A   1      33.797  17.552  24.112  1.00  0.00    -0.045 A 
ATOM     17  C   UNL A   1      32.683  17.801  23.302  1.00  0.00    -0.057 A 
ATOM     18  C   UNL A   1      34.449  18.670  24.679  1.00  0.00    -0.048 A 
ATOM     19  C   UNL A   1      32.204  19.096  23.062  1.00  0.00    -0.037 A 
ATOM     20  H   UNL A   1      32.197  17.001  22.866  1.00  0.00     0.063 H 
ATOM     21  C   UNL A   1      33.986  19.999  24.475  1.00  0.00     0.014 A 
ATOM     22  H   UNL A   1      35.288  18.517  25.259  1.00  0.00     0.063 H 
ATOM     23  C   UNL A   1      32.846  20.177  23.683  1.00  0.00     0.050 A 
ATOM     24  H   UNL A   1      31.394  19.251  22.441  1.00  0.00     0.065 H 
ATOM     25  C   UNL A   1      34.409  21.293  24.963  1.00  0.00     0.037 A 
ATOM     26  N   UNL A   1      32.552  21.532  23.684  1.00  0.00    -0.339 N 
BRANCH  16  27
ATOM     27  C   UNL A   1      34.216  16.124  24.475  1.00  0.00    -0.022 C 
ATOM     28  H   UNL A   1      34.402  15.696  23.512  1.00  0.00     0.035 H 
BRANCH  27  29
ATOM     29  C   UNL A   1      35.500  16.030  25.316  1.00  0.00    -0.059 C 
ATOM     30  H   UNL A   1      36.270  15.562  24.739  1.00  0.00     0.024 H 
ATOM     31  H   UNL A   1      35.310  15.451  26.195  1.00  0.00     0.024 H 
ATOM     32  H   UNL A   1      35.814  17.013  25.598  1.00  0.00     0.024 H 
ENDBRANCH  27  29
BRANCH  27  33
ATOM     33  C   UNL A   1      33.123  15.315  25.191  1.00  0.00    -0.059 C 
ATOM     34  H   UNL A   1      32.315  15.964  25.456  1.00  0.00     0.024 H 
ATOM     35  H   UNL A   1      33.530  14.871  26.075  1.00  0.00     0.024 H 
ATOM     36  H   UNL A   1      32.764  14.546  24.539  1.00  0.00     0.024 H 
ENDBRANCH  27  33
ENDBRANCH  16  27
BRANCH  25  37
ATOM     37  S   UNL A   1      35.836  21.445  26.019  1.00  0.00    -0.118 SA
BRANCH  37  38
ATOM     38  C   UNL A   1      37.290  22.487  25.483  1.00  0.00     0.012 C 
BRANCH  38  39
ATOM     39  C   UNL A   1      37.067  23.060  24.081  1.00  0.00    -0.051 C 
ATOM     40  H   UNL A   1      38.005  23.373  23.670  1.00  0.00     0.024 H 
ATOM     41  H   UNL A   1      36.407  23.900  24.139  1.00  0.00     0.024 H 
ATOM     42  H   UNL A   1      36.636  22.310  23.453  1.00  0.00     0.024 H 
ENDBRANCH  38  39
BRANCH  38  43
ATOM     43  C   UNL A   1      37.896  23.595  26.375  1.00  0.00    -0.051 C 
ATOM     44  H   UNL A   1      37.112  24.219  26.750  1.00  0.00     0.024 H 
ATOM     45  H   UNL A   1      38.577  24.184  25.798  1.00  0.00     0.024 H 
ATOM     46  H   UNL A   1      38.417  23.147  27.194  1.00  0.00     0.024 H 
ENDBRANCH  38  43
BRANCH  38  47
ATOM     47  C   UNL A   1      38.447  21.450  25.441  1.00  0.00    -0.051 C 
ATOM     48  H   UNL A   1      38.044  20.463  25.531  1.00  0.00     0.024 H 
ATOM     49  H   UNL A   1      39.120  21.635  26.251  1.00  0.00     0.024 H 
ATOM     50  H   UNL A   1      38.971  21.538  24.513  1.00  0.00     0.024 H 
ENDBRANCH  38  47
ENDBRANCH  37  38
ENDBRANCH  25  37
BRANCH  26  51
ATOM     51  C   UNL A   1      31.673  22.189  22.679  1.00  0.00     0.048 C 
ATOM     52  H   UNL A   1      30.661  22.021  22.985  1.00  0.00     0.055 H 
ATOM     53  H   UNL A   1      31.959  21.748  21.747  1.00  0.00     0.055 H 
BRANCH  51  54
ATOM     54  C   UNL A   1      31.831  23.684  22.452  1.00  0.00    -0.028 A 
ATOM     55  C   UNL A   1      32.989  24.203  21.836  1.00  0.00    -0.056 A 
ATOM     56  C   UNL A   1      30.851  24.599  22.871  1.00  0.00    -0.056 A 
ATOM     57  C   UNL A   1      33.248  25.578  21.820  1.00  0.00    -0.043 A 
ATOM     58  H   UNL A   1      33.656  23.557  21.388  1.00  0.00     0.063 H 
ATOM     59  C   UNL A   1      31.088  25.982  22.807  1.00  0.00    -0.043 A 
ATOM     60  H   UNL A   1      29.948  24.251  23.230  1.00  0.00     0.063 H 
ATOM     61  C   UNL A   1      32.306  26.461  22.330  1.00  0.00     0.041 A 
ATOM     62  H   UNL A   1      34.136  25.933  21.430  1.00  0.00     0.064 H 
ATOM     63  H   UNL A   1      30.357  26.644  23.113  1.00  0.00     0.064 H 
ATOM     64  Cl  UNL A   1      32.667  28.142  22.407  1.00  0.00    -0.084 Cl
ENDBRANCH  51  54
ENDBRANCH  26  51
ENDBRANCH  12  15
ENDBRANCH  11  12
BRANCH  11  65
ATOM     65  C   UNL A   1      30.812  22.620  26.049  1.00  0.00    -0.051 C 
ATOM     66  H   UNL A   1      29.897  23.100  26.325  1.00  0.00     0.024 H 
ATOM     67  H   UNL A   1      30.948  21.742  26.645  1.00  0.00     0.024 H 
ATOM     68  H   UNL A   1      30.773  22.346  25.015  1.00  0.00     0.024 H 
ENDBRANCH  11  65
BRANCH  11  69
ATOM     69  C   UNL A   1      32.869  23.436  27.563  1.00  0.00    -0.051 C 
ATOM     70  H   UNL A   1      32.403  22.740  28.229  1.00  0.00     0.024 H 
ATOM     71  H   UNL A   1      32.963  24.386  28.046  1.00  0.00     0.024 H 
ATOM     72  H   UNL A   1      33.840  23.076  27.292  1.00  0.00     0.024 H 
ENDBRANCH  11  69
ENDBRANCH   8  11
ENDBRANCH   4   7
ENDBRANCH   1   4
BRANCH   1  73
ATOM     73  C   UNL A   1      32.326  28.657  25.915  1.00  0.00    -0.052 C 
ATOM     74  H   UNL A   1      31.490  28.031  26.148  1.00  0.00     0.027 H 
ATOM     75  H   UNL A   1      32.199  29.187  24.994  1.00  0.00     0.027 H 
BRANCH  73  76
ATOM     76  C   UNL A   1      32.465  29.710  27.021  1.00  0.00    -0.052 C 
ATOM     77  H   UNL A   1      31.814  29.435  27.825  1.00  0.00     0.027 H 
ATOM     78  H   UNL A   1      32.213  30.649  26.574  1.00  0.00     0.027 H 
BRANCH  76  79
ATOM     79  C   UNL A   1      33.882  29.869  27.588  1.00  0.00    -0.036 C 
ATOM     80  H   UNL A   1      34.553  29.288  26.990  1.00  0.00     0.028 H 
ATOM     81  H   UNL A   1      33.852  29.539  28.605  1.00  0.00     0.028 H 
BRANCH  79  82
ATOM     82  C   UNL A   1      34.380  31.316  27.603  1.00  0.00     0.018 C 
ATOM     83  H   UNL A   1      33.760  31.896  26.951  1.00  0.00     0.049 H 
ATOM     84  H   UNL A   1      35.400  31.307  27.280  1.00  0.00     0.049 H 
BRANCH  82  85
ATOM     85  N   UNL A   1      34.347  31.909  28.919  1.00  0.00    -0.352 N 
ATOM     86  C   UNL A   1      35.174  31.876  30.003  1.00  0.00     0.251 C 
ATOM     87  H   UNL A   1      33.546  32.463  29.068  1.00  0.00     0.163 HD
ATOM     88  O   UNL A   1      34.775  32.454  31.015  1.00  0.00    -0.269 OA
BRANCH  86  89
ATOM     89  C   UNL A   1      36.480  31.169  30.045  1.00  0.00     0.039 A 
ATOM     90  C   UNL A   1      37.732  31.764  29.892  1.00  0.00    -0.049 A 
ATOM     91  C   UNL A   1      36.419  29.782  30.266  1.00  0.00    -0.049 A 
ATOM     92  C   UNL A   1      38.887  30.994  29.877  1.00  0.00    -0.053 A 
ATOM     93  H   UNL A   1      37.801  32.789  29.790  1.00  0.00     0.063 H 
ATOM     94  C   UNL A   1      37.574  29.010  30.297  1.00  0.00    -0.053 A 
ATOM     95  H   UNL A   1      35.502  29.330  30.408  1.00  0.00     0.063 H 
ATOM     96  C   UNL A   1      38.807  29.616  30.063  1.00  0.00    -0.014 A 
ATOM     97  H   UNL A   1      39.805  31.442  29.729  1.00  0.00     0.063 H 
ATOM     98  H   UNL A   1      37.519  27.998  30.491  1.00  0.00     0.063 H 
BRANCH  96  99
ATOM     99  C   UNL A   1      40.061  28.870  30.094  1.00  0.00     0.031 A 
ATOM    100  C   UNL A   1      40.680  28.695  31.443  1.00  0.00     0.074 A 
ATOM    101  C   UNL A   1      40.576  28.268  29.006  1.00  0.00     0.049 A 
ATOM    102  N   UNL A   1      41.885  28.983  31.825  1.00  0.00    -0.248 NA
ATOM    103  C   UNL A   1      39.817  28.185  32.521  1.00  0.00    -0.034 C 
ATOM    104  C   UNL A   1      39.951  28.110  27.690  1.00  0.00    -0.036 A 
ATOM    105  N   UNL A   1      41.737  27.563  28.888  1.00  0.00    -0.354 N 
ATOM    106  C   UNL A   1      41.979  28.561  33.151  1.00  0.00     0.074 A 
ATOM    107  C   UNL A   1      40.656  28.164  33.556  1.00  0.00    -0.034 C 
ATOM    108  H   UNL A   1      38.821  27.915  32.485  1.00  0.00     0.065 H 
ATOM    109  C   UNL A   1      40.625  27.171  26.991  1.00  0.00    -0.036 A 
ATOM    110  H   UNL A   1      39.128  28.632  27.352  1.00  0.00     0.065 H 
ATOM    111  C   UNL A   1      41.795  26.771  27.753  1.00  0.00     0.049 A 
ATOM    112  H   UNL A   1      42.466  27.612  29.549  1.00  0.00     0.167 HD
ATOM    113  C   UNL A   1      43.171  28.398  33.785  1.00  0.00     0.037 A 
ATOM    114  H   UNL A   1      40.393  27.897  34.519  1.00  0.00     0.065 H 
ATOM    115  H   UNL A   1      40.353  26.799  26.068  1.00  0.00     0.065 H 
ATOM    116  C   UNL A   1      42.698  25.797  27.497  1.00  0.00     0.037 A 
ATOM    117  C   UNL A   1      44.240  29.091  33.129  1.00  0.00     0.049 A 
ATOM    118  C   UNL A   1      43.881  26.033  28.354  1.00  0.00     0.074 A 
ATOM    119  C   UNL A   1      44.571  30.413  32.924  1.00  0.00    -0.036 A 
ATOM    120  N   UNL A   1      45.044  28.360  32.297  1.00  0.00    -0.354 N 
ATOM    121  N   UNL A   1      44.707  27.033  28.218  1.00  0.00    -0.248 NA
ATOM    122  C   UNL A   1      43.984  25.309  29.614  1.00  0.00    -0.034 C 
ATOM    123  C   UNL A   1      45.262  30.440  31.677  1.00  0.00    -0.036 A 
ATOM    124  H   UNL A   1      44.363  31.213  33.541  1.00  0.00     0.065 H 
ATOM    125  C   UNL A   1      45.327  29.130  31.199  1.00  0.00     0.049 A 
ATOM    126  H   UNL A   1      45.363  27.444  32.458  1.00  0.00     0.167 HD
ATOM    127  C   UNL A   1      45.126  27.319  29.506  1.00  0.00     0.074 A 
ATOM    128  C   UNL A   1      44.779  26.142  30.289  1.00  0.00    -0.034 C 
ATOM    129  H   UNL A   1      43.563  24.413  29.901  1.00  0.00     0.065 H 
ATOM    130  H   UNL A   1      45.646  31.277  31.211  1.00  0.00     0.065 H 
ATOM    131  C   UNL A   1      45.456  28.594  29.864  1.00  0.00     0.037 A 
ATOM    132  H   UNL A   1      45.108  25.971  31.251  1.00  0.00     0.065 H 
BRANCH 113 133
ATOM    133  C   UNL A   1      43.428  27.336  34.822  1.00  0.00     0.064 A 
ATOM    134  C   UNL A   1      43.725  27.697  36.150  1.00  0.00     0.173 A 
ATOM    135  C   UNL A   1      43.680  25.990  34.480  1.00  0.00     0.173 A 
ATOM    136  F   UNL A   1      43.566  28.963  36.566  1.00  0.00    -0.203 F 
ATOM    137  C   UNL A   1      44.268  26.782  37.058  1.00  0.00     0.198 A 
ATOM    138  C   UNL A   1      44.175  25.068  35.400  1.00  0.00     0.198 A 
ATOM    139  F   UNL A   1      43.562  25.552  33.219  1.00  0.00    -0.203 F 
ATOM    140  F   UNL A   1      44.632  27.191  38.281  1.00  0.00    -0.200 F 
ATOM    141  C   UNL A   1      44.492  25.468  36.682  1.00  0.00     0.200 A 
ATOM    142  F   UNL A   1      44.412  23.808  35.010  1.00  0.00    -0.200 F 
ATOM    143  F   UNL A   1      45.056  24.603  37.534  1.00  0.00    -0.200 F 
ENDBRANCH 113 133
BRANCH 116 144
ATOM    144  C   UNL A   1      42.478  24.516  26.790  1.00  0.00     0.064 A 
ATOM    145  C   UNL A   1      43.208  24.199  25.634  1.00  0.00     0.173 A 
ATOM    146  C   UNL A   1      41.758  23.462  27.388  1.00  0.00     0.173 A 
ATOM    147  F   UNL A   1      43.952  25.135  25.028  1.00  0.00    -0.203 F 
ATOM    148  C   UNL A   1      43.247  22.896  25.128  1.00  0.00     0.198 A 
ATOM    149  C   UNL A   1      41.788  22.166  26.875  1.00  0.00     0.198 A 
ATOM    150  F   UNL A   1      41.095  23.645  28.538  1.00  0.00    -0.203 F 
ATOM    151  F   UNL A   1      44.015  22.616  24.066  1.00  0.00    -0.200 F 
ATOM    152  C   UNL A   1      42.546  21.879  25.755  1.00  0.00     0.200 A 
ATOM    153  F   UNL A   1      41.133  21.185  27.511  1.00  0.00    -0.200 F 
ATOM    154  F   UNL A   1      42.636  20.619  25.310  1.00  0.00    -0.200 F 
ENDBRANCH 116 144
BRANCH 131 155
ATOM    155  C   UNL A   1      45.723  29.574  28.758  1.00  0.00     0.064 A 
ATOM    156  C   UNL A   1      44.725  30.327  28.117  1.00  0.00     0.173 A 
ATOM    157  C   UNL A   1      47.056  29.844  28.421  1.00  0.00     0.173 A 
ATOM    158  F   UNL A   1      43.437  30.198  28.459  1.00  0.00    -0.203 F 
ATOM    159  C   UNL A   1      45.049  31.273  27.146  1.00  0.00     0.198 A 
ATOM    160  C   UNL A   1      47.378  30.818  27.479  1.00  0.00     0.198 A 
ATOM    161  F   UNL A   1      48.052  29.196  29.043  1.00  0.00    -0.203 F 
ATOM    162  F   UNL A   1      44.079  31.968  26.534  1.00  0.00    -0.200 F 
ATOM    163  C   UNL A   1      46.375  31.522  26.833  1.00  0.00     0.200 A 
ATOM    164  F   UNL A   1      48.664  31.092  27.218  1.00  0.00    -0.200 F 
ATOM    165  F   UNL A   1      46.689  32.461  25.930  1.00  0.00    -0.200 F 
ENDBRANCH 131 155
ENDBRANCH  96  99
ENDBRANCH  86  89
ENDBRANCH  82  85
ENDBRANCH  79  82
ENDBRANCH  76  79
ENDBRANCH  73  76
ENDBRANCH   1  73
TORSDOF 27
ENDMDL
MODEL 2
REMARK VINA RESULT:     -11.7      3.760      9.355
REMARK SMILES CC(C)c1ccc2c(c1)c(SC(C)(C)C)c(CC(C)(C)C(=O)NCCCCCCNC(=O)c1ccc(-c3c4nc(c(-c5c(F)c(F)c(F)c(F)c5F)c5ccc([nH]5)c(-c5c(F)c(F)c(F)c(F)c5F)c5nc(c(-c6c(F)c(F)c(F)c(F)c6F)c6ccc3[nH]6)C=C5)C=C4)cc1)n2Cc1ccc(Cl)cc1
REMARK SMILES IDX 25 1 24 4 23 7 21 8 22 9 18 11 17 12 16 15 4 16 5 17 9 18
REMARK SMILES IDX 6 19 8 21 7 23 10 25 96 26 2 27 1 29 3 33 11 37 12 38 13 39
REMARK SMILES IDX 14 43 15 47 97 51 98 54 99 55 104 56 100 57 103 59 101 61
REMARK SMILES IDX 102 64 19 65 20 69 26 73 27 76 28 79 29 82 30 85 31 86 32 88
REMARK SMILES IDX 33 89 34 90 95 91 35 92 94 94 36 96 37 99 38 100 88 101
REMARK SMILES IDX 39 102 93 103 87 104 89 105 40 106 92 107 86 109 85 111
REMARK SMILES IDX 41 113 73 116 53 117 72 118 54 119 57 120 71 121 90 122
REMARK SMILES IDX 55 123 56 125 70 127 91 128 58 131 42 133 43 134 51 135
REMARK SMILES IDX 44 136 45 137 49 138 52 139 46 140 47 141 50 142 48 143
REMARK SMILES IDX 74 144 75 145 83 146 76 147 77 148 81 149 84 150 78 151
REMARK SMILES IDX 79 152 82 153 80 154 59 155 60 156 68 157 61 158 62 159
REMARK SMILES IDX 66 160 69 161 63 162 64 163 67 164 65 165
REMARK H PARENT 25 2 25 3 24 5 24 6 23 10 17 13 17 14 5 20 9 22 6 24 2 28 1 30
REMARK H PARENT 1 31 1 32 3 34 3 35 3 36 13 40 13 41 13 42 14 44 14 45 14 46
REMARK H PARENT 15 48 15 49 15 50 97 52 97 53 99 58 104 60 100 62 103 63 19 66
REMARK H PARENT 19 67 19 68 20 70 20 71 20 72 26 74 26 75 27 77 27 78 28 80
REMARK H PARENT 28 81 29 83 29 84 30 87 34 93 95 95 35 97 94 98 93 108 87 110
REMARK H PARENT 89 112 92 114 86 115 54 124 57 126 90 129 55 130 91 132
REMARK Flexibility Score: inf
ROOT
ATOM      1  C   UNL A   1      35.853  23.747  25.902  1.00  0.00    -0.036 C 
ATOM      2  H   UNL A   1      35.299  22.843  26.046  1.00  0.00     0.028 H 
ATOM      3  H   UNL A   1      35.985  24.263  26.830  1.00  0.00     0.028 H 
ENDROOT
BRANCH   1   4
ATOM      4  C   UNL A   1      35.090  24.646  24.961  1.00  0.00     0.017 C 
ATOM      5  H   UNL A   1      34.255  25.064  25.485  1.00  0.00     0.049 H 
ATOM      6  H   UNL A   1      35.756  25.412  24.622  1.00  0.00     0.049 H 
BRANCH   4   7
ATOM      7  N   UNL A   1      34.603  23.929  23.802  1.00  0.00    -0.356 N 
ATOM      8  C   UNL A   1      33.839  24.397  22.765  1.00  0.00     0.226 C 
ATOM      9  O   UNL A   1      33.883  23.759  21.721  1.00  0.00    -0.275 OA
ATOM     10  H   UNL A   1      34.854  22.978  23.752  1.00  0.00     0.163 HD
BRANCH   8  11
ATOM     11  C   UNL A   1      33.193  25.783  22.890  1.00  0.00     0.049 C 
BRANCH  11  12
ATOM     12  C   UNL A   1      32.576  26.170  24.269  1.00  0.00     0.003 C 
ATOM     13  H   UNL A   1      32.209  25.273  24.721  1.00  0.00     0.034 H 
ATOM     14  H   UNL A   1      33.369  26.655  24.798  1.00  0.00     0.034 H 
BRANCH  12  15
ATOM     15  C   UNL A   1      31.475  27.145  24.264  1.00  0.00     0.034 A 
ATOM     16  C   UNL A   1      28.501  30.514  23.079  1.00  0.00    -0.045 A 
ATOM     17  C   UNL A   1      27.727  29.379  22.806  1.00  0.00    -0.057 A 
ATOM     18  C   UNL A   1      29.765  30.310  23.676  1.00  0.00    -0.048 A 
ATOM     19  C   UNL A   1      28.174  28.081  23.090  1.00  0.00    -0.037 A 
ATOM     20  H   UNL A   1      26.796  29.503  22.381  1.00  0.00     0.063 H 
ATOM     21  C   UNL A   1      30.263  29.009  23.966  1.00  0.00     0.014 A 
ATOM     22  H   UNL A   1      30.344  31.130  23.911  1.00  0.00     0.063 H 
ATOM     23  C   UNL A   1      29.455  27.914  23.637  1.00  0.00     0.050 A 
ATOM     24  H   UNL A   1      27.572  27.265  22.900  1.00  0.00     0.065 H 
ATOM     25  C   UNL A   1      31.508  28.511  24.507  1.00  0.00     0.037 A 
ATOM     26  N   UNL A   1      30.171  26.768  23.946  1.00  0.00    -0.339 N 
BRANCH  16  27
ATOM     27  C   UNL A   1      28.055  31.909  22.631  1.00  0.00    -0.022 C 
ATOM     28  H   UNL A   1      27.076  31.976  23.059  1.00  0.00     0.035 H 
BRANCH  27  29
ATOM     29  C   UNL A   1      28.916  33.060  23.177  1.00  0.00    -0.059 C 
ATOM     30  H   UNL A   1      29.612  32.676  23.893  1.00  0.00     0.024 H 
ATOM     31  H   UNL A   1      28.285  33.787  23.646  1.00  0.00     0.024 H 
ATOM     32  H   UNL A   1      29.450  33.519  22.372  1.00  0.00     0.024 H 
ENDBRANCH  27  29
BRANCH  27  33
ATOM     33  C   UNL A   1      27.957  32.075  21.106  1.00  0.00    -0.059 C 
ATOM     34  H   UNL A   1      28.018  33.113  20.856  1.00  0.00     0.024 H 
ATOM     35  H   UNL A   1      27.025  31.679  20.764  1.00  0.00     0.024 H 
ATOM     36  H   UNL A   1      28.763  31.548  20.638  1.00  0.00     0.024 H 
ENDBRANCH  27  33
ENDBRANCH  16  27
BRANCH  25  37
ATOM     37  S   UNL A   1      32.787  29.636  25.028  1.00  0.00    -0.118 SA
BRANCH  37  38
ATOM     38  C   UNL A   1      33.387  29.616  26.796  1.00  0.00     0.012 C 
BRANCH  38  39
ATOM     39  C   UNL A   1      32.672  28.532  27.607  1.00  0.00    -0.051 C 
ATOM     40  H   UNL A   1      31.689  28.382  27.213  1.00  0.00     0.024 H 
ATOM     41  H   UNL A   1      32.604  28.838  28.630  1.00  0.00     0.024 H 
ATOM     42  H   UNL A   1      33.224  27.617  27.544  1.00  0.00     0.024 H 
ENDBRANCH  38  39
BRANCH  38  43
ATOM     43  C   UNL A   1      34.888  29.596  27.168  1.00  0.00    -0.051 C 
ATOM     44  H   UNL A   1      35.237  30.599  27.296  1.00  0.00     0.024 H 
ATOM     45  H   UNL A   1      35.443  29.122  26.386  1.00  0.00     0.024 H 
ATOM     46  H   UNL A   1      35.021  29.053  28.080  1.00  0.00     0.024 H 
ENDBRANCH  38  43
BRANCH  38  47
ATOM     47  C   UNL A   1      32.956  31.017  27.311  1.00  0.00    -0.051 C 
ATOM     48  H   UNL A   1      31.909  31.008  27.533  1.00  0.00     0.024 H 
ATOM     49  H   UNL A   1      33.153  31.750  26.557  1.00  0.00     0.024 H 
ATOM     50  H   UNL A   1      33.506  31.258  28.196  1.00  0.00     0.024 H 
ENDBRANCH  38  47
ENDBRANCH  37  38
ENDBRANCH  25  37
BRANCH  26  51
ATOM     51  C   UNL A   1      29.550  25.426  24.113  1.00  0.00     0.048 C 
ATOM     52  H   UNL A   1      29.359  25.040  23.133  1.00  0.00     0.055 H 
ATOM     53  H   UNL A   1      28.689  25.605  24.722  1.00  0.00     0.055 H 
BRANCH  51  54
ATOM     54  C   UNL A   1      30.330  24.362  24.870  1.00  0.00    -0.028 A 
ATOM     55  C   UNL A   1      30.583  24.496  26.251  1.00  0.00    -0.056 A 
ATOM     56  C   UNL A   1      30.849  23.229  24.221  1.00  0.00    -0.056 A 
ATOM     57  C   UNL A   1      31.479  23.648  26.911  1.00  0.00    -0.043 A 
ATOM     58  H   UNL A   1      30.098  25.233  26.785  1.00  0.00     0.063 H 
ATOM     59  C   UNL A   1      31.707  22.346  24.897  1.00  0.00    -0.043 A 
ATOM     60  H   UNL A   1      30.597  23.045  23.237  1.00  0.00     0.063 H 
ATOM     61  C   UNL A   1      32.058  22.590  26.222  1.00  0.00     0.041 A 
ATOM     62  H   UNL A   1      31.708  23.809  27.905  1.00  0.00     0.064 H 
ATOM     63  H   UNL A   1      32.077  21.514  24.410  1.00  0.00     0.064 H 
ATOM     64  Cl  UNL A   1      33.238  21.610  27.003  1.00  0.00    -0.084 Cl
ENDBRANCH  51  54
ENDBRANCH  26  51
ENDBRANCH  12  15
ENDBRANCH  11  12
BRANCH  11  65
ATOM     65  C   UNL A   1      32.110  25.613  21.796  1.00  0.00    -0.051 C 
ATOM     66  H   UNL A   1      31.606  24.679  21.934  1.00  0.00     0.024 H 
ATOM     67  H   UNL A   1      32.572  25.630  20.831  1.00  0.00     0.024 H 
ATOM     68  H   UNL A   1      31.403  26.413  21.868  1.00  0.00     0.024 H 
ENDBRANCH  11  65
BRANCH  11  69
ATOM     69  C   UNL A   1      34.293  26.872  22.711  1.00  0.00    -0.051 C 
ATOM     70  H   UNL A   1      33.965  27.787  23.157  1.00  0.00     0.024 H 
ATOM     71  H   UNL A   1      34.475  27.028  21.668  1.00  0.00     0.024 H 
ATOM     72  H   UNL A   1      35.197  26.548  23.186  1.00  0.00     0.024 H 
ENDBRANCH  11  69
ENDBRANCH   8  11
ENDBRANCH   4   7
ENDBRANCH   1   4
BRANCH   1  73
ATOM     73  C   UNL A   1      37.227  23.401  25.347  1.00  0.00    -0.052 C 
ATOM     74  H   UNL A   1      37.963  23.687  26.069  1.00  0.00     0.027 H 
ATOM     75  H   UNL A   1      37.330  23.931  24.423  1.00  0.00     0.027 H 
BRANCH  73  76
ATOM     76  C   UNL A   1      37.413  21.912  25.031  1.00  0.00    -0.052 C 
ATOM     77  H   UNL A   1      37.542  21.810  23.973  1.00  0.00     0.027 H 
ATOM     78  H   UNL A   1      36.541  21.415  25.401  1.00  0.00     0.027 H 
BRANCH  76  79
ATOM     79  C   UNL A   1      38.612  21.250  25.724  1.00  0.00    -0.036 C 
ATOM     80  H   UNL A   1      39.186  20.733  24.983  1.00  0.00     0.028 H 
ATOM     81  H   UNL A   1      38.219  20.590  26.469  1.00  0.00     0.028 H 
BRANCH  79  82
ATOM     82  C   UNL A   1      39.530  22.239  26.443  1.00  0.00     0.018 C 
ATOM     83  H   UNL A   1      39.599  21.954  27.473  1.00  0.00     0.049 H 
ATOM     84  H   UNL A   1      39.105  23.214  26.328  1.00  0.00     0.049 H 
BRANCH  82  85
ATOM     85  N   UNL A   1      40.863  22.279  25.887  1.00  0.00    -0.352 N 
ATOM     86  C   UNL A   1      41.870  23.199  25.885  1.00  0.00     0.251 C 
ATOM     87  H   UNL A   1      41.097  21.457  25.399  1.00  0.00     0.163 HD
ATOM     88  O   UNL A   1      42.868  22.916  25.220  1.00  0.00    -0.269 OA
BRANCH  86  89
ATOM     89  C   UNL A   1      41.820  24.505  26.590  1.00  0.00     0.039 A 
ATOM     90  C   UNL A   1      42.431  24.794  27.811  1.00  0.00    -0.049 A 
ATOM     91  C   UNL A   1      41.093  25.521  25.946  1.00  0.00    -0.049 A 
ATOM     92  C   UNL A   1      42.258  26.032  28.415  1.00  0.00    -0.053 A 
ATOM     93  H   UNL A   1      43.019  24.081  28.268  1.00  0.00     0.063 H 
ATOM     94  C   UNL A   1      40.952  26.777  26.524  1.00  0.00    -0.053 A 
ATOM     95  H   UNL A   1      40.657  25.332  25.030  1.00  0.00     0.063 H 
ATOM     96  C   UNL A   1      41.505  27.017  27.780  1.00  0.00    -0.014 A 
ATOM     97  H   UNL A   1      42.686  26.222  29.335  1.00  0.00     0.063 H 
ATOM     98  H   UNL A   1      40.443  27.525  26.028  1.00  0.00     0.063 H 
BRANCH  96  99
ATOM     99  C   UNL A   1      41.409  28.315  28.440  1.00  0.00     0.031 A 
ATOM    100  C   UNL A   1      42.480  29.299  28.100  1.00  0.00     0.074 A 
ATOM    101  C   UNL A   1      40.363  28.662  29.213  1.00  0.00     0.049 A 
ATOM    102  N   UNL A   1      43.259  29.959  28.898  1.00  0.00    -0.248 NA
ATOM    103  C   UNL A   1      42.754  29.531  26.671  1.00  0.00    -0.034 C 
ATOM    104  C   UNL A   1      39.113  27.923  29.412  1.00  0.00    -0.036 A 
ATOM    105  N   UNL A   1      40.154  29.821  29.900  1.00  0.00    -0.354 N 
ATOM    106  C   UNL A   1      44.026  30.794  28.086  1.00  0.00     0.074 A 
ATOM    107  C   UNL A   1      43.741  30.425  26.724  1.00  0.00    -0.034 C 
ATOM    108  H   UNL A   1      42.302  29.110  25.845  1.00  0.00     0.065 H 
ATOM    109  C   UNL A   1      38.198  28.745  29.970  1.00  0.00    -0.036 A 
ATOM    110  H   UNL A   1      38.957  26.933  29.166  1.00  0.00     0.065 H 
ATOM    111  C   UNL A   1      38.837  30.010  30.287  1.00  0.00     0.049 A 
ATOM    112  H   UNL A   1      40.872  30.464  30.101  1.00  0.00     0.167 HD
ATOM    113  C   UNL A   1      44.718  31.858  28.575  1.00  0.00     0.037 A 
ATOM    114  H   UNL A   1      44.234  30.804  25.899  1.00  0.00     0.065 H 
ATOM    115  H   UNL A   1      37.207  28.513  30.141  1.00  0.00     0.065 H 
ATOM    116  C   UNL A   1      38.294  31.155  30.759  1.00  0.00     0.037 A 
ATOM    117  C   UNL A   1      44.926  31.772  29.990  1.00  0.00     0.049 A 
ATOM    118  C   UNL A   1      39.394  32.010  31.262  1.00  0.00     0.074 A 
ATOM    119  C   UNL A   1      45.658  30.957  30.827  1.00  0.00    -0.036 A 
ATOM    120  N   UNL A   1      44.070  32.477  30.793  1.00  0.00    -0.354 N 
ATOM    121  N   UNL A   1      40.113  31.747  32.316  1.00  0.00    -0.248 NA
ATOM    122  C   UNL A   1      39.929  33.041  30.384  1.00  0.00    -0.034 C 
ATOM    123  C   UNL A   1      44.918  30.905  32.045  1.00  0.00    -0.036 A 
ATOM    124  H   UNL A   1      46.551  30.485  30.616  1.00  0.00     0.065 H 
ATOM    125  C   UNL A   1      43.785  31.704  31.888  1.00  0.00     0.049 A 
ATOM    126  H   UNL A   1      43.722  33.380  30.617  1.00  0.00     0.167 HD
ATOM    127  C   UNL A   1      41.364  32.260  32.023  1.00  0.00     0.074 A 
ATOM    128  C   UNL A   1      41.150  33.171  30.908  1.00  0.00    -0.034 C 
ATOM    129  H   UNL A   1      39.492  33.529  29.587  1.00  0.00     0.065 H 
ATOM    130  H   UNL A   1      45.176  30.373  32.890  1.00  0.00     0.065 H 
ATOM    131  C   UNL A   1      42.491  31.682  32.530  1.00  0.00     0.037 A 
ATOM    132  H   UNL A   1      41.857  33.838  30.563  1.00  0.00     0.065 H 
BRANCH 113 133
ATOM    133  C   UNL A   1      44.923  33.142  27.816  1.00  0.00     0.064 A 
ATOM    134  C   UNL A   1      46.213  33.524  27.401  1.00  0.00     0.173 A 
ATOM    135  C   UNL A   1      43.933  34.146  27.745  1.00  0.00     0.173 A 
ATOM    136  F   UNL A   1      47.237  32.660  27.472  1.00  0.00    -0.203 F 
ATOM    137  C   UNL A   1      46.495  34.827  26.979  1.00  0.00     0.198 A 
ATOM    138  C   UNL A   1      44.206  35.429  27.278  1.00  0.00     0.198 A 
ATOM    139  F   UNL A   1      42.699  33.949  28.229  1.00  0.00    -0.203 F 
ATOM    140  F   UNL A   1      47.756  35.177  26.690  1.00  0.00    -0.200 F 
ATOM    141  C   UNL A   1      45.491  35.779  26.918  1.00  0.00     0.200 A 
ATOM    142  F   UNL A   1      43.227  36.345  27.252  1.00  0.00    -0.200 F 
ATOM    143  F   UNL A   1      45.769  37.039  26.560  1.00  0.00    -0.200 F 
ENDBRANCH 113 133
BRANCH 116 144
ATOM    144  C   UNL A   1      36.929  31.679  30.525  1.00  0.00     0.064 A 
ATOM    145  C   UNL A   1      36.036  31.856  31.592  1.00  0.00     0.173 A 
ATOM    146  C   UNL A   1      36.575  32.280  29.301  1.00  0.00     0.173 A 
ATOM    147  F   UNL A   1      36.320  31.350  32.802  1.00  0.00    -0.203 F 
ATOM    148  C   UNL A   1      34.873  32.620  31.453  1.00  0.00     0.198 A 
ATOM    149  C   UNL A   1      35.409  33.032  29.161  1.00  0.00     0.198 A 
ATOM    150  F   UNL A   1      37.400  32.236  28.245  1.00  0.00    -0.203 F 
ATOM    151  F   UNL A   1      34.082  32.830  32.515  1.00  0.00    -0.200 F 
ATOM    152  C   UNL A   1      34.568  33.217  30.241  1.00  0.00     0.200 A 
ATOM    153  F   UNL A   1      35.143  33.632  27.992  1.00  0.00    -0.200 F 
ATOM    154  F   UNL A   1      33.490  34.004  30.126  1.00  0.00    -0.200 F 
ENDBRANCH 116 144
BRANCH 131 155
ATOM    155  C   UNL A   1      42.322  30.746  33.693  1.00  0.00     0.064 A 
ATOM    156  C   UNL A   1      42.336  31.152  35.038  1.00  0.00     0.173 A 
ATOM    157  C   UNL A   1      42.016  29.405  33.425  1.00  0.00     0.173 A 
ATOM    158  F   UNL A   1      42.521  32.437  35.368  1.00  0.00    -0.203 F 
ATOM    159  C   UNL A   1      42.103  30.242  36.067  1.00  0.00     0.198 A 
ATOM    160  C   UNL A   1      41.743  28.508  34.454  1.00  0.00     0.198 A 
ATOM    161  F   UNL A   1      41.931  28.975  32.156  1.00  0.00    -0.203 F 
ATOM    162  F   UNL A   1      42.139  30.649  37.345  1.00  0.00    -0.200 F 
ATOM    163  C   UNL A   1      41.800  28.923  35.774  1.00  0.00     0.200 A 
ATOM    164  F   UNL A   1      41.400  27.245  34.163  1.00  0.00    -0.200 F 
ATOM    165  F   UNL A   1      41.534  28.058  36.762  1.00  0.00    -0.200 F 
ENDBRANCH 131 155
ENDBRANCH  96  99
ENDBRANCH  86  89
ENDBRANCH  82  85
ENDBRANCH  79  82
ENDBRANCH  76  79
ENDBRANCH  73  76
ENDBRANCH   1  73
TORSDOF 27
ENDMDL
MODEL 3
REMARK VINA RESULT:     -11.0      0.748      2.062
REMARK SMILES CC(C)c1ccc2c(c1)c(SC(C)(C)C)c(CC(C)(C)C(=O)NCCCCCCNC(=O)c1ccc(-c3c4nc(c(-c5c(F)c(F)c(F)c(F)c5F)c5ccc([nH]5)c(-c5c(F)c(F)c(F)c(F)c5F)c5nc(c(-c6c(F)c(F)c(F)c(F)c6F)c6ccc3[nH]6)C=C5)C=C4)cc1)n2Cc1ccc(Cl)cc1
REMARK SMILES IDX 25 1 24 4 23 7 21 8 22 9 18 11 17 12 16 15 4 16 5 17 9 18
REMARK SMILES IDX 6 19 8 21 7 23 10 25 96 26 2 27 1 29 3 33 11 37 12 38 13 39
REMARK SMILES IDX 14 43 15 47 97 51 98 54 99 55 104 56 100 57 103 59 101 61
REMARK SMILES IDX 102 64 19 65 20 69 26 73 27 76 28 79 29 82 30 85 31 86 32 88
REMARK SMILES IDX 33 89 34 90 95 91 35 92 94 94 36 96 37 99 38 100 88 101
REMARK SMILES IDX 39 102 93 103 87 104 89 105 40 106 92 107 86 109 85 111
REMARK SMILES IDX 41 113 73 116 53 117 72 118 54 119 57 120 71 121 90 122
REMARK SMILES IDX 55 123 56 125 70 127 91 128 58 131 42 133 43 134 51 135
REMARK SMILES IDX 44 136 45 137 49 138 52 139 46 140 47 141 50 142 48 143
REMARK SMILES IDX 74 144 75 145 83 146 76 147 77 148 81 149 84 150 78 151
REMARK SMILES IDX 79 152 82 153 80 154 59 155 60 156 68 157 61 158 62 159
REMARK SMILES IDX 66 160 69 161 63 162 64 163 67 164 65 165
REMARK H PARENT 25 2 25 3 24 5 24 6 23 10 17 13 17 14 5 20 9 22 6 24 2 28 1 30
REMARK H PARENT 1 31 1 32 3 34 3 35 3 36 13 40 13 41 13 42 14 44 14 45 14 46
REMARK H PARENT 15 48 15 49 15 50 97 52 97 53 99 58 104 60 100 62 103 63 19 66
REMARK H PARENT 19 67 19 68 20 70 20 71 20 72 26 74 26 75 27 77 27 78 28 80
REMARK H PARENT 28 81 29 83 29 84 30 87 34 93 95 95 35 97 94 98 93 108 87 110
REMARK H PARENT 89 112 92 114 86 115 54 124 57 126 90 129 55 130 91 132
REMARK Flexibility Score: inf
ROOT
ATOM      1  C   UNL A   1      33.660  27.826  25.973  1.00  0.00    -0.036 C 
ATOM      2  H   UNL A   1      33.786  28.052  24.934  1.00  0.00     0.028 H 
ATOM      3  H   UNL A   1      34.564  28.011  26.514  1.00  0.00     0.028 H 
ENDROOT
BRANCH   1   4
ATOM      4  C   UNL A   1      33.309  26.365  26.118  1.00  0.00     0.017 C 
ATOM      5  H   UNL A   1      33.685  25.834  25.267  1.00  0.00     0.049 H 
ATOM      6  H   UNL A   1      33.753  26.007  27.024  1.00  0.00     0.049 H 
BRANCH   4   7
ATOM      7  N   UNL A   1      31.879  26.157  26.205  1.00  0.00    -0.356 N 
ATOM      8  C   UNL A   1      31.195  24.984  26.392  1.00  0.00     0.226 C 
ATOM      9  O   UNL A   1      30.057  25.078  26.832  1.00  0.00    -0.275 OA
ATOM     10  H   UNL A   1      31.324  26.966  26.119  1.00  0.00     0.163 HD
BRANCH   8  11
ATOM     11  C   UNL A   1      31.958  23.658  26.278  1.00  0.00     0.049 C 
BRANCH  11  12
ATOM     12  C   UNL A   1      33.058  23.550  25.178  1.00  0.00     0.003 C 
ATOM     13  H   UNL A   1      32.760  24.174  24.362  1.00  0.00     0.034 H 
ATOM     14  H   UNL A   1      33.964  23.840  25.667  1.00  0.00     0.034 H 
BRANCH  12  15
ATOM     15  C   UNL A   1      33.336  22.213  24.632  1.00  0.00     0.034 A 
ATOM     16  C   UNL A   1      33.647  17.615  24.026  1.00  0.00    -0.045 A 
ATOM     17  C   UNL A   1      32.548  17.909  23.211  1.00  0.00    -0.057 A 
ATOM     18  C   UNL A   1      34.322  18.704  24.622  1.00  0.00    -0.048 A 
ATOM     19  C   UNL A   1      32.105  19.221  22.993  1.00  0.00    -0.037 A 
ATOM     20  H   UNL A   1      32.046  17.132  22.754  1.00  0.00     0.063 H 
ATOM     21  C   UNL A   1      33.896  20.049  24.441  1.00  0.00     0.014 A 
ATOM     22  H   UNL A   1      35.151  18.517  25.207  1.00  0.00     0.063 H 
ATOM     23  C   UNL A   1      32.769  20.273  23.642  1.00  0.00     0.050 A 
ATOM     24  H   UNL A   1      31.306  19.410  22.367  1.00  0.00     0.065 H 
ATOM     25  C   UNL A   1      34.347  21.321  24.960  1.00  0.00     0.037 A 
ATOM     26  N   UNL A   1      32.510  21.634  23.668  1.00  0.00    -0.339 N 
BRANCH  16  27
ATOM     27  C   UNL A   1      34.026  16.170  24.364  1.00  0.00    -0.022 C 
ATOM     28  H   UNL A   1      34.210  15.757  23.393  1.00  0.00     0.035 H 
BRANCH  27  29
ATOM     29  C   UNL A   1      35.298  16.026  25.215  1.00  0.00    -0.059 C 
ATOM     30  H   UNL A   1      35.146  15.270  25.957  1.00  0.00     0.024 H 
ATOM     31  H   UNL A   1      35.515  16.958  25.694  1.00  0.00     0.024 H 
ATOM     32  H   UNL A   1      36.118  15.748  24.587  1.00  0.00     0.024 H 
ENDBRANCH  27  29
BRANCH  27  33
ATOM     33  C   UNL A   1      32.905  15.375  25.052  1.00  0.00    -0.059 C 
ATOM     34  H   UNL A   1      32.271  16.047  25.592  1.00  0.00     0.024 H 
ATOM     35  H   UNL A   1      33.334  14.667  25.728  1.00  0.00     0.024 H 
ATOM     36  H   UNL A   1      32.329  14.858  24.313  1.00  0.00     0.024 H 
ENDBRANCH  27  33
ENDBRANCH  16  27
BRANCH  25  37
ATOM     37  S   UNL A   1      35.767  21.414  26.032  1.00  0.00    -0.118 SA
BRANCH  37  38
ATOM     38  C   UNL A   1      37.487  21.456  25.306  1.00  0.00     0.012 C 
BRANCH  38  39
ATOM     39  C   UNL A   1      38.401  22.381  26.114  1.00  0.00    -0.051 C 
ATOM     40  H   UNL A   1      39.416  22.237  25.805  1.00  0.00     0.024 H 
ATOM     41  H   UNL A   1      38.310  22.153  27.155  1.00  0.00     0.024 H 
ATOM     42  H   UNL A   1      38.119  23.398  25.945  1.00  0.00     0.024 H 
ENDBRANCH  38  39
BRANCH  38  43
ATOM     43  C   UNL A   1      38.275  20.174  24.953  1.00  0.00    -0.051 C 
ATOM     44  H   UNL A   1      39.155  20.436  24.405  1.00  0.00     0.024 H 
ATOM     45  H   UNL A   1      37.662  19.530  24.358  1.00  0.00     0.024 H 
ATOM     46  H   UNL A   1      38.554  19.668  25.853  1.00  0.00     0.024 H 
ENDBRANCH  38  43
BRANCH  38  47
ATOM     47  C   UNL A   1      37.241  22.070  23.900  1.00  0.00    -0.051 C 
ATOM     48  H   UNL A   1      38.146  22.033  23.331  1.00  0.00     0.024 H 
ATOM     49  H   UNL A   1      36.928  23.088  24.006  1.00  0.00     0.024 H 
ATOM     50  H   UNL A   1      36.480  21.513  23.395  1.00  0.00     0.024 H 
ENDBRANCH  38  47
ENDBRANCH  37  38
ENDBRANCH  25  37
BRANCH  26  51
ATOM     51  C   UNL A   1      31.658  22.334  22.669  1.00  0.00     0.048 C 
ATOM     52  H   UNL A   1      30.639  22.177  22.955  1.00  0.00     0.055 H 
ATOM     53  H   UNL A   1      31.951  21.914  21.730  1.00  0.00     0.055 H 
BRANCH  51  54
ATOM     54  C   UNL A   1      31.847  23.832  22.485  1.00  0.00    -0.028 A 
ATOM     55  C   UNL A   1      33.047  24.350  21.956  1.00  0.00    -0.056 A 
ATOM     56  C   UNL A   1      30.852  24.749  22.861  1.00  0.00    -0.056 A 
ATOM     57  C   UNL A   1      33.322  25.721  21.987  1.00  0.00    -0.043 A 
ATOM     58  H   UNL A   1      33.735  23.706  21.537  1.00  0.00     0.063 H 
ATOM     59  C   UNL A   1      31.106  26.131  22.842  1.00  0.00    -0.043 A 
ATOM     60  H   UNL A   1      29.924  24.405  23.153  1.00  0.00     0.063 H 
ATOM     61  C   UNL A   1      32.358  26.605  22.455  1.00  0.00     0.041 A 
ATOM     62  H   UNL A   1      34.237  26.074  21.663  1.00  0.00     0.064 H 
ATOM     63  H   UNL A   1      30.365  26.795  23.115  1.00  0.00     0.064 H 
ATOM     64  Cl  UNL A   1      32.732  28.279  22.591  1.00  0.00    -0.084 Cl
ENDBRANCH  51  54
ENDBRANCH  26  51
ENDBRANCH  12  15
ENDBRANCH  11  12
BRANCH  11  65
ATOM     65  C   UNL A   1      30.747  22.740  25.981  1.00  0.00    -0.051 C 
ATOM     66  H   UNL A   1      29.872  23.139  26.452  1.00  0.00     0.024 H 
ATOM     67  H   UNL A   1      30.940  21.759  26.361  1.00  0.00     0.024 H 
ATOM     68  H   UNL A   1      30.590  22.689  24.924  1.00  0.00     0.024 H 
ENDBRANCH  11  65
BRANCH  11  69
ATOM     69  C   UNL A   1      32.782  23.435  27.582  1.00  0.00    -0.051 C 
ATOM     70  H   UNL A   1      32.259  23.864  28.412  1.00  0.00     0.024 H 
ATOM     71  H   UNL A   1      33.740  23.902  27.483  1.00  0.00     0.024 H 
ATOM     72  H   UNL A   1      32.912  22.386  27.746  1.00  0.00     0.024 H 
ENDBRANCH  11  69
ENDBRANCH   8  11
ENDBRANCH   4   7
ENDBRANCH   1   4
BRANCH   1  73
ATOM     73  C   UNL A   1      32.568  28.718  26.545  1.00  0.00    -0.052 C 
ATOM     74  H   UNL A   1      32.004  28.147  27.252  1.00  0.00     0.027 H 
ATOM     75  H   UNL A   1      31.976  29.051  25.719  1.00  0.00     0.027 H 
BRANCH  73  76
ATOM     76  C   UNL A   1      33.097  29.973  27.250  1.00  0.00    -0.052 C 
ATOM     77  H   UNL A   1      32.512  30.130  28.133  1.00  0.00     0.027 H 
ATOM     78  H   UNL A   1      33.017  30.771  26.542  1.00  0.00     0.027 H 
BRANCH  76  79
ATOM     79  C   UNL A   1      34.574  29.909  27.662  1.00  0.00    -0.036 C 
ATOM     80  H   UNL A   1      35.134  29.497  26.848  1.00  0.00     0.028 H 
ATOM     81  H   UNL A   1      34.628  29.304  28.542  1.00  0.00     0.028 H 
BRANCH  79  82
ATOM     82  C   UNL A   1      35.172  31.271  28.019  1.00  0.00     0.018 C 
ATOM     83  H   UNL A   1      34.681  32.023  27.436  1.00  0.00     0.049 H 
ATOM     84  H   UNL A   1      36.221  31.226  27.809  1.00  0.00     0.049 H 
BRANCH  82  85
ATOM     85  N   UNL A   1      35.024  31.602  29.417  1.00  0.00    -0.352 N 
ATOM     86  C   UNL A   1      35.732  31.314  30.547  1.00  0.00     0.251 C 
ATOM     87  H   UNL A   1      34.234  32.162  29.595  1.00  0.00     0.163 HD
ATOM     88  O   UNL A   1      35.251  31.711  31.610  1.00  0.00    -0.269 OA
BRANCH  86  89
ATOM     89  C   UNL A   1      36.999  30.540  30.574  1.00  0.00     0.039 A 
ATOM     90  C   UNL A   1      37.105  29.159  30.743  1.00  0.00    -0.049 A 
ATOM     91  C   UNL A   1      38.178  31.286  30.405  1.00  0.00    -0.049 A 
ATOM     92  C   UNL A   1      38.348  28.547  30.825  1.00  0.00    -0.053 A 
ATOM     93  H   UNL A   1      36.249  28.586  30.808  1.00  0.00     0.063 H 
ATOM     94  C   UNL A   1      39.424  30.675  30.440  1.00  0.00    -0.053 A 
ATOM     95  H   UNL A   1      38.116  32.305  30.251  1.00  0.00     0.063 H 
ATOM     96  C   UNL A   1      39.507  29.307  30.690  1.00  0.00    -0.014 A 
ATOM     97  H   UNL A   1      38.413  27.529  30.985  1.00  0.00     0.063 H 
ATOM     98  H   UNL A   1      40.281  31.228  30.284  1.00  0.00     0.063 H 
BRANCH  96  99
ATOM     99  C   UNL A   1      40.782  28.596  30.727  1.00  0.00     0.031 A 
ATOM    100  C   UNL A   1      41.433  28.496  32.068  1.00  0.00     0.074 A 
ATOM    101  C   UNL A   1      41.290  27.960  29.655  1.00  0.00     0.049 A 
ATOM    102  N   UNL A   1      42.636  28.831  32.412  1.00  0.00    -0.248 NA
ATOM    103  C   UNL A   1      40.605  28.011  33.186  1.00  0.00    -0.034 C 
ATOM    104  C   UNL A   1      40.643  27.728  28.361  1.00  0.00    -0.036 A 
ATOM    105  N   UNL A   1      42.467  27.280  29.543  1.00  0.00    -0.354 N 
ATOM    106  C   UNL A   1      42.769  28.470  33.752  1.00  0.00     0.074 A 
ATOM    107  C   UNL A   1      41.465  28.057  34.203  1.00  0.00    -0.034 C 
ATOM    108  H   UNL A   1      39.617  27.715  33.183  1.00  0.00     0.065 H 
ATOM    109  C   UNL A   1      41.327  26.778  27.689  1.00  0.00    -0.036 A 
ATOM    110  H   UNL A   1      39.799  28.214  28.018  1.00  0.00     0.065 H 
ATOM    111  C   UNL A   1      42.523  26.441  28.442  1.00  0.00     0.049 A 
ATOM    112  H   UNL A   1      43.207  27.377  30.185  1.00  0.00     0.167 HD
ATOM    113  C   UNL A   1      43.977  28.365  34.367  1.00  0.00     0.037 A 
ATOM    114  H   UNL A   1      41.229  27.826  35.181  1.00  0.00     0.065 H 
ATOM    115  H   UNL A   1      41.047  26.358  26.789  1.00  0.00     0.065 H 
ATOM    116  C   UNL A   1      43.446  25.480  28.209  1.00  0.00     0.037 A 
ATOM    117  C   UNL A   1      45.014  29.057  33.659  1.00  0.00     0.049 A 
ATOM    118  C   UNL A   1      44.640  25.785  29.030  1.00  0.00     0.074 A 
ATOM    119  C   UNL A   1      45.306  30.377  33.389  1.00  0.00    -0.036 A 
ATOM    120  N   UNL A   1      45.820  28.311  32.842  1.00  0.00    -0.354 N 
ATOM    121  N   UNL A   1      45.435  26.798  28.832  1.00  0.00    -0.248 NA
ATOM    122  C   UNL A   1      44.787  25.119  30.316  1.00  0.00    -0.034 C 
ATOM    123  C   UNL A   1      45.970  30.366  32.128  1.00  0.00    -0.036 A 
ATOM    124  H   UNL A   1      45.089  31.197  33.976  1.00  0.00     0.065 H 
ATOM    125  C   UNL A   1      46.060  29.039  31.706  1.00  0.00     0.049 A 
ATOM    126  H   UNL A   1      46.167  27.411  33.036  1.00  0.00     0.167 HD
ATOM    127  C   UNL A   1      45.873  27.151  30.097  1.00  0.00     0.074 A 
ATOM    128  C   UNL A   1      45.573  26.001  30.938  1.00  0.00    -0.034 C 
ATOM    129  H   UNL A   1      44.396  24.225  30.651  1.00  0.00     0.065 H 
ATOM    130  H   UNL A   1      46.322  31.192  31.618  1.00  0.00     0.065 H 
ATOM    131  C   UNL A   1      46.176  28.448  30.393  1.00  0.00     0.037 A 
ATOM    132  H   UNL A   1      45.926  25.881  31.899  1.00  0.00     0.065 H 
BRANCH 113 133
ATOM    133  C   UNL A   1      44.284  27.357  35.443  1.00  0.00     0.064 A 
ATOM    134  C   UNL A   1      44.159  25.979  35.180  1.00  0.00     0.173 A 
ATOM    135  C   UNL A   1      44.409  27.714  36.802  1.00  0.00     0.173 A 
ATOM    136  F   UNL A   1      43.987  25.535  33.926  1.00  0.00    -0.203 F 
ATOM    137  C   UNL A   1      44.128  25.033  36.210  1.00  0.00     0.198 A 
ATOM    138  C   UNL A   1      44.428  26.766  37.823  1.00  0.00     0.198 A 
ATOM    139  F   UNL A   1      44.406  28.995  37.194  1.00  0.00    -0.203 F 
ATOM    140  F   UNL A   1      43.905  23.743  35.925  1.00  0.00    -0.200 F 
ATOM    141  C   UNL A   1      44.263  25.428  37.530  1.00  0.00     0.200 A 
ATOM    142  F   UNL A   1      44.531  27.169  39.097  1.00  0.00    -0.200 F 
ATOM    143  F   UNL A   1      44.185  24.529  38.521  1.00  0.00    -0.200 F 
ENDBRANCH 113 133
BRANCH 116 144
ATOM    144  C   UNL A   1      43.245  24.164  27.562  1.00  0.00     0.064 A 
ATOM    145  C   UNL A   1      42.460  23.176  28.175  1.00  0.00     0.173 A 
ATOM    146  C   UNL A   1      43.580  23.953  26.210  1.00  0.00     0.173 A 
ATOM    147  F   UNL A   1      42.064  23.321  29.448  1.00  0.00    -0.203 F 
ATOM    148  C   UNL A   1      42.006  22.059  27.467  1.00  0.00     0.198 A 
ATOM    149  C   UNL A   1      43.137  22.833  25.508  1.00  0.00     0.198 A 
ATOM    150  F   UNL A   1      44.259  24.877  25.514  1.00  0.00    -0.203 F 
ATOM    151  F   UNL A   1      41.196  21.174  28.064  1.00  0.00    -0.200 F 
ATOM    152  C   UNL A   1      42.335  21.895  26.131  1.00  0.00     0.200 A 
ATOM    153  F   UNL A   1      43.434  22.704  24.207  1.00  0.00    -0.200 F 
ATOM    154  F   UNL A   1      41.845  20.861  25.434  1.00  0.00    -0.200 F 
ENDBRANCH 116 144
BRANCH 131 155
ATOM    155  C   UNL A   1      46.394  29.385  29.240  1.00  0.00     0.064 A 
ATOM    156  C   UNL A   1      47.633  29.577  28.606  1.00  0.00     0.173 A 
ATOM    157  C   UNL A   1      45.276  30.022  28.683  1.00  0.00     0.173 A 
ATOM    158  F   UNL A   1      48.726  28.923  29.017  1.00  0.00    -0.203 F 
ATOM    159  C   UNL A   1      47.752  30.410  27.494  1.00  0.00     0.198 A 
ATOM    160  C   UNL A   1      45.391  30.820  27.549  1.00  0.00     0.198 A 
ATOM    161  F   UNL A   1      44.058  29.828  29.213  1.00  0.00    -0.203 F 
ATOM    162  F   UNL A   1      48.948  30.591  26.915  1.00  0.00    -0.200 F 
ATOM    163  C   UNL A   1      46.630  31.024  26.964  1.00  0.00     0.200 A 
ATOM    164  F   UNL A   1      44.296  31.372  27.008  1.00  0.00    -0.200 F 
ATOM    165  F   UNL A   1      46.738  31.791  25.869  1.00  0.00    -0.200 F 
ENDBRANCH 131 155
ENDBRANCH  96  99
ENDBRANCH  86  89
ENDBRANCH  82  85
ENDBRANCH  79  82
ENDBRANCH  76  79
ENDBRANCH  73  76
ENDBRANCH   1  73
TORSDOF 27
ENDMDL
MODEL 4
REMARK VINA RESULT:     -11.0      3.649      9.106
REMARK SMILES CC(C)c1ccc2c(c1)c(SC(C)(C)C)c(CC(C)(C)C(=O)NCCCCCCNC(=O)c1ccc(-c3c4nc(c(-c5c(F)c(F)c(F)c(F)c5F)c5ccc([nH]5)c(-c5c(F)c(F)c(F)c(F)c5F)c5nc(c(-c6c(F)c(F)c(F)c(F)c6F)c6ccc3[nH]6)C=C5)C=C4)cc1)n2Cc1ccc(Cl)cc1
REMARK SMILES IDX 25 1 24 4 23 7 21 8 22 9 18 11 17 12 16 15 4 16 5 17 9 18
REMARK SMILES IDX 6 19 8 21 7 23 10 25 96 26 2 27 1 29 3 33 11 37 12 38 13 39
REMARK SMILES IDX 14 43 15 47 97 51 98 54 99 55 104 56 100 57 103 59 101 61
REMARK SMILES IDX 102 64 19 65 20 69 26 73 27 76 28 79 29 82 30 85 31 86 32 88
REMARK SMILES IDX 33 89 34 90 95 91 35 92 94 94 36 96 37 99 38 100 88 101
REMARK SMILES IDX 39 102 93 103 87 104 89 105 40 106 92 107 86 109 85 111
REMARK SMILES IDX 41 113 73 116 53 117 72 118 54 119 57 120 71 121 90 122
REMARK SMILES IDX 55 123 56 125 70 127 91 128 58 131 42 133 43 134 51 135
REMARK SMILES IDX 44 136 45 137 49 138 52 139 46 140 47 141 50 142 48 143
REMARK SMILES IDX 74 144 75 145 83 146 76 147 77 148 81 149 84 150 78 151
REMARK SMILES IDX 79 152 82 153 80 154 59 155 60 156 68 157 61 158 62 159
REMARK SMILES IDX 66 160 69 161 63 162 64 163 67 164 65 165
REMARK H PARENT 25 2 25 3 24 5 24 6 23 10 17 13 17 14 5 20 9 22 6 24 2 28 1 30
REMARK H PARENT 1 31 1 32 3 34 3 35 3 36 13 40 13 41 13 42 14 44 14 45 14 46
REMARK H PARENT 15 48 15 49 15 50 97 52 97 53 99 58 104 60 100 62 103 63 19 66
REMARK H PARENT 19 67 19 68 20 70 20 71 20 72 26 74 26 75 27 77 27 78 28 80
REMARK H PARENT 28 81 29 83 29 84 30 87 34 93 95 95 35 97 94 98 93 108 87 110
REMARK H PARENT 89 112 92 114 86 115 54 124 57 126 90 129 55 130 91 132
REMARK Flexibility Score: inf
ROOT
ATOM      1  C   UNL A   1      38.773  23.114  26.835  1.00  0.00    -0.036 C 
ATOM      2  H   UNL A   1      38.446  22.819  27.811  1.00  0.00     0.028 H 
ATOM      3  H   UNL A   1      39.565  23.831  26.902  1.00  0.00     0.028 H 
ENDROOT
BRANCH   1   4
ATOM      4  C   UNL A   1      37.617  23.750  26.102  1.00  0.00     0.017 C 
ATOM      5  H   UNL A   1      36.705  23.307  26.445  1.00  0.00     0.049 H 
ATOM      6  H   UNL A   1      37.637  24.801  26.301  1.00  0.00     0.049 H 
BRANCH   4   7
ATOM      7  N   UNL A   1      37.717  23.563  24.669  1.00  0.00    -0.356 N 
ATOM      8  C   UNL A   1      36.707  23.439  23.751  1.00  0.00     0.226 C 
ATOM      9  O   UNL A   1      36.991  23.694  22.588  1.00  0.00    -0.275 OA
ATOM     10  H   UNL A   1      38.631  23.518  24.307  1.00  0.00     0.163 HD
BRANCH   8  11
ATOM     11  C   UNL A   1      35.272  23.239  24.253  1.00  0.00     0.049 C 
BRANCH  11  12
ATOM     12  C   UNL A   1      34.814  24.079  25.485  1.00  0.00     0.003 C 
ATOM     13  H   UNL A   1      34.722  23.410  26.315  1.00  0.00     0.034 H 
ATOM     14  H   UNL A   1      35.560  24.838  25.593  1.00  0.00     0.034 H 
BRANCH  12  15
ATOM     15  C   UNL A   1      33.544  24.812  25.367  1.00  0.00     0.034 A 
ATOM     16  C   UNL A   1      29.908  27.208  23.743  1.00  0.00    -0.045 A 
ATOM     17  C   UNL A   1      29.358  25.923  23.816  1.00  0.00    -0.057 A 
ATOM     18  C   UNL A   1      31.218  27.383  24.243  1.00  0.00    -0.048 A 
ATOM     19  C   UNL A   1      30.065  24.834  24.344  1.00  0.00    -0.037 A 
ATOM     20  H   UNL A   1      28.399  25.772  23.469  1.00  0.00     0.063 H 
ATOM     21  C   UNL A   1      31.976  26.301  24.772  1.00  0.00     0.014 A 
ATOM     22  H   UNL A   1      31.637  28.325  24.225  1.00  0.00     0.063 H 
ATOM     23  C   UNL A   1      31.382  25.035  24.784  1.00  0.00     0.050 A 
ATOM     24  H   UNL A   1      29.626  23.902  24.407  1.00  0.00     0.065 H 
ATOM     25  C   UNL A   1      33.322  26.179  25.286  1.00  0.00     0.037 A 
ATOM     26  N   UNL A   1      32.324  24.144  25.275  1.00  0.00    -0.339 N 
BRANCH  16  27
ATOM     27  C   UNL A   1      29.174  28.350  23.035  1.00  0.00    -0.022 C 
ATOM     28  H   UNL A   1      29.385  28.145  22.006  1.00  0.00     0.035 H 
BRANCH  27  29
ATOM     29  C   UNL A   1      27.650  28.352  23.238  1.00  0.00    -0.059 C 
ATOM     30  H   UNL A   1      27.165  28.518  22.299  1.00  0.00     0.024 H 
ATOM     31  H   UNL A   1      27.381  29.130  23.922  1.00  0.00     0.024 H 
ATOM     32  H   UNL A   1      27.342  27.407  23.635  1.00  0.00     0.024 H 
ENDBRANCH  27  29
BRANCH  27  33
ATOM     33  C   UNL A   1      29.699  29.749  23.394  1.00  0.00    -0.059 C 
ATOM     34  H   UNL A   1      30.758  29.706  23.539  1.00  0.00     0.024 H 
ATOM     35  H   UNL A   1      29.228  30.086  24.293  1.00  0.00     0.024 H 
ATOM     36  H   UNL A   1      29.476  30.429  22.598  1.00  0.00     0.024 H 
ENDBRANCH  27  33
ENDBRANCH  16  27
BRANCH  25  37
ATOM     37  S   UNL A   1      34.383  27.606  25.406  1.00  0.00    -0.118 SA
BRANCH  37  38
ATOM     38  C   UNL A   1      33.939  29.008  26.556  1.00  0.00     0.012 C 
BRANCH  38  39
ATOM     39  C   UNL A   1      35.162  29.476  27.349  1.00  0.00    -0.051 C 
ATOM     40  H   UNL A   1      36.002  29.565  26.691  1.00  0.00     0.024 H 
ATOM     41  H   UNL A   1      35.384  28.764  28.116  1.00  0.00     0.024 H 
ATOM     42  H   UNL A   1      34.956  30.427  27.794  1.00  0.00     0.024 H 
ENDBRANCH  38  39
BRANCH  38  43
ATOM     43  C   UNL A   1      33.153  30.255  26.087  1.00  0.00    -0.051 C 
ATOM     44  H   UNL A   1      33.695  30.745  25.306  1.00  0.00     0.024 H 
ATOM     45  H   UNL A   1      33.027  30.927  26.910  1.00  0.00     0.024 H 
ATOM     46  H   UNL A   1      32.195  29.954  25.721  1.00  0.00     0.024 H 
ENDBRANCH  38  43
BRANCH  38  47
ATOM     47  C   UNL A   1      32.921  28.340  27.520  1.00  0.00    -0.051 C 
ATOM     48  H   UNL A   1      32.029  28.094  26.983  1.00  0.00     0.024 H 
ATOM     49  H   UNL A   1      32.683  29.018  28.313  1.00  0.00     0.024 H 
ATOM     50  H   UNL A   1      33.348  27.448  27.929  1.00  0.00     0.024 H 
ENDBRANCH  38  47
ENDBRANCH  37  38
ENDBRANCH  25  37
BRANCH  26  51
ATOM     51  C   UNL A   1      31.989  22.794  25.806  1.00  0.00     0.048 C 
ATOM     52  H   UNL A   1      31.012  22.857  26.238  1.00  0.00     0.055 H 
ATOM     53  H   UNL A   1      32.786  22.570  26.483  1.00  0.00     0.055 H 
BRANCH  51  54
ATOM     54  C   UNL A   1      31.977  21.623  24.837  1.00  0.00    -0.028 A 
ATOM     55  C   UNL A   1      32.201  20.306  25.291  1.00  0.00    -0.056 A 
ATOM     56  C   UNL A   1      31.773  21.810  23.460  1.00  0.00    -0.056 A 
ATOM     57  C   UNL A   1      32.413  19.255  24.393  1.00  0.00    -0.043 A 
ATOM     58  H   UNL A   1      32.209  20.115  26.304  1.00  0.00     0.063 H 
ATOM     59  C   UNL A   1      31.932  20.743  22.560  1.00  0.00    -0.043 A 
ATOM     60  H   UNL A   1      31.504  22.742  23.106  1.00  0.00     0.063 H 
ATOM     61  C   UNL A   1      32.302  19.485  23.028  1.00  0.00     0.041 A 
ATOM     62  H   UNL A   1      32.649  18.313  24.744  1.00  0.00     0.064 H 
ATOM     63  H   UNL A   1      31.775  20.893  21.551  1.00  0.00     0.064 H 
ATOM     64  Cl  UNL A   1      32.664  18.218  21.919  1.00  0.00    -0.084 Cl
ENDBRANCH  51  54
ENDBRANCH  26  51
ENDBRANCH  12  15
ENDBRANCH  11  12
BRANCH  11  65
ATOM     65  C   UNL A   1      35.369  21.729  24.583  1.00  0.00    -0.051 C 
ATOM     66  H   UNL A   1      34.397  21.287  24.518  1.00  0.00     0.024 H 
ATOM     67  H   UNL A   1      35.752  21.604  25.574  1.00  0.00     0.024 H 
ATOM     68  H   UNL A   1      36.024  21.254  23.884  1.00  0.00     0.024 H 
ENDBRANCH  11  65
BRANCH  11  69
ATOM     69  C   UNL A   1      34.279  23.716  23.151  1.00  0.00    -0.051 C 
ATOM     70  H   UNL A   1      34.111  24.768  23.252  1.00  0.00     0.024 H 
ATOM     71  H   UNL A   1      33.350  23.195  23.257  1.00  0.00     0.024 H 
ATOM     72  H   UNL A   1      34.693  23.513  22.185  1.00  0.00     0.024 H 
ENDBRANCH  11  69
ENDBRANCH   8  11
ENDBRANCH   4   7
ENDBRANCH   1   4
BRANCH   1  73
ATOM     73  C   UNL A   1      39.294  21.891  26.097  1.00  0.00    -0.052 C 
ATOM     74  H   UNL A   1      39.736  22.215  25.178  1.00  0.00     0.027 H 
ATOM     75  H   UNL A   1      38.458  21.242  25.944  1.00  0.00     0.027 H 
BRANCH  73  76
ATOM     76  C   UNL A   1      40.342  21.091  26.880  1.00  0.00    -0.052 C 
ATOM     77  H   UNL A   1      41.102  20.777  26.194  1.00  0.00     0.027 H 
ATOM     78  H   UNL A   1      39.820  20.277  27.336  1.00  0.00     0.027 H 
BRANCH  76  79
ATOM     79  C   UNL A   1      41.020  21.860  28.022  1.00  0.00    -0.036 C 
ATOM     80  H   UNL A   1      40.886  21.307  28.929  1.00  0.00     0.028 H 
ATOM     81  H   UNL A   1      40.564  22.827  28.064  1.00  0.00     0.028 H 
BRANCH  79  82
ATOM     82  C   UNL A   1      42.518  22.083  27.810  1.00  0.00     0.018 C 
ATOM     83  H   UNL A   1      43.031  21.164  28.005  1.00  0.00     0.049 H 
ATOM     84  H   UNL A   1      42.825  22.861  28.479  1.00  0.00     0.049 H 
BRANCH  82  85
ATOM     85  N   UNL A   1      42.840  22.514  26.469  1.00  0.00    -0.352 N 
ATOM     86  C   UNL A   1      42.854  23.719  25.831  1.00  0.00     0.251 C 
ATOM     87  H   UNL A   1      43.109  21.769  25.884  1.00  0.00     0.163 HD
ATOM     88  O   UNL A   1      43.110  23.697  24.625  1.00  0.00    -0.269 OA
BRANCH  86  89
ATOM     89  C   UNL A   1      42.551  25.020  26.479  1.00  0.00     0.039 A 
ATOM     90  C   UNL A   1      41.500  25.873  26.141  1.00  0.00    -0.049 A 
ATOM     91  C   UNL A   1      43.410  25.398  27.526  1.00  0.00    -0.049 A 
ATOM     92  C   UNL A   1      41.354  27.103  26.768  1.00  0.00    -0.053 A 
ATOM     93  H   UNL A   1      40.823  25.586  25.417  1.00  0.00     0.063 H 
ATOM     94  C   UNL A   1      43.244  26.607  28.189  1.00  0.00    -0.053 A 
ATOM     95  H   UNL A   1      44.177  24.766  27.807  1.00  0.00     0.063 H 
ATOM     96  C   UNL A   1      42.235  27.477  27.780  1.00  0.00    -0.014 A 
ATOM     97  H   UNL A   1      40.593  27.740  26.485  1.00  0.00     0.063 H 
ATOM     98  H   UNL A   1      43.861  26.859  28.977  1.00  0.00     0.063 H 
BRANCH  96  99
ATOM     99  C   UNL A   1      41.993  28.757  28.439  1.00  0.00     0.031 A 
ATOM    100  C   UNL A   1      42.982  29.837  28.146  1.00  0.00     0.074 A 
ATOM    101  C   UNL A   1      40.889  29.000  29.169  1.00  0.00     0.049 A 
ATOM    102  N   UNL A   1      43.663  30.560  28.978  1.00  0.00    -0.248 NA
ATOM    103  C   UNL A   1      43.292  30.103  26.731  1.00  0.00    -0.034 C 
ATOM    104  C   UNL A   1      39.705  28.148  29.314  1.00  0.00    -0.036 A 
ATOM    105  N   UNL A   1      40.546  30.130  29.850  1.00  0.00    -0.354 N 
ATOM    106  C   UNL A   1      44.382  31.468  28.200  1.00  0.00     0.074 A 
ATOM    107  C   UNL A   1      44.189  31.084  26.826  1.00  0.00    -0.034 C 
ATOM    108  H   UNL A   1      42.914  29.647  25.885  1.00  0.00     0.065 H 
ATOM    109  C   UNL A   1      38.696  28.878  29.836  1.00  0.00    -0.036 A 
ATOM    110  H   UNL A   1      39.652  27.149  29.060  1.00  0.00     0.065 H 
ATOM    111  C   UNL A   1      39.203  30.195  30.183  1.00  0.00     0.049 A 
ATOM    112  H   UNL A   1      41.193  30.835  30.083  1.00  0.00     0.167 HD
ATOM    113  C   UNL A   1      44.953  32.587  28.720  1.00  0.00     0.037 A 
ATOM    114  H   UNL A   1      44.677  31.512  26.024  1.00  0.00     0.065 H 
ATOM    115  H   UNL A   1      37.725  28.555  29.966  1.00  0.00     0.065 H 
ATOM    116  C   UNL A   1      38.537  31.282  30.636  1.00  0.00     0.037 A 
ATOM    117  C   UNL A   1      45.110  32.512  30.143  1.00  0.00     0.049 A 
ATOM    118  C   UNL A   1      39.532  32.230  31.186  1.00  0.00     0.074 A 
ATOM    119  C   UNL A   1      45.879  31.762  31.007  1.00  0.00    -0.036 A 
ATOM    120  N   UNL A   1      44.161  33.129  30.912  1.00  0.00    -0.354 N 
ATOM    121  N   UNL A   1      40.229  32.028  32.268  1.00  0.00    -0.248 NA
ATOM    122  C   UNL A   1      40.006  33.312  30.334  1.00  0.00    -0.034 C 
ATOM    123  C   UNL A   1      45.099  31.634  32.193  1.00  0.00    -0.036 A 
ATOM    124  H   UNL A   1      46.820  31.376  30.831  1.00  0.00     0.065 H 
ATOM    125  C   UNL A   1      43.904  32.326  31.992  1.00  0.00     0.049 A 
ATOM    126  H   UNL A   1      43.738  33.998  30.724  1.00  0.00     0.167 HD
ATOM    127  C   UNL A   1      41.439  32.656  32.029  1.00  0.00     0.074 A 
ATOM    128  C   UNL A   1      41.187  33.551  30.909  1.00  0.00    -0.034 C 
ATOM    129  H   UNL A   1      39.558  33.763  29.521  1.00  0.00     0.065 H 
ATOM    130  H   UNL A   1      45.370  31.122  33.047  1.00  0.00     0.065 H 
ATOM    131  C   UNL A   1      42.592  32.180  32.580  1.00  0.00     0.037 A 
ATOM    132  H   UNL A   1      41.843  34.283  30.595  1.00  0.00     0.065 H 
BRANCH 113 133
ATOM    133  C   UNL A   1      45.069  33.891  27.974  1.00  0.00     0.064 A 
ATOM    134  C   UNL A   1      46.335  34.452  27.719  1.00  0.00     0.173 A 
ATOM    135  C   UNL A   1      43.965  34.744  27.766  1.00  0.00     0.173 A 
ATOM    136  F   UNL A   1      47.453  33.741  27.930  1.00  0.00    -0.203 F 
ATOM    137  C   UNL A   1      46.482  35.784  27.317  1.00  0.00     0.198 A 
ATOM    138  C   UNL A   1      44.112  36.055  27.317  1.00  0.00     0.198 A 
ATOM    139  F   UNL A   1      42.720  34.374  28.094  1.00  0.00    -0.203 F 
ATOM    140  F   UNL A   1      47.707  36.309  27.183  1.00  0.00    -0.200 F 
ATOM    141  C   UNL A   1      45.370  36.584  27.116  1.00  0.00     0.200 A 
ATOM    142  F   UNL A   1      43.025  36.823  27.156  1.00  0.00    -0.200 F 
ATOM    143  F   UNL A   1      45.510  37.872  26.777  1.00  0.00    -0.200 F 
ENDBRANCH 113 133
BRANCH 116 144
ATOM    144  C   UNL A   1      37.141  31.679  30.347  1.00  0.00     0.064 A 
ATOM    145  C   UNL A   1      36.206  31.821  31.384  1.00  0.00     0.173 A 
ATOM    146  C   UNL A   1      36.772  32.200  29.091  1.00  0.00     0.173 A 
ATOM    147  F   UNL A   1      36.498  31.389  32.620  1.00  0.00    -0.203 F 
ATOM    148  C   UNL A   1      34.989  32.479  31.186  1.00  0.00     0.198 A 
ATOM    149  C   UNL A   1      35.552  32.845  28.892  1.00  0.00     0.198 A 
ATOM    150  F   UNL A   1      37.627  32.184  28.059  1.00  0.00    -0.203 F 
ATOM    151  F   UNL A   1      34.154  32.662  32.218  1.00  0.00    -0.200 F 
ATOM    152  C   UNL A   1      34.668  33.000  29.943  1.00  0.00     0.200 A 
ATOM    153  F   UNL A   1      35.269  33.375  27.693  1.00  0.00    -0.200 F 
ATOM    154  F   UNL A   1      33.532  33.689  29.769  1.00  0.00    -0.200 F 
ENDBRANCH 116 144
BRANCH 131 155
ATOM    155  C   UNL A   1      42.464  31.226  33.732  1.00  0.00     0.064 A 
ATOM    156  C   UNL A   1      42.338  31.624  35.074  1.00  0.00     0.173 A 
ATOM    157  C   UNL A   1      42.344  29.858  33.449  1.00  0.00     0.173 A 
ATOM    158  F   UNL A   1      42.339  32.920  35.411  1.00  0.00    -0.203 F 
ATOM    159  C   UNL A   1      42.150  30.687  36.088  1.00  0.00     0.198 A 
ATOM    160  C   UNL A   1      42.116  28.929  34.460  1.00  0.00     0.198 A 
ATOM    161  F   UNL A   1      42.397  29.427  32.179  1.00  0.00    -0.203 F 
ATOM    162  F   UNL A   1      42.050  31.089  37.364  1.00  0.00    -0.200 F 
ATOM    163  C   UNL A   1      42.033  29.342  35.779  1.00  0.00     0.200 A 
ATOM    164  F   UNL A   1      41.952  27.635  34.151  1.00  0.00    -0.200 F 
ATOM    165  F   UNL A   1      41.810  28.446  36.751  1.00  0.00    -0.200 F 
ENDBRANCH 131 155
ENDBRANCH  96  99
ENDBRANCH  86  89
ENDBRANCH  82  85
ENDBRANCH  79  82
ENDBRANCH  76  79
ENDBRANCH  73  76
ENDBRANCH   1  73
TORSDOF 27
ENDMDL
MODEL 5
REMARK VINA RESULT:     -10.5      3.467      8.954
REMARK SMILES CC(C)c1ccc2c(c1)c(SC(C)(C)C)c(CC(C)(C)C(=O)NCCCCCCNC(=O)c1ccc(-c3c4nc(c(-c5c(F)c(F)c(F)c(F)c5F)c5ccc([nH]5)c(-c5c(F)c(F)c(F)c(F)c5F)c5nc(c(-c6c(F)c(F)c(F)c(F)c6F)c6ccc3[nH]6)C=C5)C=C4)cc1)n2Cc1ccc(Cl)cc1
REMARK SMILES IDX 25 1 24 4 23 7 21 8 22 9 18 11 17 12 16 15 4 16 5 17 9 18
REMARK SMILES IDX 6 19 8 21 7 23 10 25 96 26 2 27 1 29 3 33 11 37 12 38 13 39
REMARK SMILES IDX 14 43 15 47 97 51 98 54 99 55 104 56 100 57 103 59 101 61
REMARK SMILES IDX 102 64 19 65 20 69 26 73 27 76 28 79 29 82 30 85 31 86 32 88
REMARK SMILES IDX 33 89 34 90 95 91 35 92 94 94 36 96 37 99 38 100 88 101
REMARK SMILES IDX 39 102 93 103 87 104 89 105 40 106 92 107 86 109 85 111
REMARK SMILES IDX 41 113 73 116 53 117 72 118 54 119 57 120 71 121 90 122
REMARK SMILES IDX 55 123 56 125 70 127 91 128 58 131 42 133 43 134 51 135
REMARK SMILES IDX 44 136 45 137 49 138 52 139 46 140 47 141 50 142 48 143
REMARK SMILES IDX 74 144 75 145 83 146 76 147 77 148 81 149 84 150 78 151
REMARK SMILES IDX 79 152 82 153 80 154 59 155 60 156 68 157 61 158 62 159
REMARK SMILES IDX 66 160 69 161 63 162 64 163 67 164 65 165
REMARK H PARENT 25 2 25 3 24 5 24 6 23 10 17 13 17 14 5 20 9 22 6 24 2 28 1 30
REMARK H PARENT 1 31 1 32 3 34 3 35 3 36 13 40 13 41 13 42 14 44 14 45 14 46
REMARK H PARENT 15 48 15 49 15 50 97 52 97 53 99 58 104 60 100 62 103 63 19 66
REMARK H PARENT 19 67 19 68 20 70 20 71 20 72 26 74 26 75 27 77 27 78 28 80
REMARK H PARENT 28 81 29 83 29 84 30 87 34 93 95 95 35 97 94 98 93 108 87 110
REMARK H PARENT 89 112 92 114 86 115 54 124 57 126 90 129 55 130 91 132
REMARK Flexibility Score: inf
ROOT
ATOM      1  C   UNL A   1      36.592  23.165  24.198  1.00  0.00    -0.036 C 
ATOM      2  H   UNL A   1      36.213  23.470  25.151  1.00  0.00     0.028 H 
ATOM      3  H   UNL A   1      37.505  23.675  23.972  1.00  0.00     0.028 H 
ENDROOT
BRANCH   1   4
ATOM      4  C   UNL A   1      35.579  23.509  23.134  1.00  0.00     0.017 C 
ATOM      5  H   UNL A   1      35.178  24.480  23.341  1.00  0.00     0.049 H 
ATOM      6  H   UNL A   1      36.076  23.490  22.186  1.00  0.00     0.049 H 
BRANCH   4   7
ATOM      7  N   UNL A   1      34.493  22.553  23.091  1.00  0.00    -0.356 N 
ATOM      8  C   UNL A   1      33.198  22.748  22.687  1.00  0.00     0.226 C 
ATOM      9  O   UNL A   1      32.573  21.750  22.351  1.00  0.00    -0.275 OA
ATOM     10  H   UNL A   1      34.714  21.642  23.392  1.00  0.00     0.163 HD
BRANCH   8  11
ATOM     11  C   UNL A   1      32.705  24.181  22.450  1.00  0.00     0.049 C 
BRANCH  11  12
ATOM     12  C   UNL A   1      31.389  24.619  23.164  1.00  0.00     0.003 C 
ATOM     13  H   UNL A   1      30.729  25.003  22.414  1.00  0.00     0.034 H 
ATOM     14  H   UNL A   1      31.044  23.741  23.667  1.00  0.00     0.034 H 
BRANCH  12  15
ATOM     15  C   UNL A   1      31.500  25.639  24.217  1.00  0.00     0.034 A 
ATOM     16  C   UNL A   1      32.958  29.142  26.901  1.00  0.00    -0.045 A 
ATOM     17  C   UNL A   1      31.983  29.792  26.135  1.00  0.00    -0.057 A 
ATOM     18  C   UNL A   1      33.099  27.748  26.724  1.00  0.00    -0.048 A 
ATOM     19  C   UNL A   1      31.179  29.112  25.210  1.00  0.00    -0.037 A 
ATOM     20  H   UNL A   1      31.852  30.809  26.256  1.00  0.00     0.063 H 
ATOM     21  C   UNL A   1      32.315  27.022  25.785  1.00  0.00     0.014 A 
ATOM     22  H   UNL A   1      33.792  27.240  27.294  1.00  0.00     0.063 H 
ATOM     23  C   UNL A   1      31.383  27.737  25.025  1.00  0.00     0.050 A 
ATOM     24  H   UNL A   1      30.452  29.613  24.677  1.00  0.00     0.065 H 
ATOM     25  C   UNL A   1      32.285  25.639  25.362  1.00  0.00     0.037 A 
ATOM     26  N   UNL A   1      30.796  26.840  24.145  1.00  0.00    -0.339 N 
BRANCH  16  27
ATOM     27  C   UNL A   1      33.920  29.926  27.800  1.00  0.00    -0.022 C 
ATOM     28  H   UNL A   1      33.591  29.641  28.777  1.00  0.00     0.035 H 
BRANCH  27  29
ATOM     29  C   UNL A   1      35.399  29.540  27.640  1.00  0.00    -0.059 C 
ATOM     30  H   UNL A   1      35.920  29.737  28.554  1.00  0.00     0.024 H 
ATOM     31  H   UNL A   1      35.836  30.114  26.850  1.00  0.00     0.024 H 
ATOM     32  H   UNL A   1      35.473  28.498  27.406  1.00  0.00     0.024 H 
ENDBRANCH  27  29
BRANCH  27  33
ATOM     33  C   UNL A   1      33.812  31.451  27.649  1.00  0.00    -0.059 C 
ATOM     34  H   UNL A   1      34.118  31.735  26.664  1.00  0.00     0.024 H 
ATOM     35  H   UNL A   1      34.443  31.926  28.370  1.00  0.00     0.024 H 
ATOM     36  H   UNL A   1      32.798  31.755  27.808  1.00  0.00     0.024 H 
ENDBRANCH  27  33
ENDBRANCH  16  27
BRANCH  25  37
ATOM     37  S   UNL A   1      33.358  24.434  26.116  1.00  0.00    -0.118 SA
BRANCH  37  38
ATOM     38  C   UNL A   1      32.730  22.710  26.466  1.00  0.00     0.012 C 
BRANCH  38  39
ATOM     39  C   UNL A   1      31.245  22.586  26.118  1.00  0.00    -0.051 C 
ATOM     40  H   UNL A   1      31.128  22.565  25.055  1.00  0.00     0.024 H 
ATOM     41  H   UNL A   1      30.713  23.423  26.518  1.00  0.00     0.024 H 
ATOM     42  H   UNL A   1      30.855  21.682  26.537  1.00  0.00     0.024 H 
ENDBRANCH  38  39
BRANCH  38  43
ATOM     43  C   UNL A   1      33.458  21.440  25.969  1.00  0.00    -0.051 C 
ATOM     44  H   UNL A   1      33.347  21.358  24.908  1.00  0.00     0.024 H 
ATOM     45  H   UNL A   1      33.034  20.579  26.440  1.00  0.00     0.024 H 
ATOM     46  H   UNL A   1      34.497  21.506  26.214  1.00  0.00     0.024 H 
ENDBRANCH  38  43
BRANCH  38  47
ATOM     47  C   UNL A   1      32.913  22.595  28.005  1.00  0.00    -0.051 C 
ATOM     48  H   UNL A   1      33.179  23.551  28.405  1.00  0.00     0.024 H 
ATOM     49  H   UNL A   1      33.690  21.891  28.219  1.00  0.00     0.024 H 
ATOM     50  H   UNL A   1      31.998  22.263  28.450  1.00  0.00     0.024 H 
ENDBRANCH  38  47
ENDBRANCH  37  38
ENDBRANCH  25  37
BRANCH  26  51
ATOM     51  C   UNL A   1      29.508  27.093  23.443  1.00  0.00     0.048 C 
ATOM     52  H   UNL A   1      28.721  26.836  24.121  1.00  0.00     0.055 H 
ATOM     53  H   UNL A   1      29.571  26.501  22.553  1.00  0.00     0.055 H 
BRANCH  51  54
ATOM     54  C   UNL A   1      29.228  28.499  22.939  1.00  0.00    -0.028 A 
ATOM     55  C   UNL A   1      28.028  29.162  23.274  1.00  0.00    -0.056 A 
ATOM     56  C   UNL A   1      30.133  29.175  22.103  1.00  0.00    -0.056 A 
ATOM     57  C   UNL A   1      27.658  30.356  22.645  1.00  0.00    -0.043 A 
ATOM     58  H   UNL A   1      27.413  28.759  23.997  1.00  0.00     0.063 H 
ATOM     59  C   UNL A   1      29.784  30.401  21.512  1.00  0.00    -0.043 A 
ATOM     60  H   UNL A   1      31.063  28.766  21.922  1.00  0.00     0.063 H 
ATOM     61  C   UNL A   1      28.529  30.957  21.746  1.00  0.00     0.041 A 
ATOM     62  H   UNL A   1      26.742  30.786  22.849  1.00  0.00     0.064 H 
ATOM     63  H   UNL A   1      30.460  30.890  20.904  1.00  0.00     0.064 H 
ATOM     64  Cl  UNL A   1      28.032  32.368  20.894  1.00  0.00    -0.084 Cl
ENDBRANCH  51  54
ENDBRANCH  26  51
ENDBRANCH  12  15
ENDBRANCH  11  12
BRANCH  11  65
ATOM     65  C   UNL A   1      32.533  24.097  20.914  1.00  0.00    -0.051 C 
ATOM     66  H   UNL A   1      31.513  24.295  20.658  1.00  0.00     0.024 H 
ATOM     67  H   UNL A   1      32.801  23.118  20.577  1.00  0.00     0.024 H 
ATOM     68  H   UNL A   1      33.165  24.822  20.445  1.00  0.00     0.024 H 
ENDBRANCH  11  65
BRANCH  11  69
ATOM     69  C   UNL A   1      33.743  25.178  23.048  1.00  0.00    -0.051 C 
ATOM     70  H   UNL A   1      33.476  26.177  22.775  1.00  0.00     0.024 H 
ATOM     71  H   UNL A   1      34.717  24.951  22.666  1.00  0.00     0.024 H 
ATOM     72  H   UNL A   1      33.750  25.089  24.115  1.00  0.00     0.024 H 
ENDBRANCH  11  69
ENDBRANCH   8  11
ENDBRANCH   4   7
ENDBRANCH   1   4
BRANCH   1  73
ATOM     73  C   UNL A   1      36.874  21.671  24.233  1.00  0.00    -0.052 C 
ATOM     74  H   UNL A   1      37.307  21.387  23.296  1.00  0.00     0.027 H 
ATOM     75  H   UNL A   1      35.940  21.183  24.418  1.00  0.00     0.027 H 
BRANCH  73  76
ATOM     76  C   UNL A   1      37.829  21.244  25.355  1.00  0.00    -0.052 C 
ATOM     77  H   UNL A   1      38.585  20.617  24.928  1.00  0.00     0.027 H 
ATOM     78  H   UNL A   1      37.229  20.745  26.087  1.00  0.00     0.027 H 
BRANCH  76  79
ATOM     79  C   UNL A   1      38.525  22.401  26.085  1.00  0.00    -0.036 C 
ATOM     80  H   UNL A   1      37.858  22.781  26.830  1.00  0.00     0.028 H 
ATOM     81  H   UNL A   1      38.772  23.135  25.346  1.00  0.00     0.028 H 
BRANCH  79  82
ATOM     82  C   UNL A   1      39.833  21.998  26.768  1.00  0.00     0.018 C 
ATOM     83  H   UNL A   1      39.774  20.964  27.037  1.00  0.00     0.049 H 
ATOM     84  H   UNL A   1      39.953  22.626  27.627  1.00  0.00     0.049 H 
BRANCH  82  85
ATOM     85  N   UNL A   1      40.991  22.190  25.926  1.00  0.00    -0.352 N 
ATOM     86  C   UNL A   1      41.882  23.207  25.744  1.00  0.00     0.251 C 
ATOM     87  H   UNL A   1      41.181  21.410  25.356  1.00  0.00     0.163 HD
ATOM     88  O   UNL A   1      42.721  23.047  24.855  1.00  0.00    -0.269 OA
BRANCH  86  89
ATOM     89  C   UNL A   1      41.877  24.479  26.509  1.00  0.00     0.039 A 
ATOM     90  C   UNL A   1      42.537  24.705  27.717  1.00  0.00    -0.049 A 
ATOM     91  C   UNL A   1      41.140  25.533  25.941  1.00  0.00    -0.049 A 
ATOM     92  C   UNL A   1      42.404  25.915  28.384  1.00  0.00    -0.053 A 
ATOM     93  H   UNL A   1      43.132  23.963  28.119  1.00  0.00     0.063 H 
ATOM     94  C   UNL A   1      41.039  26.762  26.581  1.00  0.00    -0.053 A 
ATOM     95  H   UNL A   1      40.667  25.392  25.035  1.00  0.00     0.063 H 
ATOM     96  C   UNL A   1      41.642  26.937  27.824  1.00  0.00    -0.014 A 
ATOM     97  H   UNL A   1      42.870  26.057  29.294  1.00  0.00     0.063 H 
ATOM     98  H   UNL A   1      40.521  27.539  26.139  1.00  0.00     0.063 H 
BRANCH  96  99
ATOM     99  C   UNL A   1      41.589  28.205  28.546  1.00  0.00     0.031 A 
ATOM    100  C   UNL A   1      42.716  29.150  28.286  1.00  0.00     0.074 A 
ATOM    101  C   UNL A   1      40.538  28.565  29.306  1.00  0.00     0.049 A 
ATOM    102  N   UNL A   1      43.502  29.730  29.138  1.00  0.00    -0.248 NA
ATOM    103  C   UNL A   1      43.045  29.437  26.879  1.00  0.00    -0.034 C 
ATOM    104  C   UNL A   1      39.248  27.881  29.432  1.00  0.00    -0.036 A 
ATOM    105  N   UNL A   1      40.365  29.698  30.044  1.00  0.00    -0.354 N 
ATOM    106  C   UNL A   1      44.333  30.564  28.391  1.00  0.00     0.074 A 
ATOM    107  C   UNL A   1      44.072  30.277  27.004  1.00  0.00    -0.034 C 
ATOM    108  H   UNL A   1      42.598  29.080  26.020  1.00  0.00     0.065 H 
ATOM    109  C   UNL A   1      38.357  28.719  30.005  1.00  0.00    -0.036 A 
ATOM    110  H   UNL A   1      39.052  26.913  29.132  1.00  0.00     0.065 H 
ATOM    111  C   UNL A   1      39.048  29.934  30.403  1.00  0.00     0.049 A 
ATOM    112  H   UNL A   1      41.107  30.293  30.298  1.00  0.00     0.167 HD
ATOM    113  C   UNL A   1      45.061  31.566  28.952  1.00  0.00     0.037 A 
ATOM    114  H   UNL A   1      44.607  30.671  26.214  1.00  0.00     0.065 H 
ATOM    115  H   UNL A   1      37.352  28.529  30.137  1.00  0.00     0.065 H 
ATOM    116  C   UNL A   1      38.546  31.080  30.917  1.00  0.00     0.037 A 
ATOM    117  C   UNL A   1      45.221  31.401  30.367  1.00  0.00     0.049 A 
ATOM    118  C   UNL A   1      39.670  31.852  31.493  1.00  0.00     0.074 A 
ATOM    119  C   UNL A   1      45.886  30.511  31.181  1.00  0.00    -0.036 A 
ATOM    120  N   UNL A   1      44.376  32.108  31.180  1.00  0.00    -0.354 N 
ATOM    121  N   UNL A   1      40.344  31.502  32.553  1.00  0.00    -0.248 NA
ATOM    122  C   UNL A   1      40.282  32.897  30.684  1.00  0.00    -0.034 C 
ATOM    123  C   UNL A   1      45.109  30.436  32.374  1.00  0.00    -0.036 A 
ATOM    124  H   UNL A   1      46.761  30.005  30.972  1.00  0.00     0.065 H 
ATOM    125  C   UNL A   1      44.021  31.297  32.226  1.00  0.00     0.049 A 
ATOM    126  H   UNL A   1      44.078  33.035  31.039  1.00  0.00     0.167 HD
ATOM    127  C   UNL A   1      41.627  31.967  32.321  1.00  0.00     0.074 A 
ATOM    128  C   UNL A   1      41.491  32.941  31.248  1.00  0.00    -0.034 C 
ATOM    129  H   UNL A   1      39.894  33.445  29.901  1.00  0.00     0.065 H 
ATOM    130  H   UNL A   1      45.314  29.850  33.198  1.00  0.00     0.065 H 
ATOM    131  C   UNL A   1      42.708  31.308  32.830  1.00  0.00     0.037 A 
ATOM    132  H   UNL A   1      42.240  33.588  30.957  1.00  0.00     0.065 H 
BRANCH 113 133
ATOM    133  C   UNL A   1      45.350  32.875  28.265  1.00  0.00     0.064 A 
ATOM    134  C   UNL A   1      44.310  33.790  28.012  1.00  0.00     0.173 A 
ATOM    135  C   UNL A   1      46.564  33.122  27.588  1.00  0.00     0.173 A 
ATOM    136  F   UNL A   1      43.101  33.620  28.568  1.00  0.00    -0.203 F 
ATOM    137  C   UNL A   1      44.467  34.854  27.119  1.00  0.00     0.198 A 
ATOM    138  C   UNL A   1      46.733  34.212  26.737  1.00  0.00     0.198 A 
ATOM    139  F   UNL A   1      47.586  32.257  27.643  1.00  0.00    -0.203 F 
ATOM    140  F   UNL A   1      43.423  35.641  26.828  1.00  0.00    -0.200 F 
ATOM    141  C   UNL A   1      45.679  35.064  26.482  1.00  0.00     0.200 A 
ATOM    142  F   UNL A   1      47.905  34.383  26.108  1.00  0.00    -0.200 F 
ATOM    143  F   UNL A   1      45.817  36.054  25.590  1.00  0.00    -0.200 F 
ENDBRANCH 113 133
BRANCH 116 144
ATOM    144  C   UNL A   1      37.217  31.682  30.672  1.00  0.00     0.064 A 
ATOM    145  C   UNL A   1      36.240  31.700  31.679  1.00  0.00     0.173 A 
ATOM    146  C   UNL A   1      36.978  32.499  29.549  1.00  0.00     0.173 A 
ATOM    147  F   UNL A   1      36.411  30.982  32.798  1.00  0.00    -0.203 F 
ATOM    148  C   UNL A   1      35.108  32.515  31.586  1.00  0.00     0.198 A 
ATOM    149  C   UNL A   1      35.843  33.303  29.452  1.00  0.00     0.198 A 
ATOM    150  F   UNL A   1      37.888  32.612  28.571  1.00  0.00    -0.203 F 
ATOM    151  F   UNL A   1      34.234  32.563  32.601  1.00  0.00    -0.200 F 
ATOM    152  C   UNL A   1      34.917  33.325  30.477  1.00  0.00     0.200 A 
ATOM    153  F   UNL A   1      35.688  34.106  28.390  1.00  0.00    -0.200 F 
ATOM    154  F   UNL A   1      33.868  34.156  30.418  1.00  0.00    -0.200 F 
ENDBRANCH 116 144
BRANCH 131 155
ATOM    155  C   UNL A   1      42.459  30.326  33.938  1.00  0.00     0.064 A 
ATOM    156  C   UNL A   1      42.070  28.992  33.735  1.00  0.00     0.173 A 
ATOM    157  C   UNL A   1      42.743  30.725  35.252  1.00  0.00     0.173 A 
ATOM    158  F   UNL A   1      41.881  28.509  32.500  1.00  0.00    -0.203 F 
ATOM    159  C   UNL A   1      41.925  28.113  34.806  1.00  0.00     0.198 A 
ATOM    160  C   UNL A   1      42.636  29.833  36.315  1.00  0.00     0.198 A 
ATOM    161  F   UNL A   1      43.174  31.971  35.498  1.00  0.00    -0.203 F 
ATOM    162  F   UNL A   1      41.536  26.847  34.590  1.00  0.00    -0.200 F 
ATOM    163  C   UNL A   1      42.214  28.532  36.094  1.00  0.00     0.200 A 
ATOM    164  F   UNL A   1      42.966  30.229  37.553  1.00  0.00    -0.200 F 
ATOM    165  F   UNL A   1      42.116  27.674  37.119  1.00  0.00    -0.200 F 
ENDBRANCH 131 155
ENDBRANCH  96  99
ENDBRANCH  86  89
ENDBRANCH  82  85
ENDBRANCH  79  82
ENDBRANCH  76  79
ENDBRANCH  73  76
ENDBRANCH   1  73
TORSDOF 27
ENDMDL
MODEL 6
REMARK VINA RESULT:     -10.5      3.511      9.306
REMARK SMILES CC(C)c1ccc2c(c1)c(SC(C)(C)C)c(CC(C)(C)C(=O)NCCCCCCNC(=O)c1ccc(-c3c4nc(c(-c5c(F)c(F)c(F)c(F)c5F)c5ccc([nH]5)c(-c5c(F)c(F)c(F)c(F)c5F)c5nc(c(-c6c(F)c(F)c(F)c(F)c6F)c6ccc3[nH]6)C=C5)C=C4)cc1)n2Cc1ccc(Cl)cc1
REMARK SMILES IDX 25 1 24 4 23 7 21 8 22 9 18 11 17 12 16 15 4 16 5 17 9 18
REMARK SMILES IDX 6 19 8 21 7 23 10 25 96 26 2 27 1 29 3 33 11 37 12 38 13 39
REMARK SMILES IDX 14 43 15 47 97 51 98 54 99 55 104 56 100 57 103 59 101 61
REMARK SMILES IDX 102 64 19 65 20 69 26 73 27 76 28 79 29 82 30 85 31 86 32 88
REMARK SMILES IDX 33 89 34 90 95 91 35 92 94 94 36 96 37 99 38 100 88 101
REMARK SMILES IDX 39 102 93 103 87 104 89 105 40 106 92 107 86 109 85 111
REMARK SMILES IDX 41 113 73 116 53 117 72 118 54 119 57 120 71 121 90 122
REMARK SMILES IDX 55 123 56 125 70 127 91 128 58 131 42 133 43 134 51 135
REMARK SMILES IDX 44 136 45 137 49 138 52 139 46 140 47 141 50 142 48 143
REMARK SMILES IDX 74 144 75 145 83 146 76 147 77 148 81 149 84 150 78 151
REMARK SMILES IDX 79 152 82 153 80 154 59 155 60 156 68 157 61 158 62 159
REMARK SMILES IDX 66 160 69 161 63 162 64 163 67 164 65 165
REMARK H PARENT 25 2 25 3 24 5 24 6 23 10 17 13 17 14 5 20 9 22 6 24 2 28 1 30
REMARK H PARENT 1 31 1 32 3 34 3 35 3 36 13 40 13 41 13 42 14 44 14 45 14 46
REMARK H PARENT 15 48 15 49 15 50 97 52 97 53 99 58 104 60 100 62 103 63 19 66
REMARK H PARENT 19 67 19 68 20 70 20 71 20 72 26 74 26 75 27 77 27 78 28 80
REMARK H PARENT 28 81 29 83 29 84 30 87 34 93 95 95 35 97 94 98 93 108 87 110
REMARK H PARENT 89 112 92 114 86 115 54 124 57 126 90 129 55 130 91 132
REMARK Flexibility Score: inf
ROOT
ATOM      1  C   UNL A   1      34.966  21.318  24.732  1.00  0.00    -0.036 C 
ATOM      2  H   UNL A   1      35.057  20.393  24.201  1.00  0.00     0.028 H 
ATOM      3  H   UNL A   1      35.457  21.260  25.681  1.00  0.00     0.028 H 
ENDROOT
BRANCH   1   4
ATOM      4  C   UNL A   1      33.504  21.606  24.970  1.00  0.00     0.017 C 
ATOM      5  H   UNL A   1      33.188  22.372  24.292  1.00  0.00     0.049 H 
ATOM      6  H   UNL A   1      32.958  20.699  24.810  1.00  0.00     0.049 H 
BRANCH   4   7
ATOM      7  N   UNL A   1      33.252  22.048  26.326  1.00  0.00    -0.356 N 
ATOM      8  C   UNL A   1      32.580  23.165  26.750  1.00  0.00     0.226 C 
ATOM      9  O   UNL A   1      32.140  23.138  27.892  1.00  0.00    -0.275 OA
ATOM     10  H   UNL A   1      33.612  21.470  27.037  1.00  0.00     0.163 HD
BRANCH   8  11
ATOM     11  C   UNL A   1      32.216  24.243  25.722  1.00  0.00     0.049 C 
BRANCH  11  12
ATOM     12  C   UNL A   1      31.280  25.400  26.190  1.00  0.00     0.003 C 
ATOM     13  H   UNL A   1      30.283  25.014  26.227  1.00  0.00     0.034 H 
ATOM     14  H   UNL A   1      31.682  25.715  27.130  1.00  0.00     0.034 H 
BRANCH  12  15
ATOM     15  C   UNL A   1      31.250  26.618  25.366  1.00  0.00     0.034 A 
ATOM     16  C   UNL A   1      29.867  30.241  22.805  1.00  0.00    -0.045 A 
ATOM     17  C   UNL A   1      30.110  30.870  24.032  1.00  0.00    -0.057 A 
ATOM     18  C   UNL A   1      30.195  28.871  22.702  1.00  0.00    -0.048 A 
ATOM     19  C   UNL A   1      30.641  30.185  25.133  1.00  0.00    -0.037 A 
ATOM     20  H   UNL A   1      29.891  31.874  24.128  1.00  0.00     0.063 H 
ATOM     21  C   UNL A   1      30.720  28.134  23.800  1.00  0.00     0.014 A 
ATOM     22  H   UNL A   1      30.050  28.389  21.802  1.00  0.00     0.063 H 
ATOM     23  C   UNL A   1      30.906  28.813  25.009  1.00  0.00     0.050 A 
ATOM     24  H   UNL A   1      30.832  30.680  26.018  1.00  0.00     0.065 H 
ATOM     25  C   UNL A   1      31.082  26.748  23.994  1.00  0.00     0.037 A 
ATOM     26  N   UNL A   1      31.357  27.886  25.936  1.00  0.00    -0.339 N 
BRANCH  16  27
ATOM     27  C   UNL A   1      29.156  30.972  21.661  1.00  0.00    -0.022 C 
ATOM     28  H   UNL A   1      29.912  30.986  20.904  1.00  0.00     0.035 H 
BRANCH  27  29
ATOM     29  C   UNL A   1      27.917  30.246  21.113  1.00  0.00    -0.059 C 
ATOM     30  H   UNL A   1      28.210  29.589  20.321  1.00  0.00     0.024 H 
ATOM     31  H   UNL A   1      27.217  30.965  20.741  1.00  0.00     0.024 H 
ATOM     32  H   UNL A   1      27.461  29.677  21.896  1.00  0.00     0.024 H 
ENDBRANCH  27  29
BRANCH  27  33
ATOM     33  C   UNL A   1      28.747  32.414  22.001  1.00  0.00    -0.059 C 
ATOM     34  H   UNL A   1      27.936  32.400  22.698  1.00  0.00     0.024 H 
ATOM     35  H   UNL A   1      28.441  32.917  21.108  1.00  0.00     0.024 H 
ATOM     36  H   UNL A   1      29.580  32.929  22.433  1.00  0.00     0.024 H 
ENDBRANCH  27  33
ENDBRANCH  16  27
BRANCH  25  37
ATOM     37  S   UNL A   1      30.958  25.580  22.655  1.00  0.00    -0.118 SA
BRANCH  37  38
ATOM     38  C   UNL A   1      32.413  25.302  21.518  1.00  0.00     0.012 C 
BRANCH  38  39
ATOM     39  C   UNL A   1      33.024  23.915  21.737  1.00  0.00    -0.051 C 
ATOM     40  H   UNL A   1      32.462  23.391  22.482  1.00  0.00     0.024 H 
ATOM     41  H   UNL A   1      34.038  24.018  22.063  1.00  0.00     0.024 H 
ATOM     42  H   UNL A   1      32.998  23.365  20.819  1.00  0.00     0.024 H 
ENDBRANCH  38  39
BRANCH  38  43
ATOM     43  C   UNL A   1      32.348  25.574  19.998  1.00  0.00    -0.051 C 
ATOM     44  H   UNL A   1      32.964  26.416  19.760  1.00  0.00     0.024 H 
ATOM     45  H   UNL A   1      31.337  25.780  19.715  1.00  0.00     0.024 H 
ATOM     46  H   UNL A   1      32.700  24.715  19.467  1.00  0.00     0.024 H 
ENDBRANCH  38  43
BRANCH  38  47
ATOM     47  C   UNL A   1      33.418  26.390  21.989  1.00  0.00    -0.051 C 
ATOM     48  H   UNL A   1      33.452  27.180  21.268  1.00  0.00     0.024 H 
ATOM     49  H   UNL A   1      34.391  25.957  22.089  1.00  0.00     0.024 H 
ATOM     50  H   UNL A   1      33.103  26.782  22.933  1.00  0.00     0.024 H 
ENDBRANCH  38  47
ENDBRANCH  37  38
ENDBRANCH  25  37
BRANCH  26  51
ATOM     51  C   UNL A   1      32.033  28.251  27.210  1.00  0.00     0.048 C 
ATOM     52  H   UNL A   1      32.130  27.354  27.786  1.00  0.00     0.055 H 
ATOM     53  H   UNL A   1      31.412  29.013  27.632  1.00  0.00     0.055 H 
BRANCH  51  54
ATOM     54  C   UNL A   1      33.412  28.888  27.136  1.00  0.00    -0.028 A 
ATOM     55  C   UNL A   1      34.504  28.186  26.585  1.00  0.00    -0.056 A 
ATOM     56  C   UNL A   1      33.653  30.178  27.638  1.00  0.00    -0.056 A 
ATOM     57  C   UNL A   1      35.813  28.666  26.709  1.00  0.00    -0.043 A 
ATOM     58  H   UNL A   1      34.335  27.304  26.079  1.00  0.00     0.063 H 
ATOM     59  C   UNL A   1      34.962  30.684  27.715  1.00  0.00    -0.043 A 
ATOM     60  H   UNL A   1      32.861  30.759  27.952  1.00  0.00     0.063 H 
ATOM     61  C   UNL A   1      36.037  29.903  27.298  1.00  0.00     0.041 A 
ATOM     62  H   UNL A   1      36.606  28.102  26.364  1.00  0.00     0.064 H 
ATOM     63  H   UNL A   1      35.125  31.635  28.080  1.00  0.00     0.064 H 
ATOM     64  Cl  UNL A   1      37.652  30.447  27.546  1.00  0.00    -0.084 Cl
ENDBRANCH  51  54
ENDBRANCH  26  51
ENDBRANCH  12  15
ENDBRANCH  11  12
BRANCH  11  65
ATOM     65  C   UNL A   1      31.528  23.324  24.683  1.00  0.00    -0.051 C 
ATOM     66  H   UNL A   1      31.740  23.680  23.696  1.00  0.00     0.024 H 
ATOM     67  H   UNL A   1      30.470  23.331  24.844  1.00  0.00     0.024 H 
ATOM     68  H   UNL A   1      31.898  22.326  24.789  1.00  0.00     0.024 H 
ENDBRANCH  11  65
BRANCH  11  69
ATOM     69  C   UNL A   1      33.508  25.016  25.320  1.00  0.00    -0.051 C 
ATOM     70  H   UNL A   1      34.017  24.481  24.545  1.00  0.00     0.024 H 
ATOM     71  H   UNL A   1      34.149  25.107  26.172  1.00  0.00     0.024 H 
ATOM     72  H   UNL A   1      33.245  25.991  24.966  1.00  0.00     0.024 H 
ENDBRANCH  11  69
ENDBRANCH   8  11
ENDBRANCH   4   7
ENDBRANCH   1   4
BRANCH   1  73
ATOM     73  C   UNL A   1      35.624  22.422  23.919  1.00  0.00    -0.052 C 
ATOM     74  H   UNL A   1      34.942  23.245  23.856  1.00  0.00     0.027 H 
ATOM     75  H   UNL A   1      35.856  22.006  22.961  1.00  0.00     0.027 H 
BRANCH  73  76
ATOM     76  C   UNL A   1      36.942  22.932  24.514  1.00  0.00    -0.052 C 
ATOM     77  H   UNL A   1      36.716  23.735  25.186  1.00  0.00     0.027 H 
ATOM     78  H   UNL A   1      37.549  23.232  23.686  1.00  0.00     0.027 H 
BRANCH  76  79
ATOM     79  C   UNL A   1      37.753  21.881  25.284  1.00  0.00    -0.036 C 
ATOM     80  H   UNL A   1      38.383  21.365  24.590  1.00  0.00     0.028 H 
ATOM     81  H   UNL A   1      37.049  21.228  25.759  1.00  0.00     0.028 H 
BRANCH  79  82
ATOM     82  C   UNL A   1      38.631  22.469  26.390  1.00  0.00     0.018 C 
ATOM     83  H   UNL A   1      38.405  21.968  27.308  1.00  0.00     0.049 H 
ATOM     84  H   UNL A   1      38.419  23.517  26.444  1.00  0.00     0.049 H 
BRANCH  82  85
ATOM     85  N   UNL A   1      40.043  22.326  26.123  1.00  0.00    -0.352 N 
ATOM     86  C   UNL A   1      41.131  23.135  26.275  1.00  0.00     0.251 C 
ATOM     87  H   UNL A   1      40.274  21.445  25.747  1.00  0.00     0.163 HD
ATOM     88  O   UNL A   1      42.203  22.697  25.853  1.00  0.00    -0.269 OA
BRANCH  86  89
ATOM     89  C   UNL A   1      41.093  24.495  26.872  1.00  0.00     0.039 A 
ATOM     90  C   UNL A   1      40.360  25.577  26.385  1.00  0.00    -0.049 A 
ATOM     91  C   UNL A   1      41.868  24.677  28.030  1.00  0.00    -0.049 A 
ATOM     92  C   UNL A   1      40.455  26.826  26.982  1.00  0.00    -0.053 A 
ATOM     93  H   UNL A   1      39.738  25.447  25.572  1.00  0.00     0.063 H 
ATOM     94  C   UNL A   1      41.934  25.914  28.661  1.00  0.00    -0.053 A 
ATOM     95  H   UNL A   1      42.396  23.880  28.419  1.00  0.00     0.063 H 
ATOM     96  C   UNL A   1      41.255  26.998  28.110  1.00  0.00    -0.014 A 
ATOM     97  H   UNL A   1      39.935  27.627  26.592  1.00  0.00     0.063 H 
ATOM     98  H   UNL A   1      42.481  26.028  29.528  1.00  0.00     0.063 H 
BRANCH  96  99
ATOM     99  C   UNL A   1      41.268  28.322  28.725  1.00  0.00     0.031 A 
ATOM    100  C   UNL A   1      42.348  29.245  28.263  1.00  0.00     0.074 A 
ATOM    101  C   UNL A   1      40.304  28.741  29.566  1.00  0.00     0.049 A 
ATOM    102  N   UNL A   1      43.217  29.896  28.970  1.00  0.00    -0.248 NA
ATOM    103  C   UNL A   1      42.514  29.414  26.809  1.00  0.00    -0.034 C 
ATOM    104  C   UNL A   1      39.045  28.066  29.893  1.00  0.00    -0.036 A 
ATOM    105  N   UNL A   1      40.201  29.931  30.223  1.00  0.00    -0.354 N 
ATOM    106  C   UNL A   1      43.949  30.667  28.068  1.00  0.00     0.074 A 
ATOM    107  C   UNL A   1      43.538  30.265  26.748  1.00  0.00    -0.034 C 
ATOM    108  H   UNL A   1      41.978  28.985  26.038  1.00  0.00     0.065 H 
ATOM    109  C   UNL A   1      38.214  28.947  30.490  1.00  0.00    -0.036 A 
ATOM    110  H   UNL A   1      38.828  27.076  29.698  1.00  0.00     0.065 H 
ATOM    111  C   UNL A   1      38.930  30.193  30.707  1.00  0.00     0.049 A 
ATOM    112  H   UNL A   1      40.960  30.548  30.341  1.00  0.00     0.167 HD
ATOM    113  C   UNL A   1      44.723  31.715  28.459  1.00  0.00     0.037 A 
ATOM    114  H   UNL A   1      43.977  30.592  25.873  1.00  0.00     0.065 H 
ATOM    115  H   UNL A   1      37.232  28.766  30.750  1.00  0.00     0.065 H 
ATOM    116  C   UNL A   1      38.475  31.377  31.177  1.00  0.00     0.037 A 
ATOM    117  C   UNL A   1      45.042  31.669  29.855  1.00  0.00     0.049 A 
ATOM    118  C   UNL A   1      39.647  32.198  31.557  1.00  0.00     0.074 A 
ATOM    119  C   UNL A   1      45.805  30.851  30.661  1.00  0.00    -0.036 A 
ATOM    120  N   UNL A   1      44.285  32.439  30.697  1.00  0.00    -0.354 N 
ATOM    121  N   UNL A   1      40.439  31.939  32.559  1.00  0.00    -0.248 NA
ATOM    122  C   UNL A   1      40.152  33.173  30.601  1.00  0.00    -0.034 C 
ATOM    123  C   UNL A   1      45.167  30.875  31.935  1.00  0.00    -0.036 A 
ATOM    124  H   UNL A   1      46.657  30.333  30.397  1.00  0.00     0.065 H 
ATOM    125  C   UNL A   1      44.059  31.717  31.840  1.00  0.00     0.049 A 
ATOM    126  H   UNL A   1      43.962  33.350  30.515  1.00  0.00     0.167 HD
ATOM    127  C   UNL A   1      41.683  32.386  32.148  1.00  0.00     0.074 A 
ATOM    128  C   UNL A   1      41.416  33.267  31.020  1.00  0.00    -0.034 C 
ATOM    129  H   UNL A   1      39.672  33.652  29.823  1.00  0.00     0.065 H 
ATOM    130  H   UNL A   1      45.470  30.361  32.777  1.00  0.00     0.065 H 
ATOM    131  C   UNL A   1      42.822  31.775  32.584  1.00  0.00     0.037 A 
ATOM    132  H   UNL A   1      42.119  33.889  30.594  1.00  0.00     0.065 H 
BRANCH 113 133
ATOM    133  C   UNL A   1      44.918  32.962  27.638  1.00  0.00     0.064 A 
ATOM    134  C   UNL A   1      46.136  33.187  26.967  1.00  0.00     0.173 A 
ATOM    135  C   UNL A   1      44.055  34.074  27.733  1.00  0.00     0.173 A 
ATOM    136  F   UNL A   1      47.049  32.210  26.862  1.00  0.00    -0.203 F 
ATOM    137  C   UNL A   1      46.476  34.446  26.461  1.00  0.00     0.198 A 
ATOM    138  C   UNL A   1      44.374  35.314  27.184  1.00  0.00     0.198 A 
ATOM    139  F   UNL A   1      42.926  34.027  28.454  1.00  0.00    -0.203 F 
ATOM    140  F   UNL A   1      47.686  34.644  25.921  1.00  0.00    -0.200 F 
ATOM    141  C   UNL A   1      45.594  35.508  26.569  1.00  0.00     0.200 A 
ATOM    142  F   UNL A   1      43.520  36.338  27.323  1.00  0.00    -0.200 F 
ATOM    143  F   UNL A   1      45.937  36.725  26.128  1.00  0.00    -0.200 F 
ENDBRANCH 113 133
BRANCH 116 144
ATOM    144  C   UNL A   1      37.119  31.952  31.034  1.00  0.00     0.064 A 
ATOM    145  C   UNL A   1      36.209  31.918  32.101  1.00  0.00     0.173 A 
ATOM    146  C   UNL A   1      36.791  32.794  29.953  1.00  0.00     0.173 A 
ATOM    147  F   UNL A   1      36.467  31.174  33.186  1.00  0.00    -0.203 F 
ATOM    148  C   UNL A   1      35.055  32.708  32.103  1.00  0.00     0.198 A 
ATOM    149  C   UNL A   1      35.634  33.572  29.951  1.00  0.00     0.198 A 
ATOM    150  F   UNL A   1      37.634  32.957  28.923  1.00  0.00    -0.203 F 
ATOM    151  F   UNL A   1      34.247  32.706  33.172  1.00  0.00    -0.200 F 
ATOM    152  C   UNL A   1      34.775  33.543  31.033  1.00  0.00     0.200 A 
ATOM    153  F   UNL A   1      35.393  34.401  28.925  1.00  0.00    -0.200 F 
ATOM    154  F   UNL A   1      33.706  34.350  31.064  1.00  0.00    -0.200 F 
ENDBRANCH 116 144
BRANCH 131 155
ATOM    155  C   UNL A   1      42.710  30.889  33.791  1.00  0.00     0.064 A 
ATOM    156  C   UNL A   1      42.765  31.353  35.116  1.00  0.00     0.173 A 
ATOM    157  C   UNL A   1      42.416  29.533  33.592  1.00  0.00     0.173 A 
ATOM    158  F   UNL A   1      42.940  32.654  35.384  1.00  0.00    -0.203 F 
ATOM    159  C   UNL A   1      42.584  30.486  36.191  1.00  0.00     0.198 A 
ATOM    160  C   UNL A   1      42.195  28.677  34.668  1.00  0.00     0.198 A 
ATOM    161  F   UNL A   1      42.293  29.047  32.348  1.00  0.00    -0.203 F 
ATOM    162  F   UNL A   1      42.658  30.949  37.448  1.00  0.00    -0.200 F 
ATOM    163  C   UNL A   1      42.292  29.151  35.966  1.00  0.00     0.200 A 
ATOM    164  F   UNL A   1      41.862  27.398  34.445  1.00  0.00    -0.200 F 
ATOM    165  F   UNL A   1      42.075  28.326  37.000  1.00  0.00    -0.200 F 
ENDBRANCH 131 155
ENDBRANCH  96  99
ENDBRANCH  86  89
ENDBRANCH  82  85
ENDBRANCH  79  82
ENDBRANCH  76  79
ENDBRANCH  73  76
ENDBRANCH   1  73
TORSDOF 27
ENDMDL
MODEL 7
REMARK VINA RESULT:     -10.5      3.482      9.033
REMARK SMILES CC(C)c1ccc2c(c1)c(SC(C)(C)C)c(CC(C)(C)C(=O)NCCCCCCNC(=O)c1ccc(-c3c4nc(c(-c5c(F)c(F)c(F)c(F)c5F)c5ccc([nH]5)c(-c5c(F)c(F)c(F)c(F)c5F)c5nc(c(-c6c(F)c(F)c(F)c(F)c6F)c6ccc3[nH]6)C=C5)C=C4)cc1)n2Cc1ccc(Cl)cc1
REMARK SMILES IDX 25 1 24 4 23 7 21 8 22 9 18 11 17 12 16 15 4 16 5 17 9 18
REMARK SMILES IDX 6 19 8 21 7 23 10 25 96 26 2 27 1 29 3 33 11 37 12 38 13 39
REMARK SMILES IDX 14 43 15 47 97 51 98 54 99 55 104 56 100 57 103 59 101 61
REMARK SMILES IDX 102 64 19 65 20 69 26 73 27 76 28 79 29 82 30 85 31 86 32 88
REMARK SMILES IDX 33 89 34 90 95 91 35 92 94 94 36 96 37 99 38 100 88 101
REMARK SMILES IDX 39 102 93 103 87 104 89 105 40 106 92 107 86 109 85 111
REMARK SMILES IDX 41 113 73 116 53 117 72 118 54 119 57 120 71 121 90 122
REMARK SMILES IDX 55 123 56 125 70 127 91 128 58 131 42 133 43 134 51 135
REMARK SMILES IDX 44 136 45 137 49 138 52 139 46 140 47 141 50 142 48 143
REMARK SMILES IDX 74 144 75 145 83 146 76 147 77 148 81 149 84 150 78 151
REMARK SMILES IDX 79 152 82 153 80 154 59 155 60 156 68 157 61 158 62 159
REMARK SMILES IDX 66 160 69 161 63 162 64 163 67 164 65 165
REMARK H PARENT 25 2 25 3 24 5 24 6 23 10 17 13 17 14 5 20 9 22 6 24 2 28 1 30
REMARK H PARENT 1 31 1 32 3 34 3 35 3 36 13 40 13 41 13 42 14 44 14 45 14 46
REMARK H PARENT 15 48 15 49 15 50 97 52 97 53 99 58 104 60 100 62 103 63 19 66
REMARK H PARENT 19 67 19 68 20 70 20 71 20 72 26 74 26 75 27 77 27 78 28 80
REMARK H PARENT 28 81 29 83 29 84 30 87 34 93 95 95 35 97 94 98 93 108 87 110
REMARK H PARENT 89 112 92 114 86 115 54 124 57 126 90 129 55 130 91 132
REMARK Flexibility Score: inf
ROOT
ATOM      1  C   UNL A   1      35.783  23.646  25.847  1.00  0.00    -0.036 C 
ATOM      2  H   UNL A   1      35.429  22.635  25.844  1.00  0.00     0.028 H 
ATOM      3  H   UNL A   1      35.871  24.014  26.847  1.00  0.00     0.028 H 
ENDROOT
BRANCH   1   4
ATOM      4  C   UNL A   1      34.795  24.513  25.105  1.00  0.00     0.017 C 
ATOM      5  H   UNL A   1      33.906  24.605  25.694  1.00  0.00     0.049 H 
ATOM      6  H   UNL A   1      35.251  25.467  24.941  1.00  0.00     0.049 H 
BRANCH   4   7
ATOM      7  N   UNL A   1      34.446  23.955  23.815  1.00  0.00    -0.356 N 
ATOM      8  C   UNL A   1      33.846  24.575  22.750  1.00  0.00     0.226 C 
ATOM      9  O   UNL A   1      34.009  24.056  21.653  1.00  0.00    -0.275 OA
ATOM     10  H   UNL A   1      34.669  23.005  23.687  1.00  0.00     0.163 HD
BRANCH   8  11
ATOM     11  C   UNL A   1      33.237  25.967  22.952  1.00  0.00     0.049 C 
BRANCH  11  12
ATOM     12  C   UNL A   1      32.467  26.233  24.282  1.00  0.00     0.003 C 
ATOM     13  H   UNL A   1      32.043  25.304  24.600  1.00  0.00     0.034 H 
ATOM     14  H   UNL A   1      33.197  26.651  24.943  1.00  0.00     0.034 H 
BRANCH  12  15
ATOM     15  C   UNL A   1      31.381  27.224  24.245  1.00  0.00     0.034 A 
ATOM     16  C   UNL A   1      28.458  30.596  22.948  1.00  0.00    -0.045 A 
ATOM     17  C   UNL A   1      27.666  29.465  22.716  1.00  0.00    -0.057 A 
ATOM     18  C   UNL A   1      29.719  30.393  23.551  1.00  0.00    -0.048 A 
ATOM     19  C   UNL A   1      28.093  28.171  23.044  1.00  0.00    -0.037 A 
ATOM     20  H   UNL A   1      26.735  29.589  22.288  1.00  0.00     0.063 H 
ATOM     21  C   UNL A   1      30.197  29.095  23.884  1.00  0.00     0.014 A 
ATOM     22  H   UNL A   1      30.311  31.211  23.757  1.00  0.00     0.063 H 
ATOM     23  C   UNL A   1      29.372  28.003  23.594  1.00  0.00     0.050 A 
ATOM     24  H   UNL A   1      27.478  27.358  22.884  1.00  0.00     0.065 H 
ATOM     25  C   UNL A   1      31.436  28.597  24.441  1.00  0.00     0.037 A 
ATOM     26  N   UNL A   1      30.071  26.857  23.942  1.00  0.00    -0.339 N 
BRANCH  16  27
ATOM     27  C   UNL A   1      28.032  31.982  22.453  1.00  0.00    -0.022 C 
ATOM     28  H   UNL A   1      27.018  32.037  22.793  1.00  0.00     0.035 H 
BRANCH  27  29
ATOM     29  C   UNL A   1      28.824  33.149  23.066  1.00  0.00    -0.059 C 
ATOM     30  H   UNL A   1      28.144  33.860  23.487  1.00  0.00     0.024 H 
ATOM     31  H   UNL A   1      29.409  33.623  22.304  1.00  0.00     0.024 H 
ATOM     32  H   UNL A   1      29.471  32.778  23.832  1.00  0.00     0.024 H 
ENDBRANCH  27  29
BRANCH  27  33
ATOM     33  C   UNL A   1      28.068  32.138  20.925  1.00  0.00    -0.059 C 
ATOM     34  H   UNL A   1      29.084  32.143  20.591  1.00  0.00     0.024 H 
ATOM     35  H   UNL A   1      27.596  33.057  20.650  1.00  0.00     0.024 H 
ATOM     36  H   UNL A   1      27.547  31.320  20.471  1.00  0.00     0.024 H 
ENDBRANCH  27  33
ENDBRANCH  16  27
BRANCH  25  37
ATOM     37  S   UNL A   1      32.733  29.719  24.921  1.00  0.00    -0.118 SA
BRANCH  37  38
ATOM     38  C   UNL A   1      33.212  29.882  26.719  1.00  0.00     0.012 C 
BRANCH  38  39
ATOM     39  C   UNL A   1      34.603  29.295  26.972  1.00  0.00    -0.051 C 
ATOM     40  H   UNL A   1      35.347  29.955  26.576  1.00  0.00     0.024 H 
ATOM     41  H   UNL A   1      34.681  28.342  26.493  1.00  0.00     0.024 H 
ATOM     42  H   UNL A   1      34.755  29.179  28.025  1.00  0.00     0.024 H 
ENDBRANCH  38  39
BRANCH  38  43
ATOM     43  C   UNL A   1      33.093  31.213  27.497  1.00  0.00    -0.051 C 
ATOM     44  H   UNL A   1      32.348  31.116  28.258  1.00  0.00     0.024 H 
ATOM     45  H   UNL A   1      32.816  31.996  26.823  1.00  0.00     0.024 H 
ATOM     46  H   UNL A   1      34.034  31.446  27.948  1.00  0.00     0.024 H 
ENDBRANCH  38  43
BRANCH  38  47
ATOM     47  C   UNL A   1      32.143  29.007  27.430  1.00  0.00    -0.051 C 
ATOM     48  H   UNL A   1      31.202  29.121  26.934  1.00  0.00     0.024 H 
ATOM     49  H   UNL A   1      32.049  29.317  28.449  1.00  0.00     0.024 H 
ATOM     50  H   UNL A   1      32.442  27.980  27.395  1.00  0.00     0.024 H 
ENDBRANCH  38  47
ENDBRANCH  37  38
ENDBRANCH  25  37
BRANCH  26  51
ATOM     51  C   UNL A   1      29.430  25.531  24.156  1.00  0.00     0.048 C 
ATOM     52  H   UNL A   1      28.871  25.302  23.273  1.00  0.00     0.055 H 
ATOM     53  H   UNL A   1      28.859  25.653  25.053  1.00  0.00     0.055 H 
BRANCH  51  54
ATOM     54  C   UNL A   1      30.327  24.337  24.442  1.00  0.00    -0.028 A 
ATOM     55  C   UNL A   1      30.720  23.463  23.406  1.00  0.00    -0.056 A 
ATOM     56  C   UNL A   1      30.769  24.044  25.743  1.00  0.00    -0.056 A 
ATOM     57  C   UNL A   1      31.355  22.248  23.684  1.00  0.00    -0.043 A 
ATOM     58  H   UNL A   1      30.537  23.726  22.426  1.00  0.00     0.063 H 
ATOM     59  C   UNL A   1      31.455  22.849  26.015  1.00  0.00    -0.043 A 
ATOM     60  H   UNL A   1      30.589  24.716  26.506  1.00  0.00     0.063 H 
ATOM     61  C   UNL A   1      31.696  21.934  24.993  1.00  0.00     0.041 A 
ATOM     62  H   UNL A   1      31.568  21.588  22.919  1.00  0.00     0.064 H 
ATOM     63  H   UNL A   1      31.779  22.648  26.975  1.00  0.00     0.064 H 
ATOM     64  Cl  UNL A   1      32.382  20.396  25.349  1.00  0.00    -0.084 Cl
ENDBRANCH  51  54
ENDBRANCH  26  51
ENDBRANCH  12  15
ENDBRANCH  11  12
BRANCH  11  65
ATOM     65  C   UNL A   1      32.293  25.968  21.724  1.00  0.00    -0.051 C 
ATOM     66  H   UNL A   1      32.876  25.980  20.826  1.00  0.00     0.024 H 
ATOM     67  H   UNL A   1      31.668  26.836  21.755  1.00  0.00     0.024 H 
ATOM     68  H   UNL A   1      31.685  25.089  21.742  1.00  0.00     0.024 H 
ENDBRANCH  11  65
BRANCH  11  69
ATOM     69  C   UNL A   1      34.387  27.016  23.030  1.00  0.00    -0.051 C 
ATOM     70  H   UNL A   1      34.589  27.249  24.055  1.00  0.00     0.024 H 
ATOM     71  H   UNL A   1      34.094  27.906  22.512  1.00  0.00     0.024 H 
ATOM     72  H   UNL A   1      35.269  26.613  22.576  1.00  0.00     0.024 H 
ENDBRANCH  11  69
ENDBRANCH   8  11
ENDBRANCH   4   7
ENDBRANCH   1   4
BRANCH   1  73
ATOM     73  C   UNL A   1      37.157  23.690  25.197  1.00  0.00    -0.052 C 
ATOM     74  H   UNL A   1      37.333  24.686  24.848  1.00  0.00     0.027 H 
ATOM     75  H   UNL A   1      37.149  22.972  24.403  1.00  0.00     0.027 H 
BRANCH  73  76
ATOM     76  C   UNL A   1      38.303  23.299  26.138  1.00  0.00    -0.052 C 
ATOM     77  H   UNL A   1      37.977  23.461  27.145  1.00  0.00     0.027 H 
ATOM     78  H   UNL A   1      39.140  23.907  25.862  1.00  0.00     0.027 H 
BRANCH  76  79
ATOM     79  C   UNL A   1      38.771  21.842  26.017  1.00  0.00    -0.036 C 
ATOM     80  H   UNL A   1      38.925  21.622  24.982  1.00  0.00     0.028 H 
ATOM     81  H   UNL A   1      38.009  21.231  26.455  1.00  0.00     0.028 H 
BRANCH  79  82
ATOM     82  C   UNL A   1      40.068  21.548  26.772  1.00  0.00     0.018 C 
ATOM     83  H   UNL A   1      40.025  20.546  27.147  1.00  0.00     0.049 H 
ATOM     84  H   UNL A   1      40.150  22.266  27.562  1.00  0.00     0.049 H 
BRANCH  82  85
ATOM     85  N   UNL A   1      41.244  21.679  25.944  1.00  0.00    -0.352 N 
ATOM     86  C   UNL A   1      42.154  22.672  25.727  1.00  0.00     0.251 C 
ATOM     87  H   UNL A   1      41.432  20.869  25.417  1.00  0.00     0.163 HD
ATOM     88  O   UNL A   1      43.006  22.454  24.864  1.00  0.00    -0.269 OA
BRANCH  86  89
ATOM     89  C   UNL A   1      42.155  23.982  26.427  1.00  0.00     0.039 A 
ATOM     90  C   UNL A   1      41.500  25.136  25.995  1.00  0.00    -0.049 A 
ATOM     91  C   UNL A   1      42.880  24.033  27.630  1.00  0.00    -0.049 A 
ATOM     92  C   UNL A   1      41.629  26.328  26.693  1.00  0.00    -0.053 A 
ATOM     93  H   UNL A   1      40.913  25.102  25.147  1.00  0.00     0.063 H 
ATOM     94  C   UNL A   1      42.977  25.212  28.358  1.00  0.00    -0.053 A 
ATOM     95  H   UNL A   1      43.348  23.182  27.978  1.00  0.00     0.063 H 
ATOM     96  C   UNL A   1      42.381  26.371  27.865  1.00  0.00    -0.014 A 
ATOM     97  H   UNL A   1      41.168  27.184  26.345  1.00  0.00     0.063 H 
ATOM     98  H   UNL A   1      43.486  25.230  29.256  1.00  0.00     0.063 H 
BRANCH  96  99
ATOM     99  C   UNL A   1      42.429  27.640  28.584  1.00  0.00     0.031 A 
ATOM    100  C   UNL A   1      43.584  28.530  28.256  1.00  0.00     0.074 A 
ATOM    101  C   UNL A   1      41.442  28.051  29.401  1.00  0.00     0.049 A 
ATOM    102  N   UNL A   1      44.443  29.073  29.060  1.00  0.00    -0.248 NA
ATOM    103  C   UNL A   1      43.845  28.799  26.832  1.00  0.00    -0.034 C 
ATOM    104  C   UNL A   1      40.130  27.429  29.603  1.00  0.00    -0.036 A 
ATOM    105  N   UNL A   1      41.365  29.192  30.143  1.00  0.00    -0.354 N 
ATOM    106  C   UNL A   1      45.269  29.865  28.263  1.00  0.00     0.074 A 
ATOM    107  C   UNL A   1      44.916  29.590  26.895  1.00  0.00    -0.034 C 
ATOM    108  H   UNL A   1      43.333  28.463  26.001  1.00  0.00     0.065 H 
ATOM    109  C   UNL A   1      39.314  28.310  30.222  1.00  0.00    -0.036 A 
ATOM    110  H   UNL A   1      39.871  26.471  29.319  1.00  0.00     0.065 H 
ATOM    111  C   UNL A   1      40.083  29.491  30.576  1.00  0.00     0.049 A 
ATOM    112  H   UNL A   1      42.148  29.751  30.352  1.00  0.00     0.167 HD
ATOM    113  C   UNL A   1      46.074  30.833  28.778  1.00  0.00     0.037 A 
ATOM    114  H   UNL A   1      45.424  29.956  26.074  1.00  0.00     0.065 H 
ATOM    115  H   UNL A   1      38.310  28.168  30.411  1.00  0.00     0.065 H 
ATOM    116  C   UNL A   1      39.667  30.660  31.113  1.00  0.00     0.037 A 
ATOM    117  C   UNL A   1      46.307  30.662  30.182  1.00  0.00     0.049 A 
ATOM    118  C   UNL A   1      40.858  31.379  31.620  1.00  0.00     0.074 A 
ATOM    119  C   UNL A   1      46.975  29.742  30.961  1.00  0.00    -0.036 A 
ATOM    120  N   UNL A   1      45.545  31.409  31.039  1.00  0.00    -0.354 N 
ATOM    121  N   UNL A   1      41.573  30.999  32.641  1.00  0.00    -0.248 NA
ATOM    122  C   UNL A   1      41.471  32.393  30.774  1.00  0.00    -0.034 C 
ATOM    123  C   UNL A   1      46.264  29.706  32.196  1.00  0.00    -0.036 A 
ATOM    124  H   UNL A   1      47.812  29.195  30.704  1.00  0.00     0.065 H 
ATOM    125  C   UNL A   1      45.211  30.618  32.107  1.00  0.00     0.049 A 
ATOM    126  H   UNL A   1      45.283  32.349  30.912  1.00  0.00     0.167 HD
ATOM    127  C   UNL A   1      42.861  31.401  32.336  1.00  0.00     0.074 A 
ATOM    128  C   UNL A   1      42.711  32.379  31.268  1.00  0.00    -0.034 C 
ATOM    129  H   UNL A   1      41.065  32.957  30.012  1.00  0.00     0.065 H 
ATOM    130  H   UNL A   1      46.488  29.113  33.010  1.00  0.00     0.065 H 
ATOM    131  C   UNL A   1      43.937  30.692  32.784  1.00  0.00     0.037 A 
ATOM    132  H   UNL A   1      43.472  32.989  30.932  1.00  0.00     0.065 H 
BRANCH 113 133
ATOM    133  C   UNL A   1      46.386  32.125  28.070  1.00  0.00     0.064 A 
ATOM    134  C   UNL A   1      45.366  33.064  27.825  1.00  0.00     0.173 A 
ATOM    135  C   UNL A   1      47.594  32.332  27.369  1.00  0.00     0.173 A 
ATOM    136  F   UNL A   1      44.163  32.934  28.404  1.00  0.00    -0.203 F 
ATOM    137  C   UNL A   1      45.535  34.114  26.916  1.00  0.00     0.198 A 
ATOM    138  C   UNL A   1      47.777  33.407  26.502  1.00  0.00     0.198 A 
ATOM    139  F   UNL A   1      48.594  31.441  27.416  1.00  0.00    -0.203 F 
ATOM    140  F   UNL A   1      44.507  34.925  26.634  1.00  0.00    -0.200 F 
ATOM    141  C   UNL A   1      46.741  34.284  26.256  1.00  0.00     0.200 A 
ATOM    142  F   UNL A   1      48.941  33.540  25.851  1.00  0.00    -0.200 F 
ATOM    143  F   UNL A   1      46.889  35.260  25.350  1.00  0.00    -0.200 F 
ENDBRANCH 113 133
BRANCH 116 144
ATOM    144  C   UNL A   1      38.356  31.324  30.941  1.00  0.00     0.064 A 
ATOM    145  C   UNL A   1      37.833  31.560  29.660  1.00  0.00     0.173 A 
ATOM    146  C   UNL A   1      37.467  31.483  32.023  1.00  0.00     0.173 A 
ATOM    147  F   UNL A   1      38.602  31.390  28.575  1.00  0.00    -0.203 F 
ATOM    148  C   UNL A   1      36.489  31.897  29.470  1.00  0.00     0.198 A 
ATOM    149  C   UNL A   1      36.130  31.832  31.832  1.00  0.00     0.198 A 
ATOM    150  F   UNL A   1      37.849  31.204  33.277  1.00  0.00    -0.203 F 
ATOM    151  F   UNL A   1      36.007  32.041  28.227  1.00  0.00    -0.200 F 
ATOM    152  C   UNL A   1      35.637  32.022  30.555  1.00  0.00     0.200 A 
ATOM    153  F   UNL A   1      35.309  31.915  32.888  1.00  0.00    -0.200 F 
ATOM    154  F   UNL A   1      34.336  32.279  30.369  1.00  0.00    -0.200 F 
ENDBRANCH 116 144
BRANCH 131 155
ATOM    155  C   UNL A   1      43.705  29.725  33.909  1.00  0.00     0.064 A 
ATOM    156  C   UNL A   1      43.279  28.398  33.731  1.00  0.00     0.173 A 
ATOM    157  C   UNL A   1      44.046  30.126  35.209  1.00  0.00     0.173 A 
ATOM    158  F   UNL A   1      43.033  27.912  32.508  1.00  0.00    -0.203 F 
ATOM    159  C   UNL A   1      43.151  27.531  34.814  1.00  0.00     0.198 A 
ATOM    160  C   UNL A   1      43.956  29.245  36.282  1.00  0.00     0.198 A 
ATOM    161  F   UNL A   1      44.515  31.364  35.429  1.00  0.00    -0.203 F 
ATOM    162  F   UNL A   1      42.725  26.274  34.622  1.00  0.00    -0.200 F 
ATOM    163  C   UNL A   1      43.497  27.953  36.087  1.00  0.00     0.200 A 
ATOM    164  F   UNL A   1      44.341  29.642  37.504  1.00  0.00    -0.200 F 
ATOM    165  F   UNL A   1      43.415  27.106  37.122  1.00  0.00    -0.200 F 
ENDBRANCH 131 155
ENDBRANCH  96  99
ENDBRANCH  86  89
ENDBRANCH  82  85
ENDBRANCH  79  82
ENDBRANCH  76  79
ENDBRANCH  73  76
ENDBRANCH   1  73
TORSDOF 27
ENDMDL
MODEL 8
REMARK VINA RESULT:     -10.4      4.580      8.414
REMARK SMILES CC(C)c1ccc2c(c1)c(SC(C)(C)C)c(CC(C)(C)C(=O)NCCCCCCNC(=O)c1ccc(-c3c4nc(c(-c5c(F)c(F)c(F)c(F)c5F)c5ccc([nH]5)c(-c5c(F)c(F)c(F)c(F)c5F)c5nc(c(-c6c(F)c(F)c(F)c(F)c6F)c6ccc3[nH]6)C=C5)C=C4)cc1)n2Cc1ccc(Cl)cc1
REMARK SMILES IDX 25 1 24 4 23 7 21 8 22 9 18 11 17 12 16 15 4 16 5 17 9 18
REMARK SMILES IDX 6 19 8 21 7 23 10 25 96 26 2 27 1 29 3 33 11 37 12 38 13 39
REMARK SMILES IDX 14 43 15 47 97 51 98 54 99 55 104 56 100 57 103 59 101 61
REMARK SMILES IDX 102 64 19 65 20 69 26 73 27 76 28 79 29 82 30 85 31 86 32 88
REMARK SMILES IDX 33 89 34 90 95 91 35 92 94 94 36 96 37 99 38 100 88 101
REMARK SMILES IDX 39 102 93 103 87 104 89 105 40 106 92 107 86 109 85 111
REMARK SMILES IDX 41 113 73 116 53 117 72 118 54 119 57 120 71 121 90 122
REMARK SMILES IDX 55 123 56 125 70 127 91 128 58 131 42 133 43 134 51 135
REMARK SMILES IDX 44 136 45 137 49 138 52 139 46 140 47 141 50 142 48 143
REMARK SMILES IDX 74 144 75 145 83 146 76 147 77 148 81 149 84 150 78 151
REMARK SMILES IDX 79 152 82 153 80 154 59 155 60 156 68 157 61 158 62 159
REMARK SMILES IDX 66 160 69 161 63 162 64 163 67 164 65 165
REMARK H PARENT 25 2 25 3 24 5 24 6 23 10 17 13 17 14 5 20 9 22 6 24 2 28 1 30
REMARK H PARENT 1 31 1 32 3 34 3 35 3 36 13 40 13 41 13 42 14 44 14 45 14 46
REMARK H PARENT 15 48 15 49 15 50 97 52 97 53 99 58 104 60 100 62 103 63 19 66
REMARK H PARENT 19 67 19 68 20 70 20 71 20 72 26 74 26 75 27 77 27 78 28 80
REMARK H PARENT 28 81 29 83 29 84 30 87 34 93 95 95 35 97 94 98 93 108 87 110
REMARK H PARENT 89 112 92 114 86 115 54 124 57 126 90 129 55 130 91 132
REMARK Flexibility Score: inf
ROOT
ATOM      1  C   UNL A   1      39.464  27.962  28.170  1.00  0.00    -0.036 C 
ATOM      2  H   UNL A   1      39.144  27.557  29.108  1.00  0.00     0.028 H 
ATOM      3  H   UNL A   1      39.122  27.355  27.359  1.00  0.00     0.028 H 
ENDROOT
BRANCH   1   4
ATOM      4  C   UNL A   1      40.973  27.992  28.139  1.00  0.00     0.017 C 
ATOM      5  H   UNL A   1      41.314  27.368  27.338  1.00  0.00     0.049 H 
ATOM      6  H   UNL A   1      41.281  29.007  27.997  1.00  0.00     0.049 H 
BRANCH   4   7
ATOM      7  N   UNL A   1      41.550  27.517  29.379  1.00  0.00    -0.356 N 
ATOM      8  C   UNL A   1      42.560  26.608  29.560  1.00  0.00     0.226 C 
ATOM      9  O   UNL A   1      43.153  26.655  30.629  1.00  0.00    -0.275 OA
ATOM     10  H   UNL A   1      41.166  27.898  30.202  1.00  0.00     0.163 HD
BRANCH   8  11
ATOM     11  C   UNL A   1      43.033  25.781  28.358  1.00  0.00     0.049 C 
BRANCH  11  12
ATOM     12  C   UNL A   1      41.957  25.327  27.324  1.00  0.00     0.003 C 
ATOM     13  H   UNL A   1      41.028  25.235  27.846  1.00  0.00     0.034 H 
ATOM     14  H   UNL A   1      41.978  26.074  26.560  1.00  0.00     0.034 H 
BRANCH  12  15
ATOM     15  C   UNL A   1      42.193  24.059  26.619  1.00  0.00     0.034 A 
ATOM     16  C   UNL A   1      43.906  19.955  25.267  1.00  0.00    -0.045 A 
ATOM     17  C   UNL A   1      42.786  19.539  25.997  1.00  0.00    -0.057 A 
ATOM     18  C   UNL A   1      44.084  21.344  25.086  1.00  0.00    -0.048 A 
ATOM     19  C   UNL A   1      41.873  20.447  26.551  1.00  0.00    -0.037 A 
ATOM     20  H   UNL A   1      42.628  18.529  26.132  1.00  0.00     0.063 H 
ATOM     21  C   UNL A   1      43.190  22.300  25.646  1.00  0.00     0.014 A 
ATOM     22  H   UNL A   1      44.886  21.677  24.531  1.00  0.00     0.063 H 
ATOM     23  C   UNL A   1      42.110  21.821  26.395  1.00  0.00     0.050 A 
ATOM     24  H   UNL A   1      41.043  20.111  27.065  1.00  0.00     0.065 H 
ATOM     25  C   UNL A   1      43.157  23.745  25.670  1.00  0.00     0.037 A 
ATOM     26  N   UNL A   1      41.429  22.924  26.885  1.00  0.00    -0.339 N 
BRANCH  16  27
ATOM     27  C   UNL A   1      44.965  18.954  24.794  1.00  0.00    -0.022 C 
ATOM     28  H   UNL A   1      44.567  18.026  25.147  1.00  0.00     0.035 H 
BRANCH  27  29
ATOM     29  C   UNL A   1      45.130  18.875  23.267  1.00  0.00    -0.059 C 
ATOM     30  H   UNL A   1      44.543  19.641  22.805  1.00  0.00     0.024 H 
ATOM     31  H   UNL A   1      44.802  17.916  22.921  1.00  0.00     0.024 H 
ATOM     32  H   UNL A   1      46.159  19.012  23.011  1.00  0.00     0.024 H 
ENDBRANCH  27  29
BRANCH  27  33
ATOM     33  C   UNL A   1      46.356  19.179  25.407  1.00  0.00    -0.059 C 
ATOM     34  H   UNL A   1      47.107  18.865  24.713  1.00  0.00     0.024 H 
ATOM     35  H   UNL A   1      46.443  18.612  26.309  1.00  0.00     0.024 H 
ATOM     36  H   UNL A   1      46.486  20.219  25.626  1.00  0.00     0.024 H 
ENDBRANCH  27  33
ENDBRANCH  16  27
BRANCH  25  37
ATOM     37  S   UNL A   1      44.399  24.698  24.820  1.00  0.00    -0.118 SA
BRANCH  37  38
ATOM     38  C   UNL A   1      46.210  24.347  25.111  1.00  0.00     0.012 C 
BRANCH  38  39
ATOM     39  C   UNL A   1      46.704  23.219  24.202  1.00  0.00    -0.051 C 
ATOM     40  H   UNL A   1      47.180  23.639  23.339  1.00  0.00     0.024 H 
ATOM     41  H   UNL A   1      45.874  22.620  23.893  1.00  0.00     0.024 H 
ATOM     42  H   UNL A   1      47.405  22.612  24.735  1.00  0.00     0.024 H 
ENDBRANCH  38  39
BRANCH  38  43
ATOM     43  C   UNL A   1      47.282  25.461  25.137  1.00  0.00    -0.051 C 
ATOM     44  H   UNL A   1      47.878  25.362  26.020  1.00  0.00     0.024 H 
ATOM     45  H   UNL A   1      46.804  26.417  25.134  1.00  0.00     0.024 H 
ATOM     46  H   UNL A   1      47.908  25.372  24.274  1.00  0.00     0.024 H 
ENDBRANCH  38  43
BRANCH  38  47
ATOM     47  C   UNL A   1      46.224  23.865  26.588  1.00  0.00    -0.051 C 
ATOM     48  H   UNL A   1      46.465  22.823  26.621  1.00  0.00     0.024 H 
ATOM     49  H   UNL A   1      45.259  24.021  27.023  1.00  0.00     0.024 H 
ATOM     50  H   UNL A   1      46.957  24.418  27.138  1.00  0.00     0.024 H 
ENDBRANCH  38  47
ENDBRANCH  37  38
ENDBRANCH  25  37
BRANCH  26  51
ATOM     51  C   UNL A   1      40.031  22.874  27.395  1.00  0.00     0.048 C 
ATOM     52  H   UNL A   1      39.879  23.750  27.990  1.00  0.00     0.055 H 
ATOM     53  H   UNL A   1      39.970  21.939  27.912  1.00  0.00     0.055 H 
BRANCH  51  54
ATOM     54  C   UNL A   1      38.898  22.816  26.382  1.00  0.00    -0.028 A 
ATOM     55  C   UNL A   1      38.093  23.947  26.132  1.00  0.00    -0.056 A 
ATOM     56  C   UNL A   1      38.595  21.635  25.684  1.00  0.00    -0.056 A 
ATOM     57  C   UNL A   1      36.919  23.851  25.377  1.00  0.00    -0.043 A 
ATOM     58  H   UNL A   1      38.375  24.863  26.514  1.00  0.00     0.063 H 
ATOM     59  C   UNL A   1      37.445  21.551  24.882  1.00  0.00    -0.043 A 
ATOM     60  H   UNL A   1      39.224  20.820  25.763  1.00  0.00     0.063 H 
ATOM     61  C   UNL A   1      36.587  22.643  24.776  1.00  0.00     0.041 A 
ATOM     62  H   UNL A   1      36.304  24.672  25.268  1.00  0.00     0.064 H 
ATOM     63  H   UNL A   1      37.236  20.680  24.370  1.00  0.00     0.064 H 
ATOM     64  Cl  UNL A   1      35.093  22.495  23.934  1.00  0.00    -0.084 Cl
ENDBRANCH  51  54
ENDBRANCH  26  51
ENDBRANCH  12  15
ENDBRANCH  11  12
BRANCH  11  65
ATOM     65  C   UNL A   1      43.627  24.585  29.142  1.00  0.00    -0.051 C 
ATOM     66  H   UNL A   1      44.424  24.929  29.768  1.00  0.00     0.024 H 
ATOM     67  H   UNL A   1      44.003  23.858  28.453  1.00  0.00     0.024 H 
ATOM     68  H   UNL A   1      42.865  24.142  29.747  1.00  0.00     0.024 H 
ENDBRANCH  11  65
BRANCH  11  69
ATOM     69  C   UNL A   1      43.974  26.659  27.479  1.00  0.00    -0.051 C 
ATOM     70  H   UNL A   1      44.411  27.428  28.082  1.00  0.00     0.024 H 
ATOM     71  H   UNL A   1      43.409  27.104  26.686  1.00  0.00     0.024 H 
ATOM     72  H   UNL A   1      44.749  26.048  27.065  1.00  0.00     0.024 H 
ENDBRANCH  11  69
ENDBRANCH   8  11
ENDBRANCH   4   7
ENDBRANCH   1   4
BRANCH   1  73
ATOM     73  C   UNL A   1      38.878  29.356  28.007  1.00  0.00    -0.052 C 
ATOM     74  H   UNL A   1      38.862  29.594  26.964  1.00  0.00     0.027 H 
ATOM     75  H   UNL A   1      39.498  30.021  28.571  1.00  0.00     0.027 H 
BRANCH  73  76
ATOM     76  C   UNL A   1      37.454  29.500  28.557  1.00  0.00    -0.052 C 
ATOM     77  H   UNL A   1      37.497  30.108  29.437  1.00  0.00     0.027 H 
ATOM     78  H   UNL A   1      37.102  28.507  28.744  1.00  0.00     0.027 H 
BRANCH  76  79
ATOM     79  C   UNL A   1      36.448  30.136  27.587  1.00  0.00    -0.036 C 
ATOM     80  H   UNL A   1      36.517  29.628  26.647  1.00  0.00     0.028 H 
ATOM     81  H   UNL A   1      36.701  31.173  27.509  1.00  0.00     0.028 H 
BRANCH  79  82
ATOM     82  C   UNL A   1      34.999  30.065  28.069  1.00  0.00     0.018 C 
ATOM     83  H   UNL A   1      34.968  29.494  28.975  1.00  0.00     0.049 H 
ATOM     84  H   UNL A   1      34.424  29.607  27.291  1.00  0.00     0.049 H 
BRANCH  82  85
ATOM     85  N   UNL A   1      34.425  31.365  28.325  1.00  0.00    -0.352 N 
ATOM     86  C   UNL A   1      34.688  32.367  29.213  1.00  0.00     0.251 C 
ATOM     87  H   UNL A   1      33.676  31.577  27.723  1.00  0.00     0.163 HD
ATOM     88  O   UNL A   1      33.920  33.330  29.195  1.00  0.00    -0.269 OA
BRANCH  86  89
ATOM     89  C   UNL A   1      35.798  32.350  30.200  1.00  0.00     0.039 A 
ATOM     90  C   UNL A   1      36.970  33.102  30.120  1.00  0.00    -0.049 A 
ATOM     91  C   UNL A   1      35.623  31.497  31.303  1.00  0.00    -0.049 A 
ATOM     92  C   UNL A   1      37.976  32.952  31.064  1.00  0.00    -0.053 A 
ATOM     93  H   UNL A   1      37.090  33.778  29.350  1.00  0.00     0.063 H 
ATOM     94  C   UNL A   1      36.606  31.374  32.277  1.00  0.00    -0.053 A 
ATOM     95  H   UNL A   1      34.750  30.953  31.392  1.00  0.00     0.063 H 
ATOM     96  C   UNL A   1      37.801  32.076  32.134  1.00  0.00    -0.014 A 
ATOM     97  H   UNL A   1      38.853  33.488  30.975  1.00  0.00     0.063 H 
ATOM     98  H   UNL A   1      36.453  30.769  33.099  1.00  0.00     0.063 H 
BRANCH  96  99
ATOM     99  C   UNL A   1      38.871  32.007  33.124  1.00  0.00     0.031 A 
ATOM    100  C   UNL A   1      38.708  32.886  34.321  1.00  0.00     0.074 A 
ATOM    101  C   UNL A   1      39.883  31.124  33.039  1.00  0.00     0.049 A 
ATOM    102  N   UNL A   1      39.536  33.755  34.808  1.00  0.00    -0.248 NA
ATOM    103  C   UNL A   1      37.420  32.825  35.033  1.00  0.00    -0.034 C 
ATOM    104  C   UNL A   1      40.031  30.019  32.088  1.00  0.00    -0.036 A 
ATOM    105  N   UNL A   1      40.950  30.964  33.873  1.00  0.00    -0.354 N 
ATOM    106  C   UNL A   1      38.939  34.251  35.966  1.00  0.00     0.074 A 
ATOM    107  C   UNL A   1      37.604  33.714  36.008  1.00  0.00    -0.034 C 
ATOM    108  H   UNL A   1      36.590  32.245  34.829  1.00  0.00     0.065 H 
ATOM    109  C   UNL A   1      40.984  29.174  32.537  1.00  0.00    -0.036 A 
ATOM    110  H   UNL A   1      39.492  29.904  31.215  1.00  0.00     0.065 H 
ATOM    111  C   UNL A   1      41.599  29.750  33.721  1.00  0.00     0.049 A 
ATOM    112  H   UNL A   1      41.232  31.647  34.524  1.00  0.00     0.167 HD
ATOM    113  C   UNL A   1      39.635  34.932  36.915  1.00  0.00     0.037 A 
ATOM    114  H   UNL A   1      36.886  33.982  36.700  1.00  0.00     0.065 H 
ATOM    115  H   UNL A   1      41.234  28.269  32.110  1.00  0.00     0.065 H 
ATOM    116  C   UNL A   1      42.521  29.219  34.557  1.00  0.00     0.037 A 
ATOM    117  C   UNL A   1      40.878  35.447  36.420  1.00  0.00     0.049 A 
ATOM    118  C   UNL A   1      43.087  30.319  35.370  1.00  0.00     0.074 A 
ATOM    119  C   UNL A   1      41.246  36.412  35.508  1.00  0.00    -0.036 A 
ATOM    120  N   UNL A   1      42.008  34.723  36.691  1.00  0.00    -0.354 N 
ATOM    121  N   UNL A   1      43.847  31.269  34.904  1.00  0.00    -0.248 NA
ATOM    122  C   UNL A   1      42.536  30.558  36.697  1.00  0.00    -0.034 C 
ATOM    123  C   UNL A   1      42.481  35.960  34.958  1.00  0.00    -0.036 A 
ATOM    124  H   UNL A   1      40.736  37.278  35.274  1.00  0.00     0.065 H 
ATOM    125  C   UNL A   1      42.804  34.751  35.576  1.00  0.00     0.049 A 
ATOM    126  H   UNL A   1      42.213  34.264  37.537  1.00  0.00     0.167 HD
ATOM    127  C   UNL A   1      43.537  32.376  35.673  1.00  0.00     0.074 A 
ATOM    128  C   UNL A   1      42.854  31.845  36.845  1.00  0.00    -0.034 C 
ATOM    129  H   UNL A   1      42.042  29.917  37.337  1.00  0.00     0.065 H 
ATOM    130  H   UNL A   1      43.036  36.440  34.232  1.00  0.00     0.065 H 
ATOM    131  C   UNL A   1      43.613  33.633  35.149  1.00  0.00     0.037 A 
ATOM    132  H   UNL A   1      42.641  32.398  37.689  1.00  0.00     0.065 H 
BRANCH 113 133
ATOM    133  C   UNL A   1      39.337  34.852  38.390  1.00  0.00     0.064 A 
ATOM    134  C   UNL A   1      39.197  36.028  39.151  1.00  0.00     0.173 A 
ATOM    135  C   UNL A   1      39.480  33.657  39.126  1.00  0.00     0.173 A 
ATOM    136  F   UNL A   1      39.102  37.224  38.549  1.00  0.00    -0.203 F 
ATOM    137  C   UNL A   1      39.231  36.009  40.549  1.00  0.00     0.198 A 
ATOM    138  C   UNL A   1      39.464  33.634  40.519  1.00  0.00     0.198 A 
ATOM    139  F   UNL A   1      39.749  32.490  38.525  1.00  0.00    -0.203 F 
ATOM    140  F   UNL A   1      39.197  37.160  41.233  1.00  0.00    -0.200 F 
ATOM    141  C   UNL A   1      39.364  34.812  41.232  1.00  0.00     0.200 A 
ATOM    142  F   UNL A   1      39.622  32.469  41.163  1.00  0.00    -0.200 F 
ATOM    143  F   UNL A   1      39.446  34.796  42.569  1.00  0.00    -0.200 F 
ENDBRANCH 113 133
BRANCH 116 144
ATOM    144  C   UNL A   1      42.718  27.794  34.906  1.00  0.00     0.064 A 
ATOM    145  C   UNL A   1      41.838  27.141  35.783  1.00  0.00     0.173 A 
ATOM    146  C   UNL A   1      43.598  26.975  34.172  1.00  0.00     0.173 A 
ATOM    147  F   UNL A   1      40.941  27.846  36.487  1.00  0.00    -0.203 F 
ATOM    148  C   UNL A   1      41.814  25.748  35.891  1.00  0.00     0.198 A 
ATOM    149  C   UNL A   1      43.582  25.586  34.291  1.00  0.00     0.198 A 
ATOM    150  F   UNL A   1      44.422  27.496  33.252  1.00  0.00    -0.203 F 
ATOM    151  F   UNL A   1      40.909  25.155  36.683  1.00  0.00    -0.200 F 
ATOM    152  C   UNL A   1      42.678  24.971  35.137  1.00  0.00     0.200 A 
ATOM    153  F   UNL A   1      44.400  24.845  33.529  1.00  0.00    -0.200 F 
ATOM    154  F   UNL A   1      42.610  23.634  35.190  1.00  0.00    -0.200 F 
ENDBRANCH 116 144
BRANCH 131 155
ATOM    155  C   UNL A   1      44.397  33.804  33.879  1.00  0.00     0.064 A 
ATOM    156  C   UNL A   1      43.855  33.645  32.593  1.00  0.00     0.173 A 
ATOM    157  C   UNL A   1      45.718  34.264  33.973  1.00  0.00     0.173 A 
ATOM    158  F   UNL A   1      42.570  33.308  32.423  1.00  0.00    -0.203 F 
ATOM    159  C   UNL A   1      44.620  33.888  31.454  1.00  0.00     0.198 A 
ATOM    160  C   UNL A   1      46.466  34.545  32.834  1.00  0.00     0.198 A 
ATOM    161  F   UNL A   1      46.267  34.489  35.176  1.00  0.00    -0.203 F 
ATOM    162  F   UNL A   1      44.087  33.714  30.235  1.00  0.00    -0.200 F 
ATOM    163  C   UNL A   1      45.922  34.344  31.576  1.00  0.00     0.200 A 
ATOM    164  F   UNL A   1      47.708  35.035  32.957  1.00  0.00    -0.200 F 
ATOM    165  F   UNL A   1      46.644  34.619  30.480  1.00  0.00    -0.200 F 
ENDBRANCH 131 155
ENDBRANCH  96  99
ENDBRANCH  86  89
ENDBRANCH  82  85
ENDBRANCH  79  82
ENDBRANCH  76  79
ENDBRANCH  73  76
ENDBRANCH   1  73
TORSDOF 27
ENDMDL
MODEL 9
REMARK VINA RESULT:     -10.3      3.783      7.871
REMARK SMILES CC(C)c1ccc2c(c1)c(SC(C)(C)C)c(CC(C)(C)C(=O)NCCCCCCNC(=O)c1ccc(-c3c4nc(c(-c5c(F)c(F)c(F)c(F)c5F)c5ccc([nH]5)c(-c5c(F)c(F)c(F)c(F)c5F)c5nc(c(-c6c(F)c(F)c(F)c(F)c6F)c6ccc3[nH]6)C=C5)C=C4)cc1)n2Cc1ccc(Cl)cc1
REMARK SMILES IDX 25 1 24 4 23 7 21 8 22 9 18 11 17 12 16 15 4 16 5 17 9 18
REMARK SMILES IDX 6 19 8 21 7 23 10 25 96 26 2 27 1 29 3 33 11 37 12 38 13 39
REMARK SMILES IDX 14 43 15 47 97 51 98 54 99 55 104 56 100 57 103 59 101 61
REMARK SMILES IDX 102 64 19 65 20 69 26 73 27 76 28 79 29 82 30 85 31 86 32 88
REMARK SMILES IDX 33 89 34 90 95 91 35 92 94 94 36 96 37 99 38 100 88 101
REMARK SMILES IDX 39 102 93 103 87 104 89 105 40 106 92 107 86 109 85 111
REMARK SMILES IDX 41 113 73 116 53 117 72 118 54 119 57 120 71 121 90 122
REMARK SMILES IDX 55 123 56 125 70 127 91 128 58 131 42 133 43 134 51 135
REMARK SMILES IDX 44 136 45 137 49 138 52 139 46 140 47 141 50 142 48 143
REMARK SMILES IDX 74 144 75 145 83 146 76 147 77 148 81 149 84 150 78 151
REMARK SMILES IDX 79 152 82 153 80 154 59 155 60 156 68 157 61 158 62 159
REMARK SMILES IDX 66 160 69 161 63 162 64 163 67 164 65 165
REMARK H PARENT 25 2 25 3 24 5 24 6 23 10 17 13 17 14 5 20 9 22 6 24 2 28 1 30
REMARK H PARENT 1 31 1 32 3 34 3 35 3 36 13 40 13 41 13 42 14 44 14 45 14 46
REMARK H PARENT 15 48 15 49 15 50 97 52 97 53 99 58 104 60 100 62 103 63 19 66
REMARK H PARENT 19 67 19 68 20 70 20 71 20 72 26 74 26 75 27 77 27 78 28 80
REMARK H PARENT 28 81 29 83 29 84 30 87 34 93 95 95 35 97 94 98 93 108 87 110
REMARK H PARENT 89 112 92 114 86 115 54 124 57 126 90 129 55 130 91 132
REMARK Flexibility Score: inf
ROOT
ATOM      1  C   UNL A   1      39.034  27.842  28.301  1.00  0.00    -0.036 C 
ATOM      2  H   UNL A   1      38.845  27.524  29.306  1.00  0.00     0.028 H 
ATOM      3  H   UNL A   1      38.582  27.172  27.600  1.00  0.00     0.028 H 
ENDROOT
BRANCH   1   4
ATOM      4  C   UNL A   1      40.523  27.850  28.061  1.00  0.00     0.017 C 
ATOM      5  H   UNL A   1      40.751  27.152  27.282  1.00  0.00     0.049 H 
ATOM      6  H   UNL A   1      40.809  28.844  27.785  1.00  0.00     0.049 H 
BRANCH   4   7
ATOM      7  N   UNL A   1      41.265  27.484  29.249  1.00  0.00    -0.356 N 
ATOM      8  C   UNL A   1      42.372  26.681  29.352  1.00  0.00     0.226 C 
ATOM      9  O   UNL A   1      43.062  26.827  30.352  1.00  0.00    -0.275 OA
ATOM     10  H   UNL A   1      40.931  27.861  30.094  1.00  0.00     0.163 HD
BRANCH   8  11
ATOM     11  C   UNL A   1      42.800  25.852  28.135  1.00  0.00     0.049 C 
BRANCH  11  12
ATOM     12  C   UNL A   1      41.674  25.250  27.239  1.00  0.00     0.003 C 
ATOM     13  H   UNL A   1      40.819  25.088  27.861  1.00  0.00     0.034 H 
ATOM     14  H   UNL A   1      41.538  25.962  26.453  1.00  0.00     0.034 H 
BRANCH  12  15
ATOM     15  C   UNL A   1      41.965  23.982  26.553  1.00  0.00     0.034 A 
ATOM     16  C   UNL A   1      43.831  19.917  25.288  1.00  0.00    -0.045 A 
ATOM     17  C   UNL A   1      42.705  19.476  25.994  1.00  0.00    -0.057 A 
ATOM     18  C   UNL A   1      43.972  21.310  25.098  1.00  0.00    -0.048 A 
ATOM     19  C   UNL A   1      41.752  20.362  26.514  1.00  0.00    -0.037 A 
ATOM     20  H   UNL A   1      42.572  18.463  26.135  1.00  0.00     0.063 H 
ATOM     21  C   UNL A   1      43.037  22.244  25.624  1.00  0.00     0.014 A 
ATOM     22  H   UNL A   1      44.779  21.660  24.560  1.00  0.00     0.063 H 
ATOM     23  C   UNL A   1      41.952  21.740  26.350  1.00  0.00     0.050 A 
ATOM     24  H   UNL A   1      40.919  20.007  27.010  1.00  0.00     0.065 H 
ATOM     25  C   UNL A   1      42.962  23.688  25.633  1.00  0.00     0.037 A 
ATOM     26  N   UNL A   1      41.227  22.828  26.812  1.00  0.00    -0.339 N 
BRANCH  16  27
ATOM     27  C   UNL A   1      44.930  18.944  24.852  1.00  0.00    -0.022 C 
ATOM     28  H   UNL A   1      44.514  17.999  25.134  1.00  0.00     0.035 H 
BRANCH  27  29
ATOM     29  C   UNL A   1      45.209  18.932  23.340  1.00  0.00    -0.059 C 
ATOM     30  H   UNL A   1      44.687  19.742  22.875  1.00  0.00     0.024 H 
ATOM     31  H   UNL A   1      44.874  18.005  22.922  1.00  0.00     0.024 H 
ATOM     32  H   UNL A   1      46.259  19.041  23.170  1.00  0.00     0.024 H 
ENDBRANCH  27  29
BRANCH  27  33
ATOM     33  C   UNL A   1      46.269  19.148  25.577  1.00  0.00    -0.059 C 
ATOM     34  H   UNL A   1      46.752  18.203  25.708  1.00  0.00     0.024 H 
ATOM     35  H   UNL A   1      46.092  19.594  26.533  1.00  0.00     0.024 H 
ATOM     36  H   UNL A   1      46.896  19.791  24.995  1.00  0.00     0.024 H 
ENDBRANCH  27  33
ENDBRANCH  16  27
BRANCH  25  37
ATOM     37  S   UNL A   1      44.198  24.669  24.805  1.00  0.00    -0.118 SA
BRANCH  37  38
ATOM     38  C   UNL A   1      45.987  24.556  25.329  1.00  0.00     0.012 C 
BRANCH  38  39
ATOM     39  C   UNL A   1      46.697  25.901  25.150  1.00  0.00    -0.051 C 
ATOM     40  H   UNL A   1      47.418  25.822  24.362  1.00  0.00     0.024 H 
ATOM     41  H   UNL A   1      47.192  26.167  26.060  1.00  0.00     0.024 H 
ATOM     42  H   UNL A   1      45.979  26.653  24.900  1.00  0.00     0.024 H 
ENDBRANCH  38  39
BRANCH  38  43
ATOM     43  C   UNL A   1      46.424  23.948  26.681  1.00  0.00    -0.051 C 
ATOM     44  H   UNL A   1      47.344  23.418  26.553  1.00  0.00     0.024 H 
ATOM     45  H   UNL A   1      45.669  23.275  27.030  1.00  0.00     0.024 H 
ATOM     46  H   UNL A   1      46.561  24.732  27.396  1.00  0.00     0.024 H 
ENDBRANCH  38  43
BRANCH  38  47
ATOM     47  C   UNL A   1      46.566  23.526  24.320  1.00  0.00    -0.051 C 
ATOM     48  H   UNL A   1      45.785  23.181  23.675  1.00  0.00     0.024 H 
ATOM     49  H   UNL A   1      46.979  22.697  24.855  1.00  0.00     0.024 H 
ATOM     50  H   UNL A   1      47.332  23.991  23.735  1.00  0.00     0.024 H 
ENDBRANCH  38  47
ENDBRANCH  37  38
ENDBRANCH  25  37
BRANCH  26  51
ATOM     51  C   UNL A   1      39.819  22.742  27.285  1.00  0.00     0.048 C 
ATOM     52  H   UNL A   1      39.649  23.580  27.928  1.00  0.00     0.055 H 
ATOM     53  H   UNL A   1      39.751  21.778  27.745  1.00  0.00     0.055 H 
BRANCH  51  54
ATOM     54  C   UNL A   1      38.709  22.740  26.246  1.00  0.00    -0.028 A 
ATOM     55  C   UNL A   1      37.917  23.887  26.032  1.00  0.00    -0.056 A 
ATOM     56  C   UNL A   1      38.415  21.595  25.486  1.00  0.00    -0.056 A 
ATOM     57  C   UNL A   1      36.760  23.835  25.246  1.00  0.00    -0.043 A 
ATOM     58  H   UNL A   1      38.196  24.782  26.462  1.00  0.00     0.063 H 
ATOM     59  C   UNL A   1      37.283  21.558  24.655  1.00  0.00    -0.043 A 
ATOM     60  H   UNL A   1      39.037  20.774  25.541  1.00  0.00     0.063 H 
ATOM     61  C   UNL A   1      36.435  22.660  24.581  1.00  0.00     0.041 A 
ATOM     62  H   UNL A   1      36.153  24.665  25.161  1.00  0.00     0.064 H 
ATOM     63  H   UNL A   1      37.081  20.712  24.098  1.00  0.00     0.064 H 
ATOM     64  Cl  UNL A   1      34.959  22.561  23.699  1.00  0.00    -0.084 Cl
ENDBRANCH  51  54
ENDBRANCH  26  51
ENDBRANCH  12  15
ENDBRANCH  11  12
BRANCH  11  65
ATOM     65  C   UNL A   1      43.591  24.756  28.890  1.00  0.00    -0.051 C 
ATOM     66  H   UNL A   1      43.469  24.891  29.945  1.00  0.00     0.024 H 
ATOM     67  H   UNL A   1      44.628  24.827  28.639  1.00  0.00     0.024 H 
ATOM     68  H   UNL A   1      43.220  23.792  28.609  1.00  0.00     0.024 H 
ENDBRANCH  11  65
BRANCH  11  69
ATOM     69  C   UNL A   1      43.550  26.779  27.131  1.00  0.00    -0.051 C 
ATOM     70  H   UNL A   1      43.233  27.791  27.274  1.00  0.00     0.024 H 
ATOM     71  H   UNL A   1      43.328  26.473  26.130  1.00  0.00     0.024 H 
ATOM     72  H   UNL A   1      44.604  26.708  27.300  1.00  0.00     0.024 H 
ENDBRANCH  11  69
ENDBRANCH   8  11
ENDBRANCH   4   7
ENDBRANCH   1   4
BRANCH   1  73
ATOM     73  C   UNL A   1      38.432  29.225  28.099  1.00  0.00    -0.052 C 
ATOM     74  H   UNL A   1      38.544  29.493  27.069  1.00  0.00     0.027 H 
ATOM     75  H   UNL A   1      38.952  29.889  28.756  1.00  0.00     0.027 H 
BRANCH  73  76
ATOM     76  C   UNL A   1      36.944  29.314  28.461  1.00  0.00    -0.052 C 
ATOM     77  H   UNL A   1      36.868  29.629  29.481  1.00  0.00     0.027 H 
ATOM     78  H   UNL A   1      36.533  28.342  28.286  1.00  0.00     0.027 H 
BRANCH  76  79
ATOM     79  C   UNL A   1      36.127  30.288  27.600  1.00  0.00    -0.036 C 
ATOM     80  H   UNL A   1      36.255  30.019  26.572  1.00  0.00     0.028 H 
ATOM     81  H   UNL A   1      36.489  31.273  27.812  1.00  0.00     0.028 H 
BRANCH  79  82
ATOM     82  C   UNL A   1      34.631  30.284  27.919  1.00  0.00     0.018 C 
ATOM     83  H   UNL A   1      34.439  29.522  28.645  1.00  0.00     0.049 H 
ATOM     84  H   UNL A   1      34.109  30.103  27.002  1.00  0.00     0.049 H 
BRANCH  82  85
ATOM     85  N   UNL A   1      34.163  31.547  28.442  1.00  0.00    -0.352 N 
ATOM     86  C   UNL A   1      34.668  32.464  29.316  1.00  0.00     0.251 C 
ATOM     87  H   UNL A   1      33.281  31.803  28.087  1.00  0.00     0.163 HD
ATOM     88  O   UNL A   1      33.934  33.413  29.598  1.00  0.00    -0.269 OA
BRANCH  86  89
ATOM     89  C   UNL A   1      36.002  32.370  29.960  1.00  0.00     0.039 A 
ATOM     90  C   UNL A   1      37.182  32.934  29.475  1.00  0.00    -0.049 A 
ATOM     91  C   UNL A   1      36.051  31.648  31.166  1.00  0.00    -0.049 A 
ATOM     92  C   UNL A   1      38.391  32.721  30.123  1.00  0.00    -0.053 A 
ATOM     93  H   UNL A   1      37.156  33.518  28.625  1.00  0.00     0.063 H 
ATOM     94  C   UNL A   1      37.249  31.468  31.845  1.00  0.00    -0.053 A 
ATOM     95  H   UNL A   1      35.183  31.247  31.553  1.00  0.00     0.063 H 
ATOM     96  C   UNL A   1      38.427  31.974  31.299  1.00  0.00    -0.014 A 
ATOM     97  H   UNL A   1      39.262  33.115  29.735  1.00  0.00     0.063 H 
ATOM     98  H   UNL A   1      37.268  30.964  32.745  1.00  0.00     0.063 H 
BRANCH  96  99
ATOM     99  C   UNL A   1      39.719  31.835  31.964  1.00  0.00     0.031 A 
ATOM    100  C   UNL A   1      40.258  33.073  32.604  1.00  0.00     0.074 A 
ATOM    101  C   UNL A   1      40.339  30.649  32.106  1.00  0.00     0.049 A 
ATOM    102  N   UNL A   1      41.415  33.632  32.441  1.00  0.00    -0.248 NA
ATOM    103  C   UNL A   1      39.357  33.815  33.503  1.00  0.00    -0.034 C 
ATOM    104  C   UNL A   1      39.811  29.319  31.788  1.00  0.00    -0.036 A 
ATOM    105  N   UNL A   1      41.545  30.378  32.681  1.00  0.00    -0.354 N 
ATOM    106  C   UNL A   1      41.447  34.715  33.318  1.00  0.00     0.074 A 
ATOM    107  C   UNL A   1      40.127  34.836  33.878  1.00  0.00    -0.034 C 
ATOM    108  H   UNL A   1      38.384  33.601  33.771  1.00  0.00     0.065 H 
ATOM    109  C   UNL A   1      40.584  28.384  32.381  1.00  0.00    -0.036 A 
ATOM    110  H   UNL A   1      38.983  29.128  31.203  1.00  0.00     0.065 H 
ATOM    111  C   UNL A   1      41.724  29.041  32.997  1.00  0.00     0.049 A 
ATOM    112  H   UNL A   1      42.224  31.069  32.856  1.00  0.00     0.167 HD
ATOM    113  C   UNL A   1      42.603  35.342  33.666  1.00  0.00     0.037 A 
ATOM    114  H   UNL A   1      39.818  35.609  34.489  1.00  0.00     0.065 H 
ATOM    115  H   UNL A   1      40.396  27.369  32.395  1.00  0.00     0.065 H 
ATOM    116  C   UNL A   1      42.698  28.522  33.779  1.00  0.00     0.037 A 
ATOM    117  C   UNL A   1      43.670  35.076  32.747  1.00  0.00     0.049 A 
ATOM    118  C   UNL A   1      43.807  29.502  33.838  1.00  0.00     0.074 A 
ATOM    119  C   UNL A   1      43.935  35.395  31.432  1.00  0.00    -0.036 A 
ATOM    120  N   UNL A   1      44.568  34.103  33.094  1.00  0.00    -0.354 N 
ATOM    121  N   UNL A   1      44.578  29.809  32.833  1.00  0.00    -0.248 NA
ATOM    122  C   UNL A   1      43.870  30.413  34.972  1.00  0.00    -0.034 C 
ATOM    123  C   UNL A   1      44.703  34.306  30.926  1.00  0.00    -0.036 A 
ATOM    124  H   UNL A   1      43.639  36.243  30.923  1.00  0.00     0.065 H 
ATOM    125  C   UNL A   1      44.876  33.390  31.965  1.00  0.00     0.049 A 
ATOM    126  H   UNL A   1      44.931  33.945  33.995  1.00  0.00     0.167 HD
ATOM    127  C   UNL A   1      44.895  31.142  33.029  1.00  0.00     0.074 A 
ATOM    128  C   UNL A   1      44.568  31.409  34.423  1.00  0.00    -0.034 C 
ATOM    129  H   UNL A   1      43.485  30.318  35.924  1.00  0.00     0.065 H 
ATOM    130  H   UNL A   1      45.065  34.212  29.965  1.00  0.00     0.065 H 
ATOM    131  C   UNL A   1      45.124  31.966  31.967  1.00  0.00     0.037 A 
ATOM    132  H   UNL A   1      44.842  32.267  34.926  1.00  0.00     0.065 H 
BRANCH 113 133
ATOM    133  C   UNL A   1      42.855  35.937  35.027  1.00  0.00     0.064 A 
ATOM    134  C   UNL A   1      43.179  37.301  35.157  1.00  0.00     0.173 A 
ATOM    135  C   UNL A   1      43.075  35.141  36.171  1.00  0.00     0.173 A 
ATOM    136  F   UNL A   1      43.052  38.136  34.114  1.00  0.00    -0.203 F 
ATOM    137  C   UNL A   1      43.718  37.820  36.339  1.00  0.00     0.198 A 
ATOM    138  C   UNL A   1      43.565  35.671  37.363  1.00  0.00     0.198 A 
ATOM    139  F   UNL A   1      42.928  33.809  36.139  1.00  0.00    -0.203 F 
ATOM    140  F   UNL A   1      44.108  39.100  36.388  1.00  0.00    -0.200 F 
ATOM    141  C   UNL A   1      43.909  37.004  37.441  1.00  0.00     0.200 A 
ATOM    142  F   UNL A   1      43.770  34.860  38.411  1.00  0.00    -0.200 F 
ATOM    143  F   UNL A   1      44.469  37.489  38.557  1.00  0.00    -0.200 F 
ENDBRANCH 113 133
BRANCH 116 144
ATOM    144  C   UNL A   1      42.601  27.380  34.715  1.00  0.00     0.064 A 
ATOM    145  C   UNL A   1      41.798  27.459  35.863  1.00  0.00     0.173 A 
ATOM    146  C   UNL A   1      43.064  26.098  34.358  1.00  0.00     0.173 A 
ATOM    147  F   UNL A   1      41.283  28.636  36.247  1.00  0.00    -0.203 F 
ATOM    148  C   UNL A   1      41.447  26.317  36.590  1.00  0.00     0.198 A 
ATOM    149  C   UNL A   1      42.724  24.962  35.091  1.00  0.00     0.198 A 
ATOM    150  F   UNL A   1      43.772  25.908  33.235  1.00  0.00    -0.203 F 
ATOM    151  F   UNL A   1      40.616  26.422  37.637  1.00  0.00    -0.200 F 
ATOM    152  C   UNL A   1      41.901  25.069  36.197  1.00  0.00     0.200 A 
ATOM    153  F   UNL A   1      43.143  23.757  34.680  1.00  0.00    -0.200 F 
ATOM    154  F   UNL A   1      41.512  23.968  36.853  1.00  0.00    -0.200 F 
ENDBRANCH 116 144
BRANCH 131 155
ATOM    155  C   UNL A   1      45.404  31.321  30.640  1.00  0.00     0.064 A 
ATOM    156  C   UNL A   1      44.412  30.986  29.703  1.00  0.00     0.173 A 
ATOM    157  C   UNL A   1      46.741  31.147  30.258  1.00  0.00     0.173 A 
ATOM    158  F   UNL A   1      43.118  31.220  29.957  1.00  0.00    -0.203 F 
ATOM    159  C   UNL A   1      44.746  30.454  28.460  1.00  0.00     0.198 A 
ATOM    160  C   UNL A   1      47.072  30.653  28.999  1.00  0.00     0.198 A 
ATOM    161  F   UNL A   1      47.731  31.504  31.090  1.00  0.00    -0.203 F 
ATOM    162  F   UNL A   1      43.781  30.126  27.588  1.00  0.00    -0.200 F 
ATOM    163  C   UNL A   1      46.076  30.295  28.107  1.00  0.00     0.200 A 
ATOM    164  F   UNL A   1      48.360  30.548  28.643  1.00  0.00    -0.200 F 
ATOM    165  F   UNL A   1      46.398  29.823  26.894  1.00  0.00    -0.200 F 
ENDBRANCH 131 155
ENDBRANCH  96  99
ENDBRANCH  86  89
ENDBRANCH  82  85
ENDBRANCH  79  82
ENDBRANCH  76  79
ENDBRANCH  73  76
ENDBRANCH   1  73
TORSDOF 27
ENDMDL
MODEL 10
REMARK VINA RESULT:     -10.2      3.930      8.707
REMARK SMILES CC(C)c1ccc2c(c1)c(SC(C)(C)C)c(CC(C)(C)C(=O)NCCCCCCNC(=O)c1ccc(-c3c4nc(c(-c5c(F)c(F)c(F)c(F)c5F)c5ccc([nH]5)c(-c5c(F)c(F)c(F)c(F)c5F)c5nc(c(-c6c(F)c(F)c(F)c(F)c6F)c6ccc3[nH]6)C=C5)C=C4)cc1)n2Cc1ccc(Cl)cc1
REMARK SMILES IDX 25 1 24 4 23 7 21 8 22 9 18 11 17 12 16 15 4 16 5 17 9 18
REMARK SMILES IDX 6 19 8 21 7 23 10 25 96 26 2 27 1 29 3 33 11 37 12 38 13 39
REMARK SMILES IDX 14 43 15 47 97 51 98 54 99 55 104 56 100 57 103 59 101 61
REMARK SMILES IDX 102 64 19 65 20 69 26 73 27 76 28 79 29 82 30 85 31 86 32 88
REMARK SMILES IDX 33 89 34 90 95 91 35 92 94 94 36 96 37 99 38 100 88 101
REMARK SMILES IDX 39 102 93 103 87 104 89 105 40 106 92 107 86 109 85 111
REMARK SMILES IDX 41 113 73 116 53 117 72 118 54 119 57 120 71 121 90 122
REMARK SMILES IDX 55 123 56 125 70 127 91 128 58 131 42 133 43 134 51 135
REMARK SMILES IDX 44 136 45 137 49 138 52 139 46 140 47 141 50 142 48 143
REMARK SMILES IDX 74 144 75 145 83 146 76 147 77 148 81 149 84 150 78 151
REMARK SMILES IDX 79 152 82 153 80 154 59 155 60 156 68 157 61 158 62 159
REMARK SMILES IDX 66 160 69 161 63 162 64 163 67 164 65 165
REMARK H PARENT 25 2 25 3 24 5 24 6 23 10 17 13 17 14 5 20 9 22 6 24 2 28 1 30
REMARK H PARENT 1 31 1 32 3 34 3 35 3 36 13 40 13 41 13 42 14 44 14 45 14 46
REMARK H PARENT 15 48 15 49 15 50 97 52 97 53 99 58 104 60 100 62 103 63 19 66
REMARK H PARENT 19 67 19 68 20 70 20 71 20 72 26 74 26 75 27 77 27 78 28 80
REMARK H PARENT 28 81 29 83 29 84 30 87 34 93 95 95 35 97 94 98 93 108 87 110
REMARK H PARENT 89 112 92 114 86 115 54 124 57 126 90 129 55 130 91 132
REMARK Flexibility Score: inf
ROOT
ATOM      1  C   UNL A   1      35.705  21.462  25.050  1.00  0.00    -0.036 C 
ATOM      2  H   UNL A   1      35.917  20.484  24.671  1.00  0.00     0.028 H 
ATOM      3  H   UNL A   1      36.134  21.594  26.021  1.00  0.00     0.028 H 
ENDROOT
BRANCH   1   4
ATOM      4  C   UNL A   1      34.210  21.631  25.162  1.00  0.00     0.017 C 
ATOM      5  H   UNL A   1      33.894  22.377  24.462  1.00  0.00     0.049 H 
ATOM      6  H   UNL A   1      33.754  20.686  24.952  1.00  0.00     0.049 H 
BRANCH   4   7
ATOM      7  N   UNL A   1      33.809  22.038  26.492  1.00  0.00    -0.356 N 
ATOM      8  C   UNL A   1      32.955  23.046  26.857  1.00  0.00     0.226 C 
ATOM      9  O   UNL A   1      32.451  22.960  27.970  1.00  0.00    -0.275 OA
ATOM     10  H   UNL A   1      34.202  21.522  27.233  1.00  0.00     0.163 HD
BRANCH   8  11
ATOM     11  C   UNL A   1      32.505  24.055  25.794  1.00  0.00     0.049 C 
BRANCH  11  12
ATOM     12  C   UNL A   1      31.465  25.137  26.218  1.00  0.00     0.003 C 
ATOM     13  H   UNL A   1      30.495  24.687  26.172  1.00  0.00     0.034 H 
ATOM     14  H   UNL A   1      31.776  25.449  27.193  1.00  0.00     0.034 H 
BRANCH  12  15
ATOM     15  C   UNL A   1      31.416  26.373  25.424  1.00  0.00     0.034 A 
ATOM     16  C   UNL A   1      29.976  30.032  22.945  1.00  0.00    -0.045 A 
ATOM     17  C   UNL A   1      30.203  30.635  24.187  1.00  0.00    -0.057 A 
ATOM     18  C   UNL A   1      30.329  28.670  22.810  1.00  0.00    -0.048 A 
ATOM     19  C   UNL A   1      30.742  29.933  25.274  1.00  0.00    -0.037 A 
ATOM     20  H   UNL A   1      29.965  31.632  24.307  1.00  0.00     0.063 H 
ATOM     21  C   UNL A   1      30.863  27.917  23.893  1.00  0.00     0.014 A 
ATOM     22  H   UNL A   1      30.196  28.208  21.898  1.00  0.00     0.063 H 
ATOM     23  C   UNL A   1      31.033  28.570  25.119  1.00  0.00     0.050 A 
ATOM     24  H   UNL A   1      30.921  30.411  26.172  1.00  0.00     0.065 H 
ATOM     25  C   UNL A   1      31.250  26.533  24.055  1.00  0.00     0.037 A 
ATOM     26  N   UNL A   1      31.497  27.629  26.024  1.00  0.00    -0.339 N 
BRANCH  16  27
ATOM     27  C   UNL A   1      29.256  30.777  21.816  1.00  0.00    -0.022 C 
ATOM     28  H   UNL A   1      29.982  30.744  21.031  1.00  0.00     0.035 H 
BRANCH  27  29
ATOM     29  C   UNL A   1      27.965  30.100  21.327  1.00  0.00    -0.059 C 
ATOM     30  H   UNL A   1      27.665  29.352  22.032  1.00  0.00     0.024 H 
ATOM     31  H   UNL A   1      28.139  29.644  20.375  1.00  0.00     0.024 H 
ATOM     32  H   UNL A   1      27.191  30.833  21.235  1.00  0.00     0.024 H 
ENDBRANCH  27  29
BRANCH  27  33
ATOM     33  C   UNL A   1      28.926  32.241  22.146  1.00  0.00    -0.059 C 
ATOM     34  H   UNL A   1      27.953  32.480  21.771  1.00  0.00     0.024 H 
ATOM     35  H   UNL A   1      29.651  32.881  21.691  1.00  0.00     0.024 H 
ATOM     36  H   UNL A   1      28.942  32.380  23.207  1.00  0.00     0.024 H 
ENDBRANCH  27  33
ENDBRANCH  16  27
BRANCH  25  37
ATOM     37  S   UNL A   1      31.152  25.395  22.688  1.00  0.00    -0.118 SA
BRANCH  37  38
ATOM     38  C   UNL A   1      32.610  25.185  21.539  1.00  0.00     0.012 C 
BRANCH  38  39
ATOM     39  C   UNL A   1      33.299  23.837  21.768  1.00  0.00    -0.051 C 
ATOM     40  H   UNL A   1      34.298  23.878  21.387  1.00  0.00     0.024 H 
ATOM     41  H   UNL A   1      32.756  23.068  21.260  1.00  0.00     0.024 H 
ATOM     42  H   UNL A   1      33.326  23.623  22.816  1.00  0.00     0.024 H 
ENDBRANCH  38  39
BRANCH  38  43
ATOM     43  C   UNL A   1      32.515  25.435  20.017  1.00  0.00    -0.051 C 
ATOM     44  H   UNL A   1      33.029  26.341  19.771  1.00  0.00     0.024 H 
ATOM     45  H   UNL A   1      31.488  25.519  19.732  1.00  0.00     0.024 H 
ATOM     46  H   UNL A   1      32.965  24.618  19.493  1.00  0.00     0.024 H 
ENDBRANCH  38  43
BRANCH  38  47
ATOM     47  C   UNL A   1      33.557  26.333  21.987  1.00  0.00    -0.051 C 
ATOM     48  H   UNL A   1      33.378  27.198  21.384  1.00  0.00     0.024 H 
ATOM     49  H   UNL A   1      34.574  26.021  21.871  1.00  0.00     0.024 H 
ATOM     50  H   UNL A   1      33.371  26.569  23.014  1.00  0.00     0.024 H 
ENDBRANCH  38  47
ENDBRANCH  37  38
ENDBRANCH  25  37
BRANCH  26  51
ATOM     51  C   UNL A   1      32.162  27.975  27.310  1.00  0.00     0.048 C 
ATOM     52  H   UNL A   1      32.629  27.084  27.676  1.00  0.00     0.055 H 
ATOM     53  H   UNL A   1      31.376  28.374  27.916  1.00  0.00     0.055 H 
BRANCH  51  54
ATOM     54  C   UNL A   1      33.221  29.066  27.301  1.00  0.00    -0.028 A 
ATOM     55  C   UNL A   1      34.585  28.749  27.131  1.00  0.00    -0.056 A 
ATOM     56  C   UNL A   1      32.886  30.417  27.489  1.00  0.00    -0.056 A 
ATOM     57  C   UNL A   1      35.584  29.706  27.340  1.00  0.00    -0.043 A 
ATOM     58  H   UNL A   1      34.851  27.794  26.846  1.00  0.00     0.063 H 
ATOM     59  C   UNL A   1      33.888  31.390  27.646  1.00  0.00    -0.043 A 
ATOM     60  H   UNL A   1      31.893  30.698  27.513  1.00  0.00     0.063 H 
ATOM     61  C   UNL A   1      35.230  31.019  27.623  1.00  0.00     0.041 A 
ATOM     62  H   UNL A   1      36.580  29.437  27.284  1.00  0.00     0.064 H 
ATOM     63  H   UNL A   1      33.628  32.380  27.779  1.00  0.00     0.064 H 
ATOM     64  Cl  UNL A   1      36.456  32.173  27.983  1.00  0.00    -0.084 Cl
ENDBRANCH  51  54
ENDBRANCH  26  51
ENDBRANCH  12  15
ENDBRANCH  11  12
BRANCH  11  65
ATOM     65  C   UNL A   1      31.912  23.046  24.779  1.00  0.00    -0.051 C 
ATOM     66  H   UNL A   1      31.064  23.484  24.295  1.00  0.00     0.024 H 
ATOM     67  H   UNL A   1      31.609  22.158  25.294  1.00  0.00     0.024 H 
ATOM     68  H   UNL A   1      32.652  22.799  24.048  1.00  0.00     0.024 H 
ENDBRANCH  11  65
BRANCH  11  69
ATOM     69  C   UNL A   1      33.726  24.928  25.375  1.00  0.00    -0.051 C 
ATOM     70  H   UNL A   1      34.581  24.645  25.953  1.00  0.00     0.024 H 
ATOM     71  H   UNL A   1      33.503  25.960  25.549  1.00  0.00     0.024 H 
ATOM     72  H   UNL A   1      33.933  24.778  24.336  1.00  0.00     0.024 H 
ENDBRANCH  11  69
ENDBRANCH   8  11
ENDBRANCH   4   7
ENDBRANCH   1   4
BRANCH   1  73
ATOM     73  C   UNL A   1      36.312  22.496  24.114  1.00  0.00    -0.052 C 
ATOM     74  H   UNL A   1      35.528  22.905  23.510  1.00  0.00     0.027 H 
ATOM     75  H   UNL A   1      37.056  21.992  23.535  1.00  0.00     0.027 H 
BRANCH  73  76
ATOM     76  C   UNL A   1      37.016  23.652  24.836  1.00  0.00    -0.052 C 
ATOM     77  H   UNL A   1      36.278  24.382  25.094  1.00  0.00     0.027 H 
ATOM     78  H   UNL A   1      37.759  24.020  24.160  1.00  0.00     0.027 H 
BRANCH  76  79
ATOM     79  C   UNL A   1      37.761  23.254  26.118  1.00  0.00    -0.036 C 
ATOM     80  H   UNL A   1      38.350  22.385  25.911  1.00  0.00     0.028 H 
ATOM     81  H   UNL A   1      37.020  23.075  26.868  1.00  0.00     0.028 H 
BRANCH  79  82
ATOM     82  C   UNL A   1      38.686  24.347  26.656  1.00  0.00     0.018 C 
ATOM     83  H   UNL A   1      38.813  24.199  27.708  1.00  0.00     0.049 H 
ATOM     84  H   UNL A   1      38.229  25.290  26.438  1.00  0.00     0.049 H 
BRANCH  82  85
ATOM     85  N   UNL A   1      39.989  24.341  26.031  1.00  0.00    -0.352 N 
ATOM     86  C   UNL A   1      41.118  25.094  26.170  1.00  0.00     0.251 C 
ATOM     87  H   UNL A   1      40.083  23.635  25.352  1.00  0.00     0.163 HD
ATOM     88  O   UNL A   1      42.039  24.848  25.389  1.00  0.00    -0.269 OA
BRANCH  86  89
ATOM     89  C   UNL A   1      41.284  26.189  27.158  1.00  0.00     0.039 A 
ATOM     90  C   UNL A   1      41.585  26.027  28.511  1.00  0.00    -0.049 A 
ATOM     91  C   UNL A   1      41.126  27.494  26.659  1.00  0.00    -0.049 A 
ATOM     92  C   UNL A   1      41.646  27.122  29.361  1.00  0.00    -0.053 A 
ATOM     93  H   UNL A   1      41.765  25.081  28.883  1.00  0.00     0.063 H 
ATOM     94  C   UNL A   1      41.230  28.599  27.495  1.00  0.00    -0.053 A 
ATOM     95  H   UNL A   1      40.930  27.634  25.655  1.00  0.00     0.063 H 
ATOM     96  C   UNL A   1      41.453  28.406  28.857  1.00  0.00    -0.014 A 
ATOM     97  H   UNL A   1      41.835  26.985  30.366  1.00  0.00     0.063 H 
ATOM     98  H   UNL A   1      41.144  29.553  27.111  1.00  0.00     0.063 H 
BRANCH  96  99
ATOM     99  C   UNL A   1      41.588  29.519  29.791  1.00  0.00     0.031 A 
ATOM    100  C   UNL A   1      40.318  30.211  30.167  1.00  0.00     0.074 A 
ATOM    101  C   UNL A   1      42.756  29.837  30.379  1.00  0.00     0.049 A 
ATOM    102  N   UNL A   1      40.033  31.473  30.105  1.00  0.00    -0.248 NA
ATOM    103  C   UNL A   1      39.198  29.367  30.619  1.00  0.00    -0.034 C 
ATOM    104  C   UNL A   1      44.015  29.088  30.332  1.00  0.00    -0.036 A 
ATOM    105  N   UNL A   1      43.028  30.853  31.246  1.00  0.00    -0.354 N 
ATOM    106  C   UNL A   1      38.752  31.606  30.639  1.00  0.00     0.074 A 
ATOM    107  C   UNL A   1      38.250  30.274  30.854  1.00  0.00    -0.034 C 
ATOM    108  H   UNL A   1      39.158  28.341  30.725  1.00  0.00     0.065 H 
ATOM    109  C   UNL A   1      44.834  29.538  31.307  1.00  0.00    -0.036 A 
ATOM    110  H   UNL A   1      44.240  28.336  29.661  1.00  0.00     0.065 H 
ATOM    111  C   UNL A   1      44.213  30.686  31.945  1.00  0.00     0.049 A 
ATOM    112  H   UNL A   1      42.438  31.631  31.365  1.00  0.00     0.167 HD
ATOM    113  C   UNL A   1      38.244  32.803  31.038  1.00  0.00     0.037 A 
ATOM    114  H   UNL A   1      37.287  30.051  31.152  1.00  0.00     0.065 H 
ATOM    115  H   UNL A   1      45.749  29.134  31.557  1.00  0.00     0.065 H 
ATOM    116  C   UNL A   1      44.616  31.393  33.027  1.00  0.00     0.037 A 
ATOM    117  C   UNL A   1      38.952  33.914  30.473  1.00  0.00     0.049 A 
ATOM    118  C   UNL A   1      43.860  32.666  33.048  1.00  0.00     0.074 A 
ATOM    119  C   UNL A   1      39.102  34.440  29.207  1.00  0.00    -0.036 A 
ATOM    120  N   UNL A   1      39.902  34.515  31.253  1.00  0.00    -0.354 N 
ATOM    121  N   UNL A   1      44.008  33.629  32.183  1.00  0.00    -0.248 NA
ATOM    122  C   UNL A   1      42.665  32.751  33.876  1.00  0.00    -0.034 C 
ATOM    123  C   UNL A   1      40.404  35.020  29.192  1.00  0.00    -0.036 A 
ATOM    124  H   UNL A   1      38.417  34.417  28.436  1.00  0.00     0.065 H 
ATOM    125  C   UNL A   1      40.969  34.829  30.453  1.00  0.00     0.049 A 
ATOM    126  H   UNL A   1      39.831  34.692  32.218  1.00  0.00     0.167 HD
ATOM    127  C   UNL A   1      42.750  34.195  32.070  1.00  0.00     0.074 A 
ATOM    128  C   UNL A   1      42.016  33.725  33.236  1.00  0.00    -0.034 C 
ATOM    129  H   UNL A   1      42.398  32.214  34.716  1.00  0.00     0.065 H 
ATOM    130  H   UNL A   1      40.848  35.496  28.391  1.00  0.00     0.065 H 
ATOM    131  C   UNL A   1      42.343  34.758  30.896  1.00  0.00     0.037 A 
ATOM    132  H   UNL A   1      41.102  34.100  33.532  1.00  0.00     0.065 H 
BRANCH 113 133
ATOM    133  C   UNL A   1      37.308  32.967  32.206  1.00  0.00     0.064 A 
ATOM    134  C   UNL A   1      36.063  33.603  32.034  1.00  0.00     0.173 A 
ATOM    135  C   UNL A   1      37.725  32.783  33.542  1.00  0.00     0.173 A 
ATOM    136  F   UNL A   1      35.596  33.868  30.805  1.00  0.00    -0.203 F 
ATOM    137  C   UNL A   1      35.308  34.051  33.124  1.00  0.00     0.198 A 
ATOM    138  C   UNL A   1      36.948  33.186  34.627  1.00  0.00     0.198 A 
ATOM    139  F   UNL A   1      38.942  32.309  33.838  1.00  0.00    -0.203 F 
ATOM    140  F   UNL A   1      34.179  34.741  32.915  1.00  0.00    -0.200 F 
ATOM    141  C   UNL A   1      35.752  33.841  34.419  1.00  0.00     0.200 A 
ATOM    142  F   UNL A   1      37.406  33.000  35.873  1.00  0.00    -0.200 F 
ATOM    143  F   UNL A   1      35.054  34.312  35.461  1.00  0.00    -0.200 F 
ENDBRANCH 113 133
BRANCH 116 144
ATOM    144  C   UNL A   1      45.381  30.907  34.197  1.00  0.00     0.064 A 
ATOM    145  C   UNL A   1      46.574  31.536  34.585  1.00  0.00     0.173 A 
ATOM    146  C   UNL A   1      44.814  30.006  35.120  1.00  0.00     0.173 A 
ATOM    147  F   UNL A   1      47.154  32.438  33.780  1.00  0.00    -0.203 F 
ATOM    148  C   UNL A   1      47.148  31.304  35.839  1.00  0.00     0.198 A 
ATOM    149  C   UNL A   1      45.395  29.767  36.365  1.00  0.00     0.198 A 
ATOM    150  F   UNL A   1      43.636  29.417  34.876  1.00  0.00    -0.203 F 
ATOM    151  F   UNL A   1      48.246  31.979  36.204  1.00  0.00    -0.200 F 
ATOM    152  C   UNL A   1      46.551  30.429  36.732  1.00  0.00     0.200 A 
ATOM    153  F   UNL A   1      44.789  28.944  37.233  1.00  0.00    -0.200 F 
ATOM    154  F   UNL A   1      47.063  30.258  37.958  1.00  0.00    -0.200 F 
ENDBRANCH 116 144
BRANCH 131 155
ATOM    155  C   UNL A   1      43.403  35.090  29.885  1.00  0.00     0.064 A 
ATOM    156  C   UNL A   1      43.827  34.213  28.873  1.00  0.00     0.173 A 
ATOM    157  C   UNL A   1      43.921  36.392  29.873  1.00  0.00     0.173 A 
ATOM    158  F   UNL A   1      43.301  32.987  28.758  1.00  0.00    -0.203 F 
ATOM    159  C   UNL A   1      44.766  34.610  27.923  1.00  0.00     0.198 A 
ATOM    160  C   UNL A   1      44.828  36.798  28.898  1.00  0.00     0.198 A 
ATOM    161  F   UNL A   1      43.508  37.289  30.781  1.00  0.00    -0.203 F 
ATOM    162  F   UNL A   1      45.169  33.750  26.976  1.00  0.00    -0.200 F 
ATOM    163  C   UNL A   1      45.260  35.904  27.932  1.00  0.00     0.200 A 
ATOM    164  F   UNL A   1      45.264  38.066  28.881  1.00  0.00    -0.200 F 
ATOM    165  F   UNL A   1      46.130  36.299  26.993  1.00  0.00    -0.200 F 
ENDBRANCH 131 155
ENDBRANCH  96  99
ENDBRANCH  86  89
ENDBRANCH  82  85
ENDBRANCH  79  82
ENDBRANCH  76  79
ENDBRANCH  73  76
ENDBRANCH   1  73
TORSDOF 27
ENDMDL
