MODEL 1
REMARK VINA RESULT:     -11.1      0.000      0.000
REMARK SMILES CCSc1cccc(-c2ccc([C@@H](C)C(=O)NCCCCCCNC(=O)c3ccc(-c4c5nc(c(-c6c(F)c(F)c(F)c(F)c6F)c6ccc([nH]6)c(-c6c(F)c(F)c(F)c(F)c6F)c6nc(c(-c7c(F)c(F)c(F)c(F)c7F)c7ccc4[nH]7)C=C6)C=C5)cc3)cc2)c1
REMARK SMILES IDX 19 1 18 4 17 7 15 8 16 9 13 11 12 13 9 14 10 15 91 16 11 17
REMARK SMILES IDX 90 19 8 23 4 24 5 25 92 26 6 27 7 30 3 33 2 34 1 37 14 41
REMARK SMILES IDX 20 45 21 48 22 51 23 54 24 57 25 58 26 60 27 61 28 62 89 63
REMARK SMILES IDX 29 64 88 66 30 68 31 71 32 72 82 73 33 74 87 75 81 76 83 77
REMARK SMILES IDX 34 78 86 79 80 81 79 83 35 85 67 88 47 89 66 90 48 91 51 92
REMARK SMILES IDX 65 93 84 94 49 95 50 97 64 99 85 100 52 103 36 105 37 106
REMARK SMILES IDX 45 107 38 108 39 109 43 110 46 111 40 112 41 113 44 114
REMARK SMILES IDX 42 115 68 116 69 117 77 118 70 119 71 120 75 121 78 122
REMARK SMILES IDX 72 123 73 124 76 125 74 126 53 127 54 128 62 129 55 130
REMARK SMILES IDX 56 131 60 132 63 133 57 134 58 135 61 136 59 137
REMARK H PARENT 19 2 19 3 18 5 18 6 17 10 13 12 10 18 91 20 11 21 90 22 5 28
REMARK H PARENT 92 29 6 31 7 32 2 35 2 36 1 38 1 39 1 40 14 42 14 43 14 44
REMARK H PARENT 20 46 20 47 21 49 21 50 22 52 22 53 23 55 23 56 24 59 28 65
REMARK H PARENT 89 67 29 69 88 70 87 80 81 82 83 84 86 86 80 87 48 96 51 98
REMARK H PARENT 84 101 49 102 85 104
REMARK Flexibility Score: inf
ROOT
ATOM      1  C   UNL A   1      35.075  30.845  27.834  1.00  0.00    -0.036 C 
ATOM      2  H   UNL A   1      35.771  31.313  27.169  1.00  0.00     0.028 H 
ATOM      3  H   UNL A   1      35.485  30.681  28.808  1.00  0.00     0.028 H 
ENDROOT
BRANCH   1   4
ATOM      4  C   UNL A   1      34.716  29.471  27.265  1.00  0.00     0.017 C 
ATOM      5  H   UNL A   1      34.611  29.553  26.203  1.00  0.00     0.049 H 
ATOM      6  H   UNL A   1      35.501  28.790  27.522  1.00  0.00     0.049 H 
BRANCH   4   7
ATOM      7  N   UNL A   1      33.481  28.965  27.822  1.00  0.00    -0.356 N 
ATOM      8  C   UNL A   1      32.434  28.311  27.247  1.00  0.00     0.227 C 
ATOM      9  O   UNL A   1      31.462  28.084  27.976  1.00  0.00    -0.274 OA
ATOM     10  H   UNL A   1      33.379  29.120  28.789  1.00  0.00     0.163 HD
BRANCH   8  11
ATOM     11  C   UNL A   1      32.420  27.846  25.784  1.00  0.00     0.060 C 
ATOM     12  H   UNL A   1      33.199  28.395  25.297  1.00  0.00     0.045 H 
BRANCH  11  13
ATOM     13  C   UNL A   1      32.855  26.400  25.599  1.00  0.00    -0.036 A 
ATOM     14  C   UNL A   1      33.828  23.722  25.305  1.00  0.00    -0.018 A 
ATOM     15  C   UNL A   1      32.648  24.008  26.009  1.00  0.00    -0.054 A 
ATOM     16  C   UNL A   1      34.493  24.813  24.723  1.00  0.00    -0.054 A 
ATOM     17  C   UNL A   1      32.155  25.314  26.128  1.00  0.00    -0.058 A 
ATOM     18  H   UNL A   1      32.129  23.233  26.453  1.00  0.00     0.063 H 
ATOM     19  C   UNL A   1      34.030  26.127  24.885  1.00  0.00    -0.058 A 
ATOM     20  H   UNL A   1      35.343  24.645  24.164  1.00  0.00     0.063 H 
ATOM     21  H   UNL A   1      31.259  25.475  26.614  1.00  0.00     0.063 H 
ATOM     22  H   UNL A   1      34.562  26.907  24.469  1.00  0.00     0.063 H 
BRANCH  14  23
ATOM     23  C   UNL A   1      34.345  22.335  25.191  1.00  0.00    -0.017 A 
ATOM     24  C   UNL A   1      33.956  19.917  25.012  1.00  0.00     0.008 A 
ATOM     25  C   UNL A   1      35.328  19.688  24.947  1.00  0.00    -0.049 A 
ATOM     26  C   UNL A   1      33.475  21.229  25.130  1.00  0.00    -0.041 A 
ATOM     27  C   UNL A   1      36.213  20.762  25.001  1.00  0.00    -0.061 A 
ATOM     28  H   UNL A   1      35.689  18.726  24.858  1.00  0.00     0.063 H 
ATOM     29  H   UNL A   1      32.457  21.388  25.174  1.00  0.00     0.064 H 
ATOM     30  C   UNL A   1      35.725  22.066  25.131  1.00  0.00    -0.054 A 
ATOM     31  H   UNL A   1      37.230  20.596  24.947  1.00  0.00     0.062 H 
ATOM     32  H   UNL A   1      36.393  22.850  25.182  1.00  0.00     0.063 H 
BRANCH  24  33
ATOM     33  S   UNL A   1      32.800  18.558  25.013  1.00  0.00    -0.126 SA
BRANCH  33  34
ATOM     34  C   UNL A   1      32.948  18.000  23.283  1.00  0.00    -0.005 C 
ATOM     35  H   UNL A   1      32.010  17.589  22.971  1.00  0.00     0.038 H 
ATOM     36  H   UNL A   1      33.216  18.843  22.683  1.00  0.00     0.038 H 
BRANCH  34  37
ATOM     37  C   UNL A   1      34.026  16.942  23.124  1.00  0.00    -0.056 C 
ATOM     38  H   UNL A   1      33.688  16.022  23.552  1.00  0.00     0.024 H 
ATOM     39  H   UNL A   1      34.916  17.262  23.624  1.00  0.00     0.024 H 
ATOM     40  H   UNL A   1      34.232  16.798  22.085  1.00  0.00     0.024 H 
ENDBRANCH  34  37
ENDBRANCH  33  34
ENDBRANCH  24  33
ENDBRANCH  14  23
ENDBRANCH  11  13
BRANCH  11  41
ATOM     41  C   UNL A   1      31.177  28.280  25.004  1.00  0.00    -0.049 C 
ATOM     42  H   UNL A   1      30.350  27.659  25.276  1.00  0.00     0.024 H 
ATOM     43  H   UNL A   1      31.364  28.186  23.954  1.00  0.00     0.024 H 
ATOM     44  H   UNL A   1      30.950  29.300  25.235  1.00  0.00     0.024 H 
ENDBRANCH  11  41
ENDBRANCH   8  11
ENDBRANCH   4   7
ENDBRANCH   1   4
BRANCH   1  45
ATOM     45  C   UNL A   1      33.873  31.779  28.009  1.00  0.00    -0.052 C 
ATOM     46  H   UNL A   1      33.280  31.407  28.819  1.00  0.00     0.027 H 
ATOM     47  H   UNL A   1      33.360  31.782  27.070  1.00  0.00     0.027 H 
BRANCH  45  48
ATOM     48  C   UNL A   1      34.219  33.244  28.309  1.00  0.00    -0.052 C 
ATOM     49  H   UNL A   1      34.909  33.577  27.562  1.00  0.00     0.027 H 
ATOM     50  H   UNL A   1      34.617  33.254  29.301  1.00  0.00     0.027 H 
BRANCH  48  51
ATOM     51  C   UNL A   1      33.034  34.215  28.322  1.00  0.00    -0.036 C 
ATOM     52  H   UNL A   1      32.288  33.820  28.980  1.00  0.00     0.028 H 
ATOM     53  H   UNL A   1      32.703  34.299  27.307  1.00  0.00     0.028 H 
BRANCH  51  54
ATOM     54  C   UNL A   1      33.369  35.632  28.781  1.00  0.00     0.018 C 
ATOM     55  H   UNL A   1      33.097  36.319  28.007  1.00  0.00     0.049 H 
ATOM     56  H   UNL A   1      34.419  35.674  28.983  1.00  0.00     0.049 H 
BRANCH  54  57
ATOM     57  N   UNL A   1      32.662  35.992  29.998  1.00  0.00    -0.352 N 
ATOM     58  C   UNL A   1      32.836  35.546  31.285  1.00  0.00     0.251 C 
ATOM     59  H   UNL A   1      31.947  36.659  29.883  1.00  0.00     0.163 HD
ATOM     60  O   UNL A   1      31.998  35.803  32.143  1.00  0.00    -0.269 OA
BRANCH  58  61
ATOM     61  C   UNL A   1      34.026  34.745  31.645  1.00  0.00     0.039 A 
ATOM     62  C   UNL A   1      35.292  35.325  31.518  1.00  0.00    -0.049 A 
ATOM     63  C   UNL A   1      33.904  33.417  32.061  1.00  0.00    -0.049 A 
ATOM     64  C   UNL A   1      36.430  34.593  31.860  1.00  0.00    -0.053 A 
ATOM     65  H   UNL A   1      35.385  36.293  31.171  1.00  0.00     0.063 H 
ATOM     66  C   UNL A   1      35.034  32.706  32.461  1.00  0.00    -0.053 A 
ATOM     67  H   UNL A   1      32.978  32.962  32.072  1.00  0.00     0.063 H 
ATOM     68  C   UNL A   1      36.309  33.286  32.361  1.00  0.00    -0.014 A 
ATOM     69  H   UNL A   1      37.366  35.012  31.745  1.00  0.00     0.063 H 
ATOM     70  H   UNL A   1      34.934  31.748  32.831  1.00  0.00     0.063 H 
BRANCH  68  71
ATOM     71  C   UNL A   1      37.503  32.517  32.793  1.00  0.00     0.031 A 
ATOM     72  C   UNL A   1      38.175  32.827  34.100  1.00  0.00     0.074 A 
ATOM     73  C   UNL A   1      38.021  31.582  31.973  1.00  0.00     0.049 A 
ATOM     74  N   UNL A   1      39.264  32.312  34.614  1.00  0.00    -0.248 NA
ATOM     75  C   UNL A   1      37.558  33.875  34.929  1.00  0.00    -0.034 C 
ATOM     76  C   UNL A   1      37.489  31.226  30.657  1.00  0.00    -0.036 A 
ATOM     77  N   UNL A   1      39.119  30.771  32.119  1.00  0.00    -0.354 N 
ATOM     78  C   UNL A   1      39.469  32.982  35.814  1.00  0.00     0.074 A 
ATOM     79  C   UNL A   1      38.420  33.971  35.932  1.00  0.00    -0.034 C 
ATOM     80  H   UNL A   1      36.682  34.398  34.770  1.00  0.00     0.065 H 
ATOM     81  C   UNL A   1      38.251  30.258  30.122  1.00  0.00    -0.036 A 
ATOM     82  H   UNL A   1      36.660  31.649  30.211  1.00  0.00     0.065 H 
ATOM     83  C   UNL A   1      39.343  29.950  31.041  1.00  0.00     0.049 A 
ATOM     84  H   UNL A   1      39.691  30.776  32.920  1.00  0.00     0.167 HD
ATOM     85  C   UNL A   1      40.435  32.776  36.741  1.00  0.00     0.037 A 
ATOM     86  H   UNL A   1      38.351  34.661  36.695  1.00  0.00     0.065 H 
ATOM     87  H   UNL A   1      38.091  29.806  29.208  1.00  0.00     0.065 H 
ATOM     88  C   UNL A   1      40.322  29.053  30.817  1.00  0.00     0.037 A 
ATOM     89  C   UNL A   1      41.459  31.769  36.636  1.00  0.00     0.049 A 
ATOM     90  C   UNL A   1      41.374  28.835  31.870  1.00  0.00     0.074 A 
ATOM     91  C   UNL A   1      42.438  31.433  37.556  1.00  0.00    -0.036 A 
ATOM     92  N   UNL A   1      41.637  30.935  35.543  1.00  0.00    -0.354 N 
ATOM     93  N   UNL A   1      41.515  29.423  33.032  1.00  0.00    -0.248 NA
ATOM     94  C   UNL A   1      42.398  27.820  31.582  1.00  0.00    -0.034 C 
ATOM     95  C   UNL A   1      43.234  30.426  37.002  1.00  0.00    -0.036 A 
ATOM     96  H   UNL A   1      42.559  31.855  38.491  1.00  0.00     0.065 H 
ATOM     97  C   UNL A   1      42.723  30.100  35.756  1.00  0.00     0.049 A 
ATOM     98  H   UNL A   1      41.075  30.935  34.734  1.00  0.00     0.167 HD
ATOM     99  C   UNL A   1      42.624  28.836  33.625  1.00  0.00     0.074 A 
ATOM    100  C   UNL A   1      43.110  27.832  32.700  1.00  0.00    -0.034 C 
ATOM    101  H   UNL A   1      42.528  27.248  30.734  1.00  0.00     0.065 H 
ATOM    102  H   UNL A   1      44.060  29.996  37.446  1.00  0.00     0.065 H 
ATOM    103  C   UNL A   1      43.190  29.103  34.827  1.00  0.00     0.037 A 
ATOM    104  H   UNL A   1      43.910  27.208  32.887  1.00  0.00     0.065 H 
BRANCH  85 105
ATOM    105  C   UNL A   1      40.432  33.655  37.958  1.00  0.00     0.064 A 
ATOM    106  C   UNL A   1      39.618  33.373  39.065  1.00  0.00     0.173 A 
ATOM    107  C   UNL A   1      41.288  34.763  38.037  1.00  0.00     0.173 A 
ATOM    108  F   UNL A   1      38.774  32.331  39.035  1.00  0.00    -0.203 F 
ATOM    109  C   UNL A   1      39.642  34.185  40.197  1.00  0.00     0.198 A 
ATOM    110  C   UNL A   1      41.329  35.556  39.181  1.00  0.00     0.198 A 
ATOM    111  F   UNL A   1      42.092  35.073  37.009  1.00  0.00    -0.203 F 
ATOM    112  F   UNL A   1      38.823  33.923  41.225  1.00  0.00    -0.200 F 
ATOM    113  C   UNL A   1      40.503  35.270  40.257  1.00  0.00     0.200 A 
ATOM    114  F   UNL A   1      42.171  36.599  39.243  1.00  0.00    -0.200 F 
ATOM    115  F   UNL A   1      40.531  36.045  41.350  1.00  0.00    -0.200 F 
ENDBRANCH  85 105
BRANCH  88 116
ATOM    116  C   UNL A   1      40.341  28.279  29.548  1.00  0.00     0.064 A 
ATOM    117  C   UNL A   1      39.612  27.089  29.422  1.00  0.00     0.173 A 
ATOM    118  C   UNL A   1      41.085  28.711  28.441  1.00  0.00     0.173 A 
ATOM    119  F   UNL A   1      38.903  26.626  30.461  1.00  0.00    -0.203 F 
ATOM    120  C   UNL A   1      39.643  26.349  28.242  1.00  0.00     0.198 A 
ATOM    121  C   UNL A   1      41.093  27.985  27.252  1.00  0.00     0.198 A 
ATOM    122  F   UNL A   1      41.794  29.847  28.510  1.00  0.00    -0.203 F 
ATOM    123  F   UNL A   1      38.972  25.192  28.163  1.00  0.00    -0.200 F 
ATOM    124  C   UNL A   1      40.379  26.800  27.156  1.00  0.00     0.200 A 
ATOM    125  F   UNL A   1      41.794  28.431  26.201  1.00  0.00    -0.200 F 
ATOM    126  F   UNL A   1      40.404  26.090  26.021  1.00  0.00    -0.200 F 
ENDBRANCH  88 116
BRANCH 103 127
ATOM    127  C   UNL A   1      44.381  28.282  35.222  1.00  0.00     0.064 A 
ATOM    128  C   UNL A   1      45.689  28.704  34.944  1.00  0.00     0.173 A 
ATOM    129  C   UNL A   1      44.212  27.078  35.923  1.00  0.00     0.173 A 
ATOM    130  F   UNL A   1      45.902  29.840  34.264  1.00  0.00    -0.203 F 
ATOM    131  C   UNL A   1      46.785  27.937  35.331  1.00  0.00     0.198 A 
ATOM    132  C   UNL A   1      45.311  26.327  36.331  1.00  0.00     0.198 A 
ATOM    133  F   UNL A   1      42.981  26.635  36.218  1.00  0.00    -0.203 F 
ATOM    134  F   UNL A   1      48.025  28.336  35.015  1.00  0.00    -0.200 F 
ATOM    135  C   UNL A   1      46.595  26.754  36.030  1.00  0.00     0.200 A 
ATOM    136  F   UNL A   1      45.126  25.192  37.018  1.00  0.00    -0.200 F 
ATOM    137  F   UNL A   1      47.652  26.019  36.407  1.00  0.00    -0.200 F 
ENDBRANCH 103 127
ENDBRANCH  68  71
ENDBRANCH  58  61
ENDBRANCH  54  57
ENDBRANCH  51  54
ENDBRANCH  48  51
ENDBRANCH  45  48
ENDBRANCH   1  45
TORSDOF 19
ENDMDL
MODEL 2
REMARK VINA RESULT:     -11.1      3.992      8.683
REMARK SMILES CCSc1cccc(-c2ccc([C@@H](C)C(=O)NCCCCCCNC(=O)c3ccc(-c4c5nc(c(-c6c(F)c(F)c(F)c(F)c6F)c6ccc([nH]6)c(-c6c(F)c(F)c(F)c(F)c6F)c6nc(c(-c7c(F)c(F)c(F)c(F)c7F)c7ccc4[nH]7)C=C6)C=C5)cc3)cc2)c1
REMARK SMILES IDX 19 1 18 4 17 7 15 8 16 9 13 11 12 13 9 14 10 15 91 16 11 17
REMARK SMILES IDX 90 19 8 23 4 24 5 25 92 26 6 27 7 30 3 33 2 34 1 37 14 41
REMARK SMILES IDX 20 45 21 48 22 51 23 54 24 57 25 58 26 60 27 61 28 62 89 63
REMARK SMILES IDX 29 64 88 66 30 68 31 71 32 72 82 73 33 74 87 75 81 76 83 77
REMARK SMILES IDX 34 78 86 79 80 81 79 83 35 85 67 88 47 89 66 90 48 91 51 92
REMARK SMILES IDX 65 93 84 94 49 95 50 97 64 99 85 100 52 103 36 105 37 106
REMARK SMILES IDX 45 107 38 108 39 109 43 110 46 111 40 112 41 113 44 114
REMARK SMILES IDX 42 115 68 116 69 117 77 118 70 119 71 120 75 121 78 122
REMARK SMILES IDX 72 123 73 124 76 125 74 126 53 127 54 128 62 129 55 130
REMARK SMILES IDX 56 131 60 132 63 133 57 134 58 135 61 136 59 137
REMARK H PARENT 19 2 19 3 18 5 18 6 17 10 13 12 10 18 91 20 11 21 90 22 5 28
REMARK H PARENT 92 29 6 31 7 32 2 35 2 36 1 38 1 39 1 40 14 42 14 43 14 44
REMARK H PARENT 20 46 20 47 21 49 21 50 22 52 22 53 23 55 23 56 24 59 28 65
REMARK H PARENT 89 67 29 69 88 70 87 80 81 82 83 84 86 86 80 87 48 96 51 98
REMARK H PARENT 84 101 49 102 85 104
REMARK Flexibility Score: inf
ROOT
ATOM      1  C   UNL A   1      33.411  26.188  26.124  1.00  0.00    -0.036 C 
ATOM      2  H   UNL A   1      32.690  25.523  26.551  1.00  0.00     0.028 H 
ATOM      3  H   UNL A   1      34.051  26.628  26.861  1.00  0.00     0.028 H 
ENDROOT
BRANCH   1   4
ATOM      4  C   UNL A   1      32.663  27.336  25.443  1.00  0.00     0.017 C 
ATOM      5  H   UNL A   1      31.701  26.985  25.132  1.00  0.00     0.049 H 
ATOM      6  H   UNL A   1      32.570  28.137  26.148  1.00  0.00     0.049 H 
BRANCH   4   7
ATOM      7  N   UNL A   1      33.378  27.834  24.289  1.00  0.00    -0.356 N 
ATOM      8  C   UNL A   1      33.137  27.706  22.955  1.00  0.00     0.227 C 
ATOM      9  O   UNL A   1      33.994  28.174  22.195  1.00  0.00    -0.274 OA
ATOM     10  H   UNL A   1      34.182  28.359  24.506  1.00  0.00     0.163 HD
BRANCH   8  11
ATOM     11  C   UNL A   1      31.879  27.043  22.376  1.00  0.00     0.060 C 
ATOM     12  H   UNL A   1      31.917  27.221  21.321  1.00  0.00     0.045 H 
BRANCH  11  13
ATOM     13  C   UNL A   1      31.894  25.525  22.466  1.00  0.00    -0.036 A 
ATOM     14  C   UNL A   1      32.084  22.674  22.679  1.00  0.00    -0.018 A 
ATOM     15  C   UNL A   1      31.069  23.399  23.322  1.00  0.00    -0.054 A 
ATOM     16  C   UNL A   1      32.985  23.414  21.897  1.00  0.00    -0.054 A 
ATOM     17  C   UNL A   1      30.957  24.789  23.194  1.00  0.00    -0.058 A 
ATOM     18  H   UNL A   1      30.385  22.892  23.907  1.00  0.00     0.063 H 
ATOM     19  C   UNL A   1      32.907  24.812  21.810  1.00  0.00    -0.058 A 
ATOM     20  H   UNL A   1      33.724  22.919  21.375  1.00  0.00     0.063 H 
ATOM     21  H   UNL A   1      30.168  25.278  23.646  1.00  0.00     0.063 H 
ATOM     22  H   UNL A   1      33.606  25.325  21.251  1.00  0.00     0.063 H 
BRANCH  14  23
ATOM     23  C   UNL A   1      32.198  21.201  22.826  1.00  0.00    -0.017 A 
ATOM     24  C   UNL A   1      32.532  19.214  24.230  1.00  0.00     0.008 A 
ATOM     25  C   UNL A   1      32.390  18.389  23.116  1.00  0.00    -0.049 A 
ATOM     26  C   UNL A   1      32.434  20.604  24.081  1.00  0.00    -0.041 A 
ATOM     27  C   UNL A   1      32.153  18.949  21.865  1.00  0.00    -0.061 A 
ATOM     28  H   UNL A   1      32.459  17.364  23.219  1.00  0.00     0.063 H 
ATOM     29  H   UNL A   1      32.537  21.207  24.912  1.00  0.00     0.064 H 
ATOM     30  C   UNL A   1      32.068  20.338  21.723  1.00  0.00    -0.054 A 
ATOM     31  H   UNL A   1      32.041  18.340  21.039  1.00  0.00     0.062 H 
ATOM     32  H   UNL A   1      31.904  20.739  20.787  1.00  0.00     0.063 H 
BRANCH  24  33
ATOM     33  S   UNL A   1      32.903  18.530  25.835  1.00  0.00    -0.126 SA
BRANCH  33  34
ATOM     34  C   UNL A   1      32.836  16.747  25.457  1.00  0.00    -0.005 C 
ATOM     35  H   UNL A   1      32.283  16.250  26.228  1.00  0.00     0.038 H 
ATOM     36  H   UNL A   1      32.361  16.627  24.506  1.00  0.00     0.038 H 
BRANCH  34  37
ATOM     37  C   UNL A   1      34.224  16.137  25.375  1.00  0.00    -0.056 C 
ATOM     38  H   UNL A   1      34.543  15.844  26.353  1.00  0.00     0.024 H 
ATOM     39  H   UNL A   1      34.908  16.859  24.979  1.00  0.00     0.024 H 
ATOM     40  H   UNL A   1      34.199  15.280  24.736  1.00  0.00     0.024 H 
ENDBRANCH  34  37
ENDBRANCH  33  34
ENDBRANCH  24  33
ENDBRANCH  14  23
ENDBRANCH  11  13
BRANCH  11  41
ATOM     41  C   UNL A   1      30.572  27.729  22.777  1.00  0.00    -0.049 C 
ATOM     42  H   UNL A   1      30.160  27.238  23.633  1.00  0.00     0.024 H 
ATOM     43  H   UNL A   1      29.877  27.673  21.965  1.00  0.00     0.024 H 
ATOM     44  H   UNL A   1      30.765  28.755  23.011  1.00  0.00     0.024 H 
ENDBRANCH  11  41
ENDBRANCH   8  11
ENDBRANCH   4   7
ENDBRANCH   1   4
BRANCH   1  45
ATOM     45  C   UNL A   1      34.310  25.384  25.179  1.00  0.00    -0.052 C 
ATOM     46  H   UNL A   1      35.316  25.726  25.306  1.00  0.00     0.027 H 
ATOM     47  H   UNL A   1      33.924  25.548  24.193  1.00  0.00     0.027 H 
BRANCH  45  48
ATOM     48  C   UNL A   1      34.294  23.865  25.394  1.00  0.00    -0.052 C 
ATOM     49  H   UNL A   1      33.427  23.473  24.905  1.00  0.00     0.027 H 
ATOM     50  H   UNL A   1      34.296  23.720  26.454  1.00  0.00     0.027 H 
BRANCH  48  51
ATOM     51  C   UNL A   1      35.516  23.108  24.865  1.00  0.00    -0.036 C 
ATOM     52  H   UNL A   1      35.436  23.051  23.800  1.00  0.00     0.028 H 
ATOM     53  H   UNL A   1      35.505  22.150  25.343  1.00  0.00     0.028 H 
BRANCH  51  54
ATOM     54  C   UNL A   1      36.863  23.741  25.207  1.00  0.00     0.018 C 
ATOM     55  H   UNL A   1      36.726  24.428  26.016  1.00  0.00     0.049 H 
ATOM     56  H   UNL A   1      37.224  24.241  24.332  1.00  0.00     0.049 H 
BRANCH  54  57
ATOM     57  N   UNL A   1      37.849  22.747  25.597  1.00  0.00    -0.352 N 
ATOM     58  C   UNL A   1      39.060  22.904  26.224  1.00  0.00     0.251 C 
ATOM     59  H   UNL A   1      37.612  21.817  25.377  1.00  0.00     0.163 HD
ATOM     60  O   UNL A   1      39.851  21.968  26.274  1.00  0.00    -0.269 OA
BRANCH  58  61
ATOM     61  C   UNL A   1      39.424  24.201  26.835  1.00  0.00     0.039 A 
ATOM     62  C   UNL A   1      39.024  24.463  28.149  1.00  0.00    -0.049 A 
ATOM     63  C   UNL A   1      40.113  25.174  26.107  1.00  0.00    -0.049 A 
ATOM     64  C   UNL A   1      39.364  25.676  28.751  1.00  0.00    -0.053 A 
ATOM     65  H   UNL A   1      38.479  23.760  28.674  1.00  0.00     0.063 H 
ATOM     66  C   UNL A   1      40.505  26.359  26.726  1.00  0.00    -0.053 A 
ATOM     67  H   UNL A   1      40.333  25.015  25.111  1.00  0.00     0.063 H 
ATOM     68  C   UNL A   1      40.132  26.623  28.053  1.00  0.00    -0.014 A 
ATOM     69  H   UNL A   1      39.049  25.879  29.712  1.00  0.00     0.063 H 
ATOM     70  H   UNL A   1      41.073  27.046  26.207  1.00  0.00     0.063 H 
BRANCH  68  71
ATOM     71  C   UNL A   1      40.558  27.889  28.700  1.00  0.00     0.031 A 
ATOM     72  C   UNL A   1      41.969  28.054  29.193  1.00  0.00     0.074 A 
ATOM     73  C   UNL A   1      39.655  28.868  28.902  1.00  0.00     0.049 A 
ATOM     74  N   UNL A   1      42.508  29.056  29.841  1.00  0.00    -0.248 NA
ATOM     75  C   UNL A   1      42.889  26.932  28.949  1.00  0.00    -0.034 C 
ATOM     76  C   UNL A   1      38.244  28.806  28.515  1.00  0.00    -0.036 A 
ATOM     77  N   UNL A   1      39.784  30.098  29.497  1.00  0.00    -0.354 N 
ATOM     78  C   UNL A   1      43.820  28.679  30.095  1.00  0.00     0.074 A 
ATOM     79  C   UNL A   1      43.986  27.340  29.572  1.00  0.00    -0.034 C 
ATOM     80  H   UNL A   1      42.724  26.056  28.430  1.00  0.00     0.065 H 
ATOM     81  C   UNL A   1      37.642  29.953  28.869  1.00  0.00    -0.036 A 
ATOM     82  H   UNL A   1      37.786  28.010  28.045  1.00  0.00     0.065 H 
ATOM     83  C   UNL A   1      38.613  30.815  29.536  1.00  0.00     0.049 A 
ATOM     84  H   UNL A   1      40.634  30.434  29.861  1.00  0.00     0.167 HD
ATOM     85  C   UNL A   1      44.802  29.395  30.693  1.00  0.00     0.037 A 
ATOM     86  H   UNL A   1      44.844  26.777  29.672  1.00  0.00     0.065 H 
ATOM     87  H   UNL A   1      36.652  30.187  28.697  1.00  0.00     0.065 H 
ATOM     88  C   UNL A   1      38.351  32.030  30.055  1.00  0.00     0.037 A 
ATOM     89  C   UNL A   1      44.644  30.739  31.183  1.00  0.00     0.049 A 
ATOM     90  C   UNL A   1      39.465  32.808  30.701  1.00  0.00     0.074 A 
ATOM     91  C   UNL A   1      45.599  31.575  31.738  1.00  0.00    -0.036 A 
ATOM     92  N   UNL A   1      43.451  31.446  31.178  1.00  0.00    -0.354 N 
ATOM     93  N   UNL A   1      40.720  32.471  30.870  1.00  0.00    -0.248 NA
ATOM     94  C   UNL A   1      39.126  34.141  31.221  1.00  0.00    -0.034 C 
ATOM     95  C   UNL A   1      44.974  32.770  32.108  1.00  0.00    -0.036 A 
ATOM     96  H   UNL A   1      46.599  31.353  31.859  1.00  0.00     0.065 H 
ATOM     97  C   UNL A   1      43.640  32.699  31.740  1.00  0.00     0.049 A 
ATOM     98  H   UNL A   1      42.595  31.108  30.827  1.00  0.00     0.167 HD
ATOM     99  C   UNL A   1      41.326  33.554  31.491  1.00  0.00     0.074 A 
ATOM    100  C   UNL A   1      40.304  34.568  31.655  1.00  0.00    -0.034 C 
ATOM    101  H   UNL A   1      38.212  34.619  31.242  1.00  0.00     0.065 H 
ATOM    102  H   UNL A   1      45.429  33.571  32.573  1.00  0.00     0.065 H 
ATOM    103  C   UNL A   1      42.613  33.697  31.890  1.00  0.00     0.037 A 
ATOM    104  H   UNL A   1      40.470  35.502  32.059  1.00  0.00     0.065 H 
BRANCH  85 105
ATOM    105  C   UNL A   1      46.145  28.741  30.850  1.00  0.00     0.064 A 
ATOM    106  C   UNL A   1      46.467  27.990  31.991  1.00  0.00     0.173 A 
ATOM    107  C   UNL A   1      47.102  28.828  29.828  1.00  0.00     0.173 A 
ATOM    108  F   UNL A   1      45.591  27.885  33.000  1.00  0.00    -0.203 F 
ATOM    109  C   UNL A   1      47.709  27.370  32.112  1.00  0.00     0.198 A 
ATOM    110  C   UNL A   1      48.331  28.183  29.942  1.00  0.00     0.198 A 
ATOM    111  F   UNL A   1      46.842  29.529  28.714  1.00  0.00    -0.203 F 
ATOM    112  F   UNL A   1      48.011  26.694  33.229  1.00  0.00    -0.200 F 
ATOM    113  C   UNL A   1      48.636  27.460  31.085  1.00  0.00     0.200 A 
ATOM    114  F   UNL A   1      49.223  28.262  28.943  1.00  0.00    -0.200 F 
ATOM    115  F   UNL A   1      49.827  26.856  31.201  1.00  0.00    -0.200 F 
ENDBRANCH  85 105
BRANCH  88 116
ATOM    116  C   UNL A   1      36.980  32.593  29.967  1.00  0.00     0.064 A 
ATOM    117  C   UNL A   1      36.557  33.280  28.820  1.00  0.00     0.173 A 
ATOM    118  C   UNL A   1      36.066  32.457  31.021  1.00  0.00     0.173 A 
ATOM    119  F   UNL A   1      37.404  33.453  27.794  1.00  0.00    -0.203 F 
ATOM    120  C   UNL A   1      35.278  33.828  28.740  1.00  0.00     0.198 A 
ATOM    121  C   UNL A   1      34.778  32.981  30.929  1.00  0.00     0.198 A 
ATOM    122  F   UNL A   1      36.419  31.803  32.137  1.00  0.00    -0.203 F 
ATOM    123  F   UNL A   1      34.915  34.518  27.650  1.00  0.00    -0.200 F 
ATOM    124  C   UNL A   1      34.388  33.673  29.792  1.00  0.00     0.200 A 
ATOM    125  F   UNL A   1      33.916  32.818  31.942  1.00  0.00    -0.200 F 
ATOM    126  F   UNL A   1      33.158  34.196  29.713  1.00  0.00    -0.200 F 
ENDBRANCH  88 116
BRANCH 103 127
ATOM    127  C   UNL A   1      42.995  35.005  32.519  1.00  0.00     0.064 A 
ATOM    128  C   UNL A   1      43.469  36.078  31.751  1.00  0.00     0.173 A 
ATOM    129  C   UNL A   1      42.848  35.198  33.901  1.00  0.00     0.173 A 
ATOM    130  F   UNL A   1      43.640  35.938  30.428  1.00  0.00    -0.203 F 
ATOM    131  C   UNL A   1      43.805  37.290  32.348  1.00  0.00     0.198 A 
ATOM    132  C   UNL A   1      43.160  36.419  34.490  1.00  0.00     0.198 A 
ATOM    133  F   UNL A   1      42.393  34.203  34.678  1.00  0.00    -0.203 F 
ATOM    134  F   UNL A   1      44.299  38.288  31.602  1.00  0.00    -0.200 F 
ATOM    135  C   UNL A   1      43.644  37.462  33.715  1.00  0.00     0.200 A 
ATOM    136  F   UNL A   1      42.992  36.588  35.809  1.00  0.00    -0.200 F 
ATOM    137  F   UNL A   1      43.963  38.632  34.287  1.00  0.00    -0.200 F 
ENDBRANCH 103 127
ENDBRANCH  68  71
ENDBRANCH  58  61
ENDBRANCH  54  57
ENDBRANCH  51  54
ENDBRANCH  48  51
ENDBRANCH  45  48
ENDBRANCH   1  45
TORSDOF 19
ENDMDL
MODEL 3
REMARK VINA RESULT:     -11.1      5.843     11.713
REMARK SMILES CCSc1cccc(-c2ccc([C@@H](C)C(=O)NCCCCCCNC(=O)c3ccc(-c4c5nc(c(-c6c(F)c(F)c(F)c(F)c6F)c6ccc([nH]6)c(-c6c(F)c(F)c(F)c(F)c6F)c6nc(c(-c7c(F)c(F)c(F)c(F)c7F)c7ccc4[nH]7)C=C6)C=C5)cc3)cc2)c1
REMARK SMILES IDX 19 1 18 4 17 7 15 8 16 9 13 11 12 13 9 14 10 15 91 16 11 17
REMARK SMILES IDX 90 19 8 23 4 24 5 25 92 26 6 27 7 30 3 33 2 34 1 37 14 41
REMARK SMILES IDX 20 45 21 48 22 51 23 54 24 57 25 58 26 60 27 61 28 62 89 63
REMARK SMILES IDX 29 64 88 66 30 68 31 71 32 72 82 73 33 74 87 75 81 76 83 77
REMARK SMILES IDX 34 78 86 79 80 81 79 83 35 85 67 88 47 89 66 90 48 91 51 92
REMARK SMILES IDX 65 93 84 94 49 95 50 97 64 99 85 100 52 103 36 105 37 106
REMARK SMILES IDX 45 107 38 108 39 109 43 110 46 111 40 112 41 113 44 114
REMARK SMILES IDX 42 115 68 116 69 117 77 118 70 119 71 120 75 121 78 122
REMARK SMILES IDX 72 123 73 124 76 125 74 126 53 127 54 128 62 129 55 130
REMARK SMILES IDX 56 131 60 132 63 133 57 134 58 135 61 136 59 137
REMARK H PARENT 19 2 19 3 18 5 18 6 17 10 13 12 10 18 91 20 11 21 90 22 5 28
REMARK H PARENT 92 29 6 31 7 32 2 35 2 36 1 38 1 39 1 40 14 42 14 43 14 44
REMARK H PARENT 20 46 20 47 21 49 21 50 22 52 22 53 23 55 23 56 24 59 28 65
REMARK H PARENT 89 67 29 69 88 70 87 80 81 82 83 84 86 86 80 87 48 96 51 98
REMARK H PARENT 84 101 49 102 85 104
REMARK Flexibility Score: inf
ROOT
ATOM      1  C   UNL A   1      44.164  19.082  24.916  1.00  0.00    -0.036 C 
ATOM      2  H   UNL A   1      44.456  18.371  24.171  1.00  0.00     0.028 H 
ATOM      3  H   UNL A   1      43.782  19.987  24.493  1.00  0.00     0.028 H 
ENDROOT
BRANCH   1   4
ATOM      4  C   UNL A   1      45.403  19.461  25.730  1.00  0.00     0.017 C 
ATOM      5  H   UNL A   1      45.116  19.605  26.750  1.00  0.00     0.049 H 
ATOM      6  H   UNL A   1      46.115  18.667  25.640  1.00  0.00     0.049 H 
BRANCH   4   7
ATOM      7  N   UNL A   1      46.019  20.674  25.239  1.00  0.00    -0.356 N 
ATOM      8  C   UNL A   1      45.540  21.943  25.120  1.00  0.00     0.227 C 
ATOM      9  O   UNL A   1      46.287  22.762  24.570  1.00  0.00    -0.274 OA
ATOM     10  H   UNL A   1      46.949  20.563  24.938  1.00  0.00     0.163 HD
BRANCH   8  11
ATOM     11  C   UNL A   1      44.166  22.388  25.640  1.00  0.00     0.060 C 
ATOM     12  H   UNL A   1      43.592  21.491  25.746  1.00  0.00     0.045 H 
BRANCH  11  13
ATOM     13  C   UNL A   1      44.199  22.941  27.057  1.00  0.00    -0.036 A 
ATOM     14  C   UNL A   1      44.185  23.842  29.777  1.00  0.00    -0.018 A 
ATOM     15  C   UNL A   1      45.354  23.850  28.999  1.00  0.00    -0.054 A 
ATOM     16  C   UNL A   1      43.013  23.399  29.143  1.00  0.00    -0.054 A 
ATOM     17  C   UNL A   1      45.356  23.439  27.660  1.00  0.00    -0.058 A 
ATOM     18  H   UNL A   1      46.238  24.168  29.428  1.00  0.00     0.063 H 
ATOM     19  C   UNL A   1      43.023  22.937  27.819  1.00  0.00    -0.058 A 
ATOM     20  H   UNL A   1      42.123  23.412  29.664  1.00  0.00     0.063 H 
ATOM     21  H   UNL A   1      46.227  23.505  27.111  1.00  0.00     0.063 H 
ATOM     22  H   UNL A   1      42.148  22.590  27.396  1.00  0.00     0.063 H 
BRANCH  14  23
ATOM     23  C   UNL A   1      44.196  24.274  31.196  1.00  0.00    -0.017 A 
ATOM     24  C   UNL A   1      44.242  26.053  32.889  1.00  0.00     0.008 A 
ATOM     25  C   UNL A   1      44.190  25.103  33.906  1.00  0.00    -0.049 A 
ATOM     26  C   UNL A   1      44.242  25.637  31.550  1.00  0.00    -0.041 A 
ATOM     27  C   UNL A   1      44.140  23.749  33.588  1.00  0.00    -0.061 A 
ATOM     28  H   UNL A   1      44.187  25.402  34.894  1.00  0.00     0.063 H 
ATOM     29  H   UNL A   1      44.277  26.348  30.803  1.00  0.00     0.064 H 
ATOM     30  C   UNL A   1      44.153  23.343  32.250  1.00  0.00    -0.054 A 
ATOM     31  H   UNL A   1      44.095  23.044  34.340  1.00  0.00     0.062 H 
ATOM     32  H   UNL A   1      44.128  22.335  32.030  1.00  0.00     0.063 H 
BRANCH  24  33
ATOM     33  S   UNL A   1      44.374  27.792  33.265  1.00  0.00    -0.126 SA
BRANCH  33  34
ATOM     34  C   UNL A   1      42.999  27.978  34.448  1.00  0.00    -0.005 C 
ATOM     35  H   UNL A   1      43.091  27.229  35.207  1.00  0.00     0.038 H 
ATOM     36  H   UNL A   1      43.052  28.960  34.868  1.00  0.00     0.038 H 
BRANCH  34  37
ATOM     37  C   UNL A   1      41.649  27.826  33.768  1.00  0.00    -0.056 C 
ATOM     38  H   UNL A   1      40.986  28.588  34.119  1.00  0.00     0.024 H 
ATOM     39  H   UNL A   1      41.240  26.865  33.999  1.00  0.00     0.024 H 
ATOM     40  H   UNL A   1      41.771  27.918  32.710  1.00  0.00     0.024 H 
ENDBRANCH  34  37
ENDBRANCH  33  34
ENDBRANCH  24  33
ENDBRANCH  14  23
ENDBRANCH  11  13
BRANCH  11  41
ATOM     41  C   UNL A   1      43.344  23.185  24.625  1.00  0.00    -0.049 C 
ATOM     42  H   UNL A   1      43.943  23.974  24.222  1.00  0.00     0.024 H 
ATOM     43  H   UNL A   1      42.485  23.601  25.110  1.00  0.00     0.024 H 
ATOM     44  H   UNL A   1      43.028  22.536  23.835  1.00  0.00     0.024 H 
ENDBRANCH  11  41
ENDBRANCH   8  11
ENDBRANCH   4   7
ENDBRANCH   1   4
BRANCH   1  45
ATOM     45  C   UNL A   1      43.035  18.470  25.751  1.00  0.00    -0.052 C 
ATOM     46  H   UNL A   1      43.458  17.710  26.375  1.00  0.00     0.027 H 
ATOM     47  H   UNL A   1      42.316  18.097  25.051  1.00  0.00     0.027 H 
BRANCH  45  48
ATOM     48  C   UNL A   1      42.278  19.455  26.652  1.00  0.00    -0.052 C 
ATOM     49  H   UNL A   1      42.877  20.337  26.749  1.00  0.00     0.027 H 
ATOM     50  H   UNL A   1      42.113  18.941  27.575  1.00  0.00     0.027 H 
BRANCH  48  51
ATOM     51  C   UNL A   1      40.892  19.878  26.154  1.00  0.00    -0.036 C 
ATOM     52  H   UNL A   1      40.182  19.154  26.493  1.00  0.00     0.028 H 
ATOM     53  H   UNL A   1      40.962  19.936  25.087  1.00  0.00     0.028 H 
BRANCH  51  54
ATOM     54  C   UNL A   1      40.431  21.255  26.628  1.00  0.00     0.018 C 
ATOM     55  H   UNL A   1      41.161  21.982  26.338  1.00  0.00     0.049 H 
ATOM     56  H   UNL A   1      40.323  21.219  27.692  1.00  0.00     0.049 H 
BRANCH  54  57
ATOM     57  N   UNL A   1      39.147  21.625  26.057  1.00  0.00    -0.352 N 
ATOM     58  C   UNL A   1      38.460  22.812  26.127  1.00  0.00     0.251 C 
ATOM     59  H   UNL A   1      38.700  20.916  25.540  1.00  0.00     0.163 HD
ATOM     60  O   UNL A   1      37.289  22.865  25.764  1.00  0.00    -0.269 OA
BRANCH  58  61
ATOM     61  C   UNL A   1      39.118  24.029  26.647  1.00  0.00     0.039 A 
ATOM     62  C   UNL A   1      39.851  24.829  25.764  1.00  0.00    -0.049 A 
ATOM     63  C   UNL A   1      39.058  24.360  28.003  1.00  0.00    -0.049 A 
ATOM     64  C   UNL A   1      40.474  25.988  26.228  1.00  0.00    -0.053 A 
ATOM     65  H   UNL A   1      39.930  24.562  24.769  1.00  0.00     0.063 H 
ATOM     66  C   UNL A   1      39.627  25.549  28.455  1.00  0.00    -0.053 A 
ATOM     67  H   UNL A   1      38.591  23.725  28.669  1.00  0.00     0.063 H 
ATOM     68  C   UNL A   1      40.344  26.373  27.574  1.00  0.00    -0.014 A 
ATOM     69  H   UNL A   1      41.033  26.566  25.582  1.00  0.00     0.063 H 
ATOM     70  H   UNL A   1      39.523  25.824  29.444  1.00  0.00     0.063 H 
BRANCH  68  71
ATOM     71  C   UNL A   1      40.944  27.636  28.070  1.00  0.00     0.031 A 
ATOM     72  C   UNL A   1      42.437  27.808  28.100  1.00  0.00     0.074 A 
ATOM     73  C   UNL A   1      40.143  28.605  28.556  1.00  0.00     0.049 A 
ATOM     74  N   UNL A   1      43.146  28.809  28.560  1.00  0.00    -0.248 NA
ATOM     75  C   UNL A   1      43.241  26.697  27.569  1.00  0.00    -0.034 C 
ATOM     76  C   UNL A   1      38.683  28.535  28.628  1.00  0.00    -0.036 A 
ATOM     77  N   UNL A   1      40.445  29.830  29.095  1.00  0.00    -0.354 N 
ATOM     78  C   UNL A   1      44.474  28.441  28.388  1.00  0.00     0.074 A 
ATOM     79  C   UNL A   1      44.475  27.109  27.824  1.00  0.00    -0.034 C 
ATOM     80  H   UNL A   1      42.926  25.824  27.116  1.00  0.00     0.065 H 
ATOM     81  C   UNL A   1      38.215  29.673  29.165  1.00  0.00    -0.036 A 
ATOM     82  H   UNL A   1      38.105  27.739  28.315  1.00  0.00     0.065 H 
ATOM     83  C   UNL A   1      39.341  30.537  29.506  1.00  0.00     0.049 A 
ATOM     84  H   UNL A   1      41.365  30.171  29.180  1.00  0.00     0.167 HD
ATOM     85  C   UNL A   1      45.590  29.160  28.658  1.00  0.00     0.037 A 
ATOM     86  H   UNL A   1      45.325  26.553  27.644  1.00  0.00     0.065 H 
ATOM     87  H   UNL A   1      37.219  29.900  29.313  1.00  0.00     0.065 H 
ATOM     88  C   UNL A   1      39.248  31.744  30.095  1.00  0.00     0.037 A 
ATOM     89  C   UNL A   1      45.585  30.498  29.189  1.00  0.00     0.049 A 
ATOM     90  C   UNL A   1      40.503  32.526  30.371  1.00  0.00     0.074 A 
ATOM     91  C   UNL A   1      46.661  31.336  29.429  1.00  0.00    -0.036 A 
ATOM     92  N   UNL A   1      44.446  31.194  29.564  1.00  0.00    -0.354 N 
ATOM     93  N   UNL A   1      41.751  32.198  30.136  1.00  0.00    -0.248 NA
ATOM     94  C   UNL A   1      40.336  33.851  30.986  1.00  0.00    -0.034 C 
ATOM     95  C   UNL A   1      46.176  32.522  29.989  1.00  0.00    -0.036 A 
ATOM     96  H   UNL A   1      47.651  31.122  29.229  1.00  0.00     0.065 H 
ATOM     97  C   UNL A   1      44.795  32.443  30.054  1.00  0.00     0.049 A 
ATOM     98  H   UNL A   1      43.526  30.852  29.494  1.00  0.00     0.167 HD
ATOM     99  C   UNL A   1      42.514  33.281  30.550  1.00  0.00     0.074 A 
ATOM    100  C   UNL A   1      41.589  34.283  31.036  1.00  0.00    -0.034 C 
ATOM    101  H   UNL A   1      39.472  34.320  31.297  1.00  0.00     0.065 H 
ATOM    102  H   UNL A   1      46.750  33.322  30.298  1.00  0.00     0.065 H 
ATOM    103  C   UNL A   1      43.860  33.431  30.530  1.00  0.00     0.037 A 
ATOM    104  H   UNL A   1      41.868  35.215  31.379  1.00  0.00     0.065 H 
BRANCH  85 105
ATOM    105  C   UNL A   1      46.918  28.516  28.381  1.00  0.00     0.064 A 
ATOM    106  C   UNL A   1      47.589  28.711  27.165  1.00  0.00     0.173 A 
ATOM    107  C   UNL A   1      47.547  27.733  29.361  1.00  0.00     0.173 A 
ATOM    108  F   UNL A   1      47.025  29.442  26.192  1.00  0.00    -0.203 F 
ATOM    109  C   UNL A   1      48.831  28.125  26.930  1.00  0.00     0.198 A 
ATOM    110  C   UNL A   1      48.801  27.172  29.132  1.00  0.00     0.198 A 
ATOM    111  F   UNL A   1      46.951  27.519  30.543  1.00  0.00    -0.203 F 
ATOM    112  F   UNL A   1      49.434  28.290  25.745  1.00  0.00    -0.200 F 
ATOM    113  C   UNL A   1      49.439  27.364  27.917  1.00  0.00     0.200 A 
ATOM    114  F   UNL A   1      49.394  26.445  30.092  1.00  0.00    -0.200 F 
ATOM    115  F   UNL A   1      50.638  26.808  27.692  1.00  0.00    -0.200 F 
ENDBRANCH  85 105
BRANCH  88 116
ATOM    116  C   UNL A   1      37.914  32.296  30.446  1.00  0.00     0.064 A 
ATOM    117  C   UNL A   1      37.224  33.129  29.554  1.00  0.00     0.173 A 
ATOM    118  C   UNL A   1      37.303  32.004  31.673  1.00  0.00     0.173 A 
ATOM    119  F   UNL A   1      37.778  33.453  28.376  1.00  0.00    -0.203 F 
ATOM    120  C   UNL A   1      35.982  33.666  29.887  1.00  0.00     0.198 A 
ATOM    121  C   UNL A   1      36.049  32.519  31.994  1.00  0.00     0.198 A 
ATOM    122  F   UNL A   1      37.920  31.208  32.559  1.00  0.00    -0.203 F 
ATOM    123  F   UNL A   1      35.364  34.495  29.034  1.00  0.00    -0.200 F 
ATOM    124  C   UNL A   1      35.393  33.356  31.103  1.00  0.00     0.200 A 
ATOM    125  F   UNL A   1      35.477  32.207  33.164  1.00  0.00    -0.200 F 
ATOM    126  F   UNL A   1      34.197  33.869  31.420  1.00  0.00    -0.200 F 
ENDBRANCH  88 116
BRANCH 103 127
ATOM    127  C   UNL A   1      44.413  34.736  31.023  1.00  0.00     0.064 A 
ATOM    128  C   UNL A   1      44.791  34.915  32.361  1.00  0.00     0.173 A 
ATOM    129  C   UNL A   1      44.601  35.807  30.136  1.00  0.00     0.173 A 
ATOM    130  F   UNL A   1      44.616  33.925  33.250  1.00  0.00    -0.203 F 
ATOM    131  C   UNL A   1      45.316  36.127  32.799  1.00  0.00     0.198 A 
ATOM    132  C   UNL A   1      45.151  37.009  30.572  1.00  0.00     0.198 A 
ATOM    133  F   UNL A   1      44.260  35.683  28.845  1.00  0.00    -0.203 F 
ATOM    134  F   UNL A   1      45.628  36.292  34.092  1.00  0.00    -0.200 F 
ATOM    135  C   UNL A   1      45.501  37.171  31.903  1.00  0.00     0.200 A 
ATOM    136  F   UNL A   1      45.342  38.011  29.703  1.00  0.00    -0.200 F 
ATOM    137  F   UNL A   1      46.012  38.336  32.326  1.00  0.00    -0.200 F 
ENDBRANCH 103 127
ENDBRANCH  68  71
ENDBRANCH  58  61
ENDBRANCH  54  57
ENDBRANCH  51  54
ENDBRANCH  48  51
ENDBRANCH  45  48
ENDBRANCH   1  45
TORSDOF 19
ENDMDL
MODEL 4
REMARK VINA RESULT:     -11.0      5.845     11.648
REMARK SMILES CCSc1cccc(-c2ccc([C@@H](C)C(=O)NCCCCCCNC(=O)c3ccc(-c4c5nc(c(-c6c(F)c(F)c(F)c(F)c6F)c6ccc([nH]6)c(-c6c(F)c(F)c(F)c(F)c6F)c6nc(c(-c7c(F)c(F)c(F)c(F)c7F)c7ccc4[nH]7)C=C6)C=C5)cc3)cc2)c1
REMARK SMILES IDX 19 1 18 4 17 7 15 8 16 9 13 11 12 13 9 14 10 15 91 16 11 17
REMARK SMILES IDX 90 19 8 23 4 24 5 25 92 26 6 27 7 30 3 33 2 34 1 37 14 41
REMARK SMILES IDX 20 45 21 48 22 51 23 54 24 57 25 58 26 60 27 61 28 62 89 63
REMARK SMILES IDX 29 64 88 66 30 68 31 71 32 72 82 73 33 74 87 75 81 76 83 77
REMARK SMILES IDX 34 78 86 79 80 81 79 83 35 85 67 88 47 89 66 90 48 91 51 92
REMARK SMILES IDX 65 93 84 94 49 95 50 97 64 99 85 100 52 103 36 105 37 106
REMARK SMILES IDX 45 107 38 108 39 109 43 110 46 111 40 112 41 113 44 114
REMARK SMILES IDX 42 115 68 116 69 117 77 118 70 119 71 120 75 121 78 122
REMARK SMILES IDX 72 123 73 124 76 125 74 126 53 127 54 128 62 129 55 130
REMARK SMILES IDX 56 131 60 132 63 133 57 134 58 135 61 136 59 137
REMARK H PARENT 19 2 19 3 18 5 18 6 17 10 13 12 10 18 91 20 11 21 90 22 5 28
REMARK H PARENT 92 29 6 31 7 32 2 35 2 36 1 38 1 39 1 40 14 42 14 43 14 44
REMARK H PARENT 20 46 20 47 21 49 21 50 22 52 22 53 23 55 23 56 24 59 28 65
REMARK H PARENT 89 67 29 69 88 70 87 80 81 82 83 84 86 86 80 87 48 96 51 98
REMARK H PARENT 84 101 49 102 85 104
REMARK Flexibility Score: inf
ROOT
ATOM      1  C   UNL A   1      44.510  19.481  24.599  1.00  0.00    -0.036 C 
ATOM      2  H   UNL A   1      44.910  18.775  23.901  1.00  0.00     0.028 H 
ATOM      3  H   UNL A   1      44.021  20.302  24.119  1.00  0.00     0.028 H 
ENDROOT
BRANCH   1   4
ATOM      4  C   UNL A   1      45.668  20.065  25.410  1.00  0.00     0.017 C 
ATOM      5  H   UNL A   1      45.363  20.162  26.430  1.00  0.00     0.049 H 
ATOM      6  H   UNL A   1      46.504  19.402  25.321  1.00  0.00     0.049 H 
BRANCH   4   7
ATOM      7  N   UNL A   1      46.070  21.363  24.914  1.00  0.00    -0.356 N 
ATOM      8  C   UNL A   1      45.409  22.552  24.861  1.00  0.00     0.227 C 
ATOM      9  O   UNL A   1      45.992  23.479  24.286  1.00  0.00    -0.274 OA
ATOM     10  H   UNL A   1      46.985  21.392  24.550  1.00  0.00     0.163 HD
BRANCH   8  11
ATOM     11  C   UNL A   1      44.024  22.785  25.479  1.00  0.00     0.060 C 
ATOM     12  H   UNL A   1      43.529  21.836  25.449  1.00  0.00     0.045 H 
BRANCH  11  13
ATOM     13  C   UNL A   1      44.065  23.101  26.967  1.00  0.00    -0.036 A 
ATOM     14  C   UNL A   1      44.225  23.839  29.730  1.00  0.00    -0.018 A 
ATOM     15  C   UNL A   1      43.011  23.470  29.131  1.00  0.00    -0.054 A 
ATOM     16  C   UNL A   1      45.366  23.797  28.913  1.00  0.00    -0.054 A 
ATOM     17  C   UNL A   1      42.936  23.080  27.788  1.00  0.00    -0.058 A 
ATOM     18  H   UNL A   1      42.147  23.487  29.698  1.00  0.00     0.063 H 
ATOM     19  C   UNL A   1      45.286  23.458  27.555  1.00  0.00    -0.058 A 
ATOM     20  H   UNL A   1      46.286  24.023  29.321  1.00  0.00     0.063 H 
ATOM     21  H   UNL A   1      42.031  22.771  27.399  1.00  0.00     0.063 H 
ATOM     22  H   UNL A   1      46.141  23.469  26.978  1.00  0.00     0.063 H 
BRANCH  14  23
ATOM     23  C   UNL A   1      44.292  24.257  31.153  1.00  0.00    -0.017 A 
ATOM     24  C   UNL A   1      44.554  26.008  32.856  1.00  0.00     0.008 A 
ATOM     25  C   UNL A   1      44.395  25.064  33.867  1.00  0.00    -0.049 A 
ATOM     26  C   UNL A   1      44.499  25.604  31.514  1.00  0.00    -0.041 A 
ATOM     27  C   UNL A   1      44.186  23.727  33.541  1.00  0.00    -0.061 A 
ATOM     28  H   UNL A   1      44.432  25.354  34.857  1.00  0.00     0.063 H 
ATOM     29  H   UNL A   1      44.614  26.310  30.772  1.00  0.00     0.064 H 
ATOM     30  C   UNL A   1      44.145  23.331  32.201  1.00  0.00    -0.054 A 
ATOM     31  H   UNL A   1      44.062  23.026  34.289  1.00  0.00     0.062 H 
ATOM     32  H   UNL A   1      44.002  22.334  31.975  1.00  0.00     0.063 H 
BRANCH  24  33
ATOM     33  S   UNL A   1      44.890  27.717  33.242  1.00  0.00    -0.126 SA
BRANCH  33  34
ATOM     34  C   UNL A   1      43.923  28.545  31.936  1.00  0.00    -0.005 C 
ATOM     35  H   UNL A   1      44.221  29.572  31.883  1.00  0.00     0.038 H 
ATOM     36  H   UNL A   1      44.113  28.042  31.011  1.00  0.00     0.038 H 
BRANCH  34  37
ATOM     37  C   UNL A   1      42.432  28.480  32.214  1.00  0.00    -0.056 C 
ATOM     38  H   UNL A   1      42.175  27.498  32.553  1.00  0.00     0.024 H 
ATOM     39  H   UNL A   1      41.892  28.698  31.316  1.00  0.00     0.024 H 
ATOM     40  H   UNL A   1      42.178  29.195  32.967  1.00  0.00     0.024 H 
ENDBRANCH  34  37
ENDBRANCH  33  34
ENDBRANCH  24  33
ENDBRANCH  14  23
ENDBRANCH  11  13
BRANCH  11  41
ATOM     41  C   UNL A   1      43.101  23.661  24.630  1.00  0.00    -0.049 C 
ATOM     42  H   UNL A   1      42.083  23.392  24.815  1.00  0.00     0.024 H 
ATOM     43  H   UNL A   1      43.325  23.515  23.593  1.00  0.00     0.024 H 
ATOM     44  H   UNL A   1      43.251  24.689  24.886  1.00  0.00     0.024 H 
ENDBRANCH  11  41
ENDBRANCH   8  11
ENDBRANCH   4   7
ENDBRANCH   1   4
BRANCH   1  45
ATOM     45  C   UNL A   1      43.452  18.771  25.451  1.00  0.00    -0.052 C 
ATOM     46  H   UNL A   1      43.938  17.996  26.006  1.00  0.00     0.027 H 
ATOM     47  H   UNL A   1      42.715  18.407  24.765  1.00  0.00     0.027 H 
BRANCH  45  48
ATOM     48  C   UNL A   1      42.702  19.667  26.445  1.00  0.00    -0.052 C 
ATOM     49  H   UNL A   1      43.197  20.615  26.471  1.00  0.00     0.027 H 
ATOM     50  H   UNL A   1      42.716  19.145  27.378  1.00  0.00     0.027 H 
BRANCH  48  51
ATOM     51  C   UNL A   1      41.224  19.917  26.126  1.00  0.00    -0.036 C 
ATOM     52  H   UNL A   1      40.640  19.210  26.677  1.00  0.00     0.028 H 
ATOM     53  H   UNL A   1      41.124  19.815  25.065  1.00  0.00     0.028 H 
BRANCH  51  54
ATOM     54  C   UNL A   1      40.720  21.317  26.469  1.00  0.00     0.018 C 
ATOM     55  H   UNL A   1      41.364  22.038  26.010  1.00  0.00     0.049 H 
ATOM     56  H   UNL A   1      40.724  21.418  27.535  1.00  0.00     0.049 H 
BRANCH  54  57
ATOM     57  N   UNL A   1      39.361  21.537  26.002  1.00  0.00    -0.352 N 
ATOM     58  C   UNL A   1      38.557  22.643  26.117  1.00  0.00     0.251 C 
ATOM     59  H   UNL A   1      38.955  20.775  25.529  1.00  0.00     0.163 HD
ATOM     60  O   UNL A   1      37.362  22.564  25.850  1.00  0.00    -0.269 OA
BRANCH  58  61
ATOM     61  C   UNL A   1      39.118  23.934  26.571  1.00  0.00     0.039 A 
ATOM     62  C   UNL A   1      38.904  24.333  27.894  1.00  0.00    -0.049 A 
ATOM     63  C   UNL A   1      39.812  24.769  25.693  1.00  0.00    -0.049 A 
ATOM     64  C   UNL A   1      39.432  25.543  28.350  1.00  0.00    -0.053 A 
ATOM     65  H   UNL A   1      38.355  23.735  28.533  1.00  0.00     0.063 H 
ATOM     66  C   UNL A   1      40.391  25.946  26.163  1.00  0.00    -0.053 A 
ATOM     67  H   UNL A   1      39.896  24.515  24.696  1.00  0.00     0.063 H 
ATOM     68  C   UNL A   1      40.204  26.346  27.495  1.00  0.00    -0.014 A 
ATOM     69  H   UNL A   1      39.254  25.849  29.319  1.00  0.00     0.063 H 
ATOM     70  H   UNL A   1      40.960  26.527  25.528  1.00  0.00     0.063 H 
BRANCH  68  71
ATOM     71  C   UNL A   1      40.829  27.602  27.981  1.00  0.00     0.031 A 
ATOM     72  C   UNL A   1      42.323  27.760  27.974  1.00  0.00     0.074 A 
ATOM     73  C   UNL A   1      40.050  28.576  28.492  1.00  0.00     0.049 A 
ATOM     74  N   UNL A   1      43.053  28.752  28.420  1.00  0.00    -0.248 NA
ATOM     75  C   UNL A   1      43.103  26.644  27.418  1.00  0.00    -0.034 C 
ATOM     76  C   UNL A   1      38.591  28.519  28.600  1.00  0.00    -0.036 A 
ATOM     77  N   UNL A   1      40.376  29.796  29.028  1.00  0.00    -0.354 N 
ATOM     78  C   UNL A   1      44.373  28.373  28.212  1.00  0.00     0.074 A 
ATOM     79  C   UNL A   1      44.348  27.043  27.642  1.00  0.00    -0.034 C 
ATOM     80  H   UNL A   1      42.769  25.776  26.969  1.00  0.00     0.065 H 
ATOM     81  C   UNL A   1      38.148  29.659  29.154  1.00  0.00    -0.036 A 
ATOM     82  H   UNL A   1      37.998  27.730  28.298  1.00  0.00     0.065 H 
ATOM     83  C   UNL A   1      39.290  30.511  29.469  1.00  0.00     0.049 A 
ATOM     84  H   UNL A   1      41.301  30.127  29.091  1.00  0.00     0.167 HD
ATOM     85  C   UNL A   1      45.502  29.080  28.457  1.00  0.00     0.037 A 
ATOM     86  H   UNL A   1      45.187  26.480  27.439  1.00  0.00     0.065 H 
ATOM     87  H   UNL A   1      37.158  29.894  29.328  1.00  0.00     0.065 H 
ATOM     88  C   UNL A   1      39.223  31.716  30.066  1.00  0.00     0.037 A 
ATOM     89  C   UNL A   1      45.523  30.416  28.994  1.00  0.00     0.049 A 
ATOM     90  C   UNL A   1      40.492  32.485  30.313  1.00  0.00     0.074 A 
ATOM     91  C   UNL A   1      46.613  31.243  29.209  1.00  0.00    -0.036 A 
ATOM     92  N   UNL A   1      44.401  31.120  29.401  1.00  0.00    -0.354 N 
ATOM     93  N   UNL A   1      41.730  32.147  30.046  1.00  0.00    -0.248 NA
ATOM     94  C   UNL A   1      40.353  33.808  30.939  1.00  0.00    -0.034 C 
ATOM     95  C   UNL A   1      46.153  32.431  29.786  1.00  0.00    -0.036 A 
ATOM     96  H   UNL A   1      47.595  31.020  28.983  1.00  0.00     0.065 H 
ATOM     97  C   UNL A   1      44.773  32.364  29.887  1.00  0.00     0.049 A 
ATOM     98  H   UNL A   1      43.476  30.787  29.353  1.00  0.00     0.167 HD
ATOM     99  C   UNL A   1      42.514  33.221  30.444  1.00  0.00     0.074 A 
ATOM    100  C   UNL A   1      41.611  34.229  30.958  1.00  0.00    -0.034 C 
ATOM    101  H   UNL A   1      39.502  34.284  31.273  1.00  0.00     0.065 H 
ATOM    102  H   UNL A   1      46.742  33.224  30.085  1.00  0.00     0.065 H 
ATOM    103  C   UNL A   1      43.861  33.359  30.390  1.00  0.00     0.037 A 
ATOM    104  H   UNL A   1      41.907  35.157  31.298  1.00  0.00     0.065 H 
BRANCH  85 105
ATOM    105  C   UNL A   1      46.817  28.425  28.143  1.00  0.00     0.064 A 
ATOM    106  C   UNL A   1      47.486  27.632  29.087  1.00  0.00     0.173 A 
ATOM    107  C   UNL A   1      47.389  28.554  26.869  1.00  0.00     0.173 A 
ATOM    108  F   UNL A   1      46.986  27.487  30.323  1.00  0.00    -0.203 F 
ATOM    109  C   UNL A   1      48.694  27.013  28.774  1.00  0.00     0.198 A 
ATOM    110  C   UNL A   1      48.582  27.910  26.551  1.00  0.00     0.198 A 
ATOM    111  F   UNL A   1      46.786  29.296  25.927  1.00  0.00    -0.203 F 
ATOM    112  F   UNL A   1      49.338  26.297  29.705  1.00  0.00    -0.200 F 
ATOM    113  C   UNL A   1      49.237  27.146  27.505  1.00  0.00     0.200 A 
ATOM    114  F   UNL A   1      49.100  28.030  25.319  1.00  0.00    -0.200 F 
ATOM    115  F   UNL A   1      50.394  26.542  27.203  1.00  0.00    -0.200 F 
ENDBRANCH  85 105
BRANCH  88 116
ATOM    116  C   UNL A   1      37.904  32.279  30.453  1.00  0.00     0.064 A 
ATOM    117  C   UNL A   1      37.340  31.993  31.704  1.00  0.00     0.173 A 
ATOM    118  C   UNL A   1      37.182  33.110  29.586  1.00  0.00     0.173 A 
ATOM    119  F   UNL A   1      37.984  31.186  32.560  1.00  0.00    -0.203 F 
ATOM    120  C   UNL A   1      36.093  32.501  32.064  1.00  0.00     0.198 A 
ATOM    121  C   UNL A   1      35.948  33.640  29.957  1.00  0.00     0.198 A 
ATOM    122  F   UNL A   1      37.682  33.418  28.379  1.00  0.00    -0.203 F 
ATOM    123  F   UNL A   1      35.557  32.176  33.248  1.00  0.00    -0.200 F 
ATOM    124  C   UNL A   1      35.401  33.329  31.193  1.00  0.00     0.200 A 
ATOM    125  F   UNL A   1      35.289  34.450  29.118  1.00  0.00    -0.200 F 
ATOM    126  F   UNL A   1      34.205  33.820  31.541  1.00  0.00    -0.200 F 
ENDBRANCH  88 116
BRANCH 103 127
ATOM    127  C   UNL A   1      44.437  34.656  30.875  1.00  0.00     0.064 A 
ATOM    128  C   UNL A   1      44.595  35.755  30.019  1.00  0.00     0.173 A 
ATOM    129  C   UNL A   1      44.801  34.812  32.222  1.00  0.00     0.173 A 
ATOM    130  F   UNL A   1      44.276  35.651  28.720  1.00  0.00    -0.203 F 
ATOM    131  C   UNL A   1      45.118  36.957  30.488  1.00  0.00     0.198 A 
ATOM    132  C   UNL A   1      45.298  36.023  32.693  1.00  0.00     0.198 A 
ATOM    133  F   UNL A   1      44.664  33.792  33.081  1.00  0.00    -0.203 F 
ATOM    134  F   UNL A   1      45.302  37.981  29.643  1.00  0.00    -0.200 F 
ATOM    135  C   UNL A   1      45.462  37.092  31.825  1.00  0.00     0.200 A 
ATOM    136  F   UNL A   1      45.618  36.156  33.987  1.00  0.00    -0.200 F 
ATOM    137  F   UNL A   1      45.961  38.252  32.276  1.00  0.00    -0.200 F 
ENDBRANCH 103 127
ENDBRANCH  68  71
ENDBRANCH  58  61
ENDBRANCH  54  57
ENDBRANCH  51  54
ENDBRANCH  48  51
ENDBRANCH  45  48
ENDBRANCH   1  45
TORSDOF 19
ENDMDL
MODEL 5
REMARK VINA RESULT:     -11.0      4.575      8.497
REMARK SMILES CCSc1cccc(-c2ccc([C@@H](C)C(=O)NCCCCCCNC(=O)c3ccc(-c4c5nc(c(-c6c(F)c(F)c(F)c(F)c6F)c6ccc([nH]6)c(-c6c(F)c(F)c(F)c(F)c6F)c6nc(c(-c7c(F)c(F)c(F)c(F)c7F)c7ccc4[nH]7)C=C6)C=C5)cc3)cc2)c1
REMARK SMILES IDX 19 1 18 4 17 7 15 8 16 9 13 11 12 13 9 14 10 15 91 16 11 17
REMARK SMILES IDX 90 19 8 23 4 24 5 25 92 26 6 27 7 30 3 33 2 34 1 37 14 41
REMARK SMILES IDX 20 45 21 48 22 51 23 54 24 57 25 58 26 60 27 61 28 62 89 63
REMARK SMILES IDX 29 64 88 66 30 68 31 71 32 72 82 73 33 74 87 75 81 76 83 77
REMARK SMILES IDX 34 78 86 79 80 81 79 83 35 85 67 88 47 89 66 90 48 91 51 92
REMARK SMILES IDX 65 93 84 94 49 95 50 97 64 99 85 100 52 103 36 105 37 106
REMARK SMILES IDX 45 107 38 108 39 109 43 110 46 111 40 112 41 113 44 114
REMARK SMILES IDX 42 115 68 116 69 117 77 118 70 119 71 120 75 121 78 122
REMARK SMILES IDX 72 123 73 124 76 125 74 126 53 127 54 128 62 129 55 130
REMARK SMILES IDX 56 131 60 132 63 133 57 134 58 135 61 136 59 137
REMARK H PARENT 19 2 19 3 18 5 18 6 17 10 13 12 10 18 91 20 11 21 90 22 5 28
REMARK H PARENT 92 29 6 31 7 32 2 35 2 36 1 38 1 39 1 40 14 42 14 43 14 44
REMARK H PARENT 20 46 20 47 21 49 21 50 22 52 22 53 23 55 23 56 24 59 28 65
REMARK H PARENT 89 67 29 69 88 70 87 80 81 82 83 84 86 86 80 87 48 96 51 98
REMARK H PARENT 84 101 49 102 85 104
REMARK Flexibility Score: inf
ROOT
ATOM      1  C   UNL A   1      38.354  33.904  31.229  1.00  0.00    -0.036 C 
ATOM      2  H   UNL A   1      39.296  33.450  31.453  1.00  0.00     0.028 H 
ATOM      3  H   UNL A   1      38.436  34.688  30.507  1.00  0.00     0.028 H 
ENDROOT
BRANCH   1   4
ATOM      4  C   UNL A   1      37.808  34.535  32.511  1.00  0.00     0.017 C 
ATOM      5  H   UNL A   1      37.354  35.473  32.268  1.00  0.00     0.049 H 
ATOM      6  H   UNL A   1      37.093  33.861  32.935  1.00  0.00     0.049 H 
BRANCH   4   7
ATOM      7  N   UNL A   1      38.851  34.757  33.487  1.00  0.00    -0.356 N 
ATOM      8  C   UNL A   1      39.167  34.096  34.635  1.00  0.00     0.227 C 
ATOM      9  O   UNL A   1      40.073  34.587  35.320  1.00  0.00    -0.274 OA
ATOM     10  H   UNL A   1      39.438  35.522  33.287  1.00  0.00     0.163 HD
BRANCH   8  11
ATOM     11  C   UNL A   1      38.480  32.801  35.089  1.00  0.00     0.060 C 
ATOM     12  H   UNL A   1      37.698  32.623  34.380  1.00  0.00     0.045 H 
BRANCH  11  13
ATOM     13  C   UNL A   1      39.355  31.564  34.950  1.00  0.00    -0.036 A 
ATOM     14  C   UNL A   1      41.054  29.294  34.537  1.00  0.00    -0.018 A 
ATOM     15  C   UNL A   1      41.096  30.046  35.721  1.00  0.00    -0.054 A 
ATOM     16  C   UNL A   1      40.111  29.692  33.575  1.00  0.00    -0.054 A 
ATOM     17  C   UNL A   1      40.245  31.138  35.937  1.00  0.00    -0.058 A 
ATOM     18  H   UNL A   1      41.776  29.787  36.455  1.00  0.00     0.063 H 
ATOM     19  C   UNL A   1      39.295  30.816  33.766  1.00  0.00    -0.058 A 
ATOM     20  H   UNL A   1      40.018  29.145  32.706  1.00  0.00     0.063 H 
ATOM     21  H   UNL A   1      40.277  31.635  36.841  1.00  0.00     0.063 H 
ATOM     22  H   UNL A   1      38.636  31.096  33.023  1.00  0.00     0.063 H 
BRANCH  14  23
ATOM     23  C   UNL A   1      41.965  28.144  34.316  1.00  0.00    -0.017 A 
ATOM     24  C   UNL A   1      42.570  25.794  34.696  1.00  0.00     0.008 A 
ATOM     25  C   UNL A   1      43.688  25.937  33.877  1.00  0.00    -0.049 A 
ATOM     26  C   UNL A   1      41.720  26.888  34.908  1.00  0.00    -0.041 A 
ATOM     27  C   UNL A   1      43.954  27.164  33.276  1.00  0.00    -0.061 A 
ATOM     28  H   UNL A   1      44.316  25.135  33.714  1.00  0.00     0.063 H 
ATOM     29  H   UNL A   1      40.892  26.771  35.513  1.00  0.00     0.064 H 
ATOM     30  C   UNL A   1      43.107  28.253  33.502  1.00  0.00    -0.054 A 
ATOM     31  H   UNL A   1      44.778  27.271  32.664  1.00  0.00     0.062 H 
ATOM     32  H   UNL A   1      43.324  29.160  33.061  1.00  0.00     0.063 H 
BRANCH  24  33
ATOM     33  S   UNL A   1      42.239  24.253  35.533  1.00  0.00    -0.126 SA
BRANCH  33  34
ATOM     34  C   UNL A   1      43.484  23.178  34.746  1.00  0.00    -0.005 C 
ATOM     35  H   UNL A   1      43.022  22.248  34.484  1.00  0.00     0.038 H 
ATOM     36  H   UNL A   1      43.857  23.679  33.879  1.00  0.00     0.038 H 
BRANCH  34  37
ATOM     37  C   UNL A   1      44.654  22.901  35.674  1.00  0.00    -0.056 C 
ATOM     38  H   UNL A   1      45.349  22.251  35.186  1.00  0.00     0.024 H 
ATOM     39  H   UNL A   1      44.297  22.435  36.569  1.00  0.00     0.024 H 
ATOM     40  H   UNL A   1      45.139  23.822  35.920  1.00  0.00     0.024 H 
ENDBRANCH  34  37
ENDBRANCH  33  34
ENDBRANCH  24  33
ENDBRANCH  14  23
ENDBRANCH  11  13
BRANCH  11  41
ATOM     41  C   UNL A   1      37.706  32.933  36.402  1.00  0.00    -0.049 C 
ATOM     42  H   UNL A   1      37.582  33.968  36.640  1.00  0.00     0.024 H 
ATOM     43  H   UNL A   1      38.250  32.449  37.187  1.00  0.00     0.024 H 
ATOM     44  H   UNL A   1      36.745  32.473  36.297  1.00  0.00     0.024 H 
ENDBRANCH  11  41
ENDBRANCH   8  11
ENDBRANCH   4   7
ENDBRANCH   1   4
BRANCH   1  45
ATOM     45  C   UNL A   1      37.436  32.837  30.622  1.00  0.00    -0.052 C 
ATOM     46  H   UNL A   1      38.022  31.960  30.441  1.00  0.00     0.027 H 
ATOM     47  H   UNL A   1      37.026  33.269  29.733  1.00  0.00     0.027 H 
BRANCH  45  48
ATOM     48  C   UNL A   1      36.236  32.434  31.490  1.00  0.00    -0.052 C 
ATOM     49  H   UNL A   1      36.240  33.054  32.363  1.00  0.00     0.027 H 
ATOM     50  H   UNL A   1      36.361  31.393  31.699  1.00  0.00     0.027 H 
BRANCH  48  51
ATOM     51  C   UNL A   1      34.863  32.567  30.825  1.00  0.00    -0.036 C 
ATOM     52  H   UNL A   1      34.384  33.438  31.220  1.00  0.00     0.028 H 
ATOM     53  H   UNL A   1      34.337  31.659  31.040  1.00  0.00     0.028 H 
BRANCH  51  54
ATOM     54  C   UNL A   1      34.894  32.692  29.303  1.00  0.00     0.018 C 
ATOM     55  H   UNL A   1      35.914  32.685  28.977  1.00  0.00     0.049 H 
ATOM     56  H   UNL A   1      34.409  33.607  29.037  1.00  0.00     0.049 H 
BRANCH  54  57
ATOM     57  N   UNL A   1      34.187  31.601  28.652  1.00  0.00    -0.352 N 
ATOM     58  C   UNL A   1      34.668  30.428  28.126  1.00  0.00     0.251 C 
ATOM     59  H   UNL A   1      33.213  31.723  28.576  1.00  0.00     0.163 HD
ATOM     60  O   UNL A   1      33.945  29.730  27.421  1.00  0.00    -0.269 OA
BRANCH  58  61
ATOM     61  C   UNL A   1      36.058  30.001  28.393  1.00  0.00     0.039 A 
ATOM     62  C   UNL A   1      37.020  30.176  27.393  1.00  0.00    -0.049 A 
ATOM     63  C   UNL A   1      36.408  29.391  29.600  1.00  0.00    -0.049 A 
ATOM     64  C   UNL A   1      38.342  29.790  27.624  1.00  0.00    -0.053 A 
ATOM     65  H   UNL A   1      36.754  30.589  26.485  1.00  0.00     0.063 H 
ATOM     66  C   UNL A   1      37.738  29.062  29.855  1.00  0.00    -0.053 A 
ATOM     67  H   UNL A   1      35.681  29.184  30.303  1.00  0.00     0.063 H 
ATOM     68  C   UNL A   1      38.717  29.255  28.868  1.00  0.00    -0.014 A 
ATOM     69  H   UNL A   1      39.047  29.897  26.879  1.00  0.00     0.063 H 
ATOM     70  H   UNL A   1      38.004  28.674  30.773  1.00  0.00     0.063 H 
BRANCH  68  71
ATOM     71  C   UNL A   1      40.130  28.901  29.155  1.00  0.00     0.031 A 
ATOM     72  C   UNL A   1      41.025  29.870  29.876  1.00  0.00     0.074 A 
ATOM     73  C   UNL A   1      40.625  27.732  28.706  1.00  0.00     0.049 A 
ATOM     74  N   UNL A   1      42.300  29.768  30.155  1.00  0.00    -0.248 NA
ATOM     75  C   UNL A   1      40.413  31.133  30.316  1.00  0.00    -0.034 C 
ATOM     76  C   UNL A   1      39.870  26.731  27.950  1.00  0.00    -0.036 A 
ATOM     77  N   UNL A   1      41.883  27.193  28.806  1.00  0.00    -0.354 N 
ATOM     78  C   UNL A   1      42.645  30.955  30.789  1.00  0.00     0.074 A 
ATOM     79  C   UNL A   1      41.457  31.782  30.813  1.00  0.00    -0.034 C 
ATOM     80  H   UNL A   1      39.428  31.435  30.255  1.00  0.00     0.065 H 
ATOM     81  C   UNL A   1      40.675  25.694  27.669  1.00  0.00    -0.036 A 
ATOM     82  H   UNL A   1      38.878  26.809  27.678  1.00  0.00     0.065 H 
ATOM     83  C   UNL A   1      42.009  25.970  28.194  1.00  0.00     0.049 A 
ATOM     84  H   UNL A   1      42.625  27.640  29.274  1.00  0.00     0.167 HD
ATOM     85  C   UNL A   1      43.839  31.314  31.319  1.00  0.00     0.037 A 
ATOM     86  H   UNL A   1      41.428  32.749  31.169  1.00  0.00     0.065 H 
ATOM     87  H   UNL A   1      40.395  24.839  27.162  1.00  0.00     0.065 H 
ATOM     88  C   UNL A   1      43.080  25.165  28.064  1.00  0.00     0.037 A 
ATOM     89  C   UNL A   1      45.009  30.475  31.322  1.00  0.00     0.049 A 
ATOM     90  C   UNL A   1      44.390  25.582  28.675  1.00  0.00     0.074 A 
ATOM     91  C   UNL A   1      46.244  30.720  31.899  1.00  0.00    -0.036 A 
ATOM     92  N   UNL A   1      45.090  29.230  30.718  1.00  0.00    -0.354 N 
ATOM     93  N   UNL A   1      44.685  26.675  29.336  1.00  0.00    -0.248 NA
ATOM     94  C   UNL A   1      45.516  24.647  28.530  1.00  0.00    -0.034 C 
ATOM     95  C   UNL A   1      47.085  29.641  31.607  1.00  0.00    -0.036 A 
ATOM     96  H   UNL A   1      46.500  31.554  32.449  1.00  0.00     0.065 H 
ATOM     97  C   UNL A   1      46.361  28.703  30.889  1.00  0.00     0.049 A 
ATOM     98  H   UNL A   1      44.354  28.786  30.238  1.00  0.00     0.167 HD
ATOM     99  C   UNL A   1      46.016  26.551  29.706  1.00  0.00     0.074 A 
ATOM    100  C   UNL A   1      46.470  25.268  29.210  1.00  0.00    -0.034 C 
ATOM    101  H   UNL A   1      45.553  23.746  28.031  1.00  0.00     0.065 H 
ATOM    102  H   UNL A   1      48.076  29.556  31.881  1.00  0.00     0.065 H 
ATOM    103  C   UNL A   1      46.794  27.422  30.393  1.00  0.00     0.037 A 
ATOM    104  H   UNL A   1      47.415  24.885  29.365  1.00  0.00     0.065 H 
BRANCH  85 105
ATOM    105  C   UNL A   1      43.943  32.674  31.947  1.00  0.00     0.064 A 
ATOM    106  C   UNL A   1      44.343  33.796  31.206  1.00  0.00     0.173 A 
ATOM    107  C   UNL A   1      43.593  32.864  33.292  1.00  0.00     0.173 A 
ATOM    108  F   UNL A   1      44.699  33.664  29.920  1.00  0.00    -0.203 F 
ATOM    109  C   UNL A   1      44.414  35.055  31.797  1.00  0.00     0.198 A 
ATOM    110  C   UNL A   1      43.638  34.130  33.871  1.00  0.00     0.198 A 
ATOM    111  F   UNL A   1      43.197  31.825  34.043  1.00  0.00    -0.203 F 
ATOM    112  F   UNL A   1      44.842  36.105  31.083  1.00  0.00    -0.200 F 
ATOM    113  C   UNL A   1      44.054  35.223  33.126  1.00  0.00     0.200 A 
ATOM    114  F   UNL A   1      43.278  34.292  35.153  1.00  0.00    -0.200 F 
ATOM    115  F   UNL A   1      44.114  36.437  33.690  1.00  0.00    -0.200 F 
ENDBRANCH  85 105
BRANCH  88 116
ATOM    116  C   UNL A   1      42.953  23.873  27.343  1.00  0.00     0.064 A 
ATOM    117  C   UNL A   1      42.485  22.726  28.000  1.00  0.00     0.173 A 
ATOM    118  C   UNL A   1      43.295  23.757  25.988  1.00  0.00     0.173 A 
ATOM    119  F   UNL A   1      42.165  22.785  29.301  1.00  0.00    -0.203 F 
ATOM    120  C   UNL A   1      42.383  21.507  27.333  1.00  0.00     0.198 A 
ATOM    121  C   UNL A   1      43.167  22.544  25.315  1.00  0.00     0.198 A 
ATOM    122  F   UNL A   1      43.742  24.826  25.314  1.00  0.00    -0.203 F 
ATOM    123  F   UNL A   1      41.974  20.417  27.995  1.00  0.00    -0.200 F 
ATOM    124  C   UNL A   1      42.718  21.418  25.990  1.00  0.00     0.200 A 
ATOM    125  F   UNL A   1      43.479  22.464  24.015  1.00  0.00    -0.200 F 
ATOM    126  F   UNL A   1      42.616  20.247  25.349  1.00  0.00    -0.200 F 
ENDBRANCH  88 116
BRANCH 103 127
ATOM    127  C   UNL A   1      48.208  27.005  30.674  1.00  0.00     0.064 A 
ATOM    128  C   UNL A   1      48.534  26.215  31.786  1.00  0.00     0.173 A 
ATOM    129  C   UNL A   1      49.242  27.368  29.797  1.00  0.00     0.173 A 
ATOM    130  F   UNL A   1      47.583  25.855  32.661  1.00  0.00    -0.203 F 
ATOM    131  C   UNL A   1      49.849  25.825  32.024  1.00  0.00     0.198 A 
ATOM    132  C   UNL A   1      50.551  26.953  30.024  1.00  0.00     0.198 A 
ATOM    133  F   UNL A   1      48.980  28.117  28.716  1.00  0.00    -0.203 F 
ATOM    134  F   UNL A   1      50.145  25.108  33.117  1.00  0.00    -0.200 F 
ATOM    135  C   UNL A   1      50.854  26.188  31.139  1.00  0.00     0.200 A 
ATOM    136  F   UNL A   1      51.518  27.293  29.162  1.00  0.00    -0.200 F 
ATOM    137  F   UNL A   1      52.119  25.805  31.367  1.00  0.00    -0.200 F 
ENDBRANCH 103 127
ENDBRANCH  68  71
ENDBRANCH  58  61
ENDBRANCH  54  57
ENDBRANCH  51  54
ENDBRANCH  48  51
ENDBRANCH  45  48
ENDBRANCH   1  45
TORSDOF 19
ENDMDL
MODEL 6
REMARK VINA RESULT:     -10.9      4.619      8.247
REMARK SMILES CCSc1cccc(-c2ccc([C@@H](C)C(=O)NCCCCCCNC(=O)c3ccc(-c4c5nc(c(-c6c(F)c(F)c(F)c(F)c6F)c6ccc([nH]6)c(-c6c(F)c(F)c(F)c(F)c6F)c6nc(c(-c7c(F)c(F)c(F)c(F)c7F)c7ccc4[nH]7)C=C6)C=C5)cc3)cc2)c1
REMARK SMILES IDX 19 1 18 4 17 7 15 8 16 9 13 11 12 13 9 14 10 15 91 16 11 17
REMARK SMILES IDX 90 19 8 23 4 24 5 25 92 26 6 27 7 30 3 33 2 34 1 37 14 41
REMARK SMILES IDX 20 45 21 48 22 51 23 54 24 57 25 58 26 60 27 61 28 62 89 63
REMARK SMILES IDX 29 64 88 66 30 68 31 71 32 72 82 73 33 74 87 75 81 76 83 77
REMARK SMILES IDX 34 78 86 79 80 81 79 83 35 85 67 88 47 89 66 90 48 91 51 92
REMARK SMILES IDX 65 93 84 94 49 95 50 97 64 99 85 100 52 103 36 105 37 106
REMARK SMILES IDX 45 107 38 108 39 109 43 110 46 111 40 112 41 113 44 114
REMARK SMILES IDX 42 115 68 116 69 117 77 118 70 119 71 120 75 121 78 122
REMARK SMILES IDX 72 123 73 124 76 125 74 126 53 127 54 128 62 129 55 130
REMARK SMILES IDX 56 131 60 132 63 133 57 134 58 135 61 136 59 137
REMARK H PARENT 19 2 19 3 18 5 18 6 17 10 13 12 10 18 91 20 11 21 90 22 5 28
REMARK H PARENT 92 29 6 31 7 32 2 35 2 36 1 38 1 39 1 40 14 42 14 43 14 44
REMARK H PARENT 20 46 20 47 21 49 21 50 22 52 22 53 23 55 23 56 24 59 28 65
REMARK H PARENT 89 67 29 69 88 70 87 80 81 82 83 84 86 86 80 87 48 96 51 98
REMARK H PARENT 84 101 49 102 85 104
REMARK Flexibility Score: inf
ROOT
ATOM      1  C   UNL A   1      38.592  34.197  30.484  1.00  0.00    -0.036 C 
ATOM      2  H   UNL A   1      39.633  34.147  30.239  1.00  0.00     0.028 H 
ATOM      3  H   UNL A   1      38.158  35.145  30.245  1.00  0.00     0.028 H 
ENDROOT
BRANCH   1   4
ATOM      4  C   UNL A   1      38.444  34.007  31.994  1.00  0.00     0.017 C 
ATOM      5  H   UNL A   1      39.262  33.417  32.351  1.00  0.00     0.049 H 
ATOM      6  H   UNL A   1      38.440  34.975  32.452  1.00  0.00     0.049 H 
BRANCH   4   7
ATOM      7  N   UNL A   1      37.204  33.345  32.334  1.00  0.00    -0.356 N 
ATOM      8  C   UNL A   1      36.845  32.606  33.420  1.00  0.00     0.227 C 
ATOM      9  O   UNL A   1      35.724  32.083  33.382  1.00  0.00    -0.274 OA
ATOM     10  H   UNL A   1      36.493  33.446  31.661  1.00  0.00     0.163 HD
BRANCH   8  11
ATOM     11  C   UNL A   1      37.738  32.415  34.654  1.00  0.00     0.060 C 
ATOM     12  H   UNL A   1      37.105  31.994  35.408  1.00  0.00     0.045 H 
BRANCH  11  13
ATOM     13  C   UNL A   1      38.809  31.350  34.474  1.00  0.00    -0.036 A 
ATOM     14  C   UNL A   1      40.808  29.306  34.299  1.00  0.00    -0.018 A 
ATOM     15  C   UNL A   1      39.734  29.370  33.398  1.00  0.00    -0.054 A 
ATOM     16  C   UNL A   1      40.873  30.315  35.273  1.00  0.00    -0.054 A 
ATOM     17  C   UNL A   1      38.772  30.387  33.464  1.00  0.00    -0.058 A 
ATOM     18  H   UNL A   1      39.649  28.646  32.667  1.00  0.00     0.063 H 
ATOM     19  C   UNL A   1      39.883  31.303  35.374  1.00  0.00    -0.058 A 
ATOM     20  H   UNL A   1      41.666  30.330  35.931  1.00  0.00     0.063 H 
ATOM     21  H   UNL A   1      38.024  30.424  32.754  1.00  0.00     0.063 H 
ATOM     22  H   UNL A   1      39.947  32.011  36.123  1.00  0.00     0.063 H 
BRANCH  14  23
ATOM     23  C   UNL A   1      41.818  28.221  34.224  1.00  0.00    -0.017 A 
ATOM     24  C   UNL A   1      42.544  25.937  34.762  1.00  0.00     0.008 A 
ATOM     25  C   UNL A   1      43.732  26.137  34.062  1.00  0.00    -0.049 A 
ATOM     26  C   UNL A   1      41.600  26.970  34.836  1.00  0.00    -0.041 A 
ATOM     27  C   UNL A   1      43.975  27.361  33.444  1.00  0.00    -0.061 A 
ATOM     28  H   UNL A   1      44.431  25.380  34.001  1.00  0.00     0.063 H 
ATOM     29  H   UNL A   1      40.722  26.811  35.354  1.00  0.00     0.064 H 
ATOM     30  C   UNL A   1      43.032  28.390  33.534  1.00  0.00    -0.054 A 
ATOM     31  H   UNL A   1      44.851  27.509  32.920  1.00  0.00     0.062 H 
ATOM     32  H   UNL A   1      43.231  29.295  33.081  1.00  0.00     0.063 H 
BRANCH  24  33
ATOM     33  S   UNL A   1      42.235  24.404  35.620  1.00  0.00    -0.126 SA
BRANCH  33  34
ATOM     34  C   UNL A   1      43.828  23.556  35.365  1.00  0.00    -0.005 C 
ATOM     35  H   UNL A   1      44.600  24.291  35.264  1.00  0.00     0.038 H 
ATOM     36  H   UNL A   1      44.008  22.924  36.209  1.00  0.00     0.038 H 
BRANCH  34  37
ATOM     37  C   UNL A   1      43.810  22.688  34.119  1.00  0.00    -0.056 C 
ATOM     38  H   UNL A   1      44.623  22.964  33.481  1.00  0.00     0.024 H 
ATOM     39  H   UNL A   1      42.885  22.830  33.599  1.00  0.00     0.024 H 
ATOM     40  H   UNL A   1      43.908  21.660  34.399  1.00  0.00     0.024 H 
ENDBRANCH  34  37
ENDBRANCH  33  34
ENDBRANCH  24  33
ENDBRANCH  14  23
ENDBRANCH  11  13
BRANCH  11  41
ATOM     41  C   UNL A   1      38.192  33.724  35.303  1.00  0.00    -0.049 C 
ATOM     42  H   UNL A   1      37.413  34.452  35.220  1.00  0.00     0.024 H 
ATOM     43  H   UNL A   1      39.070  34.082  34.806  1.00  0.00     0.024 H 
ATOM     44  H   UNL A   1      38.412  33.552  36.336  1.00  0.00     0.024 H 
ENDBRANCH  11  41
ENDBRANCH   8  11
ENDBRANCH   4   7
ENDBRANCH   1   4
BRANCH   1  45
ATOM     45  C   UNL A   1      37.849  33.147  29.650  1.00  0.00    -0.052 C 
ATOM     46  H   UNL A   1      37.160  32.640  30.292  1.00  0.00     0.027 H 
ATOM     47  H   UNL A   1      38.603  32.506  29.241  1.00  0.00     0.027 H 
BRANCH  45  48
ATOM     48  C   UNL A   1      37.064  33.697  28.452  1.00  0.00    -0.052 C 
ATOM     49  H   UNL A   1      37.323  33.113  27.594  1.00  0.00     0.027 H 
ATOM     50  H   UNL A   1      37.337  34.729  28.372  1.00  0.00     0.027 H 
BRANCH  48  51
ATOM     51  C   UNL A   1      35.539  33.677  28.593  1.00  0.00    -0.036 C 
ATOM     52  H   UNL A   1      35.117  33.514  27.624  1.00  0.00     0.028 H 
ATOM     53  H   UNL A   1      35.265  34.620  29.022  1.00  0.00     0.028 H 
BRANCH  51  54
ATOM     54  C   UNL A   1      34.994  32.606  29.535  1.00  0.00     0.018 C 
ATOM     55  H   UNL A   1      34.310  33.063  30.220  1.00  0.00     0.049 H 
ATOM     56  H   UNL A   1      35.823  32.167  30.050  1.00  0.00     0.049 H 
BRANCH  54  57
ATOM     57  N   UNL A   1      34.301  31.550  28.815  1.00  0.00    -0.352 N 
ATOM     58  C   UNL A   1      34.795  30.411  28.229  1.00  0.00     0.251 C 
ATOM     59  H   UNL A   1      33.327  31.670  28.735  1.00  0.00     0.163 HD
ATOM     60  O   UNL A   1      34.085  29.749  27.478  1.00  0.00    -0.269 OA
BRANCH  58  61
ATOM     61  C   UNL A   1      36.185  29.978  28.488  1.00  0.00     0.039 A 
ATOM     62  C   UNL A   1      37.129  30.095  27.464  1.00  0.00    -0.049 A 
ATOM     63  C   UNL A   1      36.551  29.416  29.714  1.00  0.00    -0.049 A 
ATOM     64  C   UNL A   1      38.451  29.702  27.686  1.00  0.00    -0.053 A 
ATOM     65  H   UNL A   1      36.850  30.472  26.543  1.00  0.00     0.063 H 
ATOM     66  C   UNL A   1      37.881  29.081  29.957  1.00  0.00    -0.053 A 
ATOM     67  H   UNL A   1      35.836  29.250  30.440  1.00  0.00     0.063 H 
ATOM     68  C   UNL A   1      38.844  29.218  28.945  1.00  0.00    -0.014 A 
ATOM     69  H   UNL A   1      39.142  29.768  26.923  1.00  0.00     0.063 H 
ATOM     70  H   UNL A   1      38.160  28.730  30.886  1.00  0.00     0.063 H 
BRANCH  68  71
ATOM     71  C   UNL A   1      40.257  28.858  29.219  1.00  0.00     0.031 A 
ATOM     72  C   UNL A   1      41.161  29.820  29.938  1.00  0.00     0.074 A 
ATOM     73  C   UNL A   1      40.745  27.689  28.761  1.00  0.00     0.049 A 
ATOM     74  N   UNL A   1      42.438  29.712  30.209  1.00  0.00    -0.248 NA
ATOM     75  C   UNL A   1      40.556  31.083  30.390  1.00  0.00    -0.034 C 
ATOM     76  C   UNL A   1      39.981  26.694  28.006  1.00  0.00    -0.036 A 
ATOM     77  N   UNL A   1      42.002  27.145  28.850  1.00  0.00    -0.354 N 
ATOM     78  C   UNL A   1      42.790  30.896  30.845  1.00  0.00     0.074 A 
ATOM     79  C   UNL A   1      41.606  31.726  30.881  1.00  0.00    -0.034 C 
ATOM     80  H   UNL A   1      39.572  31.389  30.337  1.00  0.00     0.065 H 
ATOM     81  C   UNL A   1      40.781  25.656  27.714  1.00  0.00    -0.036 A 
ATOM     82  H   UNL A   1      38.987  26.777  27.742  1.00  0.00     0.065 H 
ATOM     83  C   UNL A   1      42.119  25.925  28.231  1.00  0.00     0.049 A 
ATOM     84  H   UNL A   1      42.749  27.587  29.315  1.00  0.00     0.167 HD
ATOM     85  C   UNL A   1      43.989  31.247  31.368  1.00  0.00     0.037 A 
ATOM     86  H   UNL A   1      41.582  32.692  31.242  1.00  0.00     0.065 H 
ATOM     87  H   UNL A   1      40.494  24.804  27.205  1.00  0.00     0.065 H 
ATOM     88  C   UNL A   1      43.187  25.117  28.090  1.00  0.00     0.037 A 
ATOM     89  C   UNL A   1      45.157  30.405  31.359  1.00  0.00     0.049 A 
ATOM     90  C   UNL A   1      44.503  25.527  28.694  1.00  0.00     0.074 A 
ATOM     91  C   UNL A   1      46.397  30.643  31.928  1.00  0.00    -0.036 A 
ATOM     92  N   UNL A   1      45.229  29.163  30.749  1.00  0.00    -0.354 N 
ATOM     93  N   UNL A   1      44.805  26.616  29.357  1.00  0.00    -0.248 NA
ATOM     94  C   UNL A   1      45.624  24.589  28.536  1.00  0.00    -0.034 C 
ATOM     95  C   UNL A   1      47.232  29.563  31.625  1.00  0.00    -0.036 A 
ATOM     96  H   UNL A   1      46.659  31.474  32.481  1.00  0.00     0.065 H 
ATOM     97  C   UNL A   1      46.500  28.630  30.908  1.00  0.00     0.049 A 
ATOM     98  H   UNL A   1      44.489  28.723  30.272  1.00  0.00     0.167 HD
ATOM     99  C   UNL A   1      46.139  26.486  29.717  1.00  0.00     0.074 A 
ATOM    100  C   UNL A   1      46.585  25.203  29.212  1.00  0.00    -0.034 C 
ATOM    101  H   UNL A   1      45.655  23.690  28.032  1.00  0.00     0.065 H 
ATOM    102  H   UNL A   1      48.224  29.473  31.892  1.00  0.00     0.065 H 
ATOM    103  C   UNL A   1      46.925  27.350  30.403  1.00  0.00     0.037 A 
ATOM    104  H   UNL A   1      47.530  24.817  29.358  1.00  0.00     0.065 H 
BRANCH  85 105
ATOM    105  C   UNL A   1      44.102  32.604  32.002  1.00  0.00     0.064 A 
ATOM    106  C   UNL A   1      43.860  32.798  33.370  1.00  0.00     0.173 A 
ATOM    107  C   UNL A   1      44.503  33.713  31.241  1.00  0.00     0.173 A 
ATOM    108  F   UNL A   1      43.463  31.772  34.138  1.00  0.00    -0.203 F 
ATOM    109  C   UNL A   1      43.990  34.058  33.948  1.00  0.00     0.198 A 
ATOM    110  C   UNL A   1      44.660  34.965  31.830  1.00  0.00     0.198 A 
ATOM    111  F   UNL A   1      44.753  33.580  29.930  1.00  0.00    -0.203 F 
ATOM    112  F   UNL A   1      43.711  34.229  35.247  1.00  0.00    -0.200 F 
ATOM    113  C   UNL A   1      44.398  35.139  33.180  1.00  0.00     0.200 A 
ATOM    114  F   UNL A   1      45.065  36.007  31.088  1.00  0.00    -0.200 F 
ATOM    115  F   UNL A   1      44.532  36.349  33.740  1.00  0.00    -0.200 F 
ENDBRANCH  85 105
BRANCH  88 116
ATOM    116  C   UNL A   1      43.050  23.829  27.363  1.00  0.00     0.064 A 
ATOM    117  C   UNL A   1      43.361  23.737  25.999  1.00  0.00     0.173 A 
ATOM    118  C   UNL A   1      42.609  22.668  28.013  1.00  0.00     0.173 A 
ATOM    119  F   UNL A   1      43.767  24.826  25.331  1.00  0.00    -0.203 F 
ATOM    120  C   UNL A   1      43.214  22.535  25.309  1.00  0.00     0.198 A 
ATOM    121  C   UNL A   1      42.489  21.461  27.328  1.00  0.00     0.198 A 
ATOM    122  F   UNL A   1      42.305  22.702  29.319  1.00  0.00    -0.203 F 
ATOM    123  F   UNL A   1      43.476  22.486  23.995  1.00  0.00    -0.200 F 
ATOM    124  C   UNL A   1      42.784  21.398  25.974  1.00  0.00     0.200 A 
ATOM    125  F   UNL A   1      42.086  20.360  27.977  1.00  0.00    -0.200 F 
ATOM    126  F   UNL A   1      42.648  20.242  25.310  1.00  0.00    -0.200 F 
ENDBRANCH  88 116
BRANCH 103 127
ATOM    127  C   UNL A   1      48.339  26.927  30.672  1.00  0.00     0.064 A 
ATOM    128  C   UNL A   1      49.391  27.299  29.822  1.00  0.00     0.173 A 
ATOM    129  C   UNL A   1      48.649  26.173  31.814  1.00  0.00     0.173 A 
ATOM    130  F   UNL A   1      49.143  28.008  28.710  1.00  0.00    -0.203 F 
ATOM    131  C   UNL A   1      50.700  26.911  30.094  1.00  0.00     0.198 A 
ATOM    132  C   UNL A   1      49.963  25.809  32.096  1.00  0.00     0.198 A 
ATOM    133  F   UNL A   1      47.679  25.798  32.660  1.00  0.00    -0.203 F 
ATOM    134  F   UNL A   1      51.684  27.239  29.245  1.00  0.00    -0.200 F 
ATOM    135  C   UNL A   1      50.985  26.173  31.233  1.00  0.00     0.200 A 
ATOM    136  F   UNL A   1      50.239  25.108  33.204  1.00  0.00    -0.200 F 
ATOM    137  F   UNL A   1      52.248  25.804  31.496  1.00  0.00    -0.200 F 
ENDBRANCH 103 127
ENDBRANCH  68  71
ENDBRANCH  58  61
ENDBRANCH  54  57
ENDBRANCH  51  54
ENDBRANCH  48  51
ENDBRANCH  45  48
ENDBRANCH   1  45
TORSDOF 19
ENDMDL
MODEL 7
REMARK VINA RESULT:     -10.9      4.540      9.639
REMARK SMILES CCSc1cccc(-c2ccc([C@@H](C)C(=O)NCCCCCCNC(=O)c3ccc(-c4c5nc(c(-c6c(F)c(F)c(F)c(F)c6F)c6ccc([nH]6)c(-c6c(F)c(F)c(F)c(F)c6F)c6nc(c(-c7c(F)c(F)c(F)c(F)c7F)c7ccc4[nH]7)C=C6)C=C5)cc3)cc2)c1
REMARK SMILES IDX 19 1 18 4 17 7 15 8 16 9 13 11 12 13 9 14 10 15 91 16 11 17
REMARK SMILES IDX 90 19 8 23 4 24 5 25 92 26 6 27 7 30 3 33 2 34 1 37 14 41
REMARK SMILES IDX 20 45 21 48 22 51 23 54 24 57 25 58 26 60 27 61 28 62 89 63
REMARK SMILES IDX 29 64 88 66 30 68 31 71 32 72 82 73 33 74 87 75 81 76 83 77
REMARK SMILES IDX 34 78 86 79 80 81 79 83 35 85 67 88 47 89 66 90 48 91 51 92
REMARK SMILES IDX 65 93 84 94 49 95 50 97 64 99 85 100 52 103 36 105 37 106
REMARK SMILES IDX 45 107 38 108 39 109 43 110 46 111 40 112 41 113 44 114
REMARK SMILES IDX 42 115 68 116 69 117 77 118 70 119 71 120 75 121 78 122
REMARK SMILES IDX 72 123 73 124 76 125 74 126 53 127 54 128 62 129 55 130
REMARK SMILES IDX 56 131 60 132 63 133 57 134 58 135 61 136 59 137
REMARK H PARENT 19 2 19 3 18 5 18 6 17 10 13 12 10 18 91 20 11 21 90 22 5 28
REMARK H PARENT 92 29 6 31 7 32 2 35 2 36 1 38 1 39 1 40 14 42 14 43 14 44
REMARK H PARENT 20 46 20 47 21 49 21 50 22 52 22 53 23 55 23 56 24 59 28 65
REMARK H PARENT 89 67 29 69 88 70 87 80 81 82 83 84 86 86 80 87 48 96 51 98
REMARK H PARENT 84 101 49 102 85 104
REMARK Flexibility Score: inf
ROOT
ATOM      1  C   UNL A   1      36.184  19.347  24.981  1.00  0.00    -0.036 C 
ATOM      2  H   UNL A   1      37.088  19.446  24.417  1.00  0.00     0.028 H 
ATOM      3  H   UNL A   1      36.358  18.996  25.977  1.00  0.00     0.028 H 
ENDROOT
BRANCH   1   4
ATOM      4  C   UNL A   1      35.298  18.309  24.292  1.00  0.00     0.017 C 
ATOM      5  H   UNL A   1      34.891  18.738  23.400  1.00  0.00     0.049 H 
ATOM      6  H   UNL A   1      35.901  17.454  24.066  1.00  0.00     0.049 H 
BRANCH   4   7
ATOM      7  N   UNL A   1      34.211  17.879  25.144  1.00  0.00    -0.356 N 
ATOM      8  C   UNL A   1      32.865  18.065  25.052  1.00  0.00     0.227 C 
ATOM      9  O   UNL A   1      32.188  17.650  25.999  1.00  0.00    -0.274 OA
ATOM     10  H   UNL A   1      34.494  17.359  25.930  1.00  0.00     0.163 HD
BRANCH   8  11
ATOM     11  C   UNL A   1      32.177  18.733  23.853  1.00  0.00     0.060 C 
ATOM     12  H   UNL A   1      31.132  18.534  23.970  1.00  0.00     0.045 H 
BRANCH  11  13
ATOM     13  C   UNL A   1      32.240  20.253  23.882  1.00  0.00    -0.036 A 
ATOM     14  C   UNL A   1      32.239  23.117  23.817  1.00  0.00    -0.018 A 
ATOM     15  C   UNL A   1      32.116  22.403  25.019  1.00  0.00    -0.054 A 
ATOM     16  C   UNL A   1      32.395  22.355  22.647  1.00  0.00    -0.054 A 
ATOM     17  C   UNL A   1      32.147  21.003  25.056  1.00  0.00    -0.058 A 
ATOM     18  H   UNL A   1      31.999  22.926  25.902  1.00  0.00     0.063 H 
ATOM     19  C   UNL A   1      32.373  20.953  22.675  1.00  0.00    -0.058 A 
ATOM     20  H   UNL A   1      32.527  22.838  21.746  1.00  0.00     0.063 H 
ATOM     21  H   UNL A   1      32.101  20.519  25.966  1.00  0.00     0.063 H 
ATOM     22  H   UNL A   1      32.460  20.427  21.791  1.00  0.00     0.063 H 
BRANCH  14  23
ATOM     23  C   UNL A   1      32.198  24.600  23.788  1.00  0.00    -0.017 A 
ATOM     24  C   UNL A   1      32.834  26.774  24.738  1.00  0.00     0.008 A 
ATOM     25  C   UNL A   1      32.144  27.433  23.724  1.00  0.00    -0.049 A 
ATOM     26  C   UNL A   1      32.860  25.372  24.764  1.00  0.00    -0.041 A 
ATOM     27  C   UNL A   1      31.483  26.697  22.744  1.00  0.00    -0.061 A 
ATOM     28  H   UNL A   1      32.123  28.464  23.697  1.00  0.00     0.063 H 
ATOM     29  H   UNL A   1      33.377  24.893  25.517  1.00  0.00     0.064 H 
ATOM     30  C   UNL A   1      31.504  25.299  22.784  1.00  0.00    -0.054 A 
ATOM     31  H   UNL A   1      30.976  27.183  21.988  1.00  0.00     0.062 H 
ATOM     32  H   UNL A   1      30.999  24.768  22.059  1.00  0.00     0.063 H 
BRANCH  24  33
ATOM     33  S   UNL A   1      33.635  27.688  26.045  1.00  0.00    -0.126 SA
BRANCH  33  34
ATOM     34  C   UNL A   1      33.015  29.368  25.698  1.00  0.00    -0.005 C 
ATOM     35  H   UNL A   1      33.783  29.924  25.202  1.00  0.00     0.038 H 
ATOM     36  H   UNL A   1      32.145  29.281  25.083  1.00  0.00     0.038 H 
BRANCH  34  37
ATOM     37  C   UNL A   1      32.625  30.096  26.972  1.00  0.00    -0.056 C 
ATOM     38  H   UNL A   1      31.781  30.725  26.779  1.00  0.00     0.024 H 
ATOM     39  H   UNL A   1      33.446  30.696  27.307  1.00  0.00     0.024 H 
ATOM     40  H   UNL A   1      32.373  29.383  27.728  1.00  0.00     0.024 H 
ENDBRANCH  34  37
ENDBRANCH  33  34
ENDBRANCH  24  33
ENDBRANCH  14  23
ENDBRANCH  11  13
BRANCH  11  41
ATOM     41  C   UNL A   1      32.488  18.072  22.509  1.00  0.00    -0.049 C 
ATOM     42  H   UNL A   1      31.646  18.176  21.857  1.00  0.00     0.024 H 
ATOM     43  H   UNL A   1      32.695  17.033  22.662  1.00  0.00     0.024 H 
ATOM     44  H   UNL A   1      33.341  18.544  22.068  1.00  0.00     0.024 H 
ENDBRANCH  11  41
ENDBRANCH   8  11
ENDBRANCH   4   7
ENDBRANCH   1   4
BRANCH   1  45
ATOM     45  C   UNL A   1      35.539  20.732  25.105  1.00  0.00    -0.052 C 
ATOM     46  H   UNL A   1      35.688  21.079  26.106  1.00  0.00     0.027 H 
ATOM     47  H   UNL A   1      34.508  20.602  24.846  1.00  0.00     0.027 H 
BRANCH  45  48
ATOM     48  C   UNL A   1      36.086  21.797  24.146  1.00  0.00    -0.052 C 
ATOM     49  H   UNL A   1      35.542  21.724  23.228  1.00  0.00     0.027 H 
ATOM     50  H   UNL A   1      37.132  21.593  24.047  1.00  0.00     0.027 H 
BRANCH  48  51
ATOM     51  C   UNL A   1      35.987  23.245  24.638  1.00  0.00    -0.036 C 
ATOM     52  H   UNL A   1      34.961  23.451  24.862  1.00  0.00     0.028 H 
ATOM     53  H   UNL A   1      36.379  23.856  23.851  1.00  0.00     0.028 H 
BRANCH  51  54
ATOM     54  C   UNL A   1      36.817  23.561  25.879  1.00  0.00     0.018 C 
ATOM     55  H   UNL A   1      36.195  23.465  26.745  1.00  0.00     0.049 H 
ATOM     56  H   UNL A   1      37.191  24.559  25.781  1.00  0.00     0.049 H 
BRANCH  54  57
ATOM     57  N   UNL A   1      37.954  22.666  26.017  1.00  0.00    -0.352 N 
ATOM     58  C   UNL A   1      39.250  22.935  26.382  1.00  0.00     0.251 C 
ATOM     59  H   UNL A   1      37.767  21.720  25.816  1.00  0.00     0.163 HD
ATOM     60  O   UNL A   1      40.120  22.084  26.230  1.00  0.00    -0.269 OA
BRANCH  58  61
ATOM     61  C   UNL A   1      39.609  24.252  26.951  1.00  0.00     0.039 A 
ATOM     62  C   UNL A   1      39.296  24.516  28.288  1.00  0.00    -0.049 A 
ATOM     63  C   UNL A   1      40.209  25.239  26.166  1.00  0.00    -0.049 A 
ATOM     64  C   UNL A   1      39.633  25.748  28.852  1.00  0.00    -0.053 A 
ATOM     65  H   UNL A   1      38.815  23.801  28.858  1.00  0.00     0.063 H 
ATOM     66  C   UNL A   1      40.601  26.445  26.743  1.00  0.00    -0.053 A 
ATOM     67  H   UNL A   1      40.362  25.076  25.158  1.00  0.00     0.063 H 
ATOM     68  C   UNL A   1      40.314  26.713  28.090  1.00  0.00    -0.014 A 
ATOM     69  H   UNL A   1      39.381  25.952  29.831  1.00  0.00     0.063 H 
ATOM     70  H   UNL A   1      41.104  27.146  26.177  1.00  0.00     0.063 H 
BRANCH  68  71
ATOM     71  C   UNL A   1      40.739  28.002  28.691  1.00  0.00     0.031 A 
ATOM     72  C   UNL A   1      42.166  28.208  29.117  1.00  0.00     0.074 A 
ATOM     73  C   UNL A   1      39.823  28.964  28.915  1.00  0.00     0.049 A 
ATOM     74  N   UNL A   1      42.710  29.236  29.720  1.00  0.00    -0.248 NA
ATOM     75  C   UNL A   1      43.100  27.102  28.855  1.00  0.00    -0.034 C 
ATOM     76  C   UNL A   1      38.399  28.863  28.593  1.00  0.00    -0.036 A 
ATOM     77  N   UNL A   1      39.950  30.209  29.478  1.00  0.00    -0.354 N 
ATOM     78  C   UNL A   1      44.041  28.894  29.922  1.00  0.00     0.074 A 
ATOM     79  C   UNL A   1      44.214  27.549  29.420  1.00  0.00    -0.034 C 
ATOM     80  H   UNL A   1      42.933  26.212  28.361  1.00  0.00     0.065 H 
ATOM     81  C   UNL A   1      37.786  30.003  28.950  1.00  0.00    -0.036 A 
ATOM     82  H   UNL A   1      37.939  28.047  28.160  1.00  0.00     0.065 H 
ATOM     83  C   UNL A   1      38.766  30.901  29.555  1.00  0.00     0.049 A 
ATOM     84  H   UNL A   1      40.807  30.572  29.796  1.00  0.00     0.167 HD
ATOM     85  C   UNL A   1      45.032  29.644  30.461  1.00  0.00     0.037 A 
ATOM     86  H   UNL A   1      45.089  27.007  29.492  1.00  0.00     0.065 H 
ATOM     87  H   UNL A   1      36.784  30.211  28.818  1.00  0.00     0.065 H 
ATOM     88  C   UNL A   1      38.499  32.120  30.061  1.00  0.00     0.037 A 
ATOM     89  C   UNL A   1      44.864  30.995  30.931  1.00  0.00     0.049 A 
ATOM     90  C   UNL A   1      39.622  32.937  30.640  1.00  0.00     0.074 A 
ATOM     91  C   UNL A   1      45.823  31.863  31.425  1.00  0.00    -0.036 A 
ATOM     92  N   UNL A   1      43.656  31.674  30.964  1.00  0.00    -0.354 N 
ATOM     93  N   UNL A   1      40.891  32.632  30.760  1.00  0.00    -0.248 NA
ATOM     94  C   UNL A   1      39.275  34.272  31.148  1.00  0.00    -0.034 C 
ATOM     95  C   UNL A   1      45.187  33.052  31.798  1.00  0.00    -0.036 A 
ATOM     96  H   UNL A   1      46.833  31.666  31.505  1.00  0.00     0.065 H 
ATOM     97  C   UNL A   1      43.840  32.943  31.492  1.00  0.00     0.049 A 
ATOM     98  H   UNL A   1      42.793  31.310  30.659  1.00  0.00     0.167 HD
ATOM     99  C   UNL A   1      41.498  33.741  31.331  1.00  0.00     0.074 A 
ATOM    100  C   UNL A   1      40.461  34.734  31.520  1.00  0.00    -0.034 C 
ATOM    101  H   UNL A   1      38.353  34.730  31.200  1.00  0.00     0.065 H 
ATOM    102  H   UNL A   1      45.644  33.872  32.226  1.00  0.00     0.065 H 
ATOM    103  C   UNL A   1      42.798  33.921  31.668  1.00  0.00     0.037 A 
ATOM    104  H   UNL A   1      40.623  35.681  31.897  1.00  0.00     0.065 H 
BRANCH  85 105
ATOM    105  C   UNL A   1      46.395  29.024  30.571  1.00  0.00     0.064 A 
ATOM    106  C   UNL A   1      46.793  28.324  31.720  1.00  0.00     0.173 A 
ATOM    107  C   UNL A   1      47.294  29.090  29.496  1.00  0.00     0.173 A 
ATOM    108  F   UNL A   1      45.974  28.242  32.778  1.00  0.00    -0.203 F 
ATOM    109  C   UNL A   1      48.053  27.735  31.798  1.00  0.00     0.198 A 
ATOM    110  C   UNL A   1      48.542  28.475  29.568  1.00  0.00     0.198 A 
ATOM    111  F   UNL A   1      46.961  29.742  28.372  1.00  0.00    -0.203 F 
ATOM    112  F   UNL A   1      48.429  27.110  32.922  1.00  0.00    -0.200 F 
ATOM    113  C   UNL A   1      48.923  27.804  30.720  1.00  0.00     0.200 A 
ATOM    114  F   UNL A   1      49.378  28.532  28.520  1.00  0.00    -0.200 F 
ATOM    115  F   UNL A   1      50.131  27.229  30.794  1.00  0.00    -0.200 F 
ENDBRANCH  85 105
BRANCH  88 116
ATOM    116  C   UNL A   1      37.112  32.650  30.023  1.00  0.00     0.064 A 
ATOM    117  C   UNL A   1      36.675  33.445  28.954  1.00  0.00     0.173 A 
ATOM    118  C   UNL A   1      36.197  32.376  31.049  1.00  0.00     0.173 A 
ATOM    119  F   UNL A   1      37.521  33.751  27.959  1.00  0.00    -0.203 F 
ATOM    120  C   UNL A   1      35.381  33.961  28.924  1.00  0.00     0.198 A 
ATOM    121  C   UNL A   1      34.896  32.870  31.005  1.00  0.00     0.198 A 
ATOM    122  F   UNL A   1      36.565  31.616  32.092  1.00  0.00    -0.203 F 
ATOM    123  F   UNL A   1      35.003  34.754  27.912  1.00  0.00    -0.200 F 
ATOM    124  C   UNL A   1      34.491  33.669  29.946  1.00  0.00     0.200 A 
ATOM    125  F   UNL A   1      34.034  32.575  31.988  1.00  0.00    -0.200 F 
ATOM    126  F   UNL A   1      33.246  34.163  29.914  1.00  0.00    -0.200 F 
ENDBRANCH  88 116
BRANCH 103 127
ATOM    127  C   UNL A   1      43.177  35.250  32.252  1.00  0.00     0.064 A 
ATOM    128  C   UNL A   1      43.670  36.291  31.452  1.00  0.00     0.173 A 
ATOM    129  C   UNL A   1      43.009  35.496  33.624  1.00  0.00     0.173 A 
ATOM    130  F   UNL A   1      43.862  36.099  30.138  1.00  0.00    -0.203 F 
ATOM    131  C   UNL A   1      44.003  37.523  32.007  1.00  0.00     0.198 A 
ATOM    132  C   UNL A   1      43.318  36.738  34.171  1.00  0.00     0.198 A 
ATOM    133  F   UNL A   1      42.535  34.535  34.430  1.00  0.00    -0.203 F 
ATOM    134  F   UNL A   1      44.514  38.489  31.232  1.00  0.00    -0.200 F 
ATOM    135  C   UNL A   1      43.820  37.748  33.364  1.00  0.00     0.200 A 
ATOM    136  F   UNL A   1      43.128  36.958  35.479  1.00  0.00    -0.200 F 
ATOM    137  F   UNL A   1      44.137  38.937  33.896  1.00  0.00    -0.200 F 
ENDBRANCH 103 127
ENDBRANCH  68  71
ENDBRANCH  58  61
ENDBRANCH  54  57
ENDBRANCH  51  54
ENDBRANCH  48  51
ENDBRANCH  45  48
ENDBRANCH   1  45
TORSDOF 19
ENDMDL
MODEL 8
REMARK VINA RESULT:     -10.8      4.948     11.047
REMARK SMILES CCSc1cccc(-c2ccc([C@@H](C)C(=O)NCCCCCCNC(=O)c3ccc(-c4c5nc(c(-c6c(F)c(F)c(F)c(F)c6F)c6ccc([nH]6)c(-c6c(F)c(F)c(F)c(F)c6F)c6nc(c(-c7c(F)c(F)c(F)c(F)c7F)c7ccc4[nH]7)C=C6)C=C5)cc3)cc2)c1
REMARK SMILES IDX 19 1 18 4 17 7 15 8 16 9 13 11 12 13 9 14 10 15 91 16 11 17
REMARK SMILES IDX 90 19 8 23 4 24 5 25 92 26 6 27 7 30 3 33 2 34 1 37 14 41
REMARK SMILES IDX 20 45 21 48 22 51 23 54 24 57 25 58 26 60 27 61 28 62 89 63
REMARK SMILES IDX 29 64 88 66 30 68 31 71 32 72 82 73 33 74 87 75 81 76 83 77
REMARK SMILES IDX 34 78 86 79 80 81 79 83 35 85 67 88 47 89 66 90 48 91 51 92
REMARK SMILES IDX 65 93 84 94 49 95 50 97 64 99 85 100 52 103 36 105 37 106
REMARK SMILES IDX 45 107 38 108 39 109 43 110 46 111 40 112 41 113 44 114
REMARK SMILES IDX 42 115 68 116 69 117 77 118 70 119 71 120 75 121 78 122
REMARK SMILES IDX 72 123 73 124 76 125 74 126 53 127 54 128 62 129 55 130
REMARK SMILES IDX 56 131 60 132 63 133 57 134 58 135 61 136 59 137
REMARK H PARENT 19 2 19 3 18 5 18 6 17 10 13 12 10 18 91 20 11 21 90 22 5 28
REMARK H PARENT 92 29 6 31 7 32 2 35 2 36 1 38 1 39 1 40 14 42 14 43 14 44
REMARK H PARENT 20 46 20 47 21 49 21 50 22 52 22 53 23 55 23 56 24 59 28 65
REMARK H PARENT 89 67 29 69 88 70 87 80 81 82 83 84 86 86 80 87 48 96 51 98
REMARK H PARENT 84 101 49 102 85 104
REMARK Flexibility Score: inf
ROOT
ATOM      1  C   UNL A   1      44.109  23.396  30.110  1.00  0.00    -0.036 C 
ATOM      2  H   UNL A   1      43.367  23.902  30.693  1.00  0.00     0.028 H 
ATOM      3  H   UNL A   1      44.721  22.746  30.700  1.00  0.00     0.028 H 
ENDROOT
BRANCH   1   4
ATOM      4  C   UNL A   1      45.037  24.446  29.497  1.00  0.00     0.017 C 
ATOM      5  H   UNL A   1      44.446  25.265  29.142  1.00  0.00     0.049 H 
ATOM      6  H   UNL A   1      45.722  24.767  30.254  1.00  0.00     0.049 H 
BRANCH   4   7
ATOM      7  N   UNL A   1      45.803  23.908  28.395  1.00  0.00    -0.356 N 
ATOM      8  C   UNL A   1      45.618  23.979  27.048  1.00  0.00     0.227 C 
ATOM      9  O   UNL A   1      46.405  23.328  26.350  1.00  0.00    -0.274 OA
ATOM     10  H   UNL A   1      46.602  23.400  28.667  1.00  0.00     0.163 HD
BRANCH   8  11
ATOM     11  C   UNL A   1      44.519  24.819  26.382  1.00  0.00     0.060 C 
ATOM     12  H   UNL A   1      43.634  24.649  26.959  1.00  0.00     0.045 H 
BRANCH  11  13
ATOM     13  C   UNL A   1      44.732  26.320  26.518  1.00  0.00    -0.036 A 
ATOM     14  C   UNL A   1      44.999  29.149  26.877  1.00  0.00    -0.018 A 
ATOM     15  C   UNL A   1      46.085  28.276  27.044  1.00  0.00    -0.054 A 
ATOM     16  C   UNL A   1      43.780  28.569  26.492  1.00  0.00    -0.054 A 
ATOM     17  C   UNL A   1      45.963  26.895  26.839  1.00  0.00    -0.058 A 
ATOM     18  H   UNL A   1      47.000  28.662  27.328  1.00  0.00     0.063 H 
ATOM     19  C   UNL A   1      43.642  27.182  26.337  1.00  0.00    -0.058 A 
ATOM     20  H   UNL A   1      42.965  29.177  26.320  1.00  0.00     0.063 H 
ATOM     21  H   UNL A   1      46.797  26.294  26.928  1.00  0.00     0.063 H 
ATOM     22  H   UNL A   1      42.722  26.789  26.084  1.00  0.00     0.063 H 
BRANCH  14  23
ATOM     23  C   UNL A   1      45.138  30.610  27.103  1.00  0.00    -0.017 A 
ATOM     24  C   UNL A   1      44.376  32.690  28.164  1.00  0.00     0.008 A 
ATOM     25  C   UNL A   1      45.415  33.393  27.558  1.00  0.00    -0.049 A 
ATOM     26  C   UNL A   1      44.245  31.312  27.937  1.00  0.00    -0.041 A 
ATOM     27  C   UNL A   1      46.314  32.726  26.731  1.00  0.00    -0.061 A 
ATOM     28  H   UNL A   1      45.518  34.407  27.722  1.00  0.00     0.063 H 
ATOM     29  H   UNL A   1      43.475  30.799  28.393  1.00  0.00     0.064 H 
ATOM     30  C   UNL A   1      46.169  31.354  26.501  1.00  0.00    -0.054 A 
ATOM     31  H   UNL A   1      47.088  33.243  26.286  1.00  0.00     0.062 H 
ATOM     32  H   UNL A   1      46.836  30.875  25.876  1.00  0.00     0.063 H 
BRANCH  24  33
ATOM     33  S   UNL A   1      43.169  33.529  29.174  1.00  0.00    -0.126 SA
BRANCH  33  34
ATOM     34  C   UNL A   1      42.939  35.059  28.210  1.00  0.00    -0.005 C 
ATOM     35  H   UNL A   1      43.714  35.751  28.468  1.00  0.00     0.038 H 
ATOM     36  H   UNL A   1      42.979  34.807  27.171  1.00  0.00     0.038 H 
BRANCH  34  37
ATOM     37  C   UNL A   1      41.592  35.702  28.490  1.00  0.00    -0.056 C 
ATOM     38  H   UNL A   1      41.204  36.124  27.586  1.00  0.00     0.024 H 
ATOM     39  H   UNL A   1      41.710  36.475  29.221  1.00  0.00     0.024 H 
ATOM     40  H   UNL A   1      40.913  34.962  28.858  1.00  0.00     0.024 H 
ENDBRANCH  34  37
ENDBRANCH  33  34
ENDBRANCH  24  33
ENDBRANCH  14  23
ENDBRANCH  11  13
BRANCH  11  41
ATOM     41  C   UNL A   1      44.106  24.321  24.996  1.00  0.00    -0.049 C 
ATOM     42  H   UNL A   1      43.211  23.741  25.077  1.00  0.00     0.024 H 
ATOM     43  H   UNL A   1      44.888  23.714  24.588  1.00  0.00     0.024 H 
ATOM     44  H   UNL A   1      43.932  25.158  24.353  1.00  0.00     0.024 H 
ENDBRANCH  11  41
ENDBRANCH   8  11
ENDBRANCH   4   7
ENDBRANCH   1   4
BRANCH   1  45
ATOM     45  C   UNL A   1      43.395  22.518  29.077  1.00  0.00    -0.052 C 
ATOM     46  H   UNL A   1      43.180  21.575  29.535  1.00  0.00     0.027 H 
ATOM     47  H   UNL A   1      44.059  22.445  28.241  1.00  0.00     0.027 H 
BRANCH  45  48
ATOM     48  C   UNL A   1      42.081  23.089  28.528  1.00  0.00    -0.052 C 
ATOM     49  H   UNL A   1      42.324  23.890  27.862  1.00  0.00     0.027 H 
ATOM     50  H   UNL A   1      41.514  23.393  29.382  1.00  0.00     0.027 H 
BRANCH  48  51
ATOM     51  C   UNL A   1      41.194  22.098  27.767  1.00  0.00    -0.036 C 
ATOM     52  H   UNL A   1      40.216  22.125  28.201  1.00  0.00     0.028 H 
ATOM     53  H   UNL A   1      41.669  21.142  27.855  1.00  0.00     0.028 H 
BRANCH  51  54
ATOM     54  C   UNL A   1      41.058  22.372  26.272  1.00  0.00     0.018 C 
ATOM     55  H   UNL A   1      41.449  21.536  25.730  1.00  0.00     0.049 H 
ATOM     56  H   UNL A   1      41.603  23.266  26.049  1.00  0.00     0.049 H 
BRANCH  54  57
ATOM     57  N   UNL A   1      39.674  22.580  25.880  1.00  0.00    -0.352 N 
ATOM     58  C   UNL A   1      38.774  23.533  26.288  1.00  0.00     0.251 C 
ATOM     59  H   UNL A   1      39.327  21.937  25.219  1.00  0.00     0.163 HD
ATOM     60  O   UNL A   1      37.585  23.415  26.010  1.00  0.00    -0.269 OA
BRANCH  58  61
ATOM     61  C   UNL A   1      39.227  24.702  27.073  1.00  0.00     0.039 A 
ATOM     62  C   UNL A   1      40.030  25.662  26.450  1.00  0.00    -0.049 A 
ATOM     63  C   UNL A   1      38.904  24.832  28.426  1.00  0.00    -0.049 A 
ATOM     64  C   UNL A   1      40.463  26.779  27.167  1.00  0.00    -0.053 A 
ATOM     65  H   UNL A   1      40.303  25.545  25.461  1.00  0.00     0.063 H 
ATOM     66  C   UNL A   1      39.284  25.977  29.125  1.00  0.00    -0.053 A 
ATOM     67  H   UNL A   1      38.385  24.082  28.908  1.00  0.00     0.063 H 
ATOM     68  C   UNL A   1      40.069  26.960  28.503  1.00  0.00    -0.014 A 
ATOM     69  H   UNL A   1      41.074  27.476  26.714  1.00  0.00     0.063 H 
ATOM     70  H   UNL A   1      38.986  26.102  30.105  1.00  0.00     0.063 H 
BRANCH  68  71
ATOM     71  C   UNL A   1      40.464  28.174  29.260  1.00  0.00     0.031 A 
ATOM     72  C   UNL A   1      41.830  28.272  29.881  1.00  0.00     0.074 A 
ATOM     73  C   UNL A   1      39.568  29.162  29.445  1.00  0.00     0.049 A 
ATOM     74  N   UNL A   1      42.332  29.219  30.633  1.00  0.00    -0.248 NA
ATOM     75  C   UNL A   1      42.744  27.142  29.649  1.00  0.00    -0.034 C 
ATOM     76  C   UNL A   1      38.195  29.161  28.936  1.00  0.00    -0.036 A 
ATOM     77  N   UNL A   1      39.670  30.351  30.123  1.00  0.00    -0.354 N 
ATOM     78  C   UNL A   1      43.609  28.794  30.974  1.00  0.00     0.074 A 
ATOM     79  C   UNL A   1      43.791  27.484  30.386  1.00  0.00    -0.034 C 
ATOM     80  H   UNL A   1      42.606  26.303  29.064  1.00  0.00     0.065 H 
ATOM     81  C   UNL A   1      37.589  30.300  29.306  1.00  0.00    -0.036 A 
ATOM     82  H   UNL A   1      37.763  28.406  28.381  1.00  0.00     0.065 H 
ATOM     83  C   UNL A   1      38.517  31.095  30.105  1.00  0.00     0.049 A 
ATOM     84  H   UNL A   1      40.493  30.643  30.577  1.00  0.00     0.167 HD
ATOM     85  C   UNL A   1      44.551  29.447  31.697  1.00  0.00     0.037 A 
ATOM     86  H   UNL A   1      44.625  26.894  30.524  1.00  0.00     0.065 H 
ATOM     87  H   UNL A   1      36.622  30.569  29.065  1.00  0.00     0.065 H 
ATOM     88  C   UNL A   1      38.236  32.284  30.674  1.00  0.00     0.037 A 
ATOM     89  C   UNL A   1      44.379  30.764  32.253  1.00  0.00     0.049 A 
ATOM     90  C   UNL A   1      39.306  32.993  31.459  1.00  0.00     0.074 A 
ATOM     91  C   UNL A   1      45.299  31.539  32.937  1.00  0.00    -0.036 A 
ATOM     92  N   UNL A   1      43.206  31.500  32.189  1.00  0.00    -0.354 N 
ATOM     93  N   UNL A   1      40.534  32.613  31.713  1.00  0.00    -0.248 NA
ATOM     94  C   UNL A   1      38.951  34.301  32.028  1.00  0.00    -0.034 C 
ATOM     95  C   UNL A   1      44.670  32.727  33.324  1.00  0.00    -0.036 A 
ATOM     96  H   UNL A   1      46.281  31.284  33.129  1.00  0.00     0.065 H 
ATOM     97  C   UNL A   1      43.372  32.712  32.840  1.00  0.00     0.049 A 
ATOM     98  H   UNL A   1      42.377  31.206  31.746  1.00  0.00     0.167 HD
ATOM     99  C   UNL A   1      41.107  33.642  32.449  1.00  0.00     0.074 A 
ATOM    100  C   UNL A   1      40.096  34.670  32.586  1.00  0.00    -0.034 C 
ATOM    101  H   UNL A   1      38.049  34.800  32.001  1.00  0.00     0.065 H 
ATOM    102  H   UNL A   1      45.100  33.486  33.875  1.00  0.00     0.065 H 
ATOM    103  C   UNL A   1      42.357  33.727  32.964  1.00  0.00     0.037 A 
ATOM    104  H   UNL A   1      40.246  35.574  33.059  1.00  0.00     0.065 H 
BRANCH  85 105
ATOM    105  C   UNL A   1      45.861  28.749  31.927  1.00  0.00     0.064 A 
ATOM    106  C   UNL A   1      46.062  27.912  33.034  1.00  0.00     0.173 A 
ATOM    107  C   UNL A   1      46.909  28.884  31.005  1.00  0.00     0.173 A 
ATOM    108  F   UNL A   1      45.094  27.758  33.950  1.00  0.00    -0.203 F 
ATOM    109  C   UNL A   1      47.275  27.254  33.223  1.00  0.00     0.198 A 
ATOM    110  C   UNL A   1      48.111  28.202  31.183  1.00  0.00     0.198 A 
ATOM    111  F   UNL A   1      46.767  29.669  29.926  1.00  0.00    -0.203 F 
ATOM    112  F   UNL A   1      47.460  26.493  34.310  1.00  0.00    -0.200 F 
ATOM    113  C   UNL A   1      48.295  27.393  32.294  1.00  0.00     0.200 A 
ATOM    114  F   UNL A   1      49.092  28.329  30.277  1.00  0.00    -0.200 F 
ATOM    115  F   UNL A   1      49.458  26.752  32.472  1.00  0.00    -0.200 F 
ENDBRANCH  85 105
BRANCH  88 116
ATOM    116  C   UNL A   1      36.889  32.887  30.504  1.00  0.00     0.064 A 
ATOM    117  C   UNL A   1      35.909  32.746  31.495  1.00  0.00     0.173 A 
ATOM    118  C   UNL A   1      36.555  33.613  29.352  1.00  0.00     0.173 A 
ATOM    119  F   UNL A   1      36.176  32.043  32.605  1.00  0.00    -0.203 F 
ATOM    120  C   UNL A   1      34.637  33.292  31.331  1.00  0.00     0.198 A 
ATOM    121  C   UNL A   1      35.293  34.182  29.201  1.00  0.00     0.198 A 
ATOM    122  F   UNL A   1      37.461  33.781  28.377  1.00  0.00    -0.203 F 
ATOM    123  F   UNL A   1      33.705  33.106  32.275  1.00  0.00    -0.200 F 
ATOM    124  C   UNL A   1      34.332  34.014  30.188  1.00  0.00     0.200 A 
ATOM    125  F   UNL A   1      35.006  34.890  28.100  1.00  0.00    -0.200 F 
ATOM    126  F   UNL A   1      33.111  34.543  30.033  1.00  0.00    -0.200 F 
ENDBRANCH  88 116
BRANCH 103 127
ATOM    127  C   UNL A   1      42.711  34.984  33.701  1.00  0.00     0.064 A 
ATOM    128  C   UNL A   1      42.598  35.075  35.096  1.00  0.00     0.173 A 
ATOM    129  C   UNL A   1      43.205  36.099  33.006  1.00  0.00     0.173 A 
ATOM    130  F   UNL A   1      42.117  34.041  35.803  1.00  0.00    -0.203 F 
ATOM    131  C   UNL A   1      42.945  36.245  35.767  1.00  0.00     0.198 A 
ATOM    132  C   UNL A   1      43.575  37.258  33.683  1.00  0.00     0.198 A 
ATOM    133  F   UNL A   1      43.336  36.060  31.672  1.00  0.00    -0.203 F 
ATOM    134  F   UNL A   1      42.787  36.325  37.095  1.00  0.00    -0.200 F 
ATOM    135  C   UNL A   1      43.439  37.332  35.061  1.00  0.00     0.200 A 
ATOM    136  F   UNL A   1      44.065  38.302  33.001  1.00  0.00    -0.200 F 
ATOM    137  F   UNL A   1      43.778  38.456  35.709  1.00  0.00    -0.200 F 
ENDBRANCH 103 127
ENDBRANCH  68  71
ENDBRANCH  58  61
ENDBRANCH  54  57
ENDBRANCH  51  54
ENDBRANCH  48  51
ENDBRANCH  45  48
ENDBRANCH   1  45
TORSDOF 19
ENDMDL
MODEL 9
REMARK VINA RESULT:     -10.8      5.306     11.322
REMARK SMILES CCSc1cccc(-c2ccc([C@@H](C)C(=O)NCCCCCCNC(=O)c3ccc(-c4c5nc(c(-c6c(F)c(F)c(F)c(F)c6F)c6ccc([nH]6)c(-c6c(F)c(F)c(F)c(F)c6F)c6nc(c(-c7c(F)c(F)c(F)c(F)c7F)c7ccc4[nH]7)C=C6)C=C5)cc3)cc2)c1
REMARK SMILES IDX 19 1 18 4 17 7 15 8 16 9 13 11 12 13 9 14 10 15 91 16 11 17
REMARK SMILES IDX 90 19 8 23 4 24 5 25 92 26 6 27 7 30 3 33 2 34 1 37 14 41
REMARK SMILES IDX 20 45 21 48 22 51 23 54 24 57 25 58 26 60 27 61 28 62 89 63
REMARK SMILES IDX 29 64 88 66 30 68 31 71 32 72 82 73 33 74 87 75 81 76 83 77
REMARK SMILES IDX 34 78 86 79 80 81 79 83 35 85 67 88 47 89 66 90 48 91 51 92
REMARK SMILES IDX 65 93 84 94 49 95 50 97 64 99 85 100 52 103 36 105 37 106
REMARK SMILES IDX 45 107 38 108 39 109 43 110 46 111 40 112 41 113 44 114
REMARK SMILES IDX 42 115 68 116 69 117 77 118 70 119 71 120 75 121 78 122
REMARK SMILES IDX 72 123 73 124 76 125 74 126 53 127 54 128 62 129 55 130
REMARK SMILES IDX 56 131 60 132 63 133 57 134 58 135 61 136 59 137
REMARK H PARENT 19 2 19 3 18 5 18 6 17 10 13 12 10 18 91 20 11 21 90 22 5 28
REMARK H PARENT 92 29 6 31 7 32 2 35 2 36 1 38 1 39 1 40 14 42 14 43 14 44
REMARK H PARENT 20 46 20 47 21 49 21 50 22 52 22 53 23 55 23 56 24 59 28 65
REMARK H PARENT 89 67 29 69 88 70 87 80 81 82 83 84 86 86 80 87 48 96 51 98
REMARK H PARENT 84 101 49 102 85 104
REMARK Flexibility Score: inf
ROOT
ATOM      1  C   UNL A   1      44.063  19.142  25.255  1.00  0.00    -0.036 C 
ATOM      2  H   UNL A   1      45.019  18.853  25.640  1.00  0.00     0.028 H 
ATOM      3  H   UNL A   1      43.829  18.657  24.331  1.00  0.00     0.028 H 
ENDROOT
BRANCH   1   4
ATOM      4  C   UNL A   1      44.093  20.645  24.973  1.00  0.00     0.017 C 
ATOM      5  H   UNL A   1      44.772  20.833  24.168  1.00  0.00     0.049 H 
ATOM      6  H   UNL A   1      43.101  20.956  24.719  1.00  0.00     0.049 H 
BRANCH   4   7
ATOM      7  N   UNL A   1      44.518  21.401  26.131  1.00  0.00    -0.356 N 
ATOM      8  C   UNL A   1      45.141  22.607  26.241  1.00  0.00     0.227 C 
ATOM      9  O   UNL A   1      45.464  22.956  27.383  1.00  0.00    -0.274 OA
ATOM     10  H   UNL A   1      44.322  20.967  26.992  1.00  0.00     0.163 HD
BRANCH   8  11
ATOM     11  C   UNL A   1      45.434  23.527  25.048  1.00  0.00     0.060 C 
ATOM     12  H   UNL A   1      44.621  23.386  24.366  1.00  0.00     0.045 H 
BRANCH  11  13
ATOM     13  C   UNL A   1      45.343  25.008  25.383  1.00  0.00    -0.036 A 
ATOM     14  C   UNL A   1      45.051  27.760  26.125  1.00  0.00    -0.018 A 
ATOM     15  C   UNL A   1      46.304  27.128  26.102  1.00  0.00    -0.054 A 
ATOM     16  C   UNL A   1      43.949  26.984  25.734  1.00  0.00    -0.054 A 
ATOM     17  C   UNL A   1      46.453  25.791  25.710  1.00  0.00    -0.058 A 
ATOM     18  H   UNL A   1      47.141  27.664  26.384  1.00  0.00     0.063 H 
ATOM     19  C   UNL A   1      44.087  25.631  25.392  1.00  0.00    -0.058 A 
ATOM     20  H   UNL A   1      43.015  27.418  25.698  1.00  0.00     0.063 H 
ATOM     21  H   UNL A   1      47.397  25.378  25.663  1.00  0.00     0.063 H 
ATOM     22  H   UNL A   1      43.250  25.083  25.140  1.00  0.00     0.063 H 
BRANCH  14  23
ATOM     23  C   UNL A   1      44.905  29.175  26.549  1.00  0.00    -0.017 A 
ATOM     24  C   UNL A   1      45.858  31.413  26.891  1.00  0.00     0.008 A 
ATOM     25  C   UNL A   1      44.623  31.884  27.332  1.00  0.00    -0.049 A 
ATOM     26  C   UNL A   1      45.991  30.072  26.502  1.00  0.00    -0.041 A 
ATOM     27  C   UNL A   1      43.532  31.022  27.386  1.00  0.00    -0.061 A 
ATOM     28  H   UNL A   1      44.518  32.870  27.617  1.00  0.00     0.063 H 
ATOM     29  H   UNL A   1      46.908  29.734  26.173  1.00  0.00     0.064 H 
ATOM     30  C   UNL A   1      43.676  29.684  27.008  1.00  0.00    -0.054 A 
ATOM     31  H   UNL A   1      42.615  31.370  27.707  1.00  0.00     0.062 H 
ATOM     32  H   UNL A   1      42.861  29.054  27.065  1.00  0.00     0.063 H 
BRANCH  24  33
ATOM     33  S   UNL A   1      47.291  32.475  26.873  1.00  0.00    -0.126 SA
BRANCH  33  34
ATOM     34  C   UNL A   1      47.158  33.235  28.525  1.00  0.00    -0.005 C 
ATOM     35  H   UNL A   1      47.838  34.059  28.583  1.00  0.00     0.038 H 
ATOM     36  H   UNL A   1      46.148  33.560  28.661  1.00  0.00     0.038 H 
BRANCH  34  37
ATOM     37  C   UNL A   1      47.489  32.245  29.628  1.00  0.00    -0.056 C 
ATOM     38  H   UNL A   1      46.584  31.890  30.072  1.00  0.00     0.024 H 
ATOM     39  H   UNL A   1      48.087  32.727  30.373  1.00  0.00     0.024 H 
ATOM     40  H   UNL A   1      48.031  31.420  29.214  1.00  0.00     0.024 H 
ENDBRANCH  34  37
ENDBRANCH  33  34
ENDBRANCH  24  33
ENDBRANCH  14  23
ENDBRANCH  11  13
BRANCH  11  41
ATOM     41  C   UNL A   1      46.641  23.099  24.212  1.00  0.00    -0.049 C 
ATOM     42  H   UNL A   1      46.721  23.729  23.351  1.00  0.00     0.024 H 
ATOM     43  H   UNL A   1      46.516  22.083  23.899  1.00  0.00     0.024 H 
ATOM     44  H   UNL A   1      47.531  23.184  24.801  1.00  0.00     0.024 H 
ENDBRANCH  11  41
ENDBRANCH   8  11
ENDBRANCH   4   7
ENDBRANCH   1   4
BRANCH   1  45
ATOM     45  C   UNL A   1      42.990  18.720  26.264  1.00  0.00    -0.052 C 
ATOM     46  H   UNL A   1      43.339  18.969  27.244  1.00  0.00     0.027 H 
ATOM     47  H   UNL A   1      42.841  17.670  26.117  1.00  0.00     0.027 H 
BRANCH  45  48
ATOM     48  C   UNL A   1      41.616  19.375  26.070  1.00  0.00    -0.052 C 
ATOM     49  H   UNL A   1      40.891  18.595  25.970  1.00  0.00     0.027 H 
ATOM     50  H   UNL A   1      41.706  19.995  25.203  1.00  0.00     0.027 H 
BRANCH  48  51
ATOM     51  C   UNL A   1      41.157  20.301  27.202  1.00  0.00    -0.036 C 
ATOM     52  H   UNL A   1      41.872  20.237  27.995  1.00  0.00     0.028 H 
ATOM     53  H   UNL A   1      40.180  19.968  27.484  1.00  0.00     0.028 H 
BRANCH  51  54
ATOM     54  C   UNL A   1      41.012  21.770  26.812  1.00  0.00     0.018 C 
ATOM     55  H   UNL A   1      41.854  22.054  26.214  1.00  0.00     0.049 H 
ATOM     56  H   UNL A   1      40.965  22.348  27.711  1.00  0.00     0.049 H 
BRANCH  54  57
ATOM     57  N   UNL A   1      39.796  22.016  26.055  1.00  0.00    -0.352 N 
ATOM     58  C   UNL A   1      38.937  23.086  26.088  1.00  0.00     0.251 C 
ATOM     59  H   UNL A   1      39.549  21.304  25.421  1.00  0.00     0.163 HD
ATOM     60  O   UNL A   1      37.844  23.014  25.534  1.00  0.00    -0.269 OA
BRANCH  58  61
ATOM     61  C   UNL A   1      39.314  24.327  26.799  1.00  0.00     0.039 A 
ATOM     62  C   UNL A   1      38.903  24.496  28.125  1.00  0.00    -0.049 A 
ATOM     63  C   UNL A   1      40.027  25.341  26.154  1.00  0.00    -0.049 A 
ATOM     64  C   UNL A   1      39.254  25.654  28.820  1.00  0.00    -0.053 A 
ATOM     65  H   UNL A   1      38.340  23.765  28.589  1.00  0.00     0.063 H 
ATOM     66  C   UNL A   1      40.431  26.469  26.865  1.00  0.00    -0.053 A 
ATOM     67  H   UNL A   1      40.256  25.254  25.151  1.00  0.00     0.063 H 
ATOM     68  C   UNL A   1      40.046  26.638  28.204  1.00  0.00    -0.014 A 
ATOM     69  H   UNL A   1      38.932  25.789  29.791  1.00  0.00     0.063 H 
ATOM     70  H   UNL A   1      41.015  27.184  26.405  1.00  0.00     0.063 H 
BRANCH  68  71
ATOM     71  C   UNL A   1      40.484  27.845  28.949  1.00  0.00     0.031 A 
ATOM     72  C   UNL A   1      41.873  27.924  29.518  1.00  0.00     0.074 A 
ATOM     73  C   UNL A   1      39.607  28.843  29.170  1.00  0.00     0.049 A 
ATOM     74  N   UNL A   1      42.415  28.863  30.253  1.00  0.00    -0.248 NA
ATOM     75  C   UNL A   1      42.764  26.784  29.248  1.00  0.00    -0.034 C 
ATOM     76  C   UNL A   1      38.217  28.861  28.713  1.00  0.00    -0.036 A 
ATOM     77  N   UNL A   1      39.750  30.029  29.847  1.00  0.00    -0.354 N 
ATOM     78  C   UNL A   1      43.699  28.421  30.546  1.00  0.00     0.074 A 
ATOM     79  C   UNL A   1      43.842  27.111  29.947  1.00  0.00    -0.034 C 
ATOM     80  H   UNL A   1      42.593  25.949  28.667  1.00  0.00     0.065 H 
ATOM     81  C   UNL A   1      37.639  30.006  29.109  1.00  0.00    -0.036 A 
ATOM     82  H   UNL A   1      37.754  28.113  28.173  1.00  0.00     0.065 H 
ATOM     83  C   UNL A   1      38.606  30.788  29.875  1.00  0.00     0.049 A 
ATOM     84  H   UNL A   1      40.593  30.309  30.271  1.00  0.00     0.167 HD
ATOM     85  C   UNL A   1      44.675  29.059  31.234  1.00  0.00     0.037 A 
ATOM     86  H   UNL A   1      44.674  26.510  30.052  1.00  0.00     0.065 H 
ATOM     87  H   UNL A   1      36.667  30.288  28.905  1.00  0.00     0.065 H 
ATOM     88  C   UNL A   1      38.362  31.977  30.457  1.00  0.00     0.037 A 
ATOM     89  C   UNL A   1      44.540  30.377  31.800  1.00  0.00     0.049 A 
ATOM     90  C   UNL A   1      39.469  32.670  31.203  1.00  0.00     0.074 A 
ATOM     91  C   UNL A   1      45.495  31.138  32.451  1.00  0.00    -0.036 A 
ATOM     92  N   UNL A   1      43.375  31.127  31.782  1.00  0.00    -0.354 N 
ATOM     93  N   UNL A   1      40.701  32.275  31.411  1.00  0.00    -0.248 NA
ATOM     94  C   UNL A   1      39.152  33.981  31.790  1.00  0.00    -0.034 C 
ATOM     95  C   UNL A   1      44.896  32.332  32.865  1.00  0.00    -0.036 A 
ATOM     96  H   UNL A   1      46.480  30.871  32.605  1.00  0.00     0.065 H 
ATOM     97  C   UNL A   1      43.580  32.336  32.430  1.00  0.00     0.049 A 
ATOM     98  H   UNL A   1      42.526  30.845  31.370  1.00  0.00     0.167 HD
ATOM     99  C   UNL A   1      41.313  33.294  32.127  1.00  0.00     0.074 A 
ATOM    100  C   UNL A   1      40.322  34.334  32.305  1.00  0.00    -0.034 C 
ATOM    101  H   UNL A   1      38.256  34.491  31.798  1.00  0.00     0.065 H 
ATOM    102  H   UNL A   1      45.355  33.084  33.401  1.00  0.00     0.065 H 
ATOM    103  C   UNL A   1      42.583  33.362  32.595  1.00  0.00     0.037 A 
ATOM    104  H   UNL A   1      40.501  35.235  32.775  1.00  0.00     0.065 H 
BRANCH  85 105
ATOM    105  C   UNL A   1      45.983  28.345  31.413  1.00  0.00     0.064 A 
ATOM    106  C   UNL A   1      46.245  27.564  32.548  1.00  0.00     0.173 A 
ATOM    107  C   UNL A   1      46.968  28.405  30.415  1.00  0.00     0.173 A 
ATOM    108  F   UNL A   1      45.340  27.483  33.535  1.00  0.00    -0.203 F 
ATOM    109  C   UNL A   1      47.455  26.890  32.690  1.00  0.00     0.198 A 
ATOM    110  C   UNL A   1      48.165  27.706  30.549  1.00  0.00     0.198 A 
ATOM    111  F   UNL A   1      46.767  29.133  29.307  1.00  0.00    -0.203 F 
ATOM    112  F   UNL A   1      47.700  26.185  33.803  1.00  0.00    -0.200 F 
ATOM    113  C   UNL A   1      48.411  26.955  31.687  1.00  0.00     0.200 A 
ATOM    114  F   UNL A   1      49.084  27.761  29.572  1.00  0.00    -0.200 F 
ATOM    115  F   UNL A   1      49.571  26.297  31.822  1.00  0.00    -0.200 F 
ENDBRANCH  85 105
BRANCH  88 116
ATOM    116  C   UNL A   1      37.017  32.597  30.339  1.00  0.00     0.064 A 
ATOM    117  C   UNL A   1      36.686  33.391  29.232  1.00  0.00     0.173 A 
ATOM    118  C   UNL A   1      36.038  32.411  31.326  1.00  0.00     0.173 A 
ATOM    119  F   UNL A   1      37.597  33.614  28.274  1.00  0.00    -0.203 F 
ATOM    120  C   UNL A   1      35.433  33.992  29.127  1.00  0.00     0.198 A 
ATOM    121  C   UNL A   1      34.777  32.989  31.206  1.00  0.00     0.198 A 
ATOM    122  F   UNL A   1      36.304  31.655  32.402  1.00  0.00    -0.203 F 
ATOM    123  F   UNL A   1      35.158  34.781  28.080  1.00  0.00    -0.200 F 
ATOM    124  C   UNL A   1      34.478  33.786  30.111  1.00  0.00     0.200 A 
ATOM    125  F   UNL A   1      33.852  32.777  32.152  1.00  0.00    -0.200 F 
ATOM    126  F   UNL A   1      33.273  34.360  30.007  1.00  0.00    -0.200 F 
ENDBRANCH  88 116
BRANCH 103 127
ATOM    127  C   UNL A   1      42.980  34.613  33.322  1.00  0.00     0.064 A 
ATOM    128  C   UNL A   1      43.403  35.759  32.635  1.00  0.00     0.173 A 
ATOM    129  C   UNL A   1      42.898  34.676  34.722  1.00  0.00     0.173 A 
ATOM    130  F   UNL A   1      43.512  35.743  31.298  1.00  0.00    -0.203 F 
ATOM    131  C   UNL A   1      43.754  36.917  33.324  1.00  0.00     0.198 A 
ATOM    132  C   UNL A   1      43.224  35.844  35.405  1.00  0.00     0.198 A 
ATOM    133  F   UNL A   1      42.493  33.607  35.424  1.00  0.00    -0.203 F 
ATOM    134  F   UNL A   1      44.199  37.987  32.650  1.00  0.00    -0.200 F 
ATOM    135  C   UNL A   1      43.657  36.960  34.708  1.00  0.00     0.200 A 
ATOM    136  F   UNL A   1      43.118  35.888  36.740  1.00  0.00    -0.200 F 
ATOM    137  F   UNL A   1      43.990  38.078  35.369  1.00  0.00    -0.200 F 
ENDBRANCH 103 127
ENDBRANCH  68  71
ENDBRANCH  58  61
ENDBRANCH  54  57
ENDBRANCH  51  54
ENDBRANCH  48  51
ENDBRANCH  45  48
ENDBRANCH   1  45
TORSDOF 19
ENDMDL
MODEL 10
REMARK VINA RESULT:     -10.8      6.578     12.195
REMARK SMILES CCSc1cccc(-c2ccc([C@@H](C)C(=O)NCCCCCCNC(=O)c3ccc(-c4c5nc(c(-c6c(F)c(F)c(F)c(F)c6F)c6ccc([nH]6)c(-c6c(F)c(F)c(F)c(F)c6F)c6nc(c(-c7c(F)c(F)c(F)c(F)c7F)c7ccc4[nH]7)C=C6)C=C5)cc3)cc2)c1
REMARK SMILES IDX 19 1 18 4 17 7 15 8 16 9 13 11 12 13 9 14 10 15 91 16 11 17
REMARK SMILES IDX 90 19 8 23 4 24 5 25 92 26 6 27 7 30 3 33 2 34 1 37 14 41
REMARK SMILES IDX 20 45 21 48 22 51 23 54 24 57 25 58 26 60 27 61 28 62 89 63
REMARK SMILES IDX 29 64 88 66 30 68 31 71 32 72 82 73 33 74 87 75 81 76 83 77
REMARK SMILES IDX 34 78 86 79 80 81 79 83 35 85 67 88 47 89 66 90 48 91 51 92
REMARK SMILES IDX 65 93 84 94 49 95 50 97 64 99 85 100 52 103 36 105 37 106
REMARK SMILES IDX 45 107 38 108 39 109 43 110 46 111 40 112 41 113 44 114
REMARK SMILES IDX 42 115 68 116 69 117 77 118 70 119 71 120 75 121 78 122
REMARK SMILES IDX 72 123 73 124 76 125 74 126 53 127 54 128 62 129 55 130
REMARK SMILES IDX 56 131 60 132 63 133 57 134 58 135 61 136 59 137
REMARK H PARENT 19 2 19 3 18 5 18 6 17 10 13 12 10 18 91 20 11 21 90 22 5 28
REMARK H PARENT 92 29 6 31 7 32 2 35 2 36 1 38 1 39 1 40 14 42 14 43 14 44
REMARK H PARENT 20 46 20 47 21 49 21 50 22 52 22 53 23 55 23 56 24 59 28 65
REMARK H PARENT 89 67 29 69 88 70 87 80 81 82 83 84 86 86 80 87 48 96 51 98
REMARK H PARENT 84 101 49 102 85 104
REMARK Flexibility Score: inf
ROOT
ATOM      1  C   UNL A   1      39.386  22.971  26.791  1.00  0.00    -0.036 C 
ATOM      2  H   UNL A   1      39.061  22.383  27.624  1.00  0.00     0.028 H 
ATOM      3  H   UNL A   1      39.722  23.944  27.081  1.00  0.00     0.028 H 
ENDROOT
BRANCH   1   4
ATOM      4  C   UNL A   1      38.194  23.175  25.854  1.00  0.00     0.017 C 
ATOM      5  H   UNL A   1      37.827  24.173  25.972  1.00  0.00     0.049 H 
ATOM      6  H   UNL A   1      38.527  23.004  24.851  1.00  0.00     0.049 H 
BRANCH   4   7
ATOM      7  N   UNL A   1      37.123  22.244  26.136  1.00  0.00    -0.356 N 
ATOM      8  C   UNL A   1      35.967  21.972  25.470  1.00  0.00     0.227 C 
ATOM      9  O   UNL A   1      35.193  21.177  26.017  1.00  0.00    -0.274 OA
ATOM     10  H   UNL A   1      37.253  21.714  26.955  1.00  0.00     0.163 HD
BRANCH   8  11
ATOM     11  C   UNL A   1      35.606  22.577  24.107  1.00  0.00     0.060 C 
ATOM     12  H   UNL A   1      34.957  21.868  23.637  1.00  0.00     0.045 H 
BRANCH  11  13
ATOM     13  C   UNL A   1      34.737  23.822  24.203  1.00  0.00    -0.036 A 
ATOM     14  C   UNL A   1      33.232  26.248  24.453  1.00  0.00    -0.018 A 
ATOM     15  C   UNL A   1      33.295  25.536  23.245  1.00  0.00    -0.054 A 
ATOM     16  C   UNL A   1      33.918  25.693  25.545  1.00  0.00    -0.054 A 
ATOM     17  C   UNL A   1      34.005  24.334  23.129  1.00  0.00    -0.058 A 
ATOM     18  H   UNL A   1      32.804  25.910  22.417  1.00  0.00     0.063 H 
ATOM     19  C   UNL A   1      34.673  24.518  25.419  1.00  0.00    -0.058 A 
ATOM     20  H   UNL A   1      33.868  26.161  26.462  1.00  0.00     0.063 H 
ATOM     21  H   UNL A   1      33.988  23.819  22.236  1.00  0.00     0.063 H 
ATOM     22  H   UNL A   1      35.190  24.157  26.236  1.00  0.00     0.063 H 
BRANCH  14  23
ATOM     23  C   UNL A   1      32.482  27.524  24.562  1.00  0.00    -0.017 A 
ATOM     24  C   UNL A   1      30.904  29.161  23.634  1.00  0.00     0.008 A 
ATOM     25  C   UNL A   1      31.028  29.947  24.779  1.00  0.00    -0.049 A 
ATOM     26  C   UNL A   1      31.624  27.962  23.534  1.00  0.00    -0.041 A 
ATOM     27  C   UNL A   1      31.865  29.538  25.812  1.00  0.00    -0.061 A 
ATOM     28  H   UNL A   1      30.499  30.829  24.860  1.00  0.00     0.063 H 
ATOM     29  H   UNL A   1      31.523  27.386  22.685  1.00  0.00     0.064 H 
ATOM     30  C   UNL A   1      32.588  28.346  25.699  1.00  0.00    -0.054 A 
ATOM     31  H   UNL A   1      31.954  30.114  26.664  1.00  0.00     0.062 H 
ATOM     32  H   UNL A   1      33.215  28.062  26.468  1.00  0.00     0.063 H 
BRANCH  24  33
ATOM     33  S   UNL A   1      29.891  29.691  22.265  1.00  0.00    -0.126 SA
BRANCH  33  34
ATOM     34  C   UNL A   1      28.375  30.186  23.149  1.00  0.00    -0.005 C 
ATOM     35  H   UNL A   1      27.667  29.384  23.099  1.00  0.00     0.038 H 
ATOM     36  H   UNL A   1      28.637  30.403  24.163  1.00  0.00     0.038 H 
BRANCH  34  37
ATOM     37  C   UNL A   1      27.751  31.431  22.543  1.00  0.00    -0.056 C 
ATOM     38  H   UNL A   1      27.968  32.275  23.163  1.00  0.00     0.024 H 
ATOM     39  H   UNL A   1      26.691  31.302  22.475  1.00  0.00     0.024 H 
ATOM     40  H   UNL A   1      28.155  31.592  21.566  1.00  0.00     0.024 H 
ENDBRANCH  34  37
ENDBRANCH  33  34
ENDBRANCH  24  33
ENDBRANCH  14  23
ENDBRANCH  11  13
BRANCH  11  41
ATOM     41  C   UNL A   1      36.777  22.649  23.126  1.00  0.00    -0.049 C 
ATOM     42  H   UNL A   1      37.579  23.202  23.567  1.00  0.00     0.024 H 
ATOM     43  H   UNL A   1      36.460  23.135  22.226  1.00  0.00     0.024 H 
ATOM     44  H   UNL A   1      37.111  21.658  22.897  1.00  0.00     0.024 H 
ENDBRANCH  11  41
ENDBRANCH   8  11
ENDBRANCH   4   7
ENDBRANCH   1   4
BRANCH   1  45
ATOM     45  C   UNL A   1      40.578  22.265  26.137  1.00  0.00    -0.052 C 
ATOM     46  H   UNL A   1      41.357  22.986  26.003  1.00  0.00     0.027 H 
ATOM     47  H   UNL A   1      40.212  21.855  25.218  1.00  0.00     0.027 H 
BRANCH  45  48
ATOM     48  C   UNL A   1      41.155  21.084  26.928  1.00  0.00    -0.052 C 
ATOM     49  H   UNL A   1      40.480  20.865  27.729  1.00  0.00     0.027 H 
ATOM     50  H   UNL A   1      42.125  21.395  27.253  1.00  0.00     0.027 H 
BRANCH  48  51
ATOM     51  C   UNL A   1      41.373  19.795  26.130  1.00  0.00    -0.036 C 
ATOM     52  H   UNL A   1      41.424  20.050  25.092  1.00  0.00     0.028 H 
ATOM     53  H   UNL A   1      40.550  19.152  26.368  1.00  0.00     0.028 H 
BRANCH  51  54
ATOM     54  C   UNL A   1      42.638  19.020  26.491  1.00  0.00     0.018 C 
ATOM     55  H   UNL A   1      42.359  18.109  26.977  1.00  0.00     0.049 H 
ATOM     56  H   UNL A   1      43.230  19.637  27.136  1.00  0.00     0.049 H 
BRANCH  54  57
ATOM     57  N   UNL A   1      43.435  18.701  25.319  1.00  0.00    -0.352 N 
ATOM     58  C   UNL A   1      44.174  19.523  24.504  1.00  0.00     0.251 C 
ATOM     59  H   UNL A   1      43.447  17.749  25.069  1.00  0.00     0.163 HD
ATOM     60  O   UNL A   1      44.602  19.103  23.434  1.00  0.00    -0.269 OA
BRANCH  58  61
ATOM     61  C   UNL A   1      44.451  20.920  24.902  1.00  0.00     0.039 A 
ATOM     62  C   UNL A   1      44.139  21.950  24.009  1.00  0.00    -0.049 A 
ATOM     63  C   UNL A   1      45.057  21.216  26.126  1.00  0.00    -0.049 A 
ATOM     64  C   UNL A   1      44.382  23.278  24.365  1.00  0.00    -0.053 A 
ATOM     65  H   UNL A   1      43.730  21.728  23.087  1.00  0.00     0.063 H 
ATOM     66  C   UNL A   1      45.243  22.543  26.507  1.00  0.00    -0.053 A 
ATOM     67  H   UNL A   1      45.366  20.452  26.747  1.00  0.00     0.063 H 
ATOM     68  C   UNL A   1      44.911  23.587  25.629  1.00  0.00    -0.014 A 
ATOM     69  H   UNL A   1      44.173  24.036  23.697  1.00  0.00     0.063 H 
ATOM     70  H   UNL A   1      45.628  22.760  27.439  1.00  0.00     0.063 H 
BRANCH  68  71
ATOM     71  C   UNL A   1      45.113  24.996  26.050  1.00  0.00     0.031 A 
ATOM     72  C   UNL A   1      46.474  25.628  25.960  1.00  0.00     0.074 A 
ATOM     73  C   UNL A   1      44.083  25.686  26.577  1.00  0.00     0.049 A 
ATOM     74  N   UNL A   1      46.861  26.819  26.341  1.00  0.00    -0.248 NA
ATOM     75  C   UNL A   1      47.550  24.801  25.391  1.00  0.00    -0.034 C 
ATOM     76  C   UNL A   1      42.728  25.166  26.764  1.00  0.00    -0.036 A 
ATOM     77  N   UNL A   1      44.018  26.967  27.065  1.00  0.00    -0.354 N 
ATOM     78  C   UNL A   1      48.222  26.879  26.073  1.00  0.00     0.074 A 
ATOM     79  C   UNL A   1      48.606  25.590  25.539  1.00  0.00    -0.034 C 
ATOM     80  H   UNL A   1      47.497  23.855  24.983  1.00  0.00     0.065 H 
ATOM     81  C   UNL A   1      41.962  26.123  27.311  1.00  0.00    -0.036 A 
ATOM     82  H   UNL A   1      42.411  24.216  26.514  1.00  0.00     0.065 H 
ATOM     83  C   UNL A   1      42.778  27.311  27.545  1.00  0.00     0.049 A 
ATOM     84  H   UNL A   1      44.787  27.582  27.069  1.00  0.00     0.167 HD
ATOM     85  C   UNL A   1      49.070  27.922  26.240  1.00  0.00     0.037 A 
ATOM     86  H   UNL A   1      49.573  25.320  25.305  1.00  0.00     0.065 H 
ATOM     87  H   UNL A   1      40.958  26.033  27.532  1.00  0.00     0.065 H 
ATOM     88  C   UNL A   1      42.349  28.453  28.114  1.00  0.00     0.037 A 
ATOM     89  C   UNL A   1      48.679  29.214  26.741  1.00  0.00     0.049 A 
ATOM     90  C   UNL A   1      43.309  29.600  28.274  1.00  0.00     0.074 A 
ATOM     91  C   UNL A   1      49.449  30.356  26.878  1.00  0.00    -0.036 A 
ATOM     92  N   UNL A   1      47.407  29.534  27.190  1.00  0.00    -0.354 N 
ATOM     93  N   UNL A   1      44.577  29.669  27.949  1.00  0.00    -0.248 NA
ATOM     94  C   UNL A   1      42.775  30.832  28.872  1.00  0.00    -0.034 C 
ATOM     95  C   UNL A   1      48.654  31.355  27.449  1.00  0.00    -0.036 A 
ATOM     96  H   UNL A   1      50.440  30.454  26.605  1.00  0.00     0.065 H 
ATOM     97  C   UNL A   1      47.376  30.851  27.624  1.00  0.00     0.049 A 
ATOM     98  H   UNL A   1      46.639  28.918  27.199  1.00  0.00     0.167 HD
ATOM     99  C   UNL A   1      44.986  30.953  28.279  1.00  0.00     0.074 A 
ATOM    100  C   UNL A   1      43.827  31.637  28.814  1.00  0.00    -0.034 C 
ATOM    101  H   UNL A   1      41.830  31.021  29.239  1.00  0.00     0.065 H 
ATOM    102  H   UNL A   1      48.965  32.307  27.695  1.00  0.00     0.065 H 
ATOM    103  C   UNL A   1      46.212  31.517  28.150  1.00  0.00     0.037 A 
ATOM    104  H   UNL A   1      43.820  32.624  29.114  1.00  0.00     0.065 H 
BRANCH  85 105
ATOM    105  C   UNL A   1      50.512  27.714  25.874  1.00  0.00     0.064 A 
ATOM    106  C   UNL A   1      51.470  27.358  26.834  1.00  0.00     0.173 A 
ATOM    107  C   UNL A   1      50.929  27.827  24.539  1.00  0.00     0.173 A 
ATOM    108  F   UNL A   1      51.124  27.249  28.125  1.00  0.00    -0.203 F 
ATOM    109  C   UNL A   1      52.799  27.148  26.475  1.00  0.00     0.198 A 
ATOM    110  C   UNL A   1      52.253  27.587  24.180  1.00  0.00     0.198 A 
ATOM    111  F   UNL A   1      50.051  28.159  23.580  1.00  0.00    -0.203 F 
ATOM    112  F   UNL A   1      53.706  26.851  27.416  1.00  0.00    -0.200 F 
ATOM    113  C   UNL A   1      53.188  27.254  25.148  1.00  0.00     0.200 A 
ATOM    114  F   UNL A   1      52.625  27.680  22.895  1.00  0.00    -0.200 F 
ATOM    115  F   UNL A   1      54.466  27.042  24.804  1.00  0.00    -0.200 F 
ENDBRANCH  85 105
BRANCH  88 116
ATOM    116  C   UNL A   1      40.936  28.575  28.556  1.00  0.00     0.064 A 
ATOM    117  C   UNL A   1      40.565  28.258  29.870  1.00  0.00     0.173 A 
ATOM    118  C   UNL A   1      39.932  29.008  27.679  1.00  0.00     0.173 A 
ATOM    119  F   UNL A   1      41.488  27.821  30.739  1.00  0.00    -0.203 F 
ATOM    120  C   UNL A   1      39.237  28.351  30.284  1.00  0.00     0.198 A 
ATOM    121  C   UNL A   1      38.610  29.127  28.101  1.00  0.00     0.198 A 
ATOM    122  F   UNL A   1      40.237  29.328  26.413  1.00  0.00    -0.203 F 
ATOM    123  F   UNL A   1      38.902  28.001  31.533  1.00  0.00    -0.200 F 
ATOM    124  C   UNL A   1      38.262  28.790  29.402  1.00  0.00     0.200 A 
ATOM    125  F   UNL A   1      37.672  29.564  27.250  1.00  0.00    -0.200 F 
ATOM    126  F   UNL A   1      36.987  28.883  29.802  1.00  0.00    -0.200 F 
ENDBRANCH  88 116
BRANCH 103 127
ATOM    127  C   UNL A   1      46.356  32.949  28.570  1.00  0.00     0.064 A 
ATOM    128  C   UNL A   1      46.128  34.004  27.675  1.00  0.00     0.173 A 
ATOM    129  C   UNL A   1      46.690  33.270  29.896  1.00  0.00     0.173 A 
ATOM    130  F   UNL A   1      45.821  33.749  26.394  1.00  0.00    -0.203 F 
ATOM    131  C   UNL A   1      46.251  35.329  28.086  1.00  0.00     0.198 A 
ATOM    132  C   UNL A   1      46.786  34.595  30.308  1.00  0.00     0.198 A 
ATOM    133  F   UNL A   1      46.912  32.296  30.791  1.00  0.00    -0.203 F 
ATOM    134  F   UNL A   1      46.073  36.321  27.203  1.00  0.00    -0.200 F 
ATOM    135  C   UNL A   1      46.574  35.623  29.403  1.00  0.00     0.200 A 
ATOM    136  F   UNL A   1      47.085  34.878  31.584  1.00  0.00    -0.200 F 
ATOM    137  F   UNL A   1      46.687  36.900  29.797  1.00  0.00    -0.200 F 
ENDBRANCH 103 127
ENDBRANCH  68  71
ENDBRANCH  58  61
ENDBRANCH  54  57
ENDBRANCH  51  54
ENDBRANCH  48  51
ENDBRANCH  45  48
ENDBRANCH   1  45
TORSDOF 19
ENDMDL
