MODEL 1
REMARK VINA RESULT:     -13.7      0.000      0.000
REMARK SMILES Cc1ccc(-c2nn(-c3ccccc3)cc2[C@@H]2[NH2+][C@H](C(=O)NCCCCCCNC(=O)c3ccc(-c4c5nc(c(-c6c(F)c(F)c(F)c(F)c6F)c6ccc([nH]6)c(-c6c(F)c(F)c(F)c(F)c6F)c6nc(c(-c7c(F)c(F)c(F)c(F)c7F)c7ccc4[nH]7)C=C6)C=C5)cc3)CS2)cc1
REMARK SMILES IDX 25 1 24 4 23 7 22 10 20 11 21 12 19 14 17 15 18 16 96 17
REMARK SMILES IDX 95 21 16 25 6 26 7 27 8 28 15 29 5 31 2 32 3 33 98 34 4 35
REMARK SMILES IDX 97 37 1 41 9 45 10 46 14 47 11 48 13 50 12 52 26 56 27 59
REMARK SMILES IDX 28 62 29 65 30 66 31 68 32 69 33 70 94 71 34 72 93 74 35 76
REMARK SMILES IDX 36 79 37 80 87 81 38 82 92 83 86 84 88 85 39 86 91 87 85 89
REMARK SMILES IDX 84 91 40 93 72 96 52 97 71 98 53 99 56 100 70 101 89 102
REMARK SMILES IDX 54 103 55 105 69 107 90 108 57 111 41 113 42 114 50 115
REMARK SMILES IDX 43 116 44 117 48 118 51 119 45 120 46 121 49 122 47 123
REMARK SMILES IDX 73 124 74 125 82 126 75 127 76 128 80 129 83 130 77 131
REMARK SMILES IDX 78 132 81 133 79 134 58 135 59 136 67 137 60 138 61 139
REMARK SMILES IDX 65 140 68 141 62 142 63 143 66 144 64 145
REMARK H PARENT 25 2 25 3 24 5 24 6 23 8 23 9 22 13 17 18 18 19 18 20 19 22
REMARK H PARENT 95 23 95 24 15 30 3 36 98 38 4 39 97 40 1 42 1 43 1 44 10 49
REMARK H PARENT 14 51 11 53 13 54 12 55 26 57 26 58 27 60 27 61 28 63 28 64
REMARK H PARENT 29 67 33 73 94 75 34 77 93 78 92 88 86 90 88 92 91 94 85 95
REMARK H PARENT 53 104 56 106 89 109 54 110 90 112
REMARK Flexibility Score: inf
ROOT
ATOM      1  C   UNL A   1      32.824  28.775  24.489  1.00  0.00    -0.052 C 
ATOM      2  H   UNL A   1      33.159  29.460  23.739  1.00  0.00     0.027 H 
ATOM      3  H   UNL A   1      33.447  28.477  25.306  1.00  0.00     0.027 H 
ENDROOT
BRANCH   1   4
ATOM      4  C   UNL A   1      32.659  27.412  23.759  1.00  0.00    -0.036 C 
ATOM      5  H   UNL A   1      32.929  26.665  24.476  1.00  0.00     0.028 H 
ATOM      6  H   UNL A   1      31.654  27.490  23.404  1.00  0.00     0.028 H 
BRANCH   4   7
ATOM      7  C   UNL A   1      33.398  27.040  22.473  1.00  0.00     0.018 C 
ATOM      8  H   UNL A   1      32.811  27.394  21.651  1.00  0.00     0.049 H 
ATOM      9  H   UNL A   1      34.364  27.490  22.568  1.00  0.00     0.049 H 
BRANCH   7  10
ATOM     10  N   UNL A   1      33.664  25.627  22.243  1.00  0.00    -0.351 N 
ATOM     11  C   UNL A   1      34.045  24.616  23.083  1.00  0.00     0.279 C 
ATOM     12  O   UNL A   1      33.899  23.472  22.620  1.00  0.00    -0.268 OA
ATOM     13  H   UNL A   1      33.547  25.345  21.308  1.00  0.00     0.163 HD
BRANCH  11  14
ATOM     14  C   UNL A   1      34.676  24.728  24.503  1.00  0.00     0.176 C 
ATOM     15  C   UNL A   1      34.033  23.566  26.532  1.00  0.00     0.163 C 
ATOM     16  N   UNL A   1      33.754  24.715  25.664  1.00  0.00    -0.320 N 
ATOM     17  S   UNL A   1      35.810  23.285  26.424  1.00  0.00    -0.087 SA
ATOM     18  H   UNL A   1      33.781  23.719  27.560  1.00  0.00     0.115 H 
ATOM     19  H   UNL A   1      33.874  25.576  26.198  1.00  0.00     0.348 HD
ATOM     20  H   UNL A   1      32.795  24.644  25.323  1.00  0.00     0.348 HD
ATOM     21  C   UNL A   1      35.852  23.757  24.678  1.00  0.00     0.061 C 
ATOM     22  H   UNL A   1      35.042  25.733  24.521  1.00  0.00     0.108 H 
ATOM     23  H   UNL A   1      36.776  24.239  24.440  1.00  0.00     0.045 H 
ATOM     24  H   UNL A   1      35.773  22.910  24.030  1.00  0.00     0.045 H 
BRANCH  15  25
ATOM     25  C   UNL A   1      33.198  22.415  26.075  1.00  0.00     0.067 A 
ATOM     26  C   UNL A   1      31.895  22.439  25.451  1.00  0.00     0.103 A 
ATOM     27  N   UNL A   1      31.477  21.177  25.186  1.00  0.00    -0.167 NA
ATOM     28  N   UNL A   1      32.556  20.392  25.444  1.00  0.00    -0.240 N 
ATOM     29  C   UNL A   1      33.535  21.077  26.095  1.00  0.00     0.041 A 
ATOM     30  H   UNL A   1      34.379  20.668  26.527  1.00  0.00     0.085 H 
BRANCH  26  31
ATOM     31  C   UNL A   1      31.085  23.625  25.076  1.00  0.00     0.003 A 
ATOM     32  C   UNL A   1      29.613  25.953  24.342  1.00  0.00    -0.051 A 
ATOM     33  C   UNL A   1      30.005  25.033  23.376  1.00  0.00    -0.059 A 
ATOM     34  C   UNL A   1      29.915  25.682  25.681  1.00  0.00    -0.059 A 
ATOM     35  C   UNL A   1      30.729  23.893  23.742  1.00  0.00    -0.052 A 
ATOM     36  H   UNL A   1      29.761  25.190  22.386  1.00  0.00     0.063 H 
ATOM     37  C   UNL A   1      30.636  24.527  26.045  1.00  0.00    -0.052 A 
ATOM     38  H   UNL A   1      29.605  26.338  26.415  1.00  0.00     0.063 H 
ATOM     39  H   UNL A   1      31.012  23.224  23.008  1.00  0.00     0.063 H 
ATOM     40  H   UNL A   1      30.836  24.346  27.041  1.00  0.00     0.063 H 
BRANCH  32  41
ATOM     41  C   UNL A   1      28.883  27.196  23.922  1.00  0.00    -0.040 C 
ATOM     42  H   UNL A   1      28.116  26.940  23.221  1.00  0.00     0.028 H 
ATOM     43  H   UNL A   1      29.571  27.876  23.465  1.00  0.00     0.028 H 
ATOM     44  H   UNL A   1      28.442  27.658  24.781  1.00  0.00     0.028 H 
ENDBRANCH  32  41
ENDBRANCH  26  31
BRANCH  28  45
ATOM     45  C   UNL A   1      32.745  19.112  24.870  1.00  0.00     0.065 A 
ATOM     46  C   UNL A   1      32.905  17.997  25.717  1.00  0.00    -0.036 A 
ATOM     47  C   UNL A   1      32.765  18.953  23.488  1.00  0.00    -0.036 A 
ATOM     48  C   UNL A   1      33.176  16.741  25.177  1.00  0.00    -0.060 A 
ATOM     49  H   UNL A   1      32.820  18.111  26.739  1.00  0.00     0.065 H 
ATOM     50  C   UNL A   1      32.946  17.671  22.957  1.00  0.00    -0.060 A 
ATOM     51  H   UNL A   1      32.646  19.766  22.865  1.00  0.00     0.065 H 
ATOM     52  C   UNL A   1      33.183  16.576  23.796  1.00  0.00    -0.062 A 
ATOM     53  H   UNL A   1      33.370  15.940  25.797  1.00  0.00     0.062 H 
ATOM     54  H   UNL A   1      32.904  17.532  21.935  1.00  0.00     0.062 H 
ATOM     55  H   UNL A   1      33.364  15.645  23.389  1.00  0.00     0.062 H 
ENDBRANCH  28  45
ENDBRANCH  15  25
ENDBRANCH  11  14
ENDBRANCH   7  10
ENDBRANCH   4   7
ENDBRANCH   1   4
BRANCH   1  56
ATOM     56  C   UNL A   1      31.712  29.515  25.250  1.00  0.00    -0.052 C 
ATOM     57  H   UNL A   1      31.222  28.796  25.874  1.00  0.00     0.027 H 
ATOM     58  H   UNL A   1      31.111  29.953  24.480  1.00  0.00     0.027 H 
BRANCH  56  59
ATOM     59  C   UNL A   1      32.103  30.697  26.141  1.00  0.00    -0.036 C 
ATOM     60  H   UNL A   1      31.195  31.127  26.512  1.00  0.00     0.028 H 
ATOM     61  H   UNL A   1      32.693  31.322  25.503  1.00  0.00     0.028 H 
BRANCH  59  62
ATOM     62  C   UNL A   1      33.003  30.434  27.348  1.00  0.00     0.018 C 
ATOM     63  H   UNL A   1      33.659  29.626  27.100  1.00  0.00     0.049 H 
ATOM     64  H   UNL A   1      32.344  30.223  28.164  1.00  0.00     0.049 H 
BRANCH  62  65
ATOM     65  N   UNL A   1      33.831  31.572  27.783  1.00  0.00    -0.352 N 
ATOM     66  C   UNL A   1      35.125  31.546  28.307  1.00  0.00     0.251 C 
ATOM     67  H   UNL A   1      33.421  32.463  27.695  1.00  0.00     0.163 HD
ATOM     68  O   UNL A   1      35.715  32.551  28.648  1.00  0.00    -0.269 OA
BRANCH  66  69
ATOM     69  C   UNL A   1      35.810  30.234  28.326  1.00  0.00     0.039 A 
ATOM     70  C   UNL A   1      36.105  29.703  29.586  1.00  0.00    -0.049 A 
ATOM     71  C   UNL A   1      36.514  29.849  27.188  1.00  0.00    -0.049 A 
ATOM     72  C   UNL A   1      37.313  29.041  29.758  1.00  0.00    -0.053 A 
ATOM     73  H   UNL A   1      35.439  29.801  30.368  1.00  0.00     0.063 H 
ATOM     74  C   UNL A   1      37.755  29.274  27.377  1.00  0.00    -0.053 A 
ATOM     75  H   UNL A   1      36.125  29.989  26.244  1.00  0.00     0.063 H 
ATOM     76  C   UNL A   1      38.189  28.968  28.676  1.00  0.00    -0.014 A 
ATOM     77  H   UNL A   1      37.557  28.614  30.665  1.00  0.00     0.063 H 
ATOM     78  H   UNL A   1      38.358  29.068  26.566  1.00  0.00     0.063 H 
BRANCH  76  79
ATOM     79  C   UNL A   1      39.615  28.707  28.829  1.00  0.00     0.031 A 
ATOM     80  C   UNL A   1      40.138  27.354  28.570  1.00  0.00     0.074 A 
ATOM     81  C   UNL A   1      40.468  29.700  29.171  1.00  0.00     0.049 A 
ATOM     82  N   UNL A   1      41.288  26.935  28.976  1.00  0.00    -0.248 NA
ATOM     83  C   UNL A   1      39.344  26.320  27.921  1.00  0.00    -0.034 C 
ATOM     84  C   UNL A   1      41.926  29.680  29.085  1.00  0.00    -0.036 A 
ATOM     85  N   UNL A   1      40.181  30.878  29.881  1.00  0.00    -0.354 N 
ATOM     86  C   UNL A   1      41.502  25.695  28.427  1.00  0.00     0.074 A 
ATOM     87  C   UNL A   1      40.215  25.308  27.907  1.00  0.00    -0.034 C 
ATOM     88  H   UNL A   1      38.375  26.358  27.568  1.00  0.00     0.065 H 
ATOM     89  C   UNL A   1      42.427  30.584  29.939  1.00  0.00    -0.036 A 
ATOM     90  H   UNL A   1      42.482  29.067  28.466  1.00  0.00     0.065 H 
ATOM     91  C   UNL A   1      41.315  31.125  30.696  1.00  0.00     0.049 A 
ATOM     92  H   UNL A   1      39.361  31.419  29.825  1.00  0.00     0.167 HD
ATOM     93  C   UNL A   1      42.778  25.217  28.384  1.00  0.00     0.037 A 
ATOM     94  H   UNL A   1      39.993  24.359  27.565  1.00  0.00     0.065 H 
ATOM     95  H   UNL A   1      43.419  30.846  30.039  1.00  0.00     0.065 H 
ATOM     96  C   UNL A   1      41.220  31.143  32.056  1.00  0.00     0.037 A 
ATOM     97  C   UNL A   1      43.658  26.000  29.260  1.00  0.00     0.049 A 
ATOM     98  C   UNL A   1      42.044  30.088  32.765  1.00  0.00     0.074 A 
ATOM     99  C   UNL A   1      44.643  26.955  29.070  1.00  0.00    -0.036 A 
ATOM    100  N   UNL A   1      43.383  26.006  30.617  1.00  0.00    -0.354 N 
ATOM    101  N   UNL A   1      42.762  29.187  32.156  1.00  0.00    -0.248 NA
ATOM    102  C   UNL A   1      42.033  29.901  34.218  1.00  0.00    -0.034 C 
ATOM    103  C   UNL A   1      44.931  27.552  30.336  1.00  0.00    -0.036 A 
ATOM    104  H   UNL A   1      45.092  27.193  28.172  1.00  0.00     0.065 H 
ATOM    105  C   UNL A   1      44.130  26.950  31.291  1.00  0.00     0.049 A 
ATOM    106  H   UNL A   1      42.733  25.408  31.051  1.00  0.00     0.167 HD
ATOM    107  C   UNL A   1      43.219  28.279  33.071  1.00  0.00     0.074 A 
ATOM    108  C   UNL A   1      42.755  28.775  34.353  1.00  0.00    -0.034 C 
ATOM    109  H   UNL A   1      41.588  30.480  34.946  1.00  0.00     0.065 H 
ATOM    110  H   UNL A   1      45.617  28.302  30.508  1.00  0.00     0.065 H 
ATOM    111  C   UNL A   1      43.896  27.152  32.712  1.00  0.00     0.037 A 
ATOM    112  H   UNL A   1      42.954  28.319  35.258  1.00  0.00     0.065 H 
BRANCH  93 113
ATOM    113  C   UNL A   1      43.293  24.150  27.431  1.00  0.00     0.064 A 
ATOM    114  C   UNL A   1      44.078  24.524  26.316  1.00  0.00     0.173 A 
ATOM    115  C   UNL A   1      42.975  22.775  27.470  1.00  0.00     0.173 A 
ATOM    116  F   UNL A   1      44.498  25.786  26.146  1.00  0.00    -0.203 F 
ATOM    117  C   UNL A   1      44.448  23.621  25.311  1.00  0.00     0.198 A 
ATOM    118  C   UNL A   1      43.363  21.870  26.479  1.00  0.00     0.198 A 
ATOM    119  F   UNL A   1      42.256  22.225  28.446  1.00  0.00    -0.203 F 
ATOM    120  F   UNL A   1      45.146  24.055  24.253  1.00  0.00    -0.200 F 
ATOM    121  C   UNL A   1      44.085  22.294  25.389  1.00  0.00     0.200 A 
ATOM    122  F   UNL A   1      43.004  20.582  26.587  1.00  0.00    -0.200 F 
ATOM    123  F   UNL A   1      44.420  21.431  24.422  1.00  0.00    -0.200 F 
ENDBRANCH  93 113
BRANCH  96 124
ATOM    124  C   UNL A   1      39.907  31.658  32.521  1.00  0.00     0.064 A 
ATOM    125  C   UNL A   1      39.647  33.034  32.373  1.00  0.00     0.173 A 
ATOM    126  C   UNL A   1      38.814  30.803  32.699  1.00  0.00     0.173 A 
ATOM    127  F   UNL A   1      40.664  33.894  32.198  1.00  0.00    -0.203 F 
ATOM    128  C   UNL A   1      38.345  33.514  32.271  1.00  0.00     0.198 A 
ATOM    129  C   UNL A   1      37.510  31.291  32.613  1.00  0.00     0.198 A 
ATOM    130  F   UNL A   1      39.001  29.482  32.829  1.00  0.00    -0.203 F 
ATOM    131  F   UNL A   1      38.129  34.810  32.005  1.00  0.00    -0.200 F 
ATOM    132  C   UNL A   1      37.278  32.636  32.360  1.00  0.00     0.200 A 
ATOM    133  F   UNL A   1      36.478  30.439  32.676  1.00  0.00    -0.200 F 
ATOM    134  F   UNL A   1      36.028  33.077  32.162  1.00  0.00    -0.200 F 
ENDBRANCH  96 124
BRANCH 111 135
ATOM    135  C   UNL A   1      44.383  26.139  33.700  1.00  0.00     0.064 A 
ATOM    136  C   UNL A   1      45.746  25.857  33.868  1.00  0.00     0.173 A 
ATOM    137  C   UNL A   1      43.480  25.328  34.417  1.00  0.00     0.173 A 
ATOM    138  F   UNL A   1      46.676  26.564  33.208  1.00  0.00    -0.203 F 
ATOM    139  C   UNL A   1      46.180  24.829  34.709  1.00  0.00     0.198 A 
ATOM    140  C   UNL A   1      43.912  24.272  35.216  1.00  0.00     0.198 A 
ATOM    141  F   UNL A   1      42.158  25.558  34.376  1.00  0.00    -0.203 F 
ATOM    142  F   UNL A   1      47.493  24.612  34.872  1.00  0.00    -0.200 F 
ATOM    143  C   UNL A   1      45.263  24.026  35.366  1.00  0.00     0.200 A 
ATOM    144  F   UNL A   1      43.013  23.498  35.839  1.00  0.00    -0.200 F 
ATOM    145  F   UNL A   1      45.680  23.020  36.148  1.00  0.00    -0.200 F 
ENDBRANCH 111 135
ENDBRANCH  76  79
ENDBRANCH  66  69
ENDBRANCH  62  65
ENDBRANCH  59  62
ENDBRANCH  56  59
ENDBRANCH   1  56
TORSDOF 17
ENDMDL
MODEL 2
REMARK VINA RESULT:     -13.3      3.507      9.730
REMARK SMILES Cc1ccc(-c2nn(-c3ccccc3)cc2[C@@H]2[NH2+][C@H](C(=O)NCCCCCCNC(=O)c3ccc(-c4c5nc(c(-c6c(F)c(F)c(F)c(F)c6F)c6ccc([nH]6)c(-c6c(F)c(F)c(F)c(F)c6F)c6nc(c(-c7c(F)c(F)c(F)c(F)c7F)c7ccc4[nH]7)C=C6)C=C5)cc3)CS2)cc1
REMARK SMILES IDX 25 1 24 4 23 7 22 10 20 11 21 12 19 14 17 15 18 16 96 17
REMARK SMILES IDX 95 21 16 25 6 26 7 27 8 28 15 29 5 31 2 32 3 33 98 34 4 35
REMARK SMILES IDX 97 37 1 41 9 45 10 46 14 47 11 48 13 50 12 52 26 56 27 59
REMARK SMILES IDX 28 62 29 65 30 66 31 68 32 69 33 70 94 71 34 72 93 74 35 76
REMARK SMILES IDX 36 79 37 80 87 81 38 82 92 83 86 84 88 85 39 86 91 87 85 89
REMARK SMILES IDX 84 91 40 93 72 96 52 97 71 98 53 99 56 100 70 101 89 102
REMARK SMILES IDX 54 103 55 105 69 107 90 108 57 111 41 113 42 114 50 115
REMARK SMILES IDX 43 116 44 117 48 118 51 119 45 120 46 121 49 122 47 123
REMARK SMILES IDX 73 124 74 125 82 126 75 127 76 128 80 129 83 130 77 131
REMARK SMILES IDX 78 132 81 133 79 134 58 135 59 136 67 137 60 138 61 139
REMARK SMILES IDX 65 140 68 141 62 142 63 143 66 144 64 145
REMARK H PARENT 25 2 25 3 24 5 24 6 23 8 23 9 22 13 17 18 18 19 18 20 19 22
REMARK H PARENT 95 23 95 24 15 30 3 36 98 38 4 39 97 40 1 42 1 43 1 44 10 49
REMARK H PARENT 14 51 11 53 13 54 12 55 26 57 26 58 27 60 27 61 28 63 28 64
REMARK H PARENT 29 67 33 73 94 75 34 77 93 78 92 88 86 90 88 92 91 94 85 95
REMARK H PARENT 53 104 56 106 89 109 54 110 90 112
REMARK Flexibility Score: inf
ROOT
ATOM      1  C   UNL A   1      36.225  23.106  24.207  1.00  0.00    -0.052 C 
ATOM      2  H   UNL A   1      35.784  23.532  25.084  1.00  0.00     0.027 H 
ATOM      3  H   UNL A   1      37.072  23.548  23.724  1.00  0.00     0.027 H 
ENDROOT
BRANCH   1   4
ATOM      4  C   UNL A   1      35.157  23.266  23.089  1.00  0.00    -0.036 C 
ATOM      5  H   UNL A   1      35.695  23.572  22.215  1.00  0.00     0.028 H 
ATOM      6  H   UNL A   1      34.676  22.311  23.126  1.00  0.00     0.028 H 
BRANCH   4   7
ATOM      7  C   UNL A   1      33.954  24.206  23.187  1.00  0.00     0.018 C 
ATOM      8  H   UNL A   1      33.093  23.661  22.859  1.00  0.00     0.049 H 
ATOM      9  H   UNL A   1      33.932  24.519  24.209  1.00  0.00     0.049 H 
BRANCH   7  10
ATOM     10  N   UNL A   1      34.010  25.440  22.417  1.00  0.00    -0.351 N 
ATOM     11  C   UNL A   1      33.065  26.387  22.129  1.00  0.00     0.279 C 
ATOM     12  O   UNL A   1      33.519  27.459  21.694  1.00  0.00    -0.268 OA
ATOM     13  H   UNL A   1      34.895  25.629  22.030  1.00  0.00     0.163 HD
BRANCH  11  14
ATOM     14  C   UNL A   1      31.516  26.265  22.232  1.00  0.00     0.176 C 
ATOM     15  C   UNL A   1      30.146  26.120  24.228  1.00  0.00     0.163 C 
ATOM     16  N   UNL A   1      30.969  25.365  23.276  1.00  0.00    -0.320 N 
ATOM     17  S   UNL A   1      29.375  27.442  23.277  1.00  0.00    -0.087 SA
ATOM     18  H   UNL A   1      29.372  25.546  24.693  1.00  0.00     0.115 H 
ATOM     19  H   UNL A   1      30.395  24.647  22.833  1.00  0.00     0.348 HD
ATOM     20  H   UNL A   1      31.744  24.934  23.780  1.00  0.00     0.348 HD
ATOM     21  C   UNL A   1      30.839  27.643  22.233  1.00  0.00     0.061 C 
ATOM     22  H   UNL A   1      31.258  25.746  21.334  1.00  0.00     0.108 H 
ATOM     23  H   UNL A   1      30.557  27.924  21.240  1.00  0.00     0.045 H 
ATOM     24  H   UNL A   1      31.490  28.411  22.595  1.00  0.00     0.045 H 
BRANCH  15  25
ATOM     25  C   UNL A   1      31.026  26.592  25.341  1.00  0.00     0.067 A 
ATOM     26  C   UNL A   1      31.897  25.815  26.191  1.00  0.00     0.103 A 
ATOM     27  N   UNL A   1      32.528  26.621  27.080  1.00  0.00    -0.167 NA
ATOM     28  N   UNL A   1      32.226  27.883  26.679  1.00  0.00    -0.240 N 
ATOM     29  C   UNL A   1      31.238  27.895  25.743  1.00  0.00     0.041 A 
ATOM     30  H   UNL A   1      30.737  28.728  25.398  1.00  0.00     0.085 H 
BRANCH  26  31
ATOM     31  C   UNL A   1      32.160  24.355  26.138  1.00  0.00     0.003 A 
ATOM     32  C   UNL A   1      32.705  21.563  25.947  1.00  0.00    -0.051 A 
ATOM     33  C   UNL A   1      33.643  22.429  26.500  1.00  0.00    -0.059 A 
ATOM     34  C   UNL A   1      31.475  22.089  25.536  1.00  0.00    -0.059 A 
ATOM     35  C   UNL A   1      33.370  23.798  26.590  1.00  0.00    -0.052 A 
ATOM     36  H   UNL A   1      34.542  22.060  26.846  1.00  0.00     0.063 H 
ATOM     37  C   UNL A   1      31.202  23.467  25.637  1.00  0.00    -0.052 A 
ATOM     38  H   UNL A   1      30.756  21.457  25.152  1.00  0.00     0.063 H 
ATOM     39  H   UNL A   1      34.082  24.423  27.001  1.00  0.00     0.063 H 
ATOM     40  H   UNL A   1      30.283  23.827  25.337  1.00  0.00     0.063 H 
BRANCH  32  41
ATOM     41  C   UNL A   1      33.038  20.106  25.812  1.00  0.00    -0.040 C 
ATOM     42  H   UNL A   1      32.299  19.522  26.321  1.00  0.00     0.028 H 
ATOM     43  H   UNL A   1      33.999  19.919  26.242  1.00  0.00     0.028 H 
ATOM     44  H   UNL A   1      33.053  19.839  24.776  1.00  0.00     0.028 H 
ENDBRANCH  32  41
ENDBRANCH  26  31
BRANCH  28  45
ATOM     45  C   UNL A   1      33.020  29.012  26.990  1.00  0.00     0.065 A 
ATOM     46  C   UNL A   1      34.409  28.848  27.163  1.00  0.00    -0.036 A 
ATOM     47  C   UNL A   1      32.441  30.271  27.117  1.00  0.00    -0.036 A 
ATOM     48  C   UNL A   1      35.199  29.929  27.553  1.00  0.00    -0.060 A 
ATOM     49  H   UNL A   1      34.843  27.926  27.000  1.00  0.00     0.065 H 
ATOM     50  C   UNL A   1      33.259  31.366  27.418  1.00  0.00    -0.060 A 
ATOM     51  H   UNL A   1      31.425  30.396  26.989  1.00  0.00     0.065 H 
ATOM     52  C   UNL A   1      34.625  31.191  27.667  1.00  0.00    -0.062 A 
ATOM     53  H   UNL A   1      36.202  29.793  27.755  1.00  0.00     0.062 H 
ATOM     54  H   UNL A   1      32.851  32.313  27.457  1.00  0.00     0.062 H 
ATOM     55  H   UNL A   1      35.208  31.999  27.937  1.00  0.00     0.062 H 
ENDBRANCH  28  45
ENDBRANCH  15  25
ENDBRANCH  11  14
ENDBRANCH   7  10
ENDBRANCH   4   7
ENDBRANCH   1   4
BRANCH   1  56
ATOM     56  C   UNL A   1      36.839  21.773  24.666  1.00  0.00    -0.052 C 
ATOM     57  H   UNL A   1      37.152  21.249  23.786  1.00  0.00     0.027 H 
ATOM     58  H   UNL A   1      36.062  21.307  25.235  1.00  0.00     0.027 H 
BRANCH  56  59
ATOM     59  C   UNL A   1      38.034  21.813  25.620  1.00  0.00    -0.036 C 
ATOM     60  H   UNL A   1      38.842  21.303  25.136  1.00  0.00     0.028 H 
ATOM     61  H   UNL A   1      37.667  21.366  26.520  1.00  0.00     0.028 H 
BRANCH  59  62
ATOM     62  C   UNL A   1      38.566  23.175  26.066  1.00  0.00     0.018 C 
ATOM     63  H   UNL A   1      38.026  23.468  26.943  1.00  0.00     0.049 H 
ATOM     64  H   UNL A   1      38.428  23.831  25.232  1.00  0.00     0.049 H 
BRANCH  62  65
ATOM     65  N   UNL A   1      40.004  23.224  26.383  1.00  0.00    -0.352 N 
ATOM     66  C   UNL A   1      40.744  24.304  26.864  1.00  0.00     0.251 C 
ATOM     67  H   UNL A   1      40.506  22.389  26.237  1.00  0.00     0.163 HD
ATOM     68  O   UNL A   1      41.937  24.238  27.081  1.00  0.00    -0.269 OA
BRANCH  66  69
ATOM     69  C   UNL A   1      39.988  25.528  27.217  1.00  0.00     0.039 A 
ATOM     70  C   UNL A   1      40.318  26.689  26.511  1.00  0.00    -0.049 A 
ATOM     71  C   UNL A   1      39.379  25.580  28.467  1.00  0.00    -0.049 A 
ATOM     72  C   UNL A   1      40.340  27.896  27.198  1.00  0.00    -0.053 A 
ATOM     73  H   UNL A   1      40.538  26.650  25.504  1.00  0.00     0.063 H 
ATOM     74  C   UNL A   1      39.489  26.761  29.175  1.00  0.00    -0.053 A 
ATOM     75  H   UNL A   1      38.868  24.770  28.850  1.00  0.00     0.063 H 
ATOM     76  C   UNL A   1      40.066  27.885  28.565  1.00  0.00    -0.014 A 
ATOM     77  H   UNL A   1      40.554  28.778  26.710  1.00  0.00     0.063 H 
ATOM     78  H   UNL A   1      39.147  26.815  30.147  1.00  0.00     0.063 H 
BRANCH  76  79
ATOM     79  C   UNL A   1      40.473  28.961  29.462  1.00  0.00     0.031 A 
ATOM     80  C   UNL A   1      39.502  30.005  29.831  1.00  0.00     0.074 A 
ATOM     81  C   UNL A   1      41.720  28.991  29.986  1.00  0.00     0.049 A 
ATOM     82  N   UNL A   1      39.827  31.147  30.335  1.00  0.00    -0.248 NA
ATOM     83  C   UNL A   1      38.077  29.883  29.551  1.00  0.00    -0.034 C 
ATOM     84  C   UNL A   1      42.189  29.812  31.100  1.00  0.00    -0.036 A 
ATOM     85  N   UNL A   1      42.891  28.421  29.460  1.00  0.00    -0.354 N 
ATOM     86  C   UNL A   1      38.669  31.794  30.691  1.00  0.00     0.074 A 
ATOM     87  C   UNL A   1      37.623  31.033  30.055  1.00  0.00    -0.034 C 
ATOM     88  H   UNL A   1      37.561  29.117  29.091  1.00  0.00     0.065 H 
ATOM     89  C   UNL A   1      43.520  29.948  31.011  1.00  0.00    -0.036 A 
ATOM     90  H   UNL A   1      41.592  30.221  31.836  1.00  0.00     0.065 H 
ATOM     91  C   UNL A   1      43.936  29.330  29.767  1.00  0.00     0.049 A 
ATOM     92  H   UNL A   1      42.970  27.567  28.976  1.00  0.00     0.167 HD
ATOM     93  C   UNL A   1      38.750  32.824  31.581  1.00  0.00     0.037 A 
ATOM     94  H   UNL A   1      36.640  31.342  29.995  1.00  0.00     0.065 H 
ATOM     95  H   UNL A   1      44.134  30.409  31.700  1.00  0.00     0.065 H 
ATOM     96  C   UNL A   1      44.657  29.940  28.784  1.00  0.00     0.037 A 
ATOM     97  C   UNL A   1      40.140  33.270  31.736  1.00  0.00     0.049 A 
ATOM     98  C   UNL A   1      44.548  31.450  28.760  1.00  0.00     0.074 A 
ATOM     99  C   UNL A   1      41.116  33.138  32.709  1.00  0.00    -0.036 A 
ATOM    100  N   UNL A   1      40.785  33.782  30.622  1.00  0.00    -0.354 N 
ATOM    101  N   UNL A   1      43.798  32.144  29.569  1.00  0.00    -0.248 NA
ATOM    102  C   UNL A   1      45.195  32.288  27.747  1.00  0.00    -0.034 C 
ATOM    103  C   UNL A   1      42.363  33.553  32.146  1.00  0.00    -0.036 A 
ATOM    104  H   UNL A   1      40.970  32.799  33.673  1.00  0.00     0.065 H 
ATOM    105  C   UNL A   1      42.137  33.947  30.839  1.00  0.00     0.049 A 
ATOM    106  H   UNL A   1      40.333  34.003  29.776  1.00  0.00     0.167 HD
ATOM    107  C   UNL A   1      43.779  33.449  29.159  1.00  0.00     0.074 A 
ATOM    108  C   UNL A   1      44.683  33.498  28.026  1.00  0.00    -0.034 C 
ATOM    109  H   UNL A   1      45.867  32.019  27.012  1.00  0.00     0.065 H 
ATOM    110  H   UNL A   1      43.273  33.557  32.631  1.00  0.00     0.065 H 
ATOM    111  C   UNL A   1      42.979  34.388  29.739  1.00  0.00     0.037 A 
ATOM    112  H   UNL A   1      44.905  34.357  27.498  1.00  0.00     0.065 H 
BRANCH  93 113
ATOM    113  C   UNL A   1      37.613  33.335  32.452  1.00  0.00     0.064 A 
ATOM    114  C   UNL A   1      36.565  34.084  31.870  1.00  0.00     0.173 A 
ATOM    115  C   UNL A   1      37.533  33.237  33.858  1.00  0.00     0.173 A 
ATOM    116  F   UNL A   1      36.471  34.244  30.542  1.00  0.00    -0.203 F 
ATOM    117  C   UNL A   1      35.576  34.722  32.629  1.00  0.00     0.198 A 
ATOM    118  C   UNL A   1      36.534  33.856  34.614  1.00  0.00     0.198 A 
ATOM    119  F   UNL A   1      38.419  32.564  34.589  1.00  0.00    -0.203 F 
ATOM    120  F   UNL A   1      34.642  35.463  32.016  1.00  0.00    -0.200 F 
ATOM    121  C   UNL A   1      35.564  34.614  34.003  1.00  0.00     0.200 A 
ATOM    122  F   UNL A   1      36.542  33.724  35.949  1.00  0.00    -0.200 F 
ATOM    123  F   UNL A   1      34.633  35.238  34.734  1.00  0.00    -0.200 F 
ENDBRANCH  93 113
BRANCH  96 124
ATOM    124  C   UNL A   1      44.820  29.075  27.587  1.00  0.00     0.064 A 
ATOM    125  C   UNL A   1      45.725  27.999  27.669  1.00  0.00     0.173 A 
ATOM    126  C   UNL A   1      43.848  29.035  26.583  1.00  0.00     0.173 A 
ATOM    127  F   UNL A   1      46.675  27.992  28.618  1.00  0.00    -0.203 F 
ATOM    128  C   UNL A   1      45.576  26.871  26.867  1.00  0.00     0.198 A 
ATOM    129  C   UNL A   1      43.712  27.909  25.771  1.00  0.00     0.198 A 
ATOM    130  F   UNL A   1      42.950  30.025  26.468  1.00  0.00    -0.203 F 
ATOM    131  F   UNL A   1      46.374  25.810  27.052  1.00  0.00    -0.200 F 
ATOM    132  C   UNL A   1      44.549  26.815  25.940  1.00  0.00     0.200 A 
ATOM    133  F   UNL A   1      42.705  27.846  24.888  1.00  0.00    -0.200 F 
ATOM    134  F   UNL A   1      44.340  25.694  25.238  1.00  0.00    -0.200 F 
ENDBRANCH  96 124
BRANCH 111 135
ATOM    135  C   UNL A   1      42.932  35.815  29.287  1.00  0.00     0.064 A 
ATOM    136  C   UNL A   1      42.238  36.208  28.133  1.00  0.00     0.173 A 
ATOM    137  C   UNL A   1      43.692  36.810  29.934  1.00  0.00     0.173 A 
ATOM    138  F   UNL A   1      41.507  35.321  27.442  1.00  0.00    -0.203 F 
ATOM    139  C   UNL A   1      42.297  37.520  27.659  1.00  0.00     0.198 A 
ATOM    140  C   UNL A   1      43.789  38.106  29.431  1.00  0.00     0.198 A 
ATOM    141  F   UNL A   1      44.339  36.553  31.081  1.00  0.00    -0.203 F 
ATOM    142  F   UNL A   1      41.593  37.867  26.572  1.00  0.00    -0.200 F 
ATOM    143  C   UNL A   1      43.087  38.462  28.296  1.00  0.00     0.200 A 
ATOM    144  F   UNL A   1      44.565  39.004  30.054  1.00  0.00    -0.200 F 
ATOM    145  F   UNL A   1      43.168  39.713  27.821  1.00  0.00    -0.200 F 
ENDBRANCH 111 135
ENDBRANCH  76  79
ENDBRANCH  66  69
ENDBRANCH  62  65
ENDBRANCH  59  62
ENDBRANCH  56  59
ENDBRANCH   1  56
TORSDOF 17
ENDMDL
MODEL 3
REMARK VINA RESULT:     -13.1      3.044      8.821
REMARK SMILES Cc1ccc(-c2nn(-c3ccccc3)cc2[C@@H]2[NH2+][C@H](C(=O)NCCCCCCNC(=O)c3ccc(-c4c5nc(c(-c6c(F)c(F)c(F)c(F)c6F)c6ccc([nH]6)c(-c6c(F)c(F)c(F)c(F)c6F)c6nc(c(-c7c(F)c(F)c(F)c(F)c7F)c7ccc4[nH]7)C=C6)C=C5)cc3)CS2)cc1
REMARK SMILES IDX 25 1 24 4 23 7 22 10 20 11 21 12 19 14 17 15 18 16 96 17
REMARK SMILES IDX 95 21 16 25 6 26 7 27 8 28 15 29 5 31 2 32 3 33 98 34 4 35
REMARK SMILES IDX 97 37 1 41 9 45 10 46 14 47 11 48 13 50 12 52 26 56 27 59
REMARK SMILES IDX 28 62 29 65 30 66 31 68 32 69 33 70 94 71 34 72 93 74 35 76
REMARK SMILES IDX 36 79 37 80 87 81 38 82 92 83 86 84 88 85 39 86 91 87 85 89
REMARK SMILES IDX 84 91 40 93 72 96 52 97 71 98 53 99 56 100 70 101 89 102
REMARK SMILES IDX 54 103 55 105 69 107 90 108 57 111 41 113 42 114 50 115
REMARK SMILES IDX 43 116 44 117 48 118 51 119 45 120 46 121 49 122 47 123
REMARK SMILES IDX 73 124 74 125 82 126 75 127 76 128 80 129 83 130 77 131
REMARK SMILES IDX 78 132 81 133 79 134 58 135 59 136 67 137 60 138 61 139
REMARK SMILES IDX 65 140 68 141 62 142 63 143 66 144 64 145
REMARK H PARENT 25 2 25 3 24 5 24 6 23 8 23 9 22 13 17 18 18 19 18 20 19 22
REMARK H PARENT 95 23 95 24 15 30 3 36 98 38 4 39 97 40 1 42 1 43 1 44 10 49
REMARK H PARENT 14 51 11 53 13 54 12 55 26 57 26 58 27 60 27 61 28 63 28 64
REMARK H PARENT 29 67 33 73 94 75 34 77 93 78 92 88 86 90 88 92 91 94 85 95
REMARK H PARENT 53 104 56 106 89 109 54 110 90 112
REMARK Flexibility Score: inf
ROOT
ATOM      1  C   UNL A   1      35.754  23.908  25.059  1.00  0.00    -0.052 C 
ATOM      2  H   UNL A   1      35.588  24.485  25.944  1.00  0.00     0.027 H 
ATOM      3  H   UNL A   1      36.711  23.859  24.583  1.00  0.00     0.027 H 
ENDROOT
BRANCH   1   4
ATOM      4  C   UNL A   1      34.931  24.614  23.945  1.00  0.00    -0.036 C 
ATOM      5  H   UNL A   1      35.651  25.043  23.279  1.00  0.00     0.028 H 
ATOM      6  H   UNL A   1      34.295  23.816  23.622  1.00  0.00     0.028 H 
BRANCH   4   7
ATOM      7  C   UNL A   1      33.905  25.717  24.213  1.00  0.00     0.018 C 
ATOM      8  H   UNL A   1      32.947  25.344  23.915  1.00  0.00     0.049 H 
ATOM      9  H   UNL A   1      34.002  25.937  25.255  1.00  0.00     0.049 H 
BRANCH   7  10
ATOM     10  N   UNL A   1      34.107  26.991  23.540  1.00  0.00    -0.351 N 
ATOM     11  C   UNL A   1      34.029  28.285  23.979  1.00  0.00     0.279 C 
ATOM     12  O   UNL A   1      34.546  29.124  23.222  1.00  0.00    -0.268 OA
ATOM     13  H   UNL A   1      34.346  26.907  22.588  1.00  0.00     0.163 HD
BRANCH  11  14
ATOM     14  C   UNL A   1      33.336  28.826  25.264  1.00  0.00     0.176 C 
ATOM     15  C   UNL A   1      31.136  28.287  26.130  1.00  0.00     0.163 C 
ATOM     16  N   UNL A   1      31.886  29.123  25.187  1.00  0.00    -0.320 N 
ATOM     17  S   UNL A   1      32.223  28.041  27.546  1.00  0.00    -0.087 SA
ATOM     18  H   UNL A   1      30.225  28.725  26.480  1.00  0.00     0.115 H 
ATOM     19  H   UNL A   1      31.732  30.106  25.414  1.00  0.00     0.348 HD
ATOM     20  H   UNL A   1      31.559  28.927  24.241  1.00  0.00     0.348 HD
ATOM     21  C   UNL A   1      33.696  27.985  26.497  1.00  0.00     0.061 C 
ATOM     22  H   UNL A   1      33.758  29.803  25.369  1.00  0.00     0.108 H 
ATOM     23  H   UNL A   1      34.537  28.405  27.007  1.00  0.00     0.045 H 
ATOM     24  H   UNL A   1      33.966  26.983  26.236  1.00  0.00     0.045 H 
BRANCH  15  25
ATOM     25  C   UNL A   1      30.739  27.027  25.432  1.00  0.00     0.067 A 
ATOM     26  C   UNL A   1      29.996  26.875  24.202  1.00  0.00     0.103 A 
ATOM     27  N   UNL A   1      29.846  25.561  23.903  1.00  0.00    -0.167 NA
ATOM     28  N   UNL A   1      30.635  24.909  24.796  1.00  0.00    -0.240 N 
ATOM     29  C   UNL A   1      31.065  25.734  25.789  1.00  0.00     0.041 A 
ATOM     30  H   UNL A   1      31.546  25.445  26.655  1.00  0.00     0.085 H 
BRANCH  26  31
ATOM     31  C   UNL A   1      29.479  27.943  23.311  1.00  0.00     0.003 A 
ATOM     32  C   UNL A   1      28.503  30.059  21.670  1.00  0.00    -0.051 A 
ATOM     33  C   UNL A   1      29.848  29.703  21.636  1.00  0.00    -0.059 A 
ATOM     34  C   UNL A   1      27.640  29.323  22.488  1.00  0.00    -0.059 A 
ATOM     35  C   UNL A   1      30.321  28.664  22.445  1.00  0.00    -0.052 A 
ATOM     36  H   UNL A   1      30.498  30.205  21.012  1.00  0.00     0.063 H 
ATOM     37  C   UNL A   1      28.120  28.272  23.293  1.00  0.00    -0.052 A 
ATOM     38  H   UNL A   1      26.634  29.554  22.502  1.00  0.00     0.063 H 
ATOM     39  H   UNL A   1      31.323  28.418  22.406  1.00  0.00     0.063 H 
ATOM     40  H   UNL A   1      27.459  27.738  23.879  1.00  0.00     0.063 H 
BRANCH  32  41
ATOM     41  C   UNL A   1      28.026  31.211  20.833  1.00  0.00    -0.040 C 
ATOM     42  H   UNL A   1      28.826  31.909  20.698  1.00  0.00     0.028 H 
ATOM     43  H   UNL A   1      27.210  31.696  21.327  1.00  0.00     0.028 H 
ATOM     44  H   UNL A   1      27.702  30.850  19.880  1.00  0.00     0.028 H 
ENDBRANCH  32  41
ENDBRANCH  26  31
BRANCH  28  45
ATOM     45  C   UNL A   1      31.162  23.614  24.573  1.00  0.00     0.065 A 
ATOM     46  C   UNL A   1      31.513  23.232  23.263  1.00  0.00    -0.036 A 
ATOM     47  C   UNL A   1      31.339  22.731  25.633  1.00  0.00    -0.036 A 
ATOM     48  C   UNL A   1      31.954  21.935  23.006  1.00  0.00    -0.060 A 
ATOM     49  H   UNL A   1      31.444  23.915  22.492  1.00  0.00     0.065 H 
ATOM     50  C   UNL A   1      31.870  21.462  25.376  1.00  0.00    -0.060 A 
ATOM     51  H   UNL A   1      31.085  23.008  26.594  1.00  0.00     0.065 H 
ATOM     52  C   UNL A   1      32.145  21.054  24.066  1.00  0.00    -0.062 A 
ATOM     53  H   UNL A   1      32.137  21.631  22.038  1.00  0.00     0.062 H 
ATOM     54  H   UNL A   1      32.060  20.820  26.161  1.00  0.00     0.062 H 
ATOM     55  H   UNL A   1      32.489  20.098  23.886  1.00  0.00     0.062 H 
ENDBRANCH  28  45
ENDBRANCH  15  25
ENDBRANCH  11  14
ENDBRANCH   7  10
ENDBRANCH   4   7
ENDBRANCH   1   4
BRANCH   1  56
ATOM     56  C   UNL A   1      35.590  22.441  25.491  1.00  0.00    -0.052 C 
ATOM     57  H   UNL A   1      35.033  21.945  24.723  1.00  0.00     0.027 H 
ATOM     58  H   UNL A   1      35.115  22.500  26.448  1.00  0.00     0.027 H 
BRANCH  56  59
ATOM     59  C   UNL A   1      36.851  21.613  25.745  1.00  0.00    -0.036 C 
ATOM     60  H   UNL A   1      36.647  20.616  25.409  1.00  0.00     0.028 H 
ATOM     61  H   UNL A   1      37.034  21.728  26.793  1.00  0.00     0.028 H 
BRANCH  59  62
ATOM     62  C   UNL A   1      38.157  22.052  25.084  1.00  0.00     0.018 C 
ATOM     63  H   UNL A   1      38.077  23.094  24.857  1.00  0.00     0.049 H 
ATOM     64  H   UNL A   1      38.275  21.428  24.224  1.00  0.00     0.049 H 
BRANCH  62  65
ATOM     65  N   UNL A   1      39.375  21.858  25.892  1.00  0.00    -0.352 N 
ATOM     66  C   UNL A   1      40.149  22.827  26.530  1.00  0.00     0.251 C 
ATOM     67  H   UNL A   1      39.681  20.927  25.992  1.00  0.00     0.163 HD
ATOM     68  O   UNL A   1      41.149  22.556  27.164  1.00  0.00    -0.269 OA
BRANCH  66  69
ATOM     69  C   UNL A   1      39.635  24.216  26.503  1.00  0.00     0.039 A 
ATOM     70  C   UNL A   1      40.504  25.192  26.005  1.00  0.00    -0.049 A 
ATOM     71  C   UNL A   1      38.585  24.539  27.358  1.00  0.00    -0.049 A 
ATOM     72  C   UNL A   1      40.523  26.436  26.621  1.00  0.00    -0.053 A 
ATOM     73  H   UNL A   1      41.115  24.992  25.198  1.00  0.00     0.063 H 
ATOM     74  C   UNL A   1      38.666  25.742  28.032  1.00  0.00    -0.053 A 
ATOM     75  H   UNL A   1      37.781  23.906  27.484  1.00  0.00     0.063 H 
ATOM     76  C   UNL A   1      39.701  26.640  27.729  1.00  0.00    -0.014 A 
ATOM     77  H   UNL A   1      41.131  27.191  26.269  1.00  0.00     0.063 H 
ATOM     78  H   UNL A   1      37.968  25.978  28.754  1.00  0.00     0.063 H 
BRANCH  76  79
ATOM     79  C   UNL A   1      39.935  27.699  28.704  1.00  0.00     0.031 A 
ATOM     80  C   UNL A   1      39.044  28.871  28.730  1.00  0.00     0.074 A 
ATOM     81  C   UNL A   1      40.939  27.600  29.606  1.00  0.00     0.049 A 
ATOM     82  N   UNL A   1      39.337  29.988  29.307  1.00  0.00    -0.248 NA
ATOM     83  C   UNL A   1      37.783  28.913  28.001  1.00  0.00    -0.034 C 
ATOM     84  C   UNL A   1      41.127  28.409  30.808  1.00  0.00    -0.036 A 
ATOM     85  N   UNL A   1      42.130  26.865  29.493  1.00  0.00    -0.354 N 
ATOM     86  C   UNL A   1      38.223  30.789  29.262  1.00  0.00     0.074 A 
ATOM     87  C   UNL A   1      37.347  30.133  28.323  1.00  0.00    -0.034 C 
ATOM     88  H   UNL A   1      37.346  28.196  27.401  1.00  0.00     0.065 H 
ATOM     89  C   UNL A   1      42.421  28.376  31.157  1.00  0.00    -0.036 A 
ATOM     90  H   UNL A   1      40.384  28.923  31.307  1.00  0.00     0.065 H 
ATOM     91  C   UNL A   1      43.130  27.652  30.121  1.00  0.00     0.049 A 
ATOM     92  H   UNL A   1      42.247  25.986  29.067  1.00  0.00     0.167 HD
ATOM     93  C   UNL A   1      38.147  31.842  30.125  1.00  0.00     0.037 A 
ATOM     94  H   UNL A   1      36.486  30.558  27.944  1.00  0.00     0.065 H 
ATOM     95  H   UNL A   1      42.835  28.789  32.007  1.00  0.00     0.065 H 
ATOM     96  C   UNL A   1      44.204  28.120  29.423  1.00  0.00     0.037 A 
ATOM     97  C   UNL A   1      39.459  32.121  30.723  1.00  0.00     0.049 A 
ATOM     98  C   UNL A   1      44.310  29.629  29.358  1.00  0.00     0.074 A 
ATOM     99  C   UNL A   1      40.042  31.916  31.962  1.00  0.00    -0.036 A 
ATOM    100  N   UNL A   1      40.491  32.495  29.878  1.00  0.00    -0.354 N 
ATOM    101  N   UNL A   1      43.437  30.449  29.874  1.00  0.00    -0.248 NA
ATOM    102  C   UNL A   1      45.355  30.331  28.607  1.00  0.00    -0.034 C 
ATOM    103  C   UNL A   1      41.447  32.146  31.834  1.00  0.00    -0.036 A 
ATOM    104  H   UNL A   1      39.549  31.644  32.827  1.00  0.00     0.065 H 
ATOM    105  C   UNL A   1      41.710  32.502  30.524  1.00  0.00     0.049 A 
ATOM    106  H   UNL A   1      40.370  32.729  28.929  1.00  0.00     0.167 HD
ATOM    107  C   UNL A   1      43.725  31.725  29.474  1.00  0.00     0.074 A 
ATOM    108  C   UNL A   1      44.944  31.608  28.698  1.00  0.00    -0.034 C 
ATOM    109  H   UNL A   1      46.186  29.947  28.133  1.00  0.00     0.065 H 
ATOM    110  H   UNL A   1      42.144  32.061  32.590  1.00  0.00     0.065 H 
ATOM    111  C   UNL A   1      42.912  32.783  29.757  1.00  0.00     0.037 A 
ATOM    112  H   UNL A   1      45.437  32.407  28.267  1.00  0.00     0.065 H 
BRANCH  93 113
ATOM    113  C   UNL A   1      36.868  32.531  30.574  1.00  0.00     0.064 A 
ATOM    114  C   UNL A   1      36.192  33.402  29.690  1.00  0.00     0.173 A 
ATOM    115  C   UNL A   1      36.309  32.484  31.870  1.00  0.00     0.173 A 
ATOM    116  F   UNL A   1      36.572  33.537  28.412  1.00  0.00    -0.203 F 
ATOM    117  C   UNL A   1      35.106  34.193  30.087  1.00  0.00     0.198 A 
ATOM    118  C   UNL A   1      35.212  33.257  32.260  1.00  0.00     0.198 A 
ATOM    119  F   UNL A   1      36.795  31.714  32.841  1.00  0.00    -0.203 F 
ATOM    120  F   UNL A   1      34.546  35.040  29.212  1.00  0.00    -0.200 F 
ATOM    121  C   UNL A   1      34.620  34.126  31.375  1.00  0.00     0.200 A 
ATOM    122  F   UNL A   1      34.754  33.162  33.517  1.00  0.00    -0.200 F 
ATOM    123  F   UNL A   1      33.595  34.894  31.764  1.00  0.00    -0.200 F 
ENDBRANCH  93 113
BRANCH  96 124
ATOM    124  C   UNL A   1      44.629  27.185  28.350  1.00  0.00     0.064 A 
ATOM    125  C   UNL A   1      45.231  25.971  28.733  1.00  0.00     0.173 A 
ATOM    126  C   UNL A   1      44.097  27.273  27.060  1.00  0.00     0.173 A 
ATOM    127  F   UNL A   1      45.755  25.840  29.962  1.00  0.00    -0.203 F 
ATOM    128  C   UNL A   1      45.179  24.851  27.907  1.00  0.00     0.198 A 
ATOM    129  C   UNL A   1      44.062  26.152  26.230  1.00  0.00     0.198 A 
ATOM    130  F   UNL A   1      43.498  28.399  26.648  1.00  0.00    -0.203 F 
ATOM    131  F   UNL A   1      45.648  23.675  28.347  1.00  0.00    -0.200 F 
ATOM    132  C   UNL A   1      44.566  24.936  26.668  1.00  0.00     0.200 A 
ATOM    133  F   UNL A   1      43.449  26.227  25.040  1.00  0.00    -0.200 F 
ATOM    134  F   UNL A   1      44.425  23.838  25.914  1.00  0.00    -0.200 F 
ENDBRANCH  96 124
BRANCH 111 135
ATOM    135  C   UNL A   1      43.202  34.181  29.307  1.00  0.00     0.064 A 
ATOM    136  C   UNL A   1      43.375  35.235  30.215  1.00  0.00     0.173 A 
ATOM    137  C   UNL A   1      43.187  34.525  27.940  1.00  0.00     0.173 A 
ATOM    138  F   UNL A   1      43.381  35.003  31.537  1.00  0.00    -0.203 F 
ATOM    139  C   UNL A   1      43.529  36.554  29.781  1.00  0.00     0.198 A 
ATOM    140  C   UNL A   1      43.291  35.846  27.511  1.00  0.00     0.198 A 
ATOM    141  F   UNL A   1      43.093  33.582  26.989  1.00  0.00    -0.203 F 
ATOM    142  F   UNL A   1      43.727  37.530  30.678  1.00  0.00    -0.200 F 
ATOM    143  C   UNL A   1      43.468  36.860  28.432  1.00  0.00     0.200 A 
ATOM    144  F   UNL A   1      43.221  36.128  26.203  1.00  0.00    -0.200 F 
ATOM    145  F   UNL A   1      43.584  38.130  28.019  1.00  0.00    -0.200 F 
ENDBRANCH 111 135
ENDBRANCH  76  79
ENDBRANCH  66  69
ENDBRANCH  62  65
ENDBRANCH  59  62
ENDBRANCH  56  59
ENDBRANCH   1  56
TORSDOF 17
ENDMDL
MODEL 4
REMARK VINA RESULT:     -13.1      3.091      6.007
REMARK SMILES Cc1ccc(-c2nn(-c3ccccc3)cc2[C@@H]2[NH2+][C@H](C(=O)NCCCCCCNC(=O)c3ccc(-c4c5nc(c(-c6c(F)c(F)c(F)c(F)c6F)c6ccc([nH]6)c(-c6c(F)c(F)c(F)c(F)c6F)c6nc(c(-c7c(F)c(F)c(F)c(F)c7F)c7ccc4[nH]7)C=C6)C=C5)cc3)CS2)cc1
REMARK SMILES IDX 25 1 24 4 23 7 22 10 20 11 21 12 19 14 17 15 18 16 96 17
REMARK SMILES IDX 95 21 16 25 6 26 7 27 8 28 15 29 5 31 2 32 3 33 98 34 4 35
REMARK SMILES IDX 97 37 1 41 9 45 10 46 14 47 11 48 13 50 12 52 26 56 27 59
REMARK SMILES IDX 28 62 29 65 30 66 31 68 32 69 33 70 94 71 34 72 93 74 35 76
REMARK SMILES IDX 36 79 37 80 87 81 38 82 92 83 86 84 88 85 39 86 91 87 85 89
REMARK SMILES IDX 84 91 40 93 72 96 52 97 71 98 53 99 56 100 70 101 89 102
REMARK SMILES IDX 54 103 55 105 69 107 90 108 57 111 41 113 42 114 50 115
REMARK SMILES IDX 43 116 44 117 48 118 51 119 45 120 46 121 49 122 47 123
REMARK SMILES IDX 73 124 74 125 82 126 75 127 76 128 80 129 83 130 77 131
REMARK SMILES IDX 78 132 81 133 79 134 58 135 59 136 67 137 60 138 61 139
REMARK SMILES IDX 65 140 68 141 62 142 63 143 66 144 64 145
REMARK H PARENT 25 2 25 3 24 5 24 6 23 8 23 9 22 13 17 18 18 19 18 20 19 22
REMARK H PARENT 95 23 95 24 15 30 3 36 98 38 4 39 97 40 1 42 1 43 1 44 10 49
REMARK H PARENT 14 51 11 53 13 54 12 55 26 57 26 58 27 60 27 61 28 63 28 64
REMARK H PARENT 29 67 33 73 94 75 34 77 93 78 92 88 86 90 88 92 91 94 85 95
REMARK H PARENT 53 104 56 106 89 109 54 110 90 112
REMARK Flexibility Score: inf
ROOT
ATOM      1  C   UNL A   1      33.226  34.581  29.169  1.00  0.00    -0.052 C 
ATOM      2  H   UNL A   1      32.667  34.125  29.958  1.00  0.00     0.027 H 
ATOM      3  H   UNL A   1      32.830  34.690  28.180  1.00  0.00     0.027 H 
ENDROOT
BRANCH   1   4
ATOM      4  C   UNL A   1      34.408  33.612  28.885  1.00  0.00    -0.036 C 
ATOM      5  H   UNL A   1      35.042  34.124  28.190  1.00  0.00     0.028 H 
ATOM      6  H   UNL A   1      34.744  33.402  29.878  1.00  0.00     0.028 H 
BRANCH   4   7
ATOM      7  C   UNL A   1      34.236  32.199  28.327  1.00  0.00     0.018 C 
ATOM      8  H   UNL A   1      35.179  31.896  27.920  1.00  0.00     0.049 H 
ATOM      9  H   UNL A   1      33.891  31.615  29.155  1.00  0.00     0.049 H 
BRANCH   7  10
ATOM     10  N   UNL A   1      33.232  32.010  27.290  1.00  0.00    -0.351 N 
ATOM     11  C   UNL A   1      32.503  30.918  26.904  1.00  0.00     0.279 C 
ATOM     12  O   UNL A   1      31.525  31.174  26.182  1.00  0.00    -0.268 OA
ATOM     13  H   UNL A   1      33.040  32.822  26.768  1.00  0.00     0.163 HD
BRANCH  11  14
ATOM     14  C   UNL A   1      32.778  29.417  27.216  1.00  0.00     0.176 C 
ATOM     15  C   UNL A   1      31.910  27.460  26.079  1.00  0.00     0.163 C 
ATOM     16  N   UNL A   1      31.640  28.475  27.102  1.00  0.00    -0.320 N 
ATOM     17  S   UNL A   1      33.689  27.172  26.123  1.00  0.00    -0.087 SA
ATOM     18  H   UNL A   1      31.416  26.525  26.243  1.00  0.00     0.115 H 
ATOM     19  H   UNL A   1      31.494  28.014  28.001  1.00  0.00     0.348 HD
ATOM     20  H   UNL A   1      30.805  28.997  26.836  1.00  0.00     0.348 HD
ATOM     21  C   UNL A   1      34.033  28.910  26.490  1.00  0.00     0.061 C 
ATOM     22  H   UNL A   1      32.959  29.422  28.270  1.00  0.00     0.108 H 
ATOM     23  H   UNL A   1      34.893  28.998  27.119  1.00  0.00     0.045 H 
ATOM     24  H   UNL A   1      34.242  29.474  25.606  1.00  0.00     0.045 H 
BRANCH  15  25
ATOM     25  C   UNL A   1      31.400  27.964  24.767  1.00  0.00     0.067 A 
ATOM     26  C   UNL A   1      31.214  27.236  23.534  1.00  0.00     0.103 A 
ATOM     27  N   UNL A   1      30.726  28.056  22.571  1.00  0.00    -0.167 NA
ATOM     28  N   UNL A   1      30.422  29.211  23.222  1.00  0.00    -0.240 N 
ATOM     29  C   UNL A   1      30.932  29.230  24.483  1.00  0.00     0.041 A 
ATOM     30  H   UNL A   1      30.964  30.046  25.113  1.00  0.00     0.085 H 
BRANCH  26  31
ATOM     31  C   UNL A   1      31.450  25.792  23.282  1.00  0.00     0.003 A 
ATOM     32  C   UNL A   1      31.947  23.013  22.886  1.00  0.00    -0.051 A 
ATOM     33  C   UNL A   1      30.771  23.439  23.495  1.00  0.00    -0.059 A 
ATOM     34  C   UNL A   1      32.850  23.980  22.431  1.00  0.00    -0.059 A 
ATOM     35  C   UNL A   1      30.534  24.805  23.688  1.00  0.00    -0.052 A 
ATOM     36  H   UNL A   1      30.071  22.747  23.805  1.00  0.00     0.063 H 
ATOM     37  C   UNL A   1      32.601  25.354  22.620  1.00  0.00    -0.052 A 
ATOM     38  H   UNL A   1      33.713  23.683  21.950  1.00  0.00     0.063 H 
ATOM     39  H   UNL A   1      29.656  25.098  24.144  1.00  0.00     0.063 H 
ATOM     40  H   UNL A   1      33.278  26.046  22.264  1.00  0.00     0.063 H 
BRANCH  32  41
ATOM     41  C   UNL A   1      32.207  21.542  22.736  1.00  0.00    -0.040 C 
ATOM     42  H   UNL A   1      32.850  21.211  23.524  1.00  0.00     0.028 H 
ATOM     43  H   UNL A   1      32.675  21.357  21.792  1.00  0.00     0.028 H 
ATOM     44  H   UNL A   1      31.280  21.010  22.785  1.00  0.00     0.028 H 
ENDBRANCH  32  41
ENDBRANCH  26  31
BRANCH  28  45
ATOM     45  C   UNL A   1      29.473  30.147  22.747  1.00  0.00     0.065 A 
ATOM     46  C   UNL A   1      29.112  30.129  21.385  1.00  0.00    -0.036 A 
ATOM     47  C   UNL A   1      28.896  31.069  23.614  1.00  0.00    -0.036 A 
ATOM     48  C   UNL A   1      28.243  31.094  20.878  1.00  0.00    -0.060 A 
ATOM     49  H   UNL A   1      29.491  29.398  20.762  1.00  0.00     0.065 H 
ATOM     50  C   UNL A   1      27.955  31.975  23.111  1.00  0.00    -0.060 A 
ATOM     51  H   UNL A   1      29.156  31.085  24.612  1.00  0.00     0.065 H 
ATOM     52  C   UNL A   1      27.654  32.009  21.744  1.00  0.00    -0.062 A 
ATOM     53  H   UNL A   1      28.039  31.129  19.867  1.00  0.00     0.062 H 
ATOM     54  H   UNL A   1      27.478  32.625  23.755  1.00  0.00     0.062 H 
ATOM     55  H   UNL A   1      26.996  32.714  21.379  1.00  0.00     0.062 H 
ENDBRANCH  28  45
ENDBRANCH  15  25
ENDBRANCH  11  14
ENDBRANCH   7  10
ENDBRANCH   4   7
ENDBRANCH   1   4
BRANCH   1  56
ATOM     56  C   UNL A   1      33.365  36.060  29.569  1.00  0.00    -0.052 C 
ATOM     57  H   UNL A   1      32.688  36.619  28.957  1.00  0.00     0.027 H 
ATOM     58  H   UNL A   1      34.405  36.273  29.431  1.00  0.00     0.027 H 
BRANCH  56  59
ATOM     59  C   UNL A   1      33.090  36.448  31.023  1.00  0.00    -0.036 C 
ATOM     60  H   UNL A   1      32.173  37.002  31.034  1.00  0.00     0.028 H 
ATOM     61  H   UNL A   1      33.966  36.983  31.322  1.00  0.00     0.028 H 
BRANCH  59  62
ATOM     62  C   UNL A   1      32.955  35.335  32.062  1.00  0.00     0.018 C 
ATOM     63  H   UNL A   1      33.178  34.406  31.580  1.00  0.00     0.049 H 
ATOM     64  H   UNL A   1      31.955  35.402  32.436  1.00  0.00     0.049 H 
BRANCH  62  65
ATOM     65  N   UNL A   1      33.833  35.455  33.240  1.00  0.00    -0.352 N 
ATOM     66  C   UNL A   1      34.977  34.715  33.541  1.00  0.00     0.251 C 
ATOM     67  H   UNL A   1      33.580  36.143  33.897  1.00  0.00     0.163 HD
ATOM     68  O   UNL A   1      35.624  34.889  34.554  1.00  0.00    -0.269 OA
BRANCH  66  69
ATOM     69  C   UNL A   1      35.450  33.767  32.506  1.00  0.00     0.039 A 
ATOM     70  C   UNL A   1      35.502  32.418  32.873  1.00  0.00    -0.049 A 
ATOM     71  C   UNL A   1      36.225  34.271  31.465  1.00  0.00    -0.049 A 
ATOM     72  C   UNL A   1      36.565  31.650  32.420  1.00  0.00    -0.053 A 
ATOM     73  H   UNL A   1      34.766  32.005  33.466  1.00  0.00     0.063 H 
ATOM     74  C   UNL A   1      37.332  33.537  31.088  1.00  0.00    -0.053 A 
ATOM     75  H   UNL A   1      35.982  35.157  30.996  1.00  0.00     0.063 H 
ATOM     76  C   UNL A   1      37.549  32.269  31.649  1.00  0.00    -0.014 A 
ATOM     77  H   UNL A   1      36.627  30.646  32.647  1.00  0.00     0.063 H 
ATOM     78  H   UNL A   1      37.994  33.919  30.395  1.00  0.00     0.063 H 
BRANCH  76  79
ATOM     79  C   UNL A   1      38.890  31.719  31.487  1.00  0.00     0.031 A 
ATOM     80  C   UNL A   1      39.077  30.480  30.712  1.00  0.00     0.074 A 
ATOM     81  C   UNL A   1      39.966  32.351  32.008  1.00  0.00     0.049 A 
ATOM     82  N   UNL A   1      40.134  29.743  30.773  1.00  0.00    -0.248 NA
ATOM     83  C   UNL A   1      38.024  29.909  29.882  1.00  0.00    -0.034 C 
ATOM     84  C   UNL A   1      41.371  32.102  31.700  1.00  0.00    -0.036 A 
ATOM     85  N   UNL A   1      40.003  33.225  33.108  1.00  0.00    -0.354 N 
ATOM     86  C   UNL A   1      40.023  28.768  29.814  1.00  0.00     0.074 A 
ATOM     87  C   UNL A   1      38.645  28.832  29.395  1.00  0.00    -0.034 C 
ATOM     88  H   UNL A   1      37.063  30.246  29.714  1.00  0.00     0.065 H 
ATOM     89  C   UNL A   1      42.126  32.532  32.721  1.00  0.00    -0.036 A 
ATOM     90  H   UNL A   1      41.726  31.664  30.834  1.00  0.00     0.065 H 
ATOM     91  C   UNL A   1      41.225  32.954  33.775  1.00  0.00     0.049 A 
ATOM     92  H   UNL A   1      39.322  33.888  33.362  1.00  0.00     0.167 HD
ATOM     93  C   UNL A   1      41.154  28.116  29.418  1.00  0.00     0.037 A 
ATOM     94  H   UNL A   1      38.192  28.127  28.793  1.00  0.00     0.065 H 
ATOM     95  H   UNL A   1      43.156  32.558  32.751  1.00  0.00     0.065 H 
ATOM     96  C   UNL A   1      41.244  32.497  35.060  1.00  0.00     0.037 A 
ATOM     97  C   UNL A   1      42.252  28.360  30.362  1.00  0.00     0.049 A 
ATOM     98  C   UNL A   1      41.867  31.129  35.239  1.00  0.00     0.074 A 
ATOM     99  C   UNL A   1      43.407  29.125  30.357  1.00  0.00    -0.036 A 
ATOM    100  N   UNL A   1      42.093  27.925  31.668  1.00  0.00    -0.354 N 
ATOM    101  N   UNL A   1      42.317  30.394  34.261  1.00  0.00    -0.248 NA
ATOM    102  C   UNL A   1      41.929  30.435  36.529  1.00  0.00    -0.034 C 
ATOM    103  C   UNL A   1      43.919  29.164  31.691  1.00  0.00    -0.036 A 
ATOM    104  H   UNL A   1      43.824  29.586  29.534  1.00  0.00     0.065 H 
ATOM    105  C   UNL A   1      43.082  28.413  32.497  1.00  0.00     0.049 A 
ATOM    106  H   UNL A   1      41.363  27.338  31.969  1.00  0.00     0.167 HD
ATOM    107  C   UNL A   1      42.632  29.151  34.737  1.00  0.00     0.074 A 
ATOM    108  C   UNL A   1      42.392  29.227  36.166  1.00  0.00    -0.034 C 
ATOM    109  H   UNL A   1      41.683  30.783  37.468  1.00  0.00     0.065 H 
ATOM    110  H   UNL A   1      44.766  29.665  31.998  1.00  0.00     0.065 H 
ATOM    111  C   UNL A   1      43.012  28.128  33.921  1.00  0.00     0.037 A 
ATOM    112  H   UNL A   1      42.556  28.448  36.823  1.00  0.00     0.065 H 
BRANCH  93 113
ATOM    113  C   UNL A   1      41.343  27.390  28.095  1.00  0.00     0.064 A 
ATOM    114  C   UNL A   1      41.177  25.988  28.035  1.00  0.00     0.173 A 
ATOM    115  C   UNL A   1      41.793  27.966  26.888  1.00  0.00     0.173 A 
ATOM    116  F   UNL A   1      40.721  25.290  29.084  1.00  0.00    -0.203 F 
ATOM    117  C   UNL A   1      41.492  25.235  26.896  1.00  0.00     0.198 A 
ATOM    118  C   UNL A   1      42.087  27.217  25.745  1.00  0.00     0.198 A 
ATOM    119  F   UNL A   1      41.999  29.273  26.740  1.00  0.00    -0.203 F 
ATOM    120  F   UNL A   1      41.363  23.902  26.924  1.00  0.00    -0.200 F 
ATOM    121  C   UNL A   1      41.954  25.850  25.752  1.00  0.00     0.200 A 
ATOM    122  F   UNL A   1      42.525  27.844  24.643  1.00  0.00    -0.200 F 
ATOM    123  F   UNL A   1      42.275  25.133  24.668  1.00  0.00    -0.200 F 
ENDBRANCH  93 113
BRANCH  96 124
ATOM    124  C   UNL A   1      40.119  33.037  35.866  1.00  0.00     0.064 A 
ATOM    125  C   UNL A   1      39.043  32.176  36.158  1.00  0.00     0.173 A 
ATOM    126  C   UNL A   1      40.277  34.178  36.660  1.00  0.00     0.173 A 
ATOM    127  F   UNL A   1      38.852  31.069  35.424  1.00  0.00    -0.203 F 
ATOM    128  C   UNL A   1      38.246  32.378  37.281  1.00  0.00     0.198 A 
ATOM    129  C   UNL A   1      39.465  34.384  37.775  1.00  0.00     0.198 A 
ATOM    130  F   UNL A   1      41.293  35.024  36.437  1.00  0.00    -0.203 F 
ATOM    131  F   UNL A   1      37.310  31.475  37.606  1.00  0.00    -0.200 F 
ATOM    132  C   UNL A   1      38.478  33.466  38.106  1.00  0.00     0.200 A 
ATOM    133  F   UNL A   1      39.704  35.424  38.586  1.00  0.00    -0.200 F 
ATOM    134  F   UNL A   1      37.780  33.609  39.240  1.00  0.00    -0.200 F 
ENDBRANCH  96 124
BRANCH 111 135
ATOM    135  C   UNL A   1      43.338  26.757  34.426  1.00  0.00     0.064 A 
ATOM    136  C   UNL A   1      44.647  26.253  34.422  1.00  0.00     0.173 A 
ATOM    137  C   UNL A   1      42.320  25.860  34.809  1.00  0.00     0.173 A 
ATOM    138  F   UNL A   1      45.676  27.030  34.050  1.00  0.00    -0.203 F 
ATOM    139  C   UNL A   1      44.922  24.933  34.786  1.00  0.00     0.198 A 
ATOM    140  C   UNL A   1      42.590  24.530  35.124  1.00  0.00     0.198 A 
ATOM    141  F   UNL A   1      41.043  26.261  34.908  1.00  0.00    -0.203 F 
ATOM    142  F   UNL A   1      46.189  24.497  34.804  1.00  0.00    -0.200 F 
ATOM    143  C   UNL A   1      43.892  24.068  35.117  1.00  0.00     0.200 A 
ATOM    144  F   UNL A   1      41.583  23.702  35.434  1.00  0.00    -0.200 F 
ATOM    145  F   UNL A   1      44.154  22.792  35.436  1.00  0.00    -0.200 F 
ENDBRANCH 111 135
ENDBRANCH  76  79
ENDBRANCH  66  69
ENDBRANCH  62  65
ENDBRANCH  59  62
ENDBRANCH  56  59
ENDBRANCH   1  56
TORSDOF 17
ENDMDL
MODEL 5
REMARK VINA RESULT:     -12.5      3.218      9.522
REMARK SMILES Cc1ccc(-c2nn(-c3ccccc3)cc2[C@@H]2[NH2+][C@H](C(=O)NCCCCCCNC(=O)c3ccc(-c4c5nc(c(-c6c(F)c(F)c(F)c(F)c6F)c6ccc([nH]6)c(-c6c(F)c(F)c(F)c(F)c6F)c6nc(c(-c7c(F)c(F)c(F)c(F)c7F)c7ccc4[nH]7)C=C6)C=C5)cc3)CS2)cc1
REMARK SMILES IDX 25 1 24 4 23 7 22 10 20 11 21 12 19 14 17 15 18 16 96 17
REMARK SMILES IDX 95 21 16 25 6 26 7 27 8 28 15 29 5 31 2 32 3 33 98 34 4 35
REMARK SMILES IDX 97 37 1 41 9 45 10 46 14 47 11 48 13 50 12 52 26 56 27 59
REMARK SMILES IDX 28 62 29 65 30 66 31 68 32 69 33 70 94 71 34 72 93 74 35 76
REMARK SMILES IDX 36 79 37 80 87 81 38 82 92 83 86 84 88 85 39 86 91 87 85 89
REMARK SMILES IDX 84 91 40 93 72 96 52 97 71 98 53 99 56 100 70 101 89 102
REMARK SMILES IDX 54 103 55 105 69 107 90 108 57 111 41 113 42 114 50 115
REMARK SMILES IDX 43 116 44 117 48 118 51 119 45 120 46 121 49 122 47 123
REMARK SMILES IDX 73 124 74 125 82 126 75 127 76 128 80 129 83 130 77 131
REMARK SMILES IDX 78 132 81 133 79 134 58 135 59 136 67 137 60 138 61 139
REMARK SMILES IDX 65 140 68 141 62 142 63 143 66 144 64 145
REMARK H PARENT 25 2 25 3 24 5 24 6 23 8 23 9 22 13 17 18 18 19 18 20 19 22
REMARK H PARENT 95 23 95 24 15 30 3 36 98 38 4 39 97 40 1 42 1 43 1 44 10 49
REMARK H PARENT 14 51 11 53 13 54 12 55 26 57 26 58 27 60 27 61 28 63 28 64
REMARK H PARENT 29 67 33 73 94 75 34 77 93 78 92 88 86 90 88 92 91 94 85 95
REMARK H PARENT 53 104 56 106 89 109 54 110 90 112
REMARK Flexibility Score: inf
ROOT
ATOM      1  C   UNL A   1      35.075  22.775  23.612  1.00  0.00    -0.052 C 
ATOM      2  H   UNL A   1      35.611  23.560  23.120  1.00  0.00     0.027 H 
ATOM      3  H   UNL A   1      35.231  21.744  23.373  1.00  0.00     0.027 H 
ENDROOT
BRANCH   1   4
ATOM      4  C   UNL A   1      33.596  22.939  23.161  1.00  0.00    -0.036 C 
ATOM      5  H   UNL A   1      33.437  22.192  22.410  1.00  0.00     0.028 H 
ATOM      6  H   UNL A   1      33.088  22.886  24.100  1.00  0.00     0.028 H 
BRANCH   4   7
ATOM      7  C   UNL A   1      33.019  24.234  22.588  1.00  0.00     0.018 C 
ATOM      8  H   UNL A   1      32.935  24.108  21.528  1.00  0.00     0.049 H 
ATOM      9  H   UNL A   1      32.092  24.375  23.103  1.00  0.00     0.049 H 
BRANCH   7  10
ATOM     10  N   UNL A   1      33.769  25.459  22.824  1.00  0.00    -0.351 N 
ATOM     11  C   UNL A   1      33.379  26.763  22.964  1.00  0.00     0.279 C 
ATOM     12  O   UNL A   1      34.242  27.516  23.447  1.00  0.00    -0.268 OA
ATOM     13  H   UNL A   1      34.741  25.324  22.896  1.00  0.00     0.163 HD
BRANCH  11  14
ATOM     14  C   UNL A   1      32.025  27.413  22.552  1.00  0.00     0.176 C 
ATOM     15  C   UNL A   1      30.402  28.536  23.962  1.00  0.00     0.163 C 
ATOM     16  N   UNL A   1      30.874  27.237  23.469  1.00  0.00    -0.320 N 
ATOM     17  S   UNL A   1      30.683  29.706  22.620  1.00  0.00    -0.087 SA
ATOM     18  H   UNL A   1      29.364  28.561  24.216  1.00  0.00     0.115 H 
ATOM     19  H   UNL A   1      30.115  26.772  22.970  1.00  0.00     0.348 HD
ATOM     20  H   UNL A   1      31.169  26.671  24.265  1.00  0.00     0.348 HD
ATOM     21  C   UNL A   1      32.209  28.875  22.117  1.00  0.00     0.061 C 
ATOM     22  H   UNL A   1      31.728  26.829  21.707  1.00  0.00     0.108 H 
ATOM     23  H   UNL A   1      32.340  28.938  21.058  1.00  0.00     0.045 H 
ATOM     24  H   UNL A   1      33.074  29.320  22.560  1.00  0.00     0.045 H 
BRANCH  15  25
ATOM     25  C   UNL A   1      31.137  28.858  25.223  1.00  0.00     0.067 A 
ATOM     26  C   UNL A   1      31.657  27.949  26.219  1.00  0.00     0.103 A 
ATOM     27  N   UNL A   1      32.263  28.640  27.216  1.00  0.00    -0.167 NA
ATOM     28  N   UNL A   1      32.306  29.924  26.771  1.00  0.00    -0.240 N 
ATOM     29  C   UNL A   1      31.533  30.103  25.666  1.00  0.00     0.041 A 
ATOM     30  H   UNL A   1      31.286  31.008  25.237  1.00  0.00     0.085 H 
BRANCH  26  31
ATOM     31  C   UNL A   1      31.620  26.465  26.208  1.00  0.00     0.003 A 
ATOM     32  C   UNL A   1      31.540  23.617  26.287  1.00  0.00    -0.051 A 
ATOM     33  C   UNL A   1      30.365  24.352  26.169  1.00  0.00    -0.059 A 
ATOM     34  C   UNL A   1      32.758  24.307  26.317  1.00  0.00    -0.059 A 
ATOM     35  C   UNL A   1      30.411  25.750  26.132  1.00  0.00    -0.052 A 
ATOM     36  H   UNL A   1      29.457  23.866  26.106  1.00  0.00     0.063 H 
ATOM     37  C   UNL A   1      32.798  25.714  26.270  1.00  0.00    -0.052 A 
ATOM     38  H   UNL A   1      33.640  23.776  26.374  1.00  0.00     0.063 H 
ATOM     39  H   UNL A   1      29.526  26.276  26.046  1.00  0.00     0.063 H 
ATOM     40  H   UNL A   1      33.709  26.197  26.282  1.00  0.00     0.063 H 
BRANCH  32  41
ATOM     41  C   UNL A   1      31.466  22.120  26.378  1.00  0.00    -0.040 C 
ATOM     42  H   UNL A   1      31.326  21.831  27.398  1.00  0.00     0.028 H 
ATOM     43  H   UNL A   1      32.375  21.695  26.008  1.00  0.00     0.028 H 
ATOM     44  H   UNL A   1      30.643  21.768  25.791  1.00  0.00     0.028 H 
ENDBRANCH  32  41
ENDBRANCH  26  31
BRANCH  28  45
ATOM     45  C   UNL A   1      33.243  30.878  27.234  1.00  0.00     0.065 A 
ATOM     46  C   UNL A   1      32.804  32.185  27.527  1.00  0.00    -0.036 A 
ATOM     47  C   UNL A   1      34.579  30.531  27.406  1.00  0.00    -0.036 A 
ATOM     48  C   UNL A   1      33.722  33.164  27.904  1.00  0.00    -0.060 A 
ATOM     49  H   UNL A   1      31.800  32.417  27.464  1.00  0.00     0.065 H 
ATOM     50  C   UNL A   1      35.476  31.499  27.873  1.00  0.00    -0.060 A 
ATOM     51  H   UNL A   1      34.904  29.575  27.195  1.00  0.00     0.065 H 
ATOM     52  C   UNL A   1      35.057  32.817  28.089  1.00  0.00    -0.062 A 
ATOM     53  H   UNL A   1      33.414  34.139  28.042  1.00  0.00     0.062 H 
ATOM     54  H   UNL A   1      36.456  31.238  28.060  1.00  0.00     0.062 H 
ATOM     55  H   UNL A   1      35.739  33.532  28.386  1.00  0.00     0.062 H 
ENDBRANCH  28  45
ENDBRANCH  15  25
ENDBRANCH  11  14
ENDBRANCH   7  10
ENDBRANCH   4   7
ENDBRANCH   1   4
BRANCH   1  56
ATOM     56  C   UNL A   1      35.568  22.795  25.068  1.00  0.00    -0.052 C 
ATOM     57  H   UNL A   1      34.706  22.696  25.695  1.00  0.00     0.027 H 
ATOM     58  H   UNL A   1      36.103  23.718  25.152  1.00  0.00     0.027 H 
BRANCH  56  59
ATOM     59  C   UNL A   1      36.576  21.732  25.510  1.00  0.00    -0.036 C 
ATOM     60  H   UNL A   1      36.203  20.786  25.174  1.00  0.00     0.028 H 
ATOM     61  H   UNL A   1      36.646  21.861  26.569  1.00  0.00     0.028 H 
BRANCH  59  62
ATOM     62  C   UNL A   1      38.019  21.848  25.019  1.00  0.00     0.018 C 
ATOM     63  H   UNL A   1      38.201  22.873  24.771  1.00  0.00     0.049 H 
ATOM     64  H   UNL A   1      38.101  21.179  24.188  1.00  0.00     0.049 H 
BRANCH  62  65
ATOM     65  N   UNL A   1      39.053  21.424  25.980  1.00  0.00    -0.352 N 
ATOM     66  C   UNL A   1      39.864  22.227  26.783  1.00  0.00     0.251 C 
ATOM     67  H   UNL A   1      39.189  20.452  26.066  1.00  0.00     0.163 HD
ATOM     68  O   UNL A   1      40.700  21.770  27.536  1.00  0.00    -0.269 OA
BRANCH  66  69
ATOM     69  C   UNL A   1      39.588  23.682  26.768  1.00  0.00     0.039 A 
ATOM     70  C   UNL A   1      40.523  24.487  26.110  1.00  0.00    -0.049 A 
ATOM     71  C   UNL A   1      38.741  24.194  27.746  1.00  0.00    -0.049 A 
ATOM     72  C   UNL A   1      40.836  25.721  26.664  1.00  0.00    -0.053 A 
ATOM     73  H   UNL A   1      40.969  24.171  25.235  1.00  0.00     0.063 H 
ATOM     74  C   UNL A   1      39.116  25.379  28.349  1.00  0.00    -0.053 A 
ATOM     75  H   UNL A   1      37.870  23.709  28.011  1.00  0.00     0.063 H 
ATOM     76  C   UNL A   1      40.229  26.083  27.865  1.00  0.00    -0.014 A 
ATOM     77  H   UNL A   1      41.502  26.356  26.197  1.00  0.00     0.063 H 
ATOM     78  H   UNL A   1      38.578  25.744  29.151  1.00  0.00     0.063 H 
BRANCH  76  79
ATOM     79  C   UNL A   1      40.774  27.106  28.751  1.00  0.00     0.031 A 
ATOM     80  C   UNL A   1      40.010  28.343  28.987  1.00  0.00     0.074 A 
ATOM     81  C   UNL A   1      41.953  26.916  29.385  1.00  0.00     0.049 A 
ATOM     82  N   UNL A   1      40.520  29.425  29.472  1.00  0.00    -0.248 NA
ATOM     83  C   UNL A   1      38.618  28.493  28.583  1.00  0.00    -0.034 C 
ATOM     84  C   UNL A   1      42.489  27.689  30.503  1.00  0.00    -0.036 A 
ATOM     85  N   UNL A   1      43.021  26.092  28.992  1.00  0.00    -0.354 N 
ATOM     86  C   UNL A   1      39.495  30.310  29.694  1.00  0.00     0.074 A 
ATOM     87  C   UNL A   1      38.370  29.738  28.996  1.00  0.00    -0.034 C 
ATOM     88  H   UNL A   1      37.995  27.821  28.109  1.00  0.00     0.065 H 
ATOM     89  C   UNL A   1      43.822  27.550  30.530  1.00  0.00    -0.036 A 
ATOM     90  H   UNL A   1      41.931  28.252  31.164  1.00  0.00     0.065 H 
ATOM     91  C   UNL A   1      44.202  26.789  29.356  1.00  0.00     0.049 A 
ATOM     92  H   UNL A   1      42.963  25.213  28.553  1.00  0.00     0.167 HD
ATOM     93  C   UNL A   1      39.712  31.353  30.544  1.00  0.00     0.037 A 
ATOM     94  H   UNL A   1      37.479  30.235  28.834  1.00  0.00     0.065 H 
ATOM     95  H   UNL A   1      44.460  27.917  31.253  1.00  0.00     0.065 H 
ATOM     96  C   UNL A   1      45.110  27.184  28.419  1.00  0.00     0.037 A 
ATOM     97  C   UNL A   1      41.147  31.520  30.808  1.00  0.00     0.049 A 
ATOM     98  C   UNL A   1      45.315  28.681  28.323  1.00  0.00     0.074 A 
ATOM     99  C   UNL A   1      41.993  31.251  31.871  1.00  0.00    -0.036 A 
ATOM    100  N   UNL A   1      41.971  31.826  29.737  1.00  0.00    -0.354 N 
ATOM    101  N   UNL A   1      44.660  29.558  29.032  1.00  0.00    -0.248 NA
ATOM    102  C   UNL A   1      46.201  29.311  27.341  1.00  0.00    -0.034 C 
ATOM    103  C   UNL A   1      43.340  31.374  31.407  1.00  0.00    -0.036 A 
ATOM    104  H   UNL A   1      41.703  31.006  32.830  1.00  0.00     0.065 H 
ATOM    105  C   UNL A   1      43.307  31.728  30.070  1.00  0.00     0.049 A 
ATOM    106  H   UNL A   1      41.645  32.083  28.845  1.00  0.00     0.167 HD
ATOM    107  C   UNL A   1      44.942  30.814  28.569  1.00  0.00     0.074 A 
ATOM    108  C   UNL A   1      45.926  30.614  27.522  1.00  0.00    -0.034 C 
ATOM    109  H   UNL A   1      46.861  28.870  26.682  1.00  0.00     0.065 H 
ATOM    110  H   UNL A   1      44.189  31.224  31.973  1.00  0.00     0.065 H 
ATOM    111  C   UNL A   1      44.308  31.927  29.035  1.00  0.00     0.037 A 
ATOM    112  H   UNL A   1      46.362  31.379  26.983  1.00  0.00     0.065 H 
BRANCH  93 113
ATOM    113  C   UNL A   1      38.637  32.132  31.286  1.00  0.00     0.064 A 
ATOM    114  C   UNL A   1      38.342  31.813  32.632  1.00  0.00     0.173 A 
ATOM    115  C   UNL A   1      37.785  33.109  30.730  1.00  0.00     0.173 A 
ATOM    116  F   UNL A   1      39.079  30.930  33.321  1.00  0.00    -0.203 F 
ATOM    117  C   UNL A   1      37.261  32.373  33.324  1.00  0.00     0.198 A 
ATOM    118  C   UNL A   1      36.719  33.683  31.428  1.00  0.00     0.198 A 
ATOM    119  F   UNL A   1      37.908  33.553  29.481  1.00  0.00    -0.203 F 
ATOM    120  F   UNL A   1      37.005  31.985  34.581  1.00  0.00    -0.200 F 
ATOM    121  C   UNL A   1      36.444  33.303  32.720  1.00  0.00     0.200 A 
ATOM    122  F   UNL A   1      35.947  34.595  30.817  1.00  0.00    -0.200 F 
ATOM    123  F   UNL A   1      35.398  33.827  33.371  1.00  0.00    -0.200 F 
ENDBRANCH  93 113
BRANCH  96 124
ATOM    124  C   UNL A   1      45.189  26.235  27.279  1.00  0.00     0.064 A 
ATOM    125  C   UNL A   1      45.805  24.988  27.499  1.00  0.00     0.173 A 
ATOM    126  C   UNL A   1      44.343  26.359  26.172  1.00  0.00     0.173 A 
ATOM    127  F   UNL A   1      46.625  24.821  28.549  1.00  0.00    -0.203 F 
ATOM    128  C   UNL A   1      45.480  23.878  26.724  1.00  0.00     0.198 A 
ATOM    129  C   UNL A   1      44.033  25.248  25.388  1.00  0.00     0.198 A 
ATOM    130  F   UNL A   1      43.717  27.518  25.923  1.00  0.00    -0.203 F 
ATOM    131  F   UNL A   1      45.985  22.676  27.034  1.00  0.00    -0.200 F 
ATOM    132  C   UNL A   1      44.570  24.004  25.688  1.00  0.00     0.200 A 
ATOM    133  F   UNL A   1      43.135  25.364  24.400  1.00  0.00    -0.200 F 
ATOM    134  F   UNL A   1      44.178  22.920  25.005  1.00  0.00    -0.200 F 
ENDBRANCH  96 124
BRANCH 111 135
ATOM    135  C   UNL A   1      44.590  33.305  28.523  1.00  0.00     0.064 A 
ATOM    136  C   UNL A   1      45.206  34.283  29.317  1.00  0.00     0.173 A 
ATOM    137  C   UNL A   1      44.131  33.720  27.257  1.00  0.00     0.173 A 
ATOM    138  F   UNL A   1      45.654  33.982  30.546  1.00  0.00    -0.203 F 
ATOM    139  C   UNL A   1      45.359  35.597  28.868  1.00  0.00     0.198 A 
ATOM    140  C   UNL A   1      44.240  35.042  26.831  1.00  0.00     0.198 A 
ATOM    141  F   UNL A   1      43.587  32.847  26.396  1.00  0.00    -0.203 F 
ATOM    142  F   UNL A   1      45.984  36.496  29.641  1.00  0.00    -0.200 F 
ATOM    143  C   UNL A   1      44.859  35.979  27.635  1.00  0.00     0.200 A 
ATOM    144  F   UNL A   1      43.743  35.400  25.638  1.00  0.00    -0.200 F 
ATOM    145  F   UNL A   1      44.978  37.248  27.219  1.00  0.00    -0.200 F 
ENDBRANCH 111 135
ENDBRANCH  76  79
ENDBRANCH  66  69
ENDBRANCH  62  65
ENDBRANCH  59  62
ENDBRANCH  56  59
ENDBRANCH   1  56
TORSDOF 17
ENDMDL
MODEL 6
REMARK VINA RESULT:     -12.4      6.263     12.133
REMARK SMILES Cc1ccc(-c2nn(-c3ccccc3)cc2[C@@H]2[NH2+][C@H](C(=O)NCCCCCCNC(=O)c3ccc(-c4c5nc(c(-c6c(F)c(F)c(F)c(F)c6F)c6ccc([nH]6)c(-c6c(F)c(F)c(F)c(F)c6F)c6nc(c(-c7c(F)c(F)c(F)c(F)c7F)c7ccc4[nH]7)C=C6)C=C5)cc3)CS2)cc1
REMARK SMILES IDX 25 1 24 4 23 7 22 10 20 11 21 12 19 14 17 15 18 16 96 17
REMARK SMILES IDX 95 21 16 25 6 26 7 27 8 28 15 29 5 31 2 32 3 33 98 34 4 35
REMARK SMILES IDX 97 37 1 41 9 45 10 46 14 47 11 48 13 50 12 52 26 56 27 59
REMARK SMILES IDX 28 62 29 65 30 66 31 68 32 69 33 70 94 71 34 72 93 74 35 76
REMARK SMILES IDX 36 79 37 80 87 81 38 82 92 83 86 84 88 85 39 86 91 87 85 89
REMARK SMILES IDX 84 91 40 93 72 96 52 97 71 98 53 99 56 100 70 101 89 102
REMARK SMILES IDX 54 103 55 105 69 107 90 108 57 111 41 113 42 114 50 115
REMARK SMILES IDX 43 116 44 117 48 118 51 119 45 120 46 121 49 122 47 123
REMARK SMILES IDX 73 124 74 125 82 126 75 127 76 128 80 129 83 130 77 131
REMARK SMILES IDX 78 132 81 133 79 134 58 135 59 136 67 137 60 138 61 139
REMARK SMILES IDX 65 140 68 141 62 142 63 143 66 144 64 145
REMARK H PARENT 25 2 25 3 24 5 24 6 23 8 23 9 22 13 17 18 18 19 18 20 19 22
REMARK H PARENT 95 23 95 24 15 30 3 36 98 38 4 39 97 40 1 42 1 43 1 44 10 49
REMARK H PARENT 14 51 11 53 13 54 12 55 26 57 26 58 27 60 27 61 28 63 28 64
REMARK H PARENT 29 67 33 73 94 75 34 77 93 78 92 88 86 90 88 92 91 94 85 95
REMARK H PARENT 53 104 56 106 89 109 54 110 90 112
REMARK Flexibility Score: inf
ROOT
ATOM      1  C   UNL A   1      40.934  35.452  28.789  1.00  0.00    -0.052 C 
ATOM      2  H   UNL A   1      40.258  35.785  28.030  1.00  0.00     0.027 H 
ATOM      3  H   UNL A   1      41.183  36.059  29.635  1.00  0.00     0.027 H 
ENDROOT
BRANCH   1   4
ATOM      4  C   UNL A   1      42.323  35.366  28.096  1.00  0.00    -0.036 C 
ATOM      5  H   UNL A   1      43.039  35.638  28.845  1.00  0.00     0.028 H 
ATOM      6  H   UNL A   1      42.296  34.372  27.703  1.00  0.00     0.028 H 
BRANCH   4   7
ATOM      7  C   UNL A   1      42.704  36.165  26.849  1.00  0.00     0.018 C 
ATOM      8  H   UNL A   1      43.711  36.504  26.978  1.00  0.00     0.049 H 
ATOM      9  H   UNL A   1      42.554  35.491  26.032  1.00  0.00     0.049 H 
BRANCH   7  10
ATOM     10  N   UNL A   1      41.889  37.328  26.529  1.00  0.00    -0.351 N 
ATOM     11  C   UNL A   1      41.943  38.630  26.947  1.00  0.00     0.279 C 
ATOM     12  O   UNL A   1      41.283  39.426  26.258  1.00  0.00    -0.268 OA
ATOM     13  H   UNL A   1      41.162  37.144  25.893  1.00  0.00     0.163 HD
BRANCH  11  14
ATOM     14  C   UNL A   1      42.678  39.214  28.190  1.00  0.00     0.176 C 
ATOM     15  C   UNL A   1      44.672  40.594  28.250  1.00  0.00     0.163 C 
ATOM     16  N   UNL A   1      44.161  39.221  28.167  1.00  0.00    -0.320 N 
ATOM     17  S   UNL A   1      43.496  41.499  29.273  1.00  0.00    -0.087 SA
ATOM     18  H   UNL A   1      45.639  40.678  28.698  1.00  0.00     0.115 H 
ATOM     19  H   UNL A   1      44.511  38.684  28.961  1.00  0.00     0.348 HD
ATOM     20  H   UNL A   1      44.479  38.804  27.293  1.00  0.00     0.348 HD
ATOM     21  C   UNL A   1      42.092  40.570  28.608  1.00  0.00     0.061 C 
ATOM     22  H   UNL A   1      42.471  38.491  28.950  1.00  0.00     0.108 H 
ATOM     23  H   UNL A   1      41.339  40.440  29.356  1.00  0.00     0.045 H 
ATOM     24  H   UNL A   1      41.626  41.077  27.789  1.00  0.00     0.045 H 
BRANCH  15  25
ATOM     25  C   UNL A   1      44.820  41.127  26.862  1.00  0.00     0.067 A 
ATOM     26  C   UNL A   1      45.843  40.830  25.887  1.00  0.00     0.103 A 
ATOM     27  N   UNL A   1      45.619  41.519  24.742  1.00  0.00    -0.167 NA
ATOM     28  N   UNL A   1      44.390  42.076  24.909  1.00  0.00    -0.240 N 
ATOM     29  C   UNL A   1      43.958  41.973  26.194  1.00  0.00     0.041 A 
ATOM     30  H   UNL A   1      43.134  42.445  26.599  1.00  0.00     0.085 H 
BRANCH  26  31
ATOM     31  C   UNL A   1      46.982  39.885  26.019  1.00  0.00     0.003 A 
ATOM     32  C   UNL A   1      49.112  38.018  26.332  1.00  0.00    -0.051 A 
ATOM     33  C   UNL A   1      48.170  37.850  25.322  1.00  0.00    -0.059 A 
ATOM     34  C   UNL A   1      49.015  39.147  27.153  1.00  0.00    -0.059 A 
ATOM     35  C   UNL A   1      47.126  38.770  25.175  1.00  0.00    -0.052 A 
ATOM     36  H   UNL A   1      48.242  37.046  24.679  1.00  0.00     0.063 H 
ATOM     37  C   UNL A   1      47.966  40.074  26.993  1.00  0.00    -0.052 A 
ATOM     38  H   UNL A   1      49.722  39.303  27.887  1.00  0.00     0.063 H 
ATOM     39  H   UNL A   1      46.436  38.624  24.420  1.00  0.00     0.063 H 
ATOM     40  H   UNL A   1      47.925  40.904  27.605  1.00  0.00     0.063 H 
BRANCH  32  41
ATOM     41  C   UNL A   1      50.194  36.991  26.507  1.00  0.00    -0.040 C 
ATOM     42  H   UNL A   1      49.758  36.015  26.537  1.00  0.00     0.028 H 
ATOM     43  H   UNL A   1      50.717  37.177  27.422  1.00  0.00     0.028 H 
ATOM     44  H   UNL A   1      50.878  37.052  25.687  1.00  0.00     0.028 H 
ENDBRANCH  32  41
ENDBRANCH  26  31
BRANCH  28  45
ATOM     45  C   UNL A   1      43.557  42.465  23.832  1.00  0.00     0.065 A 
ATOM     46  C   UNL A   1      44.148  42.895  22.627  1.00  0.00    -0.036 A 
ATOM     47  C   UNL A   1      42.173  42.417  23.957  1.00  0.00    -0.036 A 
ATOM     48  C   UNL A   1      43.351  43.362  21.583  1.00  0.00    -0.060 A 
ATOM     49  H   UNL A   1      45.174  42.863  22.517  1.00  0.00     0.065 H 
ATOM     50  C   UNL A   1      41.380  42.802  22.869  1.00  0.00    -0.060 A 
ATOM     51  H   UNL A   1      41.736  42.101  24.836  1.00  0.00     0.065 H 
ATOM     52  C   UNL A   1      41.966  43.303  21.700  1.00  0.00    -0.062 A 
ATOM     53  H   UNL A   1      43.785  43.749  20.732  1.00  0.00     0.062 H 
ATOM     54  H   UNL A   1      40.354  42.715  22.929  1.00  0.00     0.062 H 
ATOM     55  H   UNL A   1      41.369  43.629  20.924  1.00  0.00     0.062 H 
ENDBRANCH  28  45
ENDBRANCH  15  25
ENDBRANCH  11  14
ENDBRANCH   7  10
ENDBRANCH   4   7
ENDBRANCH   1   4
BRANCH   1  56
ATOM     56  C   UNL A   1      40.218  34.287  29.492  1.00  0.00    -0.052 C 
ATOM     57  H   UNL A   1      40.475  34.337  30.530  1.00  0.00     0.027 H 
ATOM     58  H   UNL A   1      40.556  33.416  28.968  1.00  0.00     0.027 H 
BRANCH  56  59
ATOM     59  C   UNL A   1      38.692  34.212  29.404  1.00  0.00    -0.036 C 
ATOM     60  H   UNL A   1      38.413  34.595  28.443  1.00  0.00     0.028 H 
ATOM     61  H   UNL A   1      38.353  34.770  30.250  1.00  0.00     0.028 H 
BRANCH  59  62
ATOM     62  C   UNL A   1      38.020  32.848  29.557  1.00  0.00     0.018 C 
ATOM     63  H   UNL A   1      38.414  32.383  30.437  1.00  0.00     0.049 H 
ATOM     64  H   UNL A   1      38.228  32.314  28.653  1.00  0.00     0.049 H 
BRANCH  62  65
ATOM     65  N   UNL A   1      36.551  32.873  29.680  1.00  0.00    -0.352 N 
ATOM     66  C   UNL A   1      35.650  31.832  29.459  1.00  0.00     0.251 C 
ATOM     67  H   UNL A   1      36.156  33.734  29.950  1.00  0.00     0.163 HD
ATOM     68  O   UNL A   1      34.449  31.967  29.577  1.00  0.00    -0.269 OA
BRANCH  66  69
ATOM     69  C   UNL A   1      36.228  30.497  29.180  1.00  0.00     0.039 A 
ATOM     70  C   UNL A   1      36.573  29.723  30.292  1.00  0.00    -0.049 A 
ATOM     71  C   UNL A   1      36.809  30.286  27.933  1.00  0.00    -0.049 A 
ATOM     72  C   UNL A   1      37.734  28.963  30.233  1.00  0.00    -0.053 A 
ATOM     73  H   UNL A   1      35.979  29.716  31.135  1.00  0.00     0.063 H 
ATOM     74  C   UNL A   1      38.010  29.606  27.903  1.00  0.00    -0.053 A 
ATOM     75  H   UNL A   1      36.362  30.625  27.068  1.00  0.00     0.063 H 
ATOM     76  C   UNL A   1      38.516  29.036  29.081  1.00  0.00    -0.014 A 
ATOM     77  H   UNL A   1      38.012  28.359  31.022  1.00  0.00     0.063 H 
ATOM     78  H   UNL A   1      38.532  29.517  27.017  1.00  0.00     0.063 H 
BRANCH  76  79
ATOM     79  C   UNL A   1      39.925  28.659  29.056  1.00  0.00     0.031 A 
ATOM     80  C   UNL A   1      40.303  27.289  28.670  1.00  0.00     0.074 A 
ATOM     81  C   UNL A   1      40.889  29.563  29.348  1.00  0.00     0.049 A 
ATOM     82  N   UNL A   1      41.453  26.760  28.920  1.00  0.00    -0.248 NA
ATOM     83  C   UNL A   1      39.360  26.358  28.065  1.00  0.00    -0.034 C 
ATOM     84  C   UNL A   1      42.322  29.437  29.094  1.00  0.00    -0.036 A 
ATOM     85  N   UNL A   1      40.779  30.714  30.145  1.00  0.00    -0.354 N 
ATOM     86  C   UNL A   1      41.502  25.542  28.287  1.00  0.00     0.074 A 
ATOM     87  C   UNL A   1      40.138  25.285  27.899  1.00  0.00    -0.034 C 
ATOM     88  H   UNL A   1      38.364  26.491  27.828  1.00  0.00     0.065 H 
ATOM     89  C   UNL A   1      42.986  30.248  29.930  1.00  0.00    -0.036 A 
ATOM     90  H   UNL A   1      42.753  28.822  28.385  1.00  0.00     0.065 H 
ATOM     91  C   UNL A   1      42.013  30.825  30.836  1.00  0.00     0.049 A 
ATOM     92  H   UNL A   1      40.005  31.318  30.211  1.00  0.00     0.167 HD
ATOM     93  C   UNL A   1      42.722  24.972  28.073  1.00  0.00     0.037 A 
ATOM     94  H   UNL A   1      39.802  24.378  27.537  1.00  0.00     0.065 H 
ATOM     95  H   UNL A   1      44.002  30.427  29.928  1.00  0.00     0.065 H 
ATOM     96  C   UNL A   1      42.070  30.769  32.197  1.00  0.00     0.037 A 
ATOM     97  C   UNL A   1      43.754  25.632  28.881  1.00  0.00     0.049 A 
ATOM     98  C   UNL A   1      42.878  29.614  32.752  1.00  0.00     0.074 A 
ATOM     99  C   UNL A   1      44.788  26.519  28.629  1.00  0.00    -0.036 A 
ATOM    100  N   UNL A   1      43.632  25.578  30.260  1.00  0.00    -0.354 N 
ATOM    101  N   UNL A   1      43.448  28.699  32.019  1.00  0.00    -0.248 NA
ATOM    102  C   UNL A   1      43.012  29.342  34.185  1.00  0.00    -0.034 C 
ATOM    103  C   UNL A   1      45.261  27.016  29.883  1.00  0.00    -0.036 A 
ATOM    104  H   UNL A   1      45.152  26.776  27.699  1.00  0.00     0.065 H 
ATOM    105  C   UNL A   1      44.524  26.421  30.891  1.00  0.00     0.049 A 
ATOM    106  H   UNL A   1      42.987  25.006  30.735  1.00  0.00     0.167 HD
ATOM    107  C   UNL A   1      43.927  27.706  32.829  1.00  0.00     0.074 A 
ATOM    108  C   UNL A   1      43.650  28.158  34.179  1.00  0.00    -0.034 C 
ATOM    109  H   UNL A   1      42.699  29.908  34.988  1.00  0.00     0.065 H 
ATOM    110  H   UNL A   1      46.022  27.701  30.012  1.00  0.00     0.065 H 
ATOM    111  C   UNL A   1      44.466  26.555  32.337  1.00  0.00     0.037 A 
ATOM    112  H   UNL A   1      43.909  27.636  35.031  1.00  0.00     0.065 H 
BRANCH  93 113
ATOM    113  C   UNL A   1      43.040  23.928  27.014  1.00  0.00     0.064 A 
ATOM    114  C   UNL A   1      42.705  22.573  27.242  1.00  0.00     0.173 A 
ATOM    115  C   UNL A   1      43.761  24.146  25.821  1.00  0.00     0.173 A 
ATOM    116  F   UNL A   1      41.989  22.198  28.311  1.00  0.00    -0.203 F 
ATOM    117  C   UNL A   1      43.111  21.538  26.390  1.00  0.00     0.198 A 
ATOM    118  C   UNL A   1      44.148  23.116  24.960  1.00  0.00     0.198 A 
ATOM    119  F   UNL A   1      44.157  25.354  25.424  1.00  0.00    -0.203 F 
ATOM    120  F   UNL A   1      42.807  20.269  26.694  1.00  0.00    -0.200 F 
ATOM    121  C   UNL A   1      43.839  21.809  25.251  1.00  0.00     0.200 A 
ATOM    122  F   UNL A   1      44.846  23.411  23.853  1.00  0.00    -0.200 F 
ATOM    123  F   UNL A   1      44.246  20.821  24.444  1.00  0.00    -0.200 F 
ENDBRANCH  93 113
BRANCH  96 124
ATOM    124  C   UNL A   1      40.863  31.353  32.835  1.00  0.00     0.064 A 
ATOM    125  C   UNL A   1      40.732  32.756  32.841  1.00  0.00     0.173 A 
ATOM    126  C   UNL A   1      39.710  30.590  33.042  1.00  0.00     0.173 A 
ATOM    127  F   UNL A   1      41.811  33.531  32.646  1.00  0.00    -0.203 F 
ATOM    128  C   UNL A   1      39.481  33.361  32.913  1.00  0.00     0.198 A 
ATOM    129  C   UNL A   1      38.460  31.202  33.130  1.00  0.00     0.198 A 
ATOM    130  F   UNL A   1      39.772  29.250  33.030  1.00  0.00    -0.203 F 
ATOM    131  F   UNL A   1      39.375  34.692  32.790  1.00  0.00    -0.200 F 
ATOM    132  C   UNL A   1      38.343  32.581  33.026  1.00  0.00     0.200 A 
ATOM    133  F   UNL A   1      37.356  30.446  33.217  1.00  0.00    -0.200 F 
ATOM    134  F   UNL A   1      37.132  33.153  32.995  1.00  0.00    -0.200 F 
ENDBRANCH  96 124
BRANCH 111 135
ATOM    135  C   UNL A   1      44.974  25.450  33.211  1.00  0.00     0.064 A 
ATOM    136  C   UNL A   1      44.133  24.744  34.083  1.00  0.00     0.173 A 
ATOM    137  C   UNL A   1      46.350  25.158  33.290  1.00  0.00     0.173 A 
ATOM    138  F   UNL A   1      42.811  24.973  34.092  1.00  0.00    -0.203 F 
ATOM    139  C   UNL A   1      44.638  23.796  34.975  1.00  0.00     0.198 A 
ATOM    140  C   UNL A   1      46.858  24.248  34.214  1.00  0.00     0.198 A 
ATOM    141  F   UNL A   1      47.230  25.732  32.455  1.00  0.00    -0.203 F 
ATOM    142  F   UNL A   1      43.800  23.114  35.768  1.00  0.00    -0.200 F 
ATOM    143  C   UNL A   1      46.001  23.563  35.054  1.00  0.00     0.200 A 
ATOM    144  F   UNL A   1      48.181  24.040  34.286  1.00  0.00    -0.200 F 
ATOM    145  F   UNL A   1      46.488  22.676  35.933  1.00  0.00    -0.200 F 
ENDBRANCH 111 135
ENDBRANCH  76  79
ENDBRANCH  66  69
ENDBRANCH  62  65
ENDBRANCH  59  62
ENDBRANCH  56  59
ENDBRANCH   1  56
TORSDOF 17
ENDMDL
MODEL 7
REMARK VINA RESULT:     -12.4      1.784      2.193
REMARK SMILES Cc1ccc(-c2nn(-c3ccccc3)cc2[C@@H]2[NH2+][C@H](C(=O)NCCCCCCNC(=O)c3ccc(-c4c5nc(c(-c6c(F)c(F)c(F)c(F)c6F)c6ccc([nH]6)c(-c6c(F)c(F)c(F)c(F)c6F)c6nc(c(-c7c(F)c(F)c(F)c(F)c7F)c7ccc4[nH]7)C=C6)C=C5)cc3)CS2)cc1
REMARK SMILES IDX 25 1 24 4 23 7 22 10 20 11 21 12 19 14 17 15 18 16 96 17
REMARK SMILES IDX 95 21 16 25 6 26 7 27 8 28 15 29 5 31 2 32 3 33 98 34 4 35
REMARK SMILES IDX 97 37 1 41 9 45 10 46 14 47 11 48 13 50 12 52 26 56 27 59
REMARK SMILES IDX 28 62 29 65 30 66 31 68 32 69 33 70 94 71 34 72 93 74 35 76
REMARK SMILES IDX 36 79 37 80 87 81 38 82 92 83 86 84 88 85 39 86 91 87 85 89
REMARK SMILES IDX 84 91 40 93 72 96 52 97 71 98 53 99 56 100 70 101 89 102
REMARK SMILES IDX 54 103 55 105 69 107 90 108 57 111 41 113 42 114 50 115
REMARK SMILES IDX 43 116 44 117 48 118 51 119 45 120 46 121 49 122 47 123
REMARK SMILES IDX 73 124 74 125 82 126 75 127 76 128 80 129 83 130 77 131
REMARK SMILES IDX 78 132 81 133 79 134 58 135 59 136 67 137 60 138 61 139
REMARK SMILES IDX 65 140 68 141 62 142 63 143 66 144 64 145
REMARK H PARENT 25 2 25 3 24 5 24 6 23 8 23 9 22 13 17 18 18 19 18 20 19 22
REMARK H PARENT 95 23 95 24 15 30 3 36 98 38 4 39 97 40 1 42 1 43 1 44 10 49
REMARK H PARENT 14 51 11 53 13 54 12 55 26 57 26 58 27 60 27 61 28 63 28 64
REMARK H PARENT 29 67 33 73 94 75 34 77 93 78 92 88 86 90 88 92 91 94 85 95
REMARK H PARENT 53 104 56 106 89 109 54 110 90 112
REMARK Flexibility Score: inf
ROOT
ATOM      1  C   UNL A   1      31.512  28.679  23.974  1.00  0.00    -0.052 C 
ATOM      2  H   UNL A   1      30.761  28.330  24.652  1.00  0.00     0.027 H 
ATOM      3  H   UNL A   1      31.290  28.924  22.956  1.00  0.00     0.027 H 
ENDROOT
BRANCH   1   4
ATOM      4  C   UNL A   1      32.471  27.475  23.763  1.00  0.00    -0.036 C 
ATOM      5  H   UNL A   1      33.205  27.548  24.540  1.00  0.00     0.028 H 
ATOM      6  H   UNL A   1      31.778  26.661  23.742  1.00  0.00     0.028 H 
BRANCH   4   7
ATOM      7  C   UNL A   1      33.256  27.227  22.473  1.00  0.00     0.018 C 
ATOM      8  H   UNL A   1      32.653  27.571  21.659  1.00  0.00     0.049 H 
ATOM      9  H   UNL A   1      34.180  27.749  22.607  1.00  0.00     0.049 H 
BRANCH   7  10
ATOM     10  N   UNL A   1      33.639  25.853  22.182  1.00  0.00    -0.351 N 
ATOM     11  C   UNL A   1      34.080  24.833  22.981  1.00  0.00     0.279 C 
ATOM     12  O   UNL A   1      34.038  23.706  22.459  1.00  0.00    -0.268 OA
ATOM     13  H   UNL A   1      33.568  25.611  21.231  1.00  0.00     0.163 HD
BRANCH  11  14
ATOM     14  C   UNL A   1      34.664  24.922  24.422  1.00  0.00     0.176 C 
ATOM     15  C   UNL A   1      34.082  23.597  26.368  1.00  0.00     0.163 C 
ATOM     16  N   UNL A   1      33.721  24.763  25.554  1.00  0.00    -0.320 N 
ATOM     17  S   UNL A   1      35.878  23.479  26.295  1.00  0.00    -0.087 SA
ATOM     18  H   UNL A   1      33.792  23.670  27.395  1.00  0.00     0.115 H 
ATOM     19  H   UNL A   1      33.751  25.601  26.137  1.00  0.00     0.348 HD
ATOM     20  H   UNL A   1      32.780  24.627  25.183  1.00  0.00     0.348 HD
ATOM     21  C   UNL A   1      35.918  24.049  24.579  1.00  0.00     0.061 C 
ATOM     22  H   UNL A   1      34.939  25.952  24.505  1.00  0.00     0.108 H 
ATOM     23  H   UNL A   1      36.801  24.623  24.393  1.00  0.00     0.045 H 
ATOM     24  H   UNL A   1      35.931  23.235  23.885  1.00  0.00     0.045 H 
BRANCH  15  25
ATOM     25  C   UNL A   1      33.363  22.403  25.827  1.00  0.00     0.067 A 
ATOM     26  C   UNL A   1      32.061  22.342  25.205  1.00  0.00     0.103 A 
ATOM     27  N   UNL A   1      31.769  21.067  24.848  1.00  0.00    -0.167 NA
ATOM     28  N   UNL A   1      32.924  20.378  25.049  1.00  0.00    -0.240 N 
ATOM     29  C   UNL A   1      33.833  21.108  25.749  1.00  0.00     0.041 A 
ATOM     30  H   UNL A   1      34.716  20.757  26.151  1.00  0.00     0.085 H 
BRANCH  26  31
ATOM     31  C   UNL A   1      31.133  23.464  24.917  1.00  0.00     0.003 A 
ATOM     32  C   UNL A   1      29.429  25.680  24.358  1.00  0.00    -0.051 A 
ATOM     33  C   UNL A   1      29.938  24.902  23.322  1.00  0.00    -0.059 A 
ATOM     34  C   UNL A   1      29.734  25.318  25.675  1.00  0.00    -0.059 A 
ATOM     35  C   UNL A   1      30.775  23.817  23.604  1.00  0.00    -0.052 A 
ATOM     36  H   UNL A   1      29.697  25.126  22.344  1.00  0.00     0.063 H 
ATOM     37  C   UNL A   1      30.570  24.218  25.952  1.00  0.00    -0.052 A 
ATOM     38  H   UNL A   1      29.341  25.865  26.455  1.00  0.00     0.063 H 
ATOM     39  H   UNL A   1      31.143  23.255  22.820  1.00  0.00     0.063 H 
ATOM     40  H   UNL A   1      30.769  23.966  26.932  1.00  0.00     0.063 H 
BRANCH  32  41
ATOM     41  C   UNL A   1      28.576  26.871  24.032  1.00  0.00    -0.040 C 
ATOM     42  H   UNL A   1      28.028  26.683  23.133  1.00  0.00     0.028 H 
ATOM     43  H   UNL A   1      29.200  27.730  23.897  1.00  0.00     0.028 H 
ATOM     44  H   UNL A   1      27.893  27.051  24.836  1.00  0.00     0.028 H 
ENDBRANCH  32  41
ENDBRANCH  26  31
BRANCH  28  45
ATOM     45  C   UNL A   1      33.237  19.169  24.384  1.00  0.00     0.065 A 
ATOM     46  C   UNL A   1      34.323  18.396  24.839  1.00  0.00    -0.036 A 
ATOM     47  C   UNL A   1      32.478  18.743  23.298  1.00  0.00    -0.036 A 
ATOM     48  C   UNL A   1      34.702  17.245  24.149  1.00  0.00    -0.060 A 
ATOM     49  H   UNL A   1      34.839  18.682  25.686  1.00  0.00     0.065 H 
ATOM     50  C   UNL A   1      32.812  17.537  22.670  1.00  0.00    -0.060 A 
ATOM     51  H   UNL A   1      31.681  19.304  22.963  1.00  0.00     0.065 H 
ATOM     52  C   UNL A   1      33.938  16.809  23.072  1.00  0.00    -0.062 A 
ATOM     53  H   UNL A   1      35.544  16.722  24.435  1.00  0.00     0.062 H 
ATOM     54  H   UNL A   1      32.222  17.182  21.902  1.00  0.00     0.062 H 
ATOM     55  H   UNL A   1      34.201  15.948  22.568  1.00  0.00     0.062 H 
ENDBRANCH  28  45
ENDBRANCH  15  25
ENDBRANCH  11  14
ENDBRANCH   7  10
ENDBRANCH   4   7
ENDBRANCH   1   4
BRANCH   1  56
ATOM     56  C   UNL A   1      31.926  30.063  24.502  1.00  0.00    -0.052 C 
ATOM     57  H   UNL A   1      31.514  30.793  23.836  1.00  0.00     0.027 H 
ATOM     58  H   UNL A   1      32.994  30.020  24.546  1.00  0.00     0.027 H 
BRANCH  56  59
ATOM     59  C   UNL A   1      31.506  30.455  25.921  1.00  0.00    -0.036 C 
ATOM     60  H   UNL A   1      30.507  30.098  26.065  1.00  0.00     0.028 H 
ATOM     61  H   UNL A   1      31.635  31.517  25.949  1.00  0.00     0.028 H 
BRANCH  59  62
ATOM     62  C   UNL A   1      32.341  29.944  27.095  1.00  0.00     0.018 C 
ATOM     63  H   UNL A   1      31.681  29.785  27.923  1.00  0.00     0.049 H 
ATOM     64  H   UNL A   1      33.087  30.690  27.272  1.00  0.00     0.049 H 
BRANCH  62  65
ATOM     65  N   UNL A   1      33.075  28.689  26.855  1.00  0.00    -0.352 N 
ATOM     66  C   UNL A   1      34.423  28.421  27.094  1.00  0.00     0.251 C 
ATOM     67  H   UNL A   1      32.548  27.948  26.477  1.00  0.00     0.163 HD
ATOM     68  O   UNL A   1      34.933  27.347  26.845  1.00  0.00    -0.269 OA
BRANCH  66  69
ATOM     69  C   UNL A   1      35.202  29.475  27.782  1.00  0.00     0.039 A 
ATOM     70  C   UNL A   1      36.092  30.209  26.991  1.00  0.00    -0.049 A 
ATOM     71  C   UNL A   1      35.364  29.371  29.161  1.00  0.00    -0.049 A 
ATOM     72  C   UNL A   1      37.322  30.560  27.533  1.00  0.00    -0.053 A 
ATOM     73  H   UNL A   1      35.841  30.483  26.029  1.00  0.00     0.063 H 
ATOM     74  C   UNL A   1      36.619  29.638  29.672  1.00  0.00    -0.053 A 
ATOM     75  H   UNL A   1      34.579  29.105  29.775  1.00  0.00     0.063 H 
ATOM     76  C   UNL A   1      37.622  30.134  28.826  1.00  0.00    -0.014 A 
ATOM     77  H   UNL A   1      37.996  31.122  26.992  1.00  0.00     0.063 H 
ATOM     78  H   UNL A   1      36.816  29.473  30.671  1.00  0.00     0.063 H 
BRANCH  76  79
ATOM     79  C   UNL A   1      38.987  30.051  29.334  1.00  0.00     0.031 A 
ATOM     80  C   UNL A   1      39.746  28.798  29.174  1.00  0.00     0.074 A 
ATOM     81  C   UNL A   1      39.575  31.120  29.918  1.00  0.00     0.049 A 
ATOM     82  N   UNL A   1      40.805  28.505  29.850  1.00  0.00    -0.248 NA
ATOM     83  C   UNL A   1      39.297  27.716  28.308  1.00  0.00    -0.034 C 
ATOM     84  C   UNL A   1      40.996  31.295  30.211  1.00  0.00    -0.036 A 
ATOM     85  N   UNL A   1      38.953  32.199  30.568  1.00  0.00    -0.354 N 
ATOM     86  C   UNL A   1      41.324  27.344  29.333  1.00  0.00     0.074 A 
ATOM     87  C   UNL A   1      40.278  26.829  28.485  1.00  0.00    -0.034 C 
ATOM     88  H   UNL A   1      38.452  27.653  27.718  1.00  0.00     0.065 H 
ATOM     89  C   UNL A   1      41.130  32.195  31.194  1.00  0.00    -0.036 A 
ATOM     90  H   UNL A   1      41.770  30.804  29.737  1.00  0.00     0.065 H 
ATOM     91  C   UNL A   1      39.799  32.534  31.656  1.00  0.00     0.049 A 
ATOM     92  H   UNL A   1      38.105  32.632  30.319  1.00  0.00     0.167 HD
ATOM     93  C   UNL A   1      42.625  27.039  29.606  1.00  0.00     0.037 A 
ATOM     94  H   UNL A   1      40.288  25.885  28.066  1.00  0.00     0.065 H 
ATOM     95  H   UNL A   1      42.018  32.577  31.556  1.00  0.00     0.065 H 
ATOM     96  C   UNL A   1      39.363  32.446  32.945  1.00  0.00     0.037 A 
ATOM     97  C   UNL A   1      43.135  27.867  30.705  1.00  0.00     0.049 A 
ATOM     98  C   UNL A   1      40.124  31.461  33.807  1.00  0.00     0.074 A 
ATOM     99  C   UNL A   1      43.990  28.953  30.809  1.00  0.00    -0.036 A 
ATOM    100  N   UNL A   1      42.530  27.745  31.945  1.00  0.00    -0.354 N 
ATOM    101  N   UNL A   1      41.094  30.705  33.375  1.00  0.00    -0.248 NA
ATOM    102  C   UNL A   1      39.775  31.174  35.201  1.00  0.00    -0.034 C 
ATOM    103  C   UNL A   1      43.861  29.494  32.125  1.00  0.00    -0.036 A 
ATOM    104  H   UNL A   1      44.611  29.308  30.066  1.00  0.00     0.065 H 
ATOM    105  C   UNL A   1      42.941  28.729  32.819  1.00  0.00     0.049 A 
ATOM    106  H   UNL A   1      41.884  27.038  32.176  1.00  0.00     0.167 HD
ATOM    107  C   UNL A   1      41.431  29.803  34.347  1.00  0.00     0.074 A 
ATOM    108  C   UNL A   1      40.593  30.145  35.480  1.00  0.00    -0.034 C 
ATOM    109  H   UNL A   1      39.083  31.640  35.808  1.00  0.00     0.065 H 
ATOM    110  H   UNL A   1      44.368  30.313  32.493  1.00  0.00     0.065 H 
ATOM    111  C   UNL A   1      42.331  28.801  34.137  1.00  0.00     0.037 A 
ATOM    112  H   UNL A   1      40.622  29.658  36.390  1.00  0.00     0.065 H 
BRANCH  93 113
ATOM    113  C   UNL A   1      43.511  26.116  28.783  1.00  0.00     0.064 A 
ATOM    114  C   UNL A   1      43.796  26.434  27.436  1.00  0.00     0.173 A 
ATOM    115  C   UNL A   1      44.017  24.864  29.195  1.00  0.00     0.173 A 
ATOM    116  F   UNL A   1      43.419  27.601  26.896  1.00  0.00    -0.203 F 
ATOM    117  C   UNL A   1      44.465  25.555  26.574  1.00  0.00     0.198 A 
ATOM    118  C   UNL A   1      44.703  23.996  28.341  1.00  0.00     0.198 A 
ATOM    119  F   UNL A   1      43.863  24.390  30.430  1.00  0.00    -0.203 F 
ATOM    120  F   UNL A   1      44.655  25.897  25.292  1.00  0.00    -0.200 F 
ATOM    121  C   UNL A   1      44.913  24.332  27.025  1.00  0.00     0.200 A 
ATOM    122  F   UNL A   1      45.137  22.817  28.811  1.00  0.00    -0.200 F 
ATOM    123  F   UNL A   1      45.536  23.481  26.201  1.00  0.00    -0.200 F 
ENDBRANCH  93 113
BRANCH  96 124
ATOM    124  C   UNL A   1      37.915  32.754  33.072  1.00  0.00     0.064 A 
ATOM    125  C   UNL A   1      37.532  34.106  33.157  1.00  0.00     0.173 A 
ATOM    126  C   UNL A   1      36.941  31.822  32.700  1.00  0.00     0.173 A 
ATOM    127  F   UNL A   1      38.433  35.037  33.509  1.00  0.00    -0.203 F 
ATOM    128  C   UNL A   1      36.266  34.522  32.757  1.00  0.00     0.198 A 
ATOM    129  C   UNL A   1      35.668  32.241  32.315  1.00  0.00     0.198 A 
ATOM    130  F   UNL A   1      37.253  30.523  32.586  1.00  0.00    -0.203 F 
ATOM    131  F   UNL A   1      35.970  35.829  32.730  1.00  0.00    -0.200 F 
ATOM    132  C   UNL A   1      35.345  33.591  32.306  1.00  0.00     0.200 A 
ATOM    133  F   UNL A   1      34.784  31.344  31.857  1.00  0.00    -0.200 F 
ATOM    134  F   UNL A   1      34.162  33.997  31.825  1.00  0.00    -0.200 F 
ENDBRANCH  96 124
BRANCH 111 135
ATOM    135  C   UNL A   1      42.693  27.794  35.184  1.00  0.00     0.064 A 
ATOM    136  C   UNL A   1      43.808  27.955  36.019  1.00  0.00     0.173 A 
ATOM    137  C   UNL A   1      42.000  26.571  35.289  1.00  0.00     0.173 A 
ATOM    138  F   UNL A   1      44.539  29.078  35.971  1.00  0.00    -0.203 F 
ATOM    139  C   UNL A   1      44.201  26.955  36.912  1.00  0.00     0.198 A 
ATOM    140  C   UNL A   1      42.423  25.555  36.144  1.00  0.00     0.198 A 
ATOM    141  F   UNL A   1      40.883  26.343  34.581  1.00  0.00    -0.203 F 
ATOM    142  F   UNL A   1      45.251  27.159  37.719  1.00  0.00    -0.200 F 
ATOM    143  C   UNL A   1      43.521  25.750  36.959  1.00  0.00     0.200 A 
ATOM    144  F   UNL A   1      41.760  24.391  36.173  1.00  0.00    -0.200 F 
ATOM    145  F   UNL A   1      43.919  24.779  37.793  1.00  0.00    -0.200 F 
ENDBRANCH 111 135
ENDBRANCH  76  79
ENDBRANCH  66  69
ENDBRANCH  62  65
ENDBRANCH  59  62
ENDBRANCH  56  59
ENDBRANCH   1  56
TORSDOF 17
ENDMDL
MODEL 8
REMARK VINA RESULT:     -12.3      3.498      9.595
REMARK SMILES Cc1ccc(-c2nn(-c3ccccc3)cc2[C@@H]2[NH2+][C@H](C(=O)NCCCCCCNC(=O)c3ccc(-c4c5nc(c(-c6c(F)c(F)c(F)c(F)c6F)c6ccc([nH]6)c(-c6c(F)c(F)c(F)c(F)c6F)c6nc(c(-c7c(F)c(F)c(F)c(F)c7F)c7ccc4[nH]7)C=C6)C=C5)cc3)CS2)cc1
REMARK SMILES IDX 25 1 24 4 23 7 22 10 20 11 21 12 19 14 17 15 18 16 96 17
REMARK SMILES IDX 95 21 16 25 6 26 7 27 8 28 15 29 5 31 2 32 3 33 98 34 4 35
REMARK SMILES IDX 97 37 1 41 9 45 10 46 14 47 11 48 13 50 12 52 26 56 27 59
REMARK SMILES IDX 28 62 29 65 30 66 31 68 32 69 33 70 94 71 34 72 93 74 35 76
REMARK SMILES IDX 36 79 37 80 87 81 38 82 92 83 86 84 88 85 39 86 91 87 85 89
REMARK SMILES IDX 84 91 40 93 72 96 52 97 71 98 53 99 56 100 70 101 89 102
REMARK SMILES IDX 54 103 55 105 69 107 90 108 57 111 41 113 42 114 50 115
REMARK SMILES IDX 43 116 44 117 48 118 51 119 45 120 46 121 49 122 47 123
REMARK SMILES IDX 73 124 74 125 82 126 75 127 76 128 80 129 83 130 77 131
REMARK SMILES IDX 78 132 81 133 79 134 58 135 59 136 67 137 60 138 61 139
REMARK SMILES IDX 65 140 68 141 62 142 63 143 66 144 64 145
REMARK H PARENT 25 2 25 3 24 5 24 6 23 8 23 9 22 13 17 18 18 19 18 20 19 22
REMARK H PARENT 95 23 95 24 15 30 3 36 98 38 4 39 97 40 1 42 1 43 1 44 10 49
REMARK H PARENT 14 51 11 53 13 54 12 55 26 57 26 58 27 60 27 61 28 63 28 64
REMARK H PARENT 29 67 33 73 94 75 34 77 93 78 92 88 86 90 88 92 91 94 85 95
REMARK H PARENT 53 104 56 106 89 109 54 110 90 112
REMARK Flexibility Score: inf
ROOT
ATOM      1  C   UNL A   1      34.622  20.688  25.294  1.00  0.00    -0.052 C 
ATOM      2  H   UNL A   1      34.278  19.815  25.807  1.00  0.00     0.027 H 
ATOM      3  H   UNL A   1      34.691  21.641  25.777  1.00  0.00     0.027 H 
ENDROOT
BRANCH   1   4
ATOM      4  C   UNL A   1      33.533  20.999  24.230  1.00  0.00    -0.036 C 
ATOM      5  H   UNL A   1      33.801  20.429  23.365  1.00  0.00     0.028 H 
ATOM      6  H   UNL A   1      32.642  20.774  24.777  1.00  0.00     0.028 H 
BRANCH   4   7
ATOM      7  C   UNL A   1      33.218  22.406  23.719  1.00  0.00     0.018 C 
ATOM      8  H   UNL A   1      33.640  22.495  22.740  1.00  0.00     0.049 H 
ATOM      9  H   UNL A   1      32.152  22.483  23.762  1.00  0.00     0.049 H 
BRANCH   7  10
ATOM     10  N   UNL A   1      33.708  23.526  24.509  1.00  0.00    -0.351 N 
ATOM     11  C   UNL A   1      33.069  24.436  25.307  1.00  0.00     0.279 C 
ATOM     12  O   UNL A   1      33.816  25.077  26.066  1.00  0.00    -0.268 OA
ATOM     13  H   UNL A   1      34.683  23.652  24.461  1.00  0.00     0.163 HD
BRANCH  11  14
ATOM     14  C   UNL A   1      31.554  24.793  25.340  1.00  0.00     0.176 C 
ATOM     15  C   UNL A   1      30.518  26.911  25.907  1.00  0.00     0.163 C 
ATOM     16  N   UNL A   1      31.080  25.666  26.441  1.00  0.00    -0.320 N 
ATOM     17  S   UNL A   1      29.765  26.478  24.329  1.00  0.00    -0.087 SA
ATOM     18  H   UNL A   1      29.767  27.356  26.526  1.00  0.00     0.115 H 
ATOM     19  H   UNL A   1      30.362  25.174  26.973  1.00  0.00     0.348 HD
ATOM     20  H   UNL A   1      31.870  25.894  27.045  1.00  0.00     0.348 HD
ATOM     21  C   UNL A   1      31.053  25.261  23.966  1.00  0.00     0.061 C 
ATOM     22  H   UNL A   1      31.094  23.859  25.583  1.00  0.00     0.108 H 
ATOM     23  H   UNL A   1      30.650  24.439  23.413  1.00  0.00     0.045 H 
ATOM     24  H   UNL A   1      31.840  25.673  23.370  1.00  0.00     0.045 H 
BRANCH  15  25
ATOM     25  C   UNL A   1      31.615  27.921  25.810  1.00  0.00     0.067 A 
ATOM     26  C   UNL A   1      31.713  29.062  24.930  1.00  0.00     0.103 A 
ATOM     27  N   UNL A   1      32.869  29.734  25.157  1.00  0.00    -0.167 NA
ATOM     28  N   UNL A   1      33.388  29.162  26.275  1.00  0.00    -0.240 N 
ATOM     29  C   UNL A   1      32.743  28.010  26.601  1.00  0.00     0.041 A 
ATOM     30  H   UNL A   1      33.043  27.324  27.311  1.00  0.00     0.085 H 
BRANCH  26  31
ATOM     31  C   UNL A   1      30.722  29.531  23.929  1.00  0.00     0.003 A 
ATOM     32  C   UNL A   1      28.880  30.503  21.983  1.00  0.00    -0.051 A 
ATOM     33  C   UNL A   1      29.843  29.562  21.634  1.00  0.00    -0.059 A 
ATOM     34  C   UNL A   1      28.809  30.920  23.317  1.00  0.00    -0.059 A 
ATOM     35  C   UNL A   1      30.745  29.089  22.594  1.00  0.00    -0.052 A 
ATOM     36  H   UNL A   1      29.892  29.209  20.666  1.00  0.00     0.063 H 
ATOM     37  C   UNL A   1      29.714  30.434  24.281  1.00  0.00    -0.052 A 
ATOM     38  H   UNL A   1      28.082  31.595  23.599  1.00  0.00     0.063 H 
ATOM     39  H   UNL A   1      31.453  28.392  22.312  1.00  0.00     0.063 H 
ATOM     40  H   UNL A   1      29.632  30.750  25.259  1.00  0.00     0.063 H 
BRANCH  32  41
ATOM     41  C   UNL A   1      27.956  31.037  20.927  1.00  0.00    -0.040 C 
ATOM     42  H   UNL A   1      28.308  30.738  19.961  1.00  0.00     0.028 H 
ATOM     43  H   UNL A   1      27.930  32.105  20.983  1.00  0.00     0.028 H 
ATOM     44  H   UNL A   1      26.972  30.647  21.085  1.00  0.00     0.028 H 
ENDBRANCH  32  41
ENDBRANCH  26  31
BRANCH  28  45
ATOM     45  C   UNL A   1      34.297  29.820  27.137  1.00  0.00     0.065 A 
ATOM     46  C   UNL A   1      34.082  31.176  27.457  1.00  0.00    -0.036 A 
ATOM     47  C   UNL A   1      35.386  29.137  27.671  1.00  0.00    -0.036 A 
ATOM     48  C   UNL A   1      35.009  31.867  28.236  1.00  0.00    -0.060 A 
ATOM     49  H   UNL A   1      33.236  31.657  27.115  1.00  0.00     0.065 H 
ATOM     50  C   UNL A   1      36.260  29.818  28.527  1.00  0.00    -0.060 A 
ATOM     51  H   UNL A   1      35.545  28.144  27.441  1.00  0.00     0.065 H 
ATOM     52  C   UNL A   1      36.091  31.184  28.782  1.00  0.00    -0.062 A 
ATOM     53  H   UNL A   1      34.893  32.878  28.406  1.00  0.00     0.062 H 
ATOM     54  H   UNL A   1      37.036  29.307  28.974  1.00  0.00     0.062 H 
ATOM     55  H   UNL A   1      36.771  31.685  29.375  1.00  0.00     0.062 H 
ENDBRANCH  28  45
ENDBRANCH  15  25
ENDBRANCH  11  14
ENDBRANCH   7  10
ENDBRANCH   4   7
ENDBRANCH   1   4
BRANCH   1  56
ATOM     56  C   UNL A   1      36.108  20.427  24.995  1.00  0.00    -0.052 C 
ATOM     57  H   UNL A   1      36.153  19.617  24.296  1.00  0.00     0.027 H 
ATOM     58  H   UNL A   1      36.541  20.240  25.956  1.00  0.00     0.027 H 
BRANCH  56  59
ATOM     59  C   UNL A   1      36.946  21.571  24.419  1.00  0.00    -0.036 C 
ATOM     60  H   UNL A   1      36.283  22.193  23.853  1.00  0.00     0.028 H 
ATOM     61  H   UNL A   1      37.717  21.078  23.865  1.00  0.00     0.028 H 
BRANCH  59  62
ATOM     62  C   UNL A   1      37.701  22.481  25.388  1.00  0.00     0.018 C 
ATOM     63  H   UNL A   1      37.082  22.632  26.248  1.00  0.00     0.049 H 
ATOM     64  H   UNL A   1      37.914  23.377  24.843  1.00  0.00     0.049 H 
BRANCH  62  65
ATOM     65  N   UNL A   1      39.004  21.973  25.852  1.00  0.00    -0.352 N 
ATOM     66  C   UNL A   1      40.029  22.680  26.481  1.00  0.00     0.251 C 
ATOM     67  H   UNL A   1      39.172  21.015  25.699  1.00  0.00     0.163 HD
ATOM     68  O   UNL A   1      41.076  22.161  26.813  1.00  0.00    -0.269 OA
BRANCH  66  69
ATOM     69  C   UNL A   1      39.747  24.089  26.840  1.00  0.00     0.039 A 
ATOM     70  C   UNL A   1      40.314  25.067  26.017  1.00  0.00    -0.049 A 
ATOM     71  C   UNL A   1      39.371  24.364  28.151  1.00  0.00    -0.049 A 
ATOM     72  C   UNL A   1      40.807  26.222  26.608  1.00  0.00    -0.053 A 
ATOM     73  H   UNL A   1      40.364  24.933  24.995  1.00  0.00     0.063 H 
ATOM     74  C   UNL A   1      39.941  25.468  28.753  1.00  0.00    -0.053 A 
ATOM     75  H   UNL A   1      38.696  23.768  28.653  1.00  0.00     0.063 H 
ATOM     76  C   UNL A   1      40.744  26.336  27.996  1.00  0.00    -0.014 A 
ATOM     77  H   UNL A   1      41.210  26.979  26.034  1.00  0.00     0.063 H 
ATOM     78  H   UNL A   1      39.777  25.654  29.755  1.00  0.00     0.063 H 
BRANCH  76  79
ATOM     79  C   UNL A   1      41.588  27.252  28.754  1.00  0.00     0.031 A 
ATOM     80  C   UNL A   1      41.097  28.607  29.060  1.00  0.00     0.074 A 
ATOM     81  C   UNL A   1      42.800  26.860  29.210  1.00  0.00     0.049 A 
ATOM     82  N   UNL A   1      41.856  29.584  29.425  1.00  0.00    -0.248 NA
ATOM     83  C   UNL A   1      39.707  28.998  28.865  1.00  0.00    -0.034 C 
ATOM     84  C   UNL A   1      43.628  27.534  30.207  1.00  0.00    -0.036 A 
ATOM     85  N   UNL A   1      43.635  25.858  28.688  1.00  0.00    -0.354 N 
ATOM     86  C   UNL A   1      41.047  30.639  29.769  1.00  0.00     0.074 A 
ATOM     87  C   UNL A   1      39.746  30.271  29.268  1.00  0.00    -0.034 C 
ATOM     88  H   UNL A   1      38.911  28.444  28.514  1.00  0.00     0.065 H 
ATOM     89  C   UNL A   1      44.904  27.162  30.038  1.00  0.00    -0.036 A 
ATOM     90  H   UNL A   1      43.285  28.192  30.925  1.00  0.00     0.065 H 
ATOM     91  C   UNL A   1      44.960  26.338  28.847  1.00  0.00     0.049 A 
ATOM     92  H   UNL A   1      43.357  25.001  28.293  1.00  0.00     0.167 HD
ATOM     93  C   UNL A   1      41.571  31.632  30.542  1.00  0.00     0.037 A 
ATOM     94  H   UNL A   1      38.941  30.916  29.225  1.00  0.00     0.065 H 
ATOM     95  H   UNL A   1      45.700  27.415  30.644  1.00  0.00     0.065 H 
ATOM     96  C   UNL A   1      45.768  26.559  27.771  1.00  0.00     0.037 A 
ATOM     97  C   UNL A   1      43.036  31.544  30.580  1.00  0.00     0.049 A 
ATOM     98  C   UNL A   1      46.214  27.995  27.595  1.00  0.00     0.074 A 
ATOM     99  C   UNL A   1      43.977  31.138  31.512  1.00  0.00    -0.036 A 
ATOM    100  N   UNL A   1      43.726  31.692  29.388  1.00  0.00    -0.354 N 
ATOM    101  N   UNL A   1      45.838  28.979  28.363  1.00  0.00    -0.248 NA
ATOM    102  C   UNL A   1      47.033  28.451  26.469  1.00  0.00    -0.034 C 
ATOM    103  C   UNL A   1      45.236  31.016  30.847  1.00  0.00    -0.036 A 
ATOM    104  H   UNL A   1      43.799  30.954  32.512  1.00  0.00     0.065 H 
ATOM    105  C   UNL A   1      45.059  31.362  29.519  1.00  0.00     0.049 A 
ATOM    106  H   UNL A   1      43.316  31.997  28.547  1.00  0.00     0.167 HD
ATOM    107  C   UNL A   1      46.260  30.162  27.821  1.00  0.00     0.074 A 
ATOM    108  C   UNL A   1      47.020  29.784  26.645  1.00  0.00    -0.034 C 
ATOM    109  H   UNL A   1      47.496  27.896  25.733  1.00  0.00     0.065 H 
ATOM    110  H   UNL A   1      46.123  30.722  31.283  1.00  0.00     0.065 H 
ATOM    111  C   UNL A   1      45.908  31.372  28.339  1.00  0.00     0.037 A 
ATOM    112  H   UNL A   1      47.494  30.455  26.021  1.00  0.00     0.065 H 
BRANCH  93 113
ATOM    113  C   UNL A   1      40.776  32.595  31.410  1.00  0.00     0.064 A 
ATOM    114  C   UNL A   1      40.751  32.418  32.812  1.00  0.00     0.173 A 
ATOM    115  C   UNL A   1      39.932  33.628  30.949  1.00  0.00     0.173 A 
ATOM    116  F   UNL A   1      41.522  31.503  33.417  1.00  0.00    -0.203 F 
ATOM    117  C   UNL A   1      39.915  33.160  33.656  1.00  0.00     0.198 A 
ATOM    118  C   UNL A   1      39.113  34.383  31.793  1.00  0.00     0.198 A 
ATOM    119  F   UNL A   1      39.825  33.957  29.663  1.00  0.00    -0.203 F 
ATOM    120  F   UNL A   1      39.901  32.903  34.971  1.00  0.00    -0.200 F 
ATOM    121  C   UNL A   1      39.090  34.139  33.145  1.00  0.00     0.200 A 
ATOM    122  F   UNL A   1      38.329  35.336  31.269  1.00  0.00    -0.200 F 
ATOM    123  F   UNL A   1      38.275  34.838  33.945  1.00  0.00    -0.200 F 
ENDBRANCH  93 113
BRANCH  96 124
ATOM    124  C   UNL A   1      45.504  25.603  26.665  1.00  0.00     0.064 A 
ATOM    125  C   UNL A   1      46.022  24.299  26.781  1.00  0.00     0.173 A 
ATOM    126  C   UNL A   1      44.458  25.811  25.760  1.00  0.00     0.173 A 
ATOM    127  F   UNL A   1      47.026  24.050  27.636  1.00  0.00    -0.203 F 
ATOM    128  C   UNL A   1      45.428  23.227  26.121  1.00  0.00     0.198 A 
ATOM    129  C   UNL A   1      43.875  24.736  25.089  1.00  0.00     0.198 A 
ATOM    130  F   UNL A   1      43.914  27.029  25.620  1.00  0.00    -0.203 F 
ATOM    131  F   UNL A   1      45.863  21.979  26.348  1.00  0.00    -0.200 F 
ATOM    132  C   UNL A   1      44.334  23.443  25.300  1.00  0.00     0.200 A 
ATOM    133  F   UNL A   1      42.803  24.942  24.312  1.00  0.00    -0.200 F 
ATOM    134  F   UNL A   1      43.697  22.404  24.744  1.00  0.00    -0.200 F 
ENDBRANCH  96 124
BRANCH 111 135
ATOM    135  C   UNL A   1      46.344  32.675  27.744  1.00  0.00     0.064 A 
ATOM    136  C   UNL A   1      45.749  33.202  26.588  1.00  0.00     0.173 A 
ATOM    137  C   UNL A   1      47.463  33.369  28.247  1.00  0.00     0.173 A 
ATOM    138  F   UNL A   1      44.693  32.594  26.027  1.00  0.00    -0.203 F 
ATOM    139  C   UNL A   1      46.241  34.358  25.977  1.00  0.00     0.198 A 
ATOM    140  C   UNL A   1      47.982  34.493  27.609  1.00  0.00     0.198 A 
ATOM    141  F   UNL A   1      48.063  32.984  29.384  1.00  0.00    -0.203 F 
ATOM    142  F   UNL A   1      45.625  34.851  24.894  1.00  0.00    -0.200 F 
ATOM    143  C   UNL A   1      47.367  34.990  26.476  1.00  0.00     0.200 A 
ATOM    144  F   UNL A   1      49.078  35.089  28.098  1.00  0.00    -0.200 F 
ATOM    145  F   UNL A   1      47.857  36.081  25.870  1.00  0.00    -0.200 F 
ENDBRANCH 111 135
ENDBRANCH  76  79
ENDBRANCH  66  69
ENDBRANCH  62  65
ENDBRANCH  59  62
ENDBRANCH  56  59
ENDBRANCH   1  56
TORSDOF 17
ENDMDL
MODEL 9
REMARK VINA RESULT:     -12.2      3.368      9.103
REMARK SMILES Cc1ccc(-c2nn(-c3ccccc3)cc2[C@@H]2[NH2+][C@H](C(=O)NCCCCCCNC(=O)c3ccc(-c4c5nc(c(-c6c(F)c(F)c(F)c(F)c6F)c6ccc([nH]6)c(-c6c(F)c(F)c(F)c(F)c6F)c6nc(c(-c7c(F)c(F)c(F)c(F)c7F)c7ccc4[nH]7)C=C6)C=C5)cc3)CS2)cc1
REMARK SMILES IDX 25 1 24 4 23 7 22 10 20 11 21 12 19 14 17 15 18 16 96 17
REMARK SMILES IDX 95 21 16 25 6 26 7 27 8 28 15 29 5 31 2 32 3 33 98 34 4 35
REMARK SMILES IDX 97 37 1 41 9 45 10 46 14 47 11 48 13 50 12 52 26 56 27 59
REMARK SMILES IDX 28 62 29 65 30 66 31 68 32 69 33 70 94 71 34 72 93 74 35 76
REMARK SMILES IDX 36 79 37 80 87 81 38 82 92 83 86 84 88 85 39 86 91 87 85 89
REMARK SMILES IDX 84 91 40 93 72 96 52 97 71 98 53 99 56 100 70 101 89 102
REMARK SMILES IDX 54 103 55 105 69 107 90 108 57 111 41 113 42 114 50 115
REMARK SMILES IDX 43 116 44 117 48 118 51 119 45 120 46 121 49 122 47 123
REMARK SMILES IDX 73 124 74 125 82 126 75 127 76 128 80 129 83 130 77 131
REMARK SMILES IDX 78 132 81 133 79 134 58 135 59 136 67 137 60 138 61 139
REMARK SMILES IDX 65 140 68 141 62 142 63 143 66 144 64 145
REMARK H PARENT 25 2 25 3 24 5 24 6 23 8 23 9 22 13 17 18 18 19 18 20 19 22
REMARK H PARENT 95 23 95 24 15 30 3 36 98 38 4 39 97 40 1 42 1 43 1 44 10 49
REMARK H PARENT 14 51 11 53 13 54 12 55 26 57 26 58 27 60 27 61 28 63 28 64
REMARK H PARENT 29 67 33 73 94 75 34 77 93 78 92 88 86 90 88 92 91 94 85 95
REMARK H PARENT 53 104 56 106 89 109 54 110 90 112
REMARK Flexibility Score: inf
ROOT
ATOM      1  C   UNL A   1      40.170  20.835  26.406  1.00  0.00    -0.052 C 
ATOM      2  H   UNL A   1      40.443  20.697  25.381  1.00  0.00     0.027 H 
ATOM      3  H   UNL A   1      39.245  20.470  26.804  1.00  0.00     0.027 H 
ENDROOT
BRANCH   1   4
ATOM      4  C   UNL A   1      39.955  22.366  26.574  1.00  0.00    -0.036 C 
ATOM      5  H   UNL A   1      40.305  22.602  27.558  1.00  0.00     0.028 H 
ATOM      6  H   UNL A   1      40.460  22.740  25.710  1.00  0.00     0.028 H 
BRANCH   4   7
ATOM      7  C   UNL A   1      38.595  23.054  26.441  1.00  0.00     0.018 C 
ATOM      8  H   UNL A   1      38.135  23.047  27.407  1.00  0.00     0.049 H 
ATOM      9  H   UNL A   1      38.814  24.025  26.050  1.00  0.00     0.049 H 
BRANCH   7  10
ATOM     10  N   UNL A   1      37.646  22.476  25.501  1.00  0.00    -0.351 N 
ATOM     11  C   UNL A   1      36.296  22.636  25.343  1.00  0.00     0.279 C 
ATOM     12  O   UNL A   1      35.846  22.223  24.261  1.00  0.00    -0.268 OA
ATOM     13  H   UNL A   1      38.052  21.853  24.856  1.00  0.00     0.163 HD
BRANCH  11  14
ATOM     14  C   UNL A   1      35.269  23.216  26.359  1.00  0.00     0.176 C 
ATOM     15  C   UNL A   1      32.864  22.907  26.413  1.00  0.00     0.163 C 
ATOM     16  N   UNL A   1      33.965  23.679  25.826  1.00  0.00    -0.320 N 
ATOM     17  S   UNL A   1      33.384  22.500  28.090  1.00  0.00    -0.087 SA
ATOM     18  H   UNL A   1      31.936  23.436  26.470  1.00  0.00     0.115 H 
ATOM     19  H   UNL A   1      33.841  24.666  26.053  1.00  0.00     0.348 HD
ATOM     20  H   UNL A   1      33.957  23.547  24.815  1.00  0.00     0.348 HD
ATOM     21  C   UNL A   1      35.110  22.305  27.586  1.00  0.00     0.061 C 
ATOM     22  H   UNL A   1      35.725  24.135  26.660  1.00  0.00     0.108 H 
ATOM     23  H   UNL A   1      35.769  22.613  28.370  1.00  0.00     0.045 H 
ATOM     24  H   UNL A   1      35.353  21.287  27.364  1.00  0.00     0.045 H 
BRANCH  15  25
ATOM     25  C   UNL A   1      32.603  21.720  25.543  1.00  0.00     0.067 A 
ATOM     26  C   UNL A   1      32.348  21.684  24.122  1.00  0.00     0.103 A 
ATOM     27  N   UNL A   1      32.163  20.406  23.709  1.00  0.00    -0.167 NA
ATOM     28  N   UNL A   1      32.488  19.644  24.786  1.00  0.00    -0.240 N 
ATOM     29  C   UNL A   1      32.620  20.391  25.915  1.00  0.00     0.041 A 
ATOM     30  H   UNL A   1      32.715  20.029  26.876  1.00  0.00     0.085 H 
BRANCH  26  31
ATOM     31  C   UNL A   1      32.322  22.823  23.171  1.00  0.00     0.003 A 
ATOM     32  C   UNL A   1      32.339  25.057  21.400  1.00  0.00    -0.051 A 
ATOM     33  C   UNL A   1      33.223  23.999  21.209  1.00  0.00    -0.059 A 
ATOM     34  C   UNL A   1      31.415  24.973  22.447  1.00  0.00    -0.059 A 
ATOM     35  C   UNL A   1      33.211  22.907  22.083  1.00  0.00    -0.052 A 
ATOM     36  H   UNL A   1      33.888  24.020  20.421  1.00  0.00     0.063 H 
ATOM     37  C   UNL A   1      31.401  23.865  23.318  1.00  0.00    -0.052 A 
ATOM     38  H   UNL A   1      30.733  25.734  22.584  1.00  0.00     0.063 H 
ATOM     39  H   UNL A   1      33.877  22.134  21.924  1.00  0.00     0.063 H 
ATOM     40  H   UNL A   1      30.702  23.824  24.075  1.00  0.00     0.063 H 
BRANCH  32  41
ATOM     41  C   UNL A   1      32.404  26.244  20.483  1.00  0.00    -0.040 C 
ATOM     42  H   UNL A   1      32.974  25.992  19.613  1.00  0.00     0.028 H 
ATOM     43  H   UNL A   1      32.872  27.062  20.991  1.00  0.00     0.028 H 
ATOM     44  H   UNL A   1      31.414  26.525  20.193  1.00  0.00     0.028 H 
ENDBRANCH  32  41
ENDBRANCH  26  31
BRANCH  28  45
ATOM     45  C   UNL A   1      32.902  18.294  24.689  1.00  0.00     0.065 A 
ATOM     46  C   UNL A   1      33.640  17.881  23.561  1.00  0.00    -0.036 A 
ATOM     47  C   UNL A   1      32.593  17.386  25.696  1.00  0.00    -0.036 A 
ATOM     48  C   UNL A   1      33.987  16.540  23.404  1.00  0.00    -0.060 A 
ATOM     49  H   UNL A   1      33.926  18.573  22.851  1.00  0.00     0.065 H 
ATOM     50  C   UNL A   1      33.026  16.060  25.571  1.00  0.00    -0.060 A 
ATOM     51  H   UNL A   1      32.055  17.684  26.524  1.00  0.00     0.065 H 
ATOM     52  C   UNL A   1      33.690  15.632  24.416  1.00  0.00    -0.062 A 
ATOM     53  H   UNL A   1      34.458  16.223  22.543  1.00  0.00     0.062 H 
ATOM     54  H   UNL A   1      32.854  15.392  26.338  1.00  0.00     0.062 H 
ATOM     55  H   UNL A   1      33.960  14.641  24.314  1.00  0.00     0.062 H 
ENDBRANCH  28  45
ENDBRANCH  15  25
ENDBRANCH  11  14
ENDBRANCH   7  10
ENDBRANCH   4   7
ENDBRANCH   1   4
BRANCH   1  56
ATOM     56  C   UNL A   1      41.166  19.985  27.212  1.00  0.00    -0.052 C 
ATOM     57  H   UNL A   1      40.623  19.154  27.612  1.00  0.00     0.027 H 
ATOM     58  H   UNL A   1      41.573  20.666  27.930  1.00  0.00     0.027 H 
BRANCH  56  59
ATOM     59  C   UNL A   1      42.392  19.421  26.490  1.00  0.00    -0.036 C 
ATOM     60  H   UNL A   1      42.093  18.499  26.033  1.00  0.00     0.028 H 
ATOM     61  H   UNL A   1      43.136  19.348  27.254  1.00  0.00     0.028 H 
BRANCH  59  62
ATOM     62  C   UNL A   1      43.051  20.269  25.402  1.00  0.00     0.018 C 
ATOM     63  H   UNL A   1      42.394  21.083  25.176  1.00  0.00     0.049 H 
ATOM     64  H   UNL A   1      43.223  19.608  24.578  1.00  0.00     0.049 H 
BRANCH  62  65
ATOM     65  N   UNL A   1      44.368  20.834  25.747  1.00  0.00    -0.352 N 
ATOM     66  C   UNL A   1      44.651  22.077  26.312  1.00  0.00     0.251 C 
ATOM     67  H   UNL A   1      45.146  20.261  25.553  1.00  0.00     0.163 HD
ATOM     68  O   UNL A   1      45.784  22.450  26.544  1.00  0.00    -0.269 OA
BRANCH  66  69
ATOM     69  C   UNL A   1      43.493  22.899  26.733  1.00  0.00     0.039 A 
ATOM     70  C   UNL A   1      43.223  24.036  25.964  1.00  0.00    -0.049 A 
ATOM     71  C   UNL A   1      43.060  22.787  28.051  1.00  0.00    -0.049 A 
ATOM     72  C   UNL A   1      42.810  25.190  26.615  1.00  0.00    -0.053 A 
ATOM     73  H   UNL A   1      43.328  24.016  24.938  1.00  0.00     0.063 H 
ATOM     74  C   UNL A   1      42.739  23.957  28.711  1.00  0.00    -0.053 A 
ATOM     75  H   UNL A   1      42.983  21.870  28.515  1.00  0.00     0.063 H 
ATOM     76  C   UNL A   1      42.718  25.170  28.006  1.00  0.00    -0.014 A 
ATOM     77  H   UNL A   1      42.577  26.043  26.083  1.00  0.00     0.063 H 
ATOM     78  H   UNL A   1      42.514  23.937  29.718  1.00  0.00     0.063 H 
BRANCH  76  79
ATOM     79  C   UNL A   1      42.729  26.382  28.817  1.00  0.00     0.031 A 
ATOM     80  C   UNL A   1      41.557  27.274  28.806  1.00  0.00     0.074 A 
ATOM     81  C   UNL A   1      43.787  26.677  29.608  1.00  0.00     0.049 A 
ATOM     82  N   UNL A   1      41.578  28.499  29.211  1.00  0.00    -0.248 NA
ATOM     83  C   UNL A   1      40.281  26.882  28.222  1.00  0.00    -0.034 C 
ATOM     84  C   UNL A   1      43.839  27.670  30.677  1.00  0.00    -0.036 A 
ATOM     85  N   UNL A   1      45.121  26.268  29.450  1.00  0.00    -0.354 N 
ATOM     86  C   UNL A   1      40.288  28.969  29.197  1.00  0.00     0.074 A 
ATOM     87  C   UNL A   1      39.555  27.981  28.445  1.00  0.00    -0.034 C 
ATOM     88  H   UNL A   1      40.011  25.998  27.763  1.00  0.00     0.065 H 
ATOM     89  C   UNL A   1      45.116  28.024  30.881  1.00  0.00    -0.036 A 
ATOM     90  H   UNL A   1      43.025  28.040  31.192  1.00  0.00     0.065 H 
ATOM     91  C   UNL A   1      45.914  27.368  29.865  1.00  0.00     0.049 A 
ATOM     92  H   UNL A   1      45.440  25.397  29.119  1.00  0.00     0.167 HD
ATOM     93  C   UNL A   1      39.995  30.078  29.933  1.00  0.00     0.037 A 
ATOM     94  H   UNL A   1      38.584  28.109  28.117  1.00  0.00     0.065 H 
ATOM     95  H   UNL A   1      45.466  28.648  31.625  1.00  0.00     0.065 H 
ATOM     96  C   UNL A   1      46.764  27.995  29.001  1.00  0.00     0.037 A 
ATOM     97  C   UNL A   1      41.223  30.770  30.344  1.00  0.00     0.049 A 
ATOM     98  C   UNL A   1      46.450  29.454  28.747  1.00  0.00     0.074 A 
ATOM     99  C   UNL A   1      41.933  30.903  31.526  1.00  0.00    -0.036 A 
ATOM    100  N   UNL A   1      42.047  31.274  29.351  1.00  0.00    -0.354 N 
ATOM    101  N   UNL A   1      45.430  30.084  29.258  1.00  0.00    -0.248 NA
ATOM    102  C   UNL A   1      47.204  30.288  27.808  1.00  0.00    -0.034 C 
ATOM    103  C   UNL A   1      43.208  31.469  31.216  1.00  0.00    -0.036 A 
ATOM    104  H   UNL A   1      41.599  30.640  32.466  1.00  0.00     0.065 H 
ATOM    105  C   UNL A   1      43.263  31.690  29.851  1.00  0.00     0.049 A 
ATOM    106  H   UNL A   1      41.795  31.331  28.400  1.00  0.00     0.167 HD
ATOM    107  C   UNL A   1      45.328  31.320  28.681  1.00  0.00     0.074 A 
ATOM    108  C   UNL A   1      46.470  31.414  27.793  1.00  0.00    -0.034 C 
ATOM    109  H   UNL A   1      48.070  30.068  27.292  1.00  0.00     0.065 H 
ATOM    110  H   UNL A   1      43.957  31.677  31.893  1.00  0.00     0.065 H 
ATOM    111  C   UNL A   1      44.282  32.160  28.927  1.00  0.00     0.037 A 
ATOM    112  H   UNL A   1      46.692  32.243  27.219  1.00  0.00     0.065 H 
BRANCH  93 113
ATOM    113  C   UNL A   1      38.615  30.469  30.438  1.00  0.00     0.064 A 
ATOM    114  C   UNL A   1      37.625  30.889  29.522  1.00  0.00     0.173 A 
ATOM    115  C   UNL A   1      38.222  30.568  31.790  1.00  0.00     0.173 A 
ATOM    116  F   UNL A   1      37.822  30.825  28.197  1.00  0.00    -0.203 F 
ATOM    117  C   UNL A   1      36.391  31.417  29.926  1.00  0.00     0.198 A 
ATOM    118  C   UNL A   1      36.983  31.074  32.193  1.00  0.00     0.198 A 
ATOM    119  F   UNL A   1      39.009  30.210  32.803  1.00  0.00    -0.203 F 
ATOM    120  F   UNL A   1      35.519  31.848  29.004  1.00  0.00    -0.200 F 
ATOM    121  C   UNL A   1      36.072  31.516  31.263  1.00  0.00     0.200 A 
ATOM    122  F   UNL A   1      36.696  31.149  33.501  1.00  0.00    -0.200 F 
ATOM    123  F   UNL A   1      34.903  32.037  31.654  1.00  0.00    -0.200 F 
ENDBRANCH  93 113
BRANCH  96 124
ATOM    124  C   UNL A   1      47.344  27.058  28.005  1.00  0.00     0.064 A 
ATOM    125  C   UNL A   1      46.745  26.993  26.732  1.00  0.00     0.173 A 
ATOM    126  C   UNL A   1      48.652  26.579  28.136  1.00  0.00     0.173 A 
ATOM    127  F   UNL A   1      45.492  27.442  26.558  1.00  0.00    -0.203 F 
ATOM    128  C   UNL A   1      47.471  26.592  25.615  1.00  0.00     0.198 A 
ATOM    129  C   UNL A   1      49.371  26.163  27.015  1.00  0.00     0.198 A 
ATOM    130  F   UNL A   1      49.279  26.632  29.320  1.00  0.00    -0.203 F 
ATOM    131  F   UNL A   1      46.914  26.659  24.397  1.00  0.00    -0.200 F 
ATOM    132  C   UNL A   1      48.794  26.207  25.753  1.00  0.00     0.200 A 
ATOM    133  F   UNL A   1      50.657  25.811  27.145  1.00  0.00    -0.200 F 
ATOM    134  F   UNL A   1      49.525  25.917  24.669  1.00  0.00    -0.200 F 
ENDBRANCH  96 124
BRANCH 111 135
ATOM    135  C   UNL A   1      44.146  33.506  28.286  1.00  0.00     0.064 A 
ATOM    136  C   UNL A   1      44.207  34.694  29.029  1.00  0.00     0.173 A 
ATOM    137  C   UNL A   1      43.819  33.634  26.921  1.00  0.00     0.173 A 
ATOM    138  F   UNL A   1      44.490  34.666  30.340  1.00  0.00    -0.203 F 
ATOM    139  C   UNL A   1      43.963  35.937  28.439  1.00  0.00     0.198 A 
ATOM    140  C   UNL A   1      43.528  34.869  26.345  1.00  0.00     0.198 A 
ATOM    141  F   UNL A   1      43.798  32.565  26.110  1.00  0.00    -0.203 F 
ATOM    142  F   UNL A   1      44.066  37.054  29.172  1.00  0.00    -0.200 F 
ATOM    143  C   UNL A   1      43.605  36.021  27.104  1.00  0.00     0.200 A 
ATOM    144  F   UNL A   1      43.174  34.934  25.054  1.00  0.00    -0.200 F 
ATOM    145  F   UNL A   1      43.340  37.211  26.546  1.00  0.00    -0.200 F 
ENDBRANCH 111 135
ENDBRANCH  76  79
ENDBRANCH  66  69
ENDBRANCH  62  65
ENDBRANCH  59  62
ENDBRANCH  56  59
ENDBRANCH   1  56
TORSDOF 17
ENDMDL
MODEL 10
REMARK VINA RESULT:     -12.1      5.606      9.328
REMARK SMILES Cc1ccc(-c2nn(-c3ccccc3)cc2[C@@H]2[NH2+][C@H](C(=O)NCCCCCCNC(=O)c3ccc(-c4c5nc(c(-c6c(F)c(F)c(F)c(F)c6F)c6ccc([nH]6)c(-c6c(F)c(F)c(F)c(F)c6F)c6nc(c(-c7c(F)c(F)c(F)c(F)c7F)c7ccc4[nH]7)C=C6)C=C5)cc3)CS2)cc1
REMARK SMILES IDX 25 1 24 4 23 7 22 10 20 11 21 12 19 14 17 15 18 16 96 17
REMARK SMILES IDX 95 21 16 25 6 26 7 27 8 28 15 29 5 31 2 32 3 33 98 34 4 35
REMARK SMILES IDX 97 37 1 41 9 45 10 46 14 47 11 48 13 50 12 52 26 56 27 59
REMARK SMILES IDX 28 62 29 65 30 66 31 68 32 69 33 70 94 71 34 72 93 74 35 76
REMARK SMILES IDX 36 79 37 80 87 81 38 82 92 83 86 84 88 85 39 86 91 87 85 89
REMARK SMILES IDX 84 91 40 93 72 96 52 97 71 98 53 99 56 100 70 101 89 102
REMARK SMILES IDX 54 103 55 105 69 107 90 108 57 111 41 113 42 114 50 115
REMARK SMILES IDX 43 116 44 117 48 118 51 119 45 120 46 121 49 122 47 123
REMARK SMILES IDX 73 124 74 125 82 126 75 127 76 128 80 129 83 130 77 131
REMARK SMILES IDX 78 132 81 133 79 134 58 135 59 136 67 137 60 138 61 139
REMARK SMILES IDX 65 140 68 141 62 142 63 143 66 144 64 145
REMARK H PARENT 25 2 25 3 24 5 24 6 23 8 23 9 22 13 17 18 18 19 18 20 19 22
REMARK H PARENT 95 23 95 24 15 30 3 36 98 38 4 39 97 40 1 42 1 43 1 44 10 49
REMARK H PARENT 14 51 11 53 13 54 12 55 26 57 26 58 27 60 27 61 28 63 28 64
REMARK H PARENT 29 67 33 73 94 75 34 77 93 78 92 88 86 90 88 92 91 94 85 95
REMARK H PARENT 53 104 56 106 89 109 54 110 90 112
REMARK Flexibility Score: inf
ROOT
ATOM      1  C   UNL A   1      41.927  34.077  30.620  1.00  0.00    -0.052 C 
ATOM      2  H   UNL A   1      42.321  34.977  31.043  1.00  0.00     0.027 H 
ATOM      3  H   UNL A   1      41.975  33.139  31.132  1.00  0.00     0.027 H 
ENDROOT
BRANCH   1   4
ATOM      4  C   UNL A   1      42.832  33.765  29.395  1.00  0.00    -0.036 C 
ATOM      5  H   UNL A   1      43.620  33.143  29.767  1.00  0.00     0.028 H 
ATOM      6  H   UNL A   1      42.115  33.380  28.702  1.00  0.00     0.028 H 
BRANCH   4   7
ATOM      7  C   UNL A   1      43.516  34.838  28.545  1.00  0.00     0.018 C 
ATOM      8  H   UNL A   1      42.773  35.563  28.284  1.00  0.00     0.049 H 
ATOM      9  H   UNL A   1      44.315  35.205  29.155  1.00  0.00     0.049 H 
BRANCH   7  10
ATOM     10  N   UNL A   1      44.155  34.403  27.312  1.00  0.00    -0.351 N 
ATOM     11  C   UNL A   1      45.262  33.635  27.072  1.00  0.00     0.279 C 
ATOM     12  O   UNL A   1      45.361  33.214  25.907  1.00  0.00    -0.268 OA
ATOM     13  H   UNL A   1      43.705  34.720  26.496  1.00  0.00     0.163 HD
BRANCH  11  14
ATOM     14  C   UNL A   1      46.417  33.277  28.053  1.00  0.00     0.176 C 
ATOM     15  C   UNL A   1      47.159  31.082  28.769  1.00  0.00     0.163 C 
ATOM     16  N   UNL A   1      46.189  32.158  28.999  1.00  0.00    -0.320 N 
ATOM     17  S   UNL A   1      48.677  31.890  28.229  1.00  0.00    -0.087 SA
ATOM     18  H   UNL A   1      47.381  30.496  29.635  1.00  0.00     0.115 H 
ATOM     19  H   UNL A   1      46.289  32.501  29.955  1.00  0.00     0.348 HD
ATOM     20  H   UNL A   1      45.249  31.791  28.854  1.00  0.00     0.348 HD
ATOM     21  C   UNL A   1      47.764  33.162  27.324  1.00  0.00     0.061 C 
ATOM     22  H   UNL A   1      46.443  34.121  28.709  1.00  0.00     0.108 H 
ATOM     23  H   UNL A   1      48.288  34.094  27.353  1.00  0.00     0.045 H 
ATOM     24  H   UNL A   1      47.641  32.912  26.291  1.00  0.00     0.045 H 
BRANCH  15  25
ATOM     25  C   UNL A   1      46.580  30.130  27.773  1.00  0.00     0.067 A 
ATOM     26  C   UNL A   1      47.176  28.940  27.212  1.00  0.00     0.103 A 
ATOM     27  N   UNL A   1      46.321  28.350  26.341  1.00  0.00    -0.167 NA
ATOM     28  N   UNL A   1      45.151  29.023  26.495  1.00  0.00    -0.240 N 
ATOM     29  C   UNL A   1      45.312  30.157  27.228  1.00  0.00     0.041 A 
ATOM     30  H   UNL A   1      44.612  30.905  27.354  1.00  0.00     0.085 H 
BRANCH  26  31
ATOM     31  C   UNL A   1      48.503  28.351  27.523  1.00  0.00     0.003 A 
ATOM     32  C   UNL A   1      51.021  27.136  28.078  1.00  0.00    -0.051 A 
ATOM     33  C   UNL A   1      50.814  27.816  26.882  1.00  0.00    -0.059 A 
ATOM     34  C   UNL A   1      49.983  27.107  29.016  1.00  0.00    -0.059 A 
ATOM     35  C   UNL A   1      49.575  28.409  26.615  1.00  0.00    -0.052 A 
ATOM     36  H   UNL A   1      51.577  27.884  26.190  1.00  0.00     0.063 H 
ATOM     37  C   UNL A   1      48.741  27.714  28.745  1.00  0.00    -0.052 A 
ATOM     38  H   UNL A   1      50.130  26.633  29.921  1.00  0.00     0.063 H 
ATOM     39  H   UNL A   1      49.443  28.906  25.720  1.00  0.00     0.063 H 
ATOM     40  H   UNL A   1      47.997  27.688  29.459  1.00  0.00     0.063 H 
BRANCH  32  41
ATOM     41  C   UNL A   1      52.340  26.461  28.322  1.00  0.00    -0.040 C 
ATOM     42  H   UNL A   1      52.692  26.711  29.301  1.00  0.00     0.028 H 
ATOM     43  H   UNL A   1      53.049  26.791  27.592  1.00  0.00     0.028 H 
ATOM     44  H   UNL A   1      52.217  25.401  28.247  1.00  0.00     0.028 H 
ENDBRANCH  32  41
ENDBRANCH  26  31
BRANCH  28  45
ATOM     45  C   UNL A   1      43.887  28.476  26.168  1.00  0.00     0.065 A 
ATOM     46  C   UNL A   1      42.744  29.297  26.239  1.00  0.00    -0.036 A 
ATOM     47  C   UNL A   1      43.773  27.147  25.772  1.00  0.00    -0.036 A 
ATOM     48  C   UNL A   1      41.480  28.759  26.002  1.00  0.00    -0.060 A 
ATOM     49  H   UNL A   1      42.843  30.299  26.465  1.00  0.00     0.065 H 
ATOM     50  C   UNL A   1      42.508  26.642  25.449  1.00  0.00    -0.060 A 
ATOM     51  H   UNL A   1      44.608  26.543  25.717  1.00  0.00     0.065 H 
ATOM     52  C   UNL A   1      41.364  27.434  25.595  1.00  0.00    -0.062 A 
ATOM     53  H   UNL A   1      40.636  29.340  26.130  1.00  0.00     0.062 H 
ATOM     54  H   UNL A   1      42.419  25.676  25.099  1.00  0.00     0.062 H 
ATOM     55  H   UNL A   1      40.433  27.035  25.400  1.00  0.00     0.062 H 
ENDBRANCH  28  45
ENDBRANCH  15  25
ENDBRANCH  11  14
ENDBRANCH   7  10
ENDBRANCH   4   7
ENDBRANCH   1   4
BRANCH   1  56
ATOM     56  C   UNL A   1      40.404  34.283  30.569  1.00  0.00    -0.052 C 
ATOM     57  H   UNL A   1      40.230  35.279  30.220  1.00  0.00     0.027 H 
ATOM     58  H   UNL A   1      40.077  34.073  31.567  1.00  0.00     0.027 H 
BRANCH  56  59
ATOM     59  C   UNL A   1      39.572  33.343  29.694  1.00  0.00    -0.036 C 
ATOM     60  H   UNL A   1      40.220  32.970  28.927  1.00  0.00     0.028 H 
ATOM     61  H   UNL A   1      38.752  33.947  29.366  1.00  0.00     0.028 H 
BRANCH  59  62
ATOM     62  C   UNL A   1      38.909  32.132  30.350  1.00  0.00     0.018 C 
ATOM     63  H   UNL A   1      39.323  32.021  31.331  1.00  0.00     0.049 H 
ATOM     64  H   UNL A   1      39.103  31.304  29.701  1.00  0.00     0.049 H 
BRANCH  62  65
ATOM     65  N   UNL A   1      37.443  32.204  30.483  1.00  0.00    -0.352 N 
ATOM     66  C   UNL A   1      36.500  31.224  30.172  1.00  0.00     0.251 C 
ATOM     67  H   UNL A   1      37.084  33.051  30.836  1.00  0.00     0.163 HD
ATOM     68  O   UNL A   1      35.306  31.395  30.310  1.00  0.00    -0.269 OA
BRANCH  66  69
ATOM     69  C   UNL A   1      37.023  29.899  29.766  1.00  0.00     0.039 A 
ATOM     70  C   UNL A   1      37.321  29.004  30.798  1.00  0.00    -0.049 A 
ATOM     71  C   UNL A   1      37.611  29.788  28.509  1.00  0.00    -0.049 A 
ATOM     72  C   UNL A   1      38.448  28.203  30.673  1.00  0.00    -0.053 A 
ATOM     73  H   UNL A   1      36.716  28.940  31.631  1.00  0.00     0.063 H 
ATOM     74  C   UNL A   1      38.782  29.062  28.421  1.00  0.00    -0.053 A 
ATOM     75  H   UNL A   1      37.190  30.231  27.678  1.00  0.00     0.063 H 
ATOM     76  C   UNL A   1      39.248  28.356  29.541  1.00  0.00    -0.014 A 
ATOM     77  H   UNL A   1      38.689  27.512  31.400  1.00  0.00     0.063 H 
ATOM     78  H   UNL A   1      39.311  29.038  27.536  1.00  0.00     0.063 H 
BRANCH  76  79
ATOM     79  C   UNL A   1      40.639  27.921  29.491  1.00  0.00     0.031 A 
ATOM     80  C   UNL A   1      40.960  26.571  28.996  1.00  0.00     0.074 A 
ATOM     81  C   UNL A   1      41.639  28.755  29.859  1.00  0.00     0.049 A 
ATOM     82  N   UNL A   1      42.084  25.974  29.206  1.00  0.00    -0.248 NA
ATOM     83  C   UNL A   1      39.982  25.735  28.313  1.00  0.00    -0.034 C 
ATOM     84  C   UNL A   1      43.067  28.588  29.601  1.00  0.00    -0.036 A 
ATOM     85  N   UNL A   1      41.573  29.841  30.747  1.00  0.00    -0.354 N 
ATOM     86  C   UNL A   1      42.085  24.811  28.477  1.00  0.00     0.074 A 
ATOM     87  C   UNL A   1      40.714  24.646  28.063  1.00  0.00    -0.034 C 
ATOM     88  H   UNL A   1      38.995  25.930  28.084  1.00  0.00     0.065 H 
ATOM     89  C   UNL A   1      43.759  29.299  30.503  1.00  0.00    -0.036 A 
ATOM     90  H   UNL A   1      43.476  28.015  28.847  1.00  0.00     0.065 H 
ATOM     91  C   UNL A   1      42.805  29.842  31.449  1.00  0.00     0.049 A 
ATOM     92  H   UNL A   1      40.825  30.472  30.859  1.00  0.00     0.167 HD
ATOM     93  C   UNL A   1      43.281  24.208  28.222  1.00  0.00     0.037 A 
ATOM     94  H   UNL A   1      40.343  23.787  27.627  1.00  0.00     0.065 H 
ATOM     95  H   UNL A   1      44.782  29.433  30.520  1.00  0.00     0.065 H 
ATOM     96  C   UNL A   1      42.850  29.673  32.802  1.00  0.00     0.037 A 
ATOM     97  C   UNL A   1      44.335  24.755  29.085  1.00  0.00     0.049 A 
ATOM     98  C   UNL A   1      43.603  28.443  33.264  1.00  0.00     0.074 A 
ATOM     99  C   UNL A   1      45.408  25.613  28.909  1.00  0.00    -0.036 A 
ATOM    100  N   UNL A   1      44.201  24.594  30.454  1.00  0.00    -0.354 N 
ATOM    101  N   UNL A   1      44.139  27.567  32.461  1.00  0.00    -0.248 NA
ATOM    102  C   UNL A   1      43.715  28.049  34.670  1.00  0.00    -0.034 C 
ATOM    103  C   UNL A   1      45.893  25.986  30.201  1.00  0.00    -0.036 A 
ATOM    104  H   UNL A   1      45.790  25.929  28.005  1.00  0.00     0.065 H 
ATOM    105  C   UNL A   1      45.124  25.343  31.154  1.00  0.00     0.049 A 
ATOM    106  H   UNL A   1      43.528  24.014  30.878  1.00  0.00     0.167 HD
ATOM    107  C   UNL A   1      44.569  26.491  33.189  1.00  0.00     0.074 A 
ATOM    108  C   UNL A   1      44.301  26.844  34.570  1.00  0.00    -0.034 C 
ATOM    109  H   UNL A   1      43.421  28.562  35.516  1.00  0.00     0.065 H 
ATOM    110  H   UNL A   1      46.682  26.624  30.389  1.00  0.00     0.065 H 
ATOM    111  C   UNL A   1      45.061  25.361  32.607  1.00  0.00     0.037 A 
ATOM    112  H   UNL A   1      44.532  26.243  35.377  1.00  0.00     0.065 H 
BRANCH  93 113
ATOM    113  C   UNL A   1      43.561  23.240  27.082  1.00  0.00     0.064 A 
ATOM    114  C   UNL A   1      42.900  21.992  27.043  1.00  0.00     0.173 A 
ATOM    115  C   UNL A   1      44.531  23.406  26.070  1.00  0.00     0.173 A 
ATOM    116  F   UNL A   1      41.925  21.687  27.911  1.00  0.00    -0.203 F 
ATOM    117  C   UNL A   1      43.226  20.989  26.121  1.00  0.00     0.198 A 
ATOM    118  C   UNL A   1      44.842  22.413  25.137  1.00  0.00     0.198 A 
ATOM    119  F   UNL A   1      45.252  24.516  25.932  1.00  0.00    -0.203 F 
ATOM    120  F   UNL A   1      42.597  19.807  26.175  1.00  0.00    -0.200 F 
ATOM    121  C   UNL A   1      44.203  21.197  25.171  1.00  0.00     0.200 A 
ATOM    122  F   UNL A   1      45.789  22.648  24.217  1.00  0.00    -0.200 F 
ATOM    123  F   UNL A   1      44.532  20.235  24.300  1.00  0.00    -0.200 F 
ENDBRANCH  93 113
BRANCH  96 124
ATOM    124  C   UNL A   1      41.665  30.256  33.481  1.00  0.00     0.064 A 
ATOM    125  C   UNL A   1      41.601  31.657  33.612  1.00  0.00     0.173 A 
ATOM    126  C   UNL A   1      40.474  29.533  33.609  1.00  0.00     0.173 A 
ATOM    127  F   UNL A   1      42.718  32.393  33.496  1.00  0.00    -0.203 F 
ATOM    128  C   UNL A   1      40.379  32.313  33.729  1.00  0.00     0.198 A 
ATOM    129  C   UNL A   1      39.253  30.195  33.742  1.00  0.00     0.198 A 
ATOM    130  F   UNL A   1      40.473  28.199  33.477  1.00  0.00    -0.203 F 
ATOM    131  F   UNL A   1      40.338  33.653  33.726  1.00  0.00    -0.200 F 
ATOM    132  C   UNL A   1      39.204  31.582  33.763  1.00  0.00     0.200 A 
ATOM    133  F   UNL A   1      38.114  29.489  33.752  1.00  0.00    -0.200 F 
ATOM    134  F   UNL A   1      38.022  32.213  33.774  1.00  0.00    -0.200 F 
ENDBRANCH  96 124
BRANCH 111 135
ATOM    135  C   UNL A   1      45.514  24.169  33.389  1.00  0.00     0.064 A 
ATOM    136  C   UNL A   1      44.659  23.092  33.670  1.00  0.00     0.173 A 
ATOM    137  C   UNL A   1      46.788  24.133  33.992  1.00  0.00     0.173 A 
ATOM    138  F   UNL A   1      43.420  23.054  33.156  1.00  0.00    -0.203 F 
ATOM    139  C   UNL A   1      45.058  22.040  34.497  1.00  0.00     0.198 A 
ATOM    140  C   UNL A   1      47.166  23.108  34.856  1.00  0.00     0.198 A 
ATOM    141  F   UNL A   1      47.703  25.081  33.736  1.00  0.00    -0.203 F 
ATOM    142  F   UNL A   1      44.226  21.012  34.714  1.00  0.00    -0.200 F 
ATOM    143  C   UNL A   1      46.302  22.059  35.105  1.00  0.00     0.200 A 
ATOM    144  F   UNL A   1      48.370  23.144  35.444  1.00  0.00    -0.200 F 
ATOM    145  F   UNL A   1      46.672  21.064  35.924  1.00  0.00    -0.200 F 
ENDBRANCH 111 135
ENDBRANCH  76  79
ENDBRANCH  66  69
ENDBRANCH  62  65
ENDBRANCH  59  62
ENDBRANCH  56  59
ENDBRANCH   1  56
TORSDOF 17
ENDMDL
