MODEL 1
REMARK VINA RESULT:     -11.8      0.000      0.000
REMARK SMILES C[C@@H](C(=O)NCCCCCCNC(=O)c1ccc(-c2c3nc(c(-c4c(F)c(F)c(F)c(F)c4F)c4ccc([nH]4)c(-c4c(F)c(F)c(F)c(F)c4F)c4nc(c(-c5c(F)c(F)c(F)c(F)c5F)c5ccc2[nH]5)C=C4)C=C3)cc1)c1ccc(Cc2ccco2)cc1F
REMARK SMILES IDX 8 1 7 4 6 7 5 10 3 11 4 12 2 14 1 16 78 20 79 21 89 22 80 23
REMARK SMILES IDX 88 25 90 26 81 27 82 30 83 33 84 34 87 35 85 36 86 38 9 41
REMARK SMILES IDX 10 44 11 47 12 50 13 51 14 53 15 54 16 55 77 56 17 57 76 59
REMARK SMILES IDX 18 61 19 64 20 65 70 66 21 67 75 68 69 69 71 70 22 71 74 72
REMARK SMILES IDX 68 74 67 76 23 78 55 81 35 82 54 83 36 84 39 85 53 86 72 87
REMARK SMILES IDX 37 88 38 90 52 92 73 93 40 96 24 98 25 99 33 100 26 101
REMARK SMILES IDX 27 102 31 103 34 104 28 105 29 106 32 107 30 108 56 109
REMARK SMILES IDX 57 110 65 111 58 112 59 113 63 114 66 115 60 116 61 117
REMARK SMILES IDX 64 118 62 119 41 120 42 121 50 122 43 123 44 124 48 125
REMARK SMILES IDX 51 126 45 127 46 128 49 129 47 130
REMARK H PARENT 8 2 8 3 7 5 7 6 6 8 6 9 5 13 2 15 1 17 1 18 1 19 79 24 80 28
REMARK H PARENT 88 29 82 31 82 32 84 37 85 39 86 40 9 42 9 43 10 45 10 46
REMARK H PARENT 11 48 11 49 12 52 16 58 77 60 17 62 76 63 75 73 69 75 71 77
REMARK H PARENT 74 79 68 80 36 89 39 91 72 94 37 95 73 97
REMARK Flexibility Score: inf
ROOT
ATOM      1  C   UNL A   1      32.246  29.665  26.355  1.00  0.00    -0.052 C 
ATOM      2  H   UNL A   1      32.978  29.377  25.630  1.00  0.00     0.027 H 
ATOM      3  H   UNL A   1      32.655  30.176  27.201  1.00  0.00     0.027 H 
ENDROOT
BRANCH   1   4
ATOM      4  C   UNL A   1      31.596  28.388  26.906  1.00  0.00    -0.036 C 
ATOM      5  H   UNL A   1      31.458  28.512  27.960  1.00  0.00     0.028 H 
ATOM      6  H   UNL A   1      30.676  28.261  26.375  1.00  0.00     0.028 H 
BRANCH   4   7
ATOM      7  C   UNL A   1      32.410  27.114  26.678  1.00  0.00     0.017 C 
ATOM      8  H   UNL A   1      32.957  26.884  27.569  1.00  0.00     0.049 H 
ATOM      9  H   UNL A   1      31.735  26.320  26.435  1.00  0.00     0.049 H 
BRANCH   7  10
ATOM     10  N   UNL A   1      33.340  27.275  25.581  1.00  0.00    -0.356 N 
ATOM     11  C   UNL A   1      33.319  26.771  24.313  1.00  0.00     0.227 C 
ATOM     12  O   UNL A   1      34.259  27.095  23.583  1.00  0.00    -0.274 OA
ATOM     13  H   UNL A   1      34.117  27.845  25.783  1.00  0.00     0.163 HD
BRANCH  11  14
ATOM     14  C   UNL A   1      32.129  25.923  23.837  1.00  0.00     0.063 C 
ATOM     15  H   UNL A   1      31.910  25.282  24.665  1.00  0.00     0.045 H 
BRANCH  14  16
ATOM     16  C   UNL A   1      32.449  25.030  22.632  1.00  0.00    -0.049 C 
ATOM     17  H   UNL A   1      31.551  24.565  22.285  1.00  0.00     0.024 H 
ATOM     18  H   UNL A   1      33.151  24.276  22.924  1.00  0.00     0.024 H 
ATOM     19  H   UNL A   1      32.869  25.624  21.849  1.00  0.00     0.024 H 
ENDBRANCH  14  16
BRANCH  14  20
ATOM     20  C   UNL A   1      30.905  26.773  23.522  1.00  0.00    -0.000 A 
ATOM     21  C   UNL A   1      31.024  27.921  22.728  1.00  0.00    -0.055 A 
ATOM     22  C   UNL A   1      29.640  26.446  24.029  1.00  0.00     0.127 A 
ATOM     23  C   UNL A   1      29.909  28.727  22.477  1.00  0.00    -0.058 A 
ATOM     24  H   UNL A   1      31.940  28.175  22.328  1.00  0.00     0.063 H 
ATOM     25  C   UNL A   1      28.529  27.250  23.791  1.00  0.00    -0.022 A 
ATOM     26  F   UNL A   1      29.481  25.353  24.788  1.00  0.00    -0.207 F 
ATOM     27  C   UNL A   1      28.653  28.410  23.018  1.00  0.00    -0.038 A 
ATOM     28  H   UNL A   1      30.010  29.566  21.885  1.00  0.00     0.063 H 
ATOM     29  H   UNL A   1      27.612  26.990  24.186  1.00  0.00     0.066 H 
BRANCH  27  30
ATOM     30  C   UNL A   1      27.461  29.311  22.792  1.00  0.00     0.031 C 
ATOM     31  H   UNL A   1      26.807  29.228  23.634  1.00  0.00     0.040 H 
ATOM     32  H   UNL A   1      26.991  28.996  21.885  1.00  0.00     0.040 H 
BRANCH  30  33
ATOM     33  C   UNL A   1      27.835  30.745  22.623  1.00  0.00     0.108 A 
ATOM     34  C   UNL A   1      28.208  31.743  23.502  1.00  0.00    -0.020 A 
ATOM     35  O   UNL A   1      27.854  31.225  21.346  1.00  0.00    -0.469 OA
ATOM     36  C   UNL A   1      28.460  32.895  22.719  1.00  0.00    -0.024 A 
ATOM     37  H   UNL A   1      28.287  31.665  24.528  1.00  0.00     0.066 H 
ATOM     38  C   UNL A   1      28.232  32.527  21.415  1.00  0.00     0.091 A 
ATOM     39  H   UNL A   1      28.755  33.824  23.060  1.00  0.00     0.066 H 
ATOM     40  H   UNL A   1      28.336  33.154  20.602  1.00  0.00     0.104 H 
ENDBRANCH  30  33
ENDBRANCH  27  30
ENDBRANCH  14  20
ENDBRANCH  11  14
ENDBRANCH   7  10
ENDBRANCH   4   7
ENDBRANCH   1   4
BRANCH   1  41
ATOM     41  C   UNL A   1      31.286  30.657  25.689  1.00  0.00    -0.052 C 
ATOM     42  H   UNL A   1      30.315  30.209  25.662  1.00  0.00     0.027 H 
ATOM     43  H   UNL A   1      31.693  30.856  24.720  1.00  0.00     0.027 H 
BRANCH  41  44
ATOM     44  C   UNL A   1      31.162  32.014  26.384  1.00  0.00    -0.036 C 
ATOM     45  H   UNL A   1      30.402  31.936  27.133  1.00  0.00     0.028 H 
ATOM     46  H   UNL A   1      30.929  32.723  25.617  1.00  0.00     0.028 H 
BRANCH  44  47
ATOM     47  C   UNL A   1      32.438  32.511  27.053  1.00  0.00     0.018 C 
ATOM     48  H   UNL A   1      33.249  32.418  26.359  1.00  0.00     0.049 H 
ATOM     49  H   UNL A   1      32.602  31.915  27.927  1.00  0.00     0.049 H 
BRANCH  47  50
ATOM     50  N   UNL A   1      32.339  33.897  27.473  1.00  0.00    -0.352 N 
ATOM     51  C   UNL A   1      33.044  34.563  28.441  1.00  0.00     0.251 C 
ATOM     52  H   UNL A   1      31.669  34.436  26.994  1.00  0.00     0.163 HD
ATOM     53  O   UNL A   1      32.708  35.699  28.775  1.00  0.00    -0.269 OA
BRANCH  51  54
ATOM     54  C   UNL A   1      34.203  33.922  29.101  1.00  0.00     0.039 A 
ATOM     55  C   UNL A   1      35.490  34.344  28.754  1.00  0.00    -0.049 A 
ATOM     56  C   UNL A   1      34.032  32.881  30.018  1.00  0.00    -0.049 A 
ATOM     57  C   UNL A   1      36.603  33.742  29.344  1.00  0.00    -0.053 A 
ATOM     58  H   UNL A   1      35.617  35.100  28.063  1.00  0.00     0.063 H 
ATOM     59  C   UNL A   1      35.140  32.326  30.657  1.00  0.00    -0.053 A 
ATOM     60  H   UNL A   1      33.086  32.523  30.223  1.00  0.00     0.063 H 
ATOM     61  C   UNL A   1      36.436  32.735  30.309  1.00  0.00    -0.014 A 
ATOM     62  H   UNL A   1      37.552  34.038  29.070  1.00  0.00     0.063 H 
ATOM     63  H   UNL A   1      35.006  31.612  31.388  1.00  0.00     0.063 H 
BRANCH  61  64
ATOM     64  C   UNL A   1      37.610  32.062  30.918  1.00  0.00     0.031 A 
ATOM     65  C   UNL A   1      38.055  32.443  32.304  1.00  0.00     0.074 A 
ATOM     66  C   UNL A   1      38.299  31.142  30.216  1.00  0.00     0.049 A 
ATOM     67  N   UNL A   1      39.073  32.000  33.000  1.00  0.00    -0.248 NA
ATOM     68  C   UNL A   1      37.267  33.479  32.989  1.00  0.00    -0.034 C 
ATOM     69  C   UNL A   1      37.995  30.720  28.849  1.00  0.00    -0.036 A 
ATOM     70  N   UNL A   1      39.400  30.400  30.557  1.00  0.00    -0.354 N 
ATOM     71  C   UNL A   1      39.059  32.720  34.188  1.00  0.00     0.074 A 
ATOM     72  C   UNL A   1      37.963  33.660  34.102  1.00  0.00    -0.034 C 
ATOM     73  H   UNL A   1      36.398  33.943  32.683  1.00  0.00     0.065 H 
ATOM     74  C   UNL A   1      38.872  29.775  28.477  1.00  0.00    -0.036 A 
ATOM     75  H   UNL A   1      37.229  31.092  28.264  1.00  0.00     0.065 H 
ATOM     76  C   UNL A   1      39.813  29.542  29.567  1.00  0.00     0.049 A 
ATOM     77  H   UNL A   1      39.852  30.474  31.429  1.00  0.00     0.167 HD
ATOM     78  C   UNL A   1      39.872  32.593  35.264  1.00  0.00     0.037 A 
ATOM     79  H   UNL A   1      37.752  34.377  34.813  1.00  0.00     0.065 H 
ATOM     80  H   UNL A   1      38.879  29.290  27.565  1.00  0.00     0.065 H 
ATOM     81  C   UNL A   1      40.833  28.663  29.549  1.00  0.00     0.037 A 
ATOM     82  C   UNL A   1      40.932  31.626  35.365  1.00  0.00     0.049 A 
ATOM     83  C   UNL A   1      41.701  28.516  30.770  1.00  0.00     0.074 A 
ATOM     84  C   UNL A   1      41.771  31.370  36.437  1.00  0.00    -0.036 A 
ATOM     85  N   UNL A   1      41.298  30.748  34.356  1.00  0.00    -0.354 N 
ATOM     86  N   UNL A   1      41.637  29.154  31.914  1.00  0.00    -0.248 NA
ATOM     87  C   UNL A   1      42.776  27.516  30.701  1.00  0.00    -0.034 C 
ATOM     88  C   UNL A   1      42.664  30.362  36.063  1.00  0.00    -0.036 A 
ATOM     89  H   UNL A   1      41.741  31.844  37.354  1.00  0.00     0.065 H 
ATOM     90  C   UNL A   1      42.356  29.958  34.775  1.00  0.00     0.049 A 
ATOM     91  H   UNL A   1      40.868  30.694  33.471  1.00  0.00     0.167 HD
ATOM     92  C   UNL A   1      42.633  28.609  32.711  1.00  0.00     0.074 A 
ATOM     93  C   UNL A   1      43.284  27.583  31.923  1.00  0.00    -0.034 C 
ATOM     94  H   UNL A   1      43.060  26.920  29.909  1.00  0.00     0.065 H 
ATOM     95  H   UNL A   1      43.425  29.981  36.649  1.00  0.00     0.065 H 
ATOM     96  C   UNL A   1      42.977  28.928  33.984  1.00  0.00     0.037 A 
ATOM     97  H   UNL A   1      44.047  26.981  32.270  1.00  0.00     0.065 H 
BRANCH  78  98
ATOM     98  C   UNL A   1      39.642  33.521  36.420  1.00  0.00     0.064 A 
ATOM     99  C   UNL A   1      38.825  33.162  37.502  1.00  0.00     0.173 A 
ATOM    100  C   UNL A   1      40.265  34.778  36.457  1.00  0.00     0.173 A 
ATOM    101  F   UNL A   1      38.195  31.977  37.508  1.00  0.00    -0.203 F 
ATOM    102  C   UNL A   1      38.616  34.038  38.564  1.00  0.00     0.198 A 
ATOM    103  C   UNL A   1      40.077  35.640  37.534  1.00  0.00     0.198 A 
ATOM    104  F   UNL A   1      41.061  35.170  35.450  1.00  0.00    -0.203 F 
ATOM    105  F   UNL A   1      37.789  33.694  39.561  1.00  0.00    -0.200 F 
ATOM    106  C   UNL A   1      39.246  35.274  38.582  1.00  0.00     0.200 A 
ATOM    107  F   UNL A   1      40.696  36.828  37.557  1.00  0.00    -0.200 F 
ATOM    108  F   UNL A   1      39.045  36.115  39.606  1.00  0.00    -0.200 F 
ENDBRANCH  78  98
BRANCH  81 109
ATOM    109  C   UNL A   1      41.059  27.813  28.353  1.00  0.00     0.064 A 
ATOM    110  C   UNL A   1      41.879  28.254  27.306  1.00  0.00     0.173 A 
ATOM    111  C   UNL A   1      40.461  26.551  28.227  1.00  0.00     0.173 A 
ATOM    112  F   UNL A   1      42.456  29.463  27.373  1.00  0.00    -0.203 F 
ATOM    113  C   UNL A   1      42.076  27.476  26.167  1.00  0.00     0.198 A 
ATOM    114  C   UNL A   1      40.678  25.762  27.100  1.00  0.00     0.198 A 
ATOM    115  F   UNL A   1      39.672  26.081  29.204  1.00  0.00    -0.203 F 
ATOM    116  F   UNL A   1      42.829  27.942  25.162  1.00  0.00    -0.200 F 
ATOM    117  C   UNL A   1      41.479  26.228  26.067  1.00  0.00     0.200 A 
ATOM    118  F   UNL A   1      40.111  24.552  27.011  1.00  0.00    -0.200 F 
ATOM    119  F   UNL A   1      41.670  25.479  24.974  1.00  0.00    -0.200 F 
ENDBRANCH  81 109
BRANCH  96 120
ATOM    120  C   UNL A   1      44.072  28.125  34.621  1.00  0.00     0.064 A 
ATOM    121  C   UNL A   1      45.409  28.546  34.591  1.00  0.00     0.173 A 
ATOM    122  C   UNL A   1      43.771  26.932  35.298  1.00  0.00     0.173 A 
ATOM    123  F   UNL A   1      45.748  29.670  33.943  1.00  0.00    -0.203 F 
ATOM    124  C   UNL A   1      46.410  27.788  35.195  1.00  0.00     0.198 A 
ATOM    125  C   UNL A   1      44.770  26.193  35.923  1.00  0.00     0.198 A 
ATOM    126  F   UNL A   1      42.506  26.491  35.359  1.00  0.00    -0.203 F 
ATOM    127  F   UNL A   1      47.687  28.185  35.114  1.00  0.00    -0.200 F 
ATOM    128  C   UNL A   1      46.089  26.617  35.865  1.00  0.00     0.200 A 
ATOM    129  F   UNL A   1      44.457  25.068  36.580  1.00  0.00    -0.200 F 
ATOM    130  F   UNL A   1      47.054  25.893  36.448  1.00  0.00    -0.200 F 
ENDBRANCH  96 120
ENDBRANCH  61  64
ENDBRANCH  51  54
ENDBRANCH  47  50
ENDBRANCH  44  47
ENDBRANCH  41  44
ENDBRANCH   1  41
TORSDOF 17
ENDMDL
MODEL 2
REMARK VINA RESULT:     -11.7      0.777      7.302
REMARK SMILES C[C@@H](C(=O)NCCCCCCNC(=O)c1ccc(-c2c3nc(c(-c4c(F)c(F)c(F)c(F)c4F)c4ccc([nH]4)c(-c4c(F)c(F)c(F)c(F)c4F)c4nc(c(-c5c(F)c(F)c(F)c(F)c5F)c5ccc2[nH]5)C=C4)C=C3)cc1)c1ccc(Cc2ccco2)cc1F
REMARK SMILES IDX 8 1 7 4 6 7 5 10 3 11 4 12 2 14 1 16 78 20 79 21 89 22 80 23
REMARK SMILES IDX 88 25 90 26 81 27 82 30 83 33 84 34 87 35 85 36 86 38 9 41
REMARK SMILES IDX 10 44 11 47 12 50 13 51 14 53 15 54 16 55 77 56 17 57 76 59
REMARK SMILES IDX 18 61 19 64 20 65 70 66 21 67 75 68 69 69 71 70 22 71 74 72
REMARK SMILES IDX 68 74 67 76 23 78 55 81 35 82 54 83 36 84 39 85 53 86 72 87
REMARK SMILES IDX 37 88 38 90 52 92 73 93 40 96 24 98 25 99 33 100 26 101
REMARK SMILES IDX 27 102 31 103 34 104 28 105 29 106 32 107 30 108 56 109
REMARK SMILES IDX 57 110 65 111 58 112 59 113 63 114 66 115 60 116 61 117
REMARK SMILES IDX 64 118 62 119 41 120 42 121 50 122 43 123 44 124 48 125
REMARK SMILES IDX 51 126 45 127 46 128 49 129 47 130
REMARK H PARENT 8 2 8 3 7 5 7 6 6 8 6 9 5 13 2 15 1 17 1 18 1 19 79 24 80 28
REMARK H PARENT 88 29 82 31 82 32 84 37 85 39 86 40 9 42 9 43 10 45 10 46
REMARK H PARENT 11 48 11 49 12 52 16 58 77 60 17 62 76 63 75 73 69 75 71 77
REMARK H PARENT 74 79 68 80 36 89 39 91 72 94 37 95 73 97
REMARK Flexibility Score: inf
ROOT
ATOM      1  C   UNL A   1      32.280  30.015  26.936  1.00  0.00    -0.052 C 
ATOM      2  H   UNL A   1      33.215  29.917  26.425  1.00  0.00     0.027 H 
ATOM      3  H   UNL A   1      32.355  30.519  27.877  1.00  0.00     0.027 H 
ENDROOT
BRANCH   1   4
ATOM      4  C   UNL A   1      31.762  28.606  27.252  1.00  0.00    -0.036 C 
ATOM      5  H   UNL A   1      31.610  28.535  28.309  1.00  0.00     0.028 H 
ATOM      6  H   UNL A   1      30.861  28.480  26.690  1.00  0.00     0.028 H 
BRANCH   4   7
ATOM      7  C   UNL A   1      32.701  27.475  26.829  1.00  0.00     0.017 C 
ATOM      8  H   UNL A   1      33.285  27.172  27.673  1.00  0.00     0.049 H 
ATOM      9  H   UNL A   1      32.109  26.660  26.467  1.00  0.00     0.049 H 
BRANCH   7  10
ATOM     10  N   UNL A   1      33.589  27.901  25.768  1.00  0.00    -0.356 N 
ATOM     11  C   UNL A   1      33.658  27.526  24.459  1.00  0.00     0.227 C 
ATOM     12  O   UNL A   1      34.526  28.077  23.779  1.00  0.00    -0.274 OA
ATOM     13  H   UNL A   1      34.254  28.575  26.037  1.00  0.00     0.163 HD
BRANCH  11  14
ATOM     14  C   UNL A   1      32.635  26.533  23.883  1.00  0.00     0.063 C 
ATOM     15  H   UNL A   1      32.466  25.834  24.675  1.00  0.00     0.045 H 
BRANCH  14  16
ATOM     16  C   UNL A   1      33.150  25.745  22.673  1.00  0.00    -0.049 C 
ATOM     17  H   UNL A   1      33.619  26.416  21.985  1.00  0.00     0.024 H 
ATOM     18  H   UNL A   1      32.330  25.255  22.191  1.00  0.00     0.024 H 
ATOM     19  H   UNL A   1      33.861  25.015  22.999  1.00  0.00     0.024 H 
ENDBRANCH  14  16
BRANCH  14  20
ATOM     20  C   UNL A   1      31.318  27.208  23.521  1.00  0.00    -0.000 A 
ATOM     21  C   UNL A   1      31.310  28.391  22.771  1.00  0.00    -0.055 A 
ATOM     22  C   UNL A   1      30.089  26.681  23.940  1.00  0.00     0.127 A 
ATOM     23  C   UNL A   1      30.104  29.036  22.477  1.00  0.00    -0.058 A 
ATOM     24  H   UNL A   1      32.200  28.791  22.435  1.00  0.00     0.063 H 
ATOM     25  C   UNL A   1      28.886  27.323  23.660  1.00  0.00    -0.022 A 
ATOM     26  F   UNL A   1      30.051  25.547  24.654  1.00  0.00    -0.207 F 
ATOM     27  C   UNL A   1      28.881  28.518  22.931  1.00  0.00    -0.038 A 
ATOM     28  H   UNL A   1      30.113  29.903  21.919  1.00  0.00     0.063 H 
ATOM     29  H   UNL A   1      27.997  26.917  23.990  1.00  0.00     0.066 H 
BRANCH  27  30
ATOM     30  C   UNL A   1      27.584  29.245  22.661  1.00  0.00     0.031 C 
ATOM     31  H   UNL A   1      26.999  29.243  23.557  1.00  0.00     0.040 H 
ATOM     32  H   UNL A   1      27.093  28.734  21.860  1.00  0.00     0.040 H 
BRANCH  30  33
ATOM     33  C   UNL A   1      27.783  30.658  22.229  1.00  0.00     0.108 A 
ATOM     34  C   UNL A   1      27.994  31.842  22.909  1.00  0.00    -0.020 A 
ATOM     35  O   UNL A   1      27.793  30.891  20.885  1.00  0.00    -0.469 OA
ATOM     36  C   UNL A   1      28.132  32.851  21.926  1.00  0.00    -0.024 A 
ATOM     37  H   UNL A   1      28.042  31.967  23.932  1.00  0.00     0.066 H 
ATOM     38  C   UNL A   1      28.003  32.221  20.712  1.00  0.00     0.091 A 
ATOM     39  H   UNL A   1      28.296  33.857  22.089  1.00  0.00     0.066 H 
ATOM     40  H   UNL A   1      28.060  32.694  19.796  1.00  0.00     0.104 H 
ENDBRANCH  30  33
ENDBRANCH  27  30
ENDBRANCH  14  20
ENDBRANCH  11  14
ENDBRANCH   7  10
ENDBRANCH   4   7
ENDBRANCH   1   4
BRANCH   1  41
ATOM     41  C   UNL A   1      31.356  30.878  26.070  1.00  0.00    -0.052 C 
ATOM     42  H   UNL A   1      30.370  30.466  26.127  1.00  0.00     0.027 H 
ATOM     43  H   UNL A   1      31.772  30.858  25.085  1.00  0.00     0.027 H 
BRANCH  41  44
ATOM     44  C   UNL A   1      31.276  32.353  26.468  1.00  0.00    -0.036 C 
ATOM     45  H   UNL A   1      30.431  32.479  27.112  1.00  0.00     0.028 H 
ATOM     46  H   UNL A   1      31.199  32.906  25.555  1.00  0.00     0.028 H 
BRANCH  44  47
ATOM     47  C   UNL A   1      32.507  32.890  27.190  1.00  0.00     0.018 C 
ATOM     48  H   UNL A   1      33.350  32.814  26.535  1.00  0.00     0.049 H 
ATOM     49  H   UNL A   1      32.646  32.307  28.076  1.00  0.00     0.049 H 
BRANCH  47  50
ATOM     50  N   UNL A   1      32.350  34.276  27.592  1.00  0.00    -0.352 N 
ATOM     51  C   UNL A   1      32.978  34.965  28.597  1.00  0.00     0.251 C 
ATOM     52  H   UNL A   1      31.700  34.797  27.067  1.00  0.00     0.163 HD
ATOM     53  O   UNL A   1      32.597  36.094  28.900  1.00  0.00    -0.269 OA
BRANCH  51  54
ATOM     54  C   UNL A   1      34.107  34.354  29.334  1.00  0.00     0.039 A 
ATOM     55  C   UNL A   1      35.401  34.512  28.828  1.00  0.00    -0.049 A 
ATOM     56  C   UNL A   1      33.895  33.591  30.486  1.00  0.00    -0.049 A 
ATOM     57  C   UNL A   1      36.483  33.928  29.490  1.00  0.00    -0.053 A 
ATOM     58  H   UNL A   1      35.556  35.059  27.967  1.00  0.00     0.063 H 
ATOM     59  C   UNL A   1      34.981  33.065  31.183  1.00  0.00    -0.053 A 
ATOM     60  H   UNL A   1      32.934  33.417  30.821  1.00  0.00     0.063 H 
ATOM     61  C   UNL A   1      36.283  33.209  30.679  1.00  0.00    -0.014 A 
ATOM     62  H   UNL A   1      37.434  34.025  29.103  1.00  0.00     0.063 H 
ATOM     63  H   UNL A   1      34.827  32.568  32.073  1.00  0.00     0.063 H 
BRANCH  61  64
ATOM     64  C   UNL A   1      37.418  32.553  31.373  1.00  0.00     0.031 A 
ATOM     65  C   UNL A   1      38.157  31.427  30.702  1.00  0.00     0.074 A 
ATOM     66  C   UNL A   1      37.761  32.940  32.617  1.00  0.00     0.049 A 
ATOM     67  N   UNL A   1      39.151  30.702  31.152  1.00  0.00    -0.248 NA
ATOM     68  C   UNL A   1      37.698  31.045  29.358  1.00  0.00    -0.034 C 
ATOM     69  C   UNL A   1      37.095  33.988  33.390  1.00  0.00    -0.036 A 
ATOM     70  N   UNL A   1      38.755  32.491  33.449  1.00  0.00    -0.354 N 
ATOM     71  C   UNL A   1      39.417  29.769  30.158  1.00  0.00     0.074 A 
ATOM     72  C   UNL A   1      38.452  29.986  29.103  1.00  0.00    -0.034 C 
ATOM     73  H   UNL A   1      36.977  31.488  28.767  1.00  0.00     0.065 H 
ATOM     74  C   UNL A   1      37.714  34.120  34.573  1.00  0.00    -0.036 A 
ATOM     75  H   UNL A   1      36.279  34.536  33.076  1.00  0.00     0.065 H 
ATOM     76  C   UNL A   1      38.803  33.151  34.653  1.00  0.00     0.049 A 
ATOM     77  H   UNL A   1      39.374  31.765  33.208  1.00  0.00     0.167 HD
ATOM     78  C   UNL A   1      40.393  28.830  30.119  1.00  0.00     0.037 A 
ATOM     79  H   UNL A   1      38.362  29.394  28.263  1.00  0.00     0.065 H 
ATOM     80  H   UNL A   1      37.461  34.798  35.309  1.00  0.00     0.065 H 
ATOM     81  C   UNL A   1      39.640  32.995  35.696  1.00  0.00     0.037 A 
ATOM     82  C   UNL A   1      41.380  28.647  31.148  1.00  0.00     0.049 A 
ATOM     83  C   UNL A   1      40.737  31.968  35.613  1.00  0.00     0.074 A 
ATOM     84  C   UNL A   1      42.451  27.769  31.174  1.00  0.00    -0.036 A 
ATOM     85  N   UNL A   1      41.420  29.360  32.337  1.00  0.00    -0.354 N 
ATOM     86  N   UNL A   1      41.022  31.137  34.640  1.00  0.00    -0.248 NA
ATOM     87  C   UNL A   1      41.638  31.868  36.770  1.00  0.00    -0.034 C 
ATOM     88  C   UNL A   1      43.118  27.929  32.393  1.00  0.00    -0.036 A 
ATOM     89  H   UNL A   1      42.711  27.111  30.423  1.00  0.00     0.065 H 
ATOM     90  C   UNL A   1      42.490  28.935  33.109  1.00  0.00     0.049 A 
ATOM     91  H   UNL A   1      40.782  30.064  32.595  1.00  0.00     0.167 HD
ATOM     92  C   UNL A   1      42.153  30.444  35.048  1.00  0.00     0.074 A 
ATOM     93  C   UNL A   1      42.507  30.956  36.356  1.00  0.00    -0.034 C 
ATOM     94  H   UNL A   1      41.603  32.374  37.668  1.00  0.00     0.065 H 
ATOM     95  H   UNL A   1      43.940  27.389  32.706  1.00  0.00     0.065 H 
ATOM     96  C   UNL A   1      42.839  29.472  34.398  1.00  0.00     0.037 A 
ATOM     97  H   UNL A   1      43.331  30.651  36.896  1.00  0.00     0.065 H 
BRANCH  78  98
ATOM     98  C   UNL A   1      40.441  27.932  28.917  1.00  0.00     0.064 A 
ATOM     99  C   UNL A   1      39.715  26.733  28.863  1.00  0.00     0.173 A 
ATOM    100  C   UNL A   1      41.205  28.287  27.795  1.00  0.00     0.173 A 
ATOM    101  F   UNL A   1      38.979  26.342  29.915  1.00  0.00    -0.203 F 
ATOM    102  C   UNL A   1      39.776  25.907  27.744  1.00  0.00     0.198 A 
ATOM    103  C   UNL A   1      41.242  27.473  26.665  1.00  0.00     0.198 A 
ATOM    104  F   UNL A   1      41.916  29.425  27.792  1.00  0.00    -0.203 F 
ATOM    105  F   UNL A   1      39.116  24.741  27.736  1.00  0.00    -0.200 F 
ATOM    106  C   UNL A   1      40.534  26.281  26.644  1.00  0.00     0.200 A 
ATOM    107  F   UNL A   1      41.965  27.840  25.599  1.00  0.00    -0.200 F 
ATOM    108  F   UNL A   1      40.591  25.486  25.567  1.00  0.00    -0.200 F 
ENDBRANCH  78  98
BRANCH  81 109
ATOM    109  C   UNL A   1      39.507  33.866  36.891  1.00  0.00     0.064 A 
ATOM    110  C   UNL A   1      40.122  35.125  36.930  1.00  0.00     0.173 A 
ATOM    111  C   UNL A   1      38.771  33.463  38.014  1.00  0.00     0.173 A 
ATOM    112  F   UNL A   1      40.853  35.545  35.887  1.00  0.00    -0.203 F 
ATOM    113  C   UNL A   1      40.025  35.939  38.057  1.00  0.00     0.198 A 
ATOM    114  C   UNL A   1      38.653  34.288  39.131  1.00  0.00     0.198 A 
ATOM    115  F   UNL A   1      38.159  32.269  38.024  1.00  0.00    -0.203 F 
ATOM    116  F   UNL A   1      40.660  37.119  38.085  1.00  0.00    -0.200 F 
ATOM    117  C   UNL A   1      39.287  35.522  39.155  1.00  0.00     0.200 A 
ATOM    118  F   UNL A   1      37.930  33.887  40.184  1.00  0.00    -0.200 F 
ATOM    119  F   UNL A   1      39.192  36.305  40.237  1.00  0.00    -0.200 F 
ENDBRANCH  81 109
BRANCH  96 120
ATOM    120  C   UNL A   1      44.070  28.936  35.066  1.00  0.00     0.064 A 
ATOM    121  C   UNL A   1      44.020  27.831  35.929  1.00  0.00     0.173 A 
ATOM    122  C   UNL A   1      45.322  29.518  34.813  1.00  0.00     0.173 A 
ATOM    123  F   UNL A   1      42.845  27.250  36.214  1.00  0.00    -0.203 F 
ATOM    124  C   UNL A   1      45.176  27.345  36.534  1.00  0.00     0.198 A 
ATOM    125  C   UNL A   1      46.478  29.012  35.398  1.00  0.00     0.198 A 
ATOM    126  F   UNL A   1      45.422  30.573  33.990  1.00  0.00    -0.203 F 
ATOM    127  F   UNL A   1      45.099  26.318  37.392  1.00  0.00    -0.200 F 
ATOM    128  C   UNL A   1      46.404  27.931  36.263  1.00  0.00     0.200 A 
ATOM    129  F   UNL A   1      47.665  29.572  35.126  1.00  0.00    -0.200 F 
ATOM    130  F   UNL A   1      47.515  27.458  36.845  1.00  0.00    -0.200 F 
ENDBRANCH  96 120
ENDBRANCH  61  64
ENDBRANCH  51  54
ENDBRANCH  47  50
ENDBRANCH  44  47
ENDBRANCH  41  44
ENDBRANCH   1  41
TORSDOF 17
ENDMDL
MODEL 3
REMARK VINA RESULT:     -11.6      0.517      1.333
REMARK SMILES C[C@@H](C(=O)NCCCCCCNC(=O)c1ccc(-c2c3nc(c(-c4c(F)c(F)c(F)c(F)c4F)c4ccc([nH]4)c(-c4c(F)c(F)c(F)c(F)c4F)c4nc(c(-c5c(F)c(F)c(F)c(F)c5F)c5ccc2[nH]5)C=C4)C=C3)cc1)c1ccc(Cc2ccco2)cc1F
REMARK SMILES IDX 8 1 7 4 6 7 5 10 3 11 4 12 2 14 1 16 78 20 79 21 89 22 80 23
REMARK SMILES IDX 88 25 90 26 81 27 82 30 83 33 84 34 87 35 85 36 86 38 9 41
REMARK SMILES IDX 10 44 11 47 12 50 13 51 14 53 15 54 16 55 77 56 17 57 76 59
REMARK SMILES IDX 18 61 19 64 20 65 70 66 21 67 75 68 69 69 71 70 22 71 74 72
REMARK SMILES IDX 68 74 67 76 23 78 55 81 35 82 54 83 36 84 39 85 53 86 72 87
REMARK SMILES IDX 37 88 38 90 52 92 73 93 40 96 24 98 25 99 33 100 26 101
REMARK SMILES IDX 27 102 31 103 34 104 28 105 29 106 32 107 30 108 56 109
REMARK SMILES IDX 57 110 65 111 58 112 59 113 63 114 66 115 60 116 61 117
REMARK SMILES IDX 64 118 62 119 41 120 42 121 50 122 43 123 44 124 48 125
REMARK SMILES IDX 51 126 45 127 46 128 49 129 47 130
REMARK H PARENT 8 2 8 3 7 5 7 6 6 8 6 9 5 13 2 15 1 17 1 18 1 19 79 24 80 28
REMARK H PARENT 88 29 82 31 82 32 84 37 85 39 86 40 9 42 9 43 10 45 10 46
REMARK H PARENT 11 48 11 49 12 52 16 58 77 60 17 62 76 63 75 73 69 75 71 77
REMARK H PARENT 74 79 68 80 36 89 39 91 72 94 37 95 73 97
REMARK Flexibility Score: inf
ROOT
ATOM      1  C   UNL A   1      32.236  29.351  26.345  1.00  0.00    -0.052 C 
ATOM      2  H   UNL A   1      32.882  28.929  25.604  1.00  0.00     0.027 H 
ATOM      3  H   UNL A   1      32.757  29.811  27.159  1.00  0.00     0.027 H 
ENDROOT
BRANCH   1   4
ATOM      4  C   UNL A   1      31.414  28.211  26.962  1.00  0.00    -0.036 C 
ATOM      5  H   UNL A   1      31.347  28.380  28.016  1.00  0.00     0.028 H 
ATOM      6  H   UNL A   1      30.462  28.224  26.474  1.00  0.00     0.028 H 
BRANCH   4   7
ATOM      7  C   UNL A   1      31.998  26.815  26.739  1.00  0.00     0.017 C 
ATOM      8  H   UNL A   1      32.383  26.445  27.666  1.00  0.00     0.049 H 
ATOM      9  H   UNL A   1      31.221  26.178  26.371  1.00  0.00     0.049 H 
BRANCH   7  10
ATOM     10  N   UNL A   1      33.066  26.844  25.763  1.00  0.00    -0.356 N 
ATOM     11  C   UNL A   1      33.140  26.319  24.506  1.00  0.00     0.227 C 
ATOM     12  O   UNL A   1      34.192  26.516  23.894  1.00  0.00    -0.274 OA
ATOM     13  H   UNL A   1      33.875  27.324  26.054  1.00  0.00     0.163 HD
BRANCH  11  14
ATOM     14  C   UNL A   1      31.924  25.604  23.893  1.00  0.00     0.063 C 
ATOM     15  H   UNL A   1      31.639  24.883  24.630  1.00  0.00     0.045 H 
BRANCH  14  16
ATOM     16  C   UNL A   1      32.241  24.843  22.600  1.00  0.00    -0.049 C 
ATOM     17  H   UNL A   1      33.267  24.539  22.608  1.00  0.00     0.024 H 
ATOM     18  H   UNL A   1      32.065  25.480  21.759  1.00  0.00     0.024 H 
ATOM     19  H   UNL A   1      31.614  23.979  22.532  1.00  0.00     0.024 H 
ENDBRANCH  14  16
BRANCH  14  20
ATOM     20  C   UNL A   1      30.761  26.555  23.646  1.00  0.00    -0.000 A 
ATOM     21  C   UNL A   1      29.471  26.229  24.084  1.00  0.00    -0.055 A 
ATOM     22  C   UNL A   1      30.941  27.765  22.961  1.00  0.00     0.127 A 
ATOM     23  C   UNL A   1      28.395  27.081  23.817  1.00  0.00    -0.058 A 
ATOM     24  H   UNL A   1      29.313  25.353  24.606  1.00  0.00     0.063 H 
ATOM     25  C   UNL A   1      29.872  28.612  22.683  1.00  0.00    -0.022 A 
ATOM     26  F   UNL A   1      32.160  28.119  22.530  1.00  0.00    -0.207 F 
ATOM     27  C   UNL A   1      28.580  28.273  23.100  1.00  0.00    -0.038 A 
ATOM     28  H   UNL A   1      27.451  26.830  24.152  1.00  0.00     0.063 H 
ATOM     29  H   UNL A   1      30.033  29.491  22.168  1.00  0.00     0.066 H 
BRANCH  27  30
ATOM     30  C   UNL A   1      27.408  29.165  22.764  1.00  0.00     0.031 C 
ATOM     31  H   UNL A   1      26.671  29.066  23.534  1.00  0.00     0.040 H 
ATOM     32  H   UNL A   1      27.035  28.856  21.810  1.00  0.00     0.040 H 
BRANCH  30  33
ATOM     33  C   UNL A   1      27.780  30.604  22.648  1.00  0.00     0.108 A 
ATOM     34  C   UNL A   1      28.063  31.593  23.570  1.00  0.00    -0.020 A 
ATOM     35  O   UNL A   1      27.911  31.103  21.384  1.00  0.00    -0.469 OA
ATOM     36  C   UNL A   1      28.373  32.758  22.829  1.00  0.00    -0.024 A 
ATOM     37  H   UNL A   1      28.050  31.501  24.598  1.00  0.00     0.066 H 
ATOM     38  C   UNL A   1      28.268  32.407  21.505  1.00  0.00     0.091 A 
ATOM     39  H   UNL A   1      28.627  33.685  23.208  1.00  0.00     0.066 H 
ATOM     40  H   UNL A   1      28.438  33.046  20.712  1.00  0.00     0.104 H 
ENDBRANCH  30  33
ENDBRANCH  27  30
ENDBRANCH  14  20
ENDBRANCH  11  14
ENDBRANCH   7  10
ENDBRANCH   4   7
ENDBRANCH   1   4
BRANCH   1  41
ATOM     41  C   UNL A   1      31.421  30.466  25.682  1.00  0.00    -0.052 C 
ATOM     42  H   UNL A   1      30.437  30.090  25.496  1.00  0.00     0.027 H 
ATOM     43  H   UNL A   1      31.953  30.732  24.793  1.00  0.00     0.027 H 
BRANCH  41  44
ATOM     44  C   UNL A   1      31.290  31.753  26.498  1.00  0.00    -0.036 C 
ATOM     45  H   UNL A   1      30.721  31.534  27.377  1.00  0.00     0.028 H 
ATOM     46  H   UNL A   1      30.819  32.469  25.856  1.00  0.00     0.028 H 
BRANCH  44  47
ATOM     47  C   UNL A   1      32.612  32.375  26.933  1.00  0.00     0.018 C 
ATOM     48  H   UNL A   1      33.285  32.370  26.099  1.00  0.00     0.049 H 
ATOM     49  H   UNL A   1      32.995  31.795  27.746  1.00  0.00     0.049 H 
BRANCH  47  50
ATOM     50  N   UNL A   1      32.455  33.741  27.399  1.00  0.00    -0.352 N 
ATOM     51  C   UNL A   1      33.115  34.397  28.405  1.00  0.00     0.251 C 
ATOM     52  H   UNL A   1      31.776  34.273  26.923  1.00  0.00     0.163 HD
ATOM     53  O   UNL A   1      32.731  35.507  28.770  1.00  0.00    -0.269 OA
BRANCH  51  54
ATOM     54  C   UNL A   1      34.281  33.774  29.068  1.00  0.00     0.039 A 
ATOM     55  C   UNL A   1      35.561  34.234  28.744  1.00  0.00    -0.049 A 
ATOM     56  C   UNL A   1      34.126  32.713  29.965  1.00  0.00    -0.049 A 
ATOM     57  C   UNL A   1      36.682  33.649  29.337  1.00  0.00    -0.053 A 
ATOM     58  H   UNL A   1      35.678  35.004  28.067  1.00  0.00     0.063 H 
ATOM     59  C   UNL A   1      35.240  32.175  30.608  1.00  0.00    -0.053 A 
ATOM     60  H   UNL A   1      33.186  32.328  30.152  1.00  0.00     0.063 H 
ATOM     61  C   UNL A   1      36.529  32.622  30.283  1.00  0.00    -0.014 A 
ATOM     62  H   UNL A   1      37.627  33.973  29.080  1.00  0.00     0.063 H 
ATOM     63  H   UNL A   1      35.115  31.445  31.326  1.00  0.00     0.063 H 
BRANCH  61  64
ATOM     64  C   UNL A   1      37.712  31.968  30.895  1.00  0.00     0.031 A 
ATOM     65  C   UNL A   1      38.149  32.357  32.281  1.00  0.00     0.074 A 
ATOM     66  C   UNL A   1      38.416  31.057  30.196  1.00  0.00     0.049 A 
ATOM     67  N   UNL A   1      39.172  31.931  32.980  1.00  0.00    -0.248 NA
ATOM     68  C   UNL A   1      37.344  33.382  32.963  1.00  0.00    -0.034 C 
ATOM     69  C   UNL A   1      38.120  30.629  28.828  1.00  0.00    -0.036 A 
ATOM     70  N   UNL A   1      39.528  30.332  30.540  1.00  0.00    -0.354 N 
ATOM     71  C   UNL A   1      39.146  32.653  34.166  1.00  0.00     0.074 A 
ATOM     72  C   UNL A   1      38.036  33.576  34.077  1.00  0.00    -0.034 C 
ATOM     73  H   UNL A   1      36.468  33.833  32.655  1.00  0.00     0.065 H 
ATOM     74  C   UNL A   1      39.012  29.697  28.459  1.00  0.00    -0.036 A 
ATOM     75  H   UNL A   1      37.350  30.988  28.242  1.00  0.00     0.065 H 
ATOM     76  C   UNL A   1      39.956  29.480  29.552  1.00  0.00     0.049 A 
ATOM     77  H   UNL A   1      39.977  30.414  31.412  1.00  0.00     0.167 HD
ATOM     78  C   UNL A   1      39.959  32.540  35.243  1.00  0.00     0.037 A 
ATOM     79  H   UNL A   1      37.812  34.291  34.786  1.00  0.00     0.065 H 
ATOM     80  H   UNL A   1      39.028  29.210  27.549  1.00  0.00     0.065 H 
ATOM     81  C   UNL A   1      40.989  28.616  29.537  1.00  0.00     0.037 A 
ATOM     82  C   UNL A   1      41.034  31.589  35.348  1.00  0.00     0.049 A 
ATOM     83  C   UNL A   1      41.857  28.484  30.759  1.00  0.00     0.074 A 
ATOM     84  C   UNL A   1      41.874  31.348  36.422  1.00  0.00    -0.036 A 
ATOM     85  N   UNL A   1      41.414  30.716  34.340  1.00  0.00    -0.354 N 
ATOM     86  N   UNL A   1      41.781  29.123  31.902  1.00  0.00    -0.248 NA
ATOM     87  C   UNL A   1      42.947  27.501  30.693  1.00  0.00    -0.034 C 
ATOM     88  C   UNL A   1      42.783  30.353  36.051  1.00  0.00    -0.036 A 
ATOM     89  H   UNL A   1      41.835  31.823  37.338  1.00  0.00     0.065 H 
ATOM     90  C   UNL A   1      42.483  29.942  34.762  1.00  0.00     0.049 A 
ATOM     91  H   UNL A   1      40.986  30.654  33.455  1.00  0.00     0.167 HD
ATOM     92  C   UNL A   1      42.784  28.594  32.702  1.00  0.00     0.074 A 
ATOM     93  C   UNL A   1      43.453  27.578  31.917  1.00  0.00    -0.034 C 
ATOM     94  H   UNL A   1      43.242  26.908  29.902  1.00  0.00     0.065 H 
ATOM     95  H   UNL A   1      43.549  29.985  36.638  1.00  0.00     0.065 H 
ATOM     96  C   UNL A   1      43.121  28.920  33.974  1.00  0.00     0.037 A 
ATOM     97  H   UNL A   1      44.224  26.987  32.265  1.00  0.00     0.065 H 
BRANCH  78  98
ATOM     98  C   UNL A   1      39.713  33.467  36.397  1.00  0.00     0.064 A 
ATOM     99  C   UNL A   1      40.303  34.737  36.461  1.00  0.00     0.173 A 
ATOM    100  C   UNL A   1      38.855  33.089  37.442  1.00  0.00     0.173 A 
ATOM    101  F   UNL A   1      41.141  35.142  35.494  1.00  0.00    -0.203 F 
ATOM    102  C   UNL A   1      40.070  35.583  37.543  1.00  0.00     0.198 A 
ATOM    103  C   UNL A   1      38.601  33.948  38.508  1.00  0.00     0.198 A 
ATOM    104  F   UNL A   1      38.261  31.886  37.429  1.00  0.00    -0.203 F 
ATOM    105  F   UNL A   1      40.687  36.771  37.607  1.00  0.00    -0.200 F 
ATOM    106  C   UNL A   1      39.215  35.191  38.562  1.00  0.00     0.200 A 
ATOM    107  F   UNL A   1      37.766  33.573  39.486  1.00  0.00    -0.200 F 
ATOM    108  F   UNL A   1      38.990  36.006  39.600  1.00  0.00    -0.200 F 
ENDBRANCH  78  98
BRANCH  81 109
ATOM    109  C   UNL A   1      41.229  27.767  28.342  1.00  0.00     0.064 A 
ATOM    110  C   UNL A   1      42.096  28.192  27.326  1.00  0.00     0.173 A 
ATOM    111  C   UNL A   1      40.601  26.524  28.188  1.00  0.00     0.173 A 
ATOM    112  F   UNL A   1      42.704  29.384  27.420  1.00  0.00    -0.203 F 
ATOM    113  C   UNL A   1      42.308  27.416  26.188  1.00  0.00     0.198 A 
ATOM    114  C   UNL A   1      40.832  25.736  27.062  1.00  0.00     0.198 A 
ATOM    115  F   UNL A   1      39.767  26.070  29.135  1.00  0.00    -0.203 F 
ATOM    116  F   UNL A   1      43.106  27.866  25.212  1.00  0.00    -0.200 F 
ATOM    117  C   UNL A   1      41.679  26.186  26.060  1.00  0.00     0.200 A 
ATOM    118  F   UNL A   1      40.233  24.544  26.946  1.00  0.00    -0.200 F 
ATOM    119  F   UNL A   1      41.884  25.438  24.967  1.00  0.00    -0.200 F 
ENDBRANCH  81 109
BRANCH  96 120
ATOM    120  C   UNL A   1      44.227  28.135  34.614  1.00  0.00     0.064 A 
ATOM    121  C   UNL A   1      45.561  28.565  34.567  1.00  0.00     0.173 A 
ATOM    122  C   UNL A   1      43.941  26.952  35.313  1.00  0.00     0.173 A 
ATOM    123  F   UNL A   1      45.886  29.682  33.898  1.00  0.00    -0.203 F 
ATOM    124  C   UNL A   1      46.573  27.825  35.173  1.00  0.00     0.198 A 
ATOM    125  C   UNL A   1      44.951  26.229  35.941  1.00  0.00     0.198 A 
ATOM    126  F   UNL A   1      42.679  26.502  35.392  1.00  0.00    -0.203 F 
ATOM    127  F   UNL A   1      47.846  28.229  35.075  1.00  0.00    -0.200 F 
ATOM    128  C   UNL A   1      46.266  26.662  35.864  1.00  0.00     0.200 A 
ATOM    129  F   UNL A   1      44.651  25.113  36.618  1.00  0.00    -0.200 F 
ATOM    130  F   UNL A   1      47.241  25.953  36.450  1.00  0.00    -0.200 F 
ENDBRANCH  96 120
ENDBRANCH  61  64
ENDBRANCH  51  54
ENDBRANCH  47  50
ENDBRANCH  44  47
ENDBRANCH  41  44
ENDBRANCH   1  41
TORSDOF 17
ENDMDL
MODEL 4
REMARK VINA RESULT:     -11.5      5.869     11.499
REMARK SMILES C[C@@H](C(=O)NCCCCCCNC(=O)c1ccc(-c2c3nc(c(-c4c(F)c(F)c(F)c(F)c4F)c4ccc([nH]4)c(-c4c(F)c(F)c(F)c(F)c4F)c4nc(c(-c5c(F)c(F)c(F)c(F)c5F)c5ccc2[nH]5)C=C4)C=C3)cc1)c1ccc(Cc2ccco2)cc1F
REMARK SMILES IDX 8 1 7 4 6 7 5 10 3 11 4 12 2 14 1 16 78 20 79 21 89 22 80 23
REMARK SMILES IDX 88 25 90 26 81 27 82 30 83 33 84 34 87 35 85 36 86 38 9 41
REMARK SMILES IDX 10 44 11 47 12 50 13 51 14 53 15 54 16 55 77 56 17 57 76 59
REMARK SMILES IDX 18 61 19 64 20 65 70 66 21 67 75 68 69 69 71 70 22 71 74 72
REMARK SMILES IDX 68 74 67 76 23 78 55 81 35 82 54 83 36 84 39 85 53 86 72 87
REMARK SMILES IDX 37 88 38 90 52 92 73 93 40 96 24 98 25 99 33 100 26 101
REMARK SMILES IDX 27 102 31 103 34 104 28 105 29 106 32 107 30 108 56 109
REMARK SMILES IDX 57 110 65 111 58 112 59 113 63 114 66 115 60 116 61 117
REMARK SMILES IDX 64 118 62 119 41 120 42 121 50 122 43 123 44 124 48 125
REMARK SMILES IDX 51 126 45 127 46 128 49 129 47 130
REMARK H PARENT 8 2 8 3 7 5 7 6 6 8 6 9 5 13 2 15 1 17 1 18 1 19 79 24 80 28
REMARK H PARENT 88 29 82 31 82 32 84 37 85 39 86 40 9 42 9 43 10 45 10 46
REMARK H PARENT 11 48 11 49 12 52 16 58 77 60 17 62 76 63 75 73 69 75 71 77
REMARK H PARENT 74 79 68 80 36 89 39 91 72 94 37 95 73 97
REMARK Flexibility Score: inf
ROOT
ATOM      1  C   UNL A   1      36.649  21.821  25.138  1.00  0.00    -0.052 C 
ATOM      2  H   UNL A   1      36.056  22.150  25.965  1.00  0.00     0.027 H 
ATOM      3  H   UNL A   1      37.698  21.983  25.268  1.00  0.00     0.027 H 
ENDROOT
BRANCH   1   4
ATOM      4  C   UNL A   1      36.245  22.646  23.908  1.00  0.00    -0.036 C 
ATOM      5  H   UNL A   1      37.136  22.930  23.389  1.00  0.00     0.028 H 
ATOM      6  H   UNL A   1      35.599  22.025  23.323  1.00  0.00     0.028 H 
BRANCH   4   7
ATOM      7  C   UNL A   1      35.453  23.916  24.228  1.00  0.00     0.017 C 
ATOM      8  H   UNL A   1      36.099  24.763  24.131  1.00  0.00     0.049 H 
ATOM      9  H   UNL A   1      34.634  23.986  23.543  1.00  0.00     0.049 H 
BRANCH   7  10
ATOM     10  N   UNL A   1      34.923  23.877  25.574  1.00  0.00    -0.356 N 
ATOM     11  C   UNL A   1      33.644  23.721  26.024  1.00  0.00     0.227 C 
ATOM     12  O   UNL A   1      33.494  23.718  27.247  1.00  0.00    -0.274 OA
ATOM     13  H   UNL A   1      35.597  23.980  26.283  1.00  0.00     0.163 HD
BRANCH  11  14
ATOM     14  C   UNL A   1      32.497  23.479  25.028  1.00  0.00     0.063 C 
ATOM     15  H   UNL A   1      32.706  24.141  24.215  1.00  0.00     0.045 H 
BRANCH  14  16
ATOM     16  C   UNL A   1      31.114  23.845  25.579  1.00  0.00    -0.049 C 
ATOM     17  H   UNL A   1      30.919  24.880  25.394  1.00  0.00     0.024 H 
ATOM     18  H   UNL A   1      31.089  23.661  26.633  1.00  0.00     0.024 H 
ATOM     19  H   UNL A   1      30.369  23.250  25.095  1.00  0.00     0.024 H 
ENDBRANCH  14  16
BRANCH  14  20
ATOM     20  C   UNL A   1      32.473  22.045  24.516  1.00  0.00    -0.000 A 
ATOM     21  C   UNL A   1      32.505  20.970  25.413  1.00  0.00    -0.055 A 
ATOM     22  C   UNL A   1      32.438  21.762  23.144  1.00  0.00     0.127 A 
ATOM     23  C   UNL A   1      32.528  19.653  24.942  1.00  0.00    -0.058 A 
ATOM     24  H   UNL A   1      32.514  21.150  26.429  1.00  0.00     0.063 H 
ATOM     25  C   UNL A   1      32.471  20.453  22.668  1.00  0.00    -0.022 A 
ATOM     26  F   UNL A   1      32.400  22.760  22.251  1.00  0.00    -0.207 F 
ATOM     27  C   UNL A   1      32.528  19.381  23.565  1.00  0.00    -0.038 A 
ATOM     28  H   UNL A   1      32.546  18.872  25.615  1.00  0.00     0.063 H 
ATOM     29  H   UNL A   1      32.454  20.275  21.652  1.00  0.00     0.066 H 
BRANCH  27  30
ATOM     30  C   UNL A   1      32.610  17.960  23.056  1.00  0.00     0.031 C 
ATOM     31  H   UNL A   1      33.045  17.973  22.078  1.00  0.00     0.040 H 
ATOM     32  H   UNL A   1      31.615  17.567  23.048  1.00  0.00     0.040 H 
BRANCH  30  33
ATOM     33  C   UNL A   1      33.432  17.072  23.927  1.00  0.00     0.108 A 
ATOM     34  C   UNL A   1      34.782  16.994  24.207  1.00  0.00    -0.020 A 
ATOM     35  O   UNL A   1      32.757  16.129  24.648  1.00  0.00    -0.469 OA
ATOM     36  C   UNL A   1      34.940  15.943  25.141  1.00  0.00    -0.024 A 
ATOM     37  H   UNL A   1      35.529  17.587  23.812  1.00  0.00     0.066 H 
ATOM     38  C   UNL A   1      33.679  15.451  25.378  1.00  0.00     0.091 A 
ATOM     39  H   UNL A   1      35.824  15.613  25.559  1.00  0.00     0.066 H 
ATOM     40  H   UNL A   1      33.464  14.673  26.022  1.00  0.00     0.104 H 
ENDBRANCH  30  33
ENDBRANCH  27  30
ENDBRANCH  14  20
ENDBRANCH  11  14
ENDBRANCH   7  10
ENDBRANCH   4   7
ENDBRANCH   1   4
BRANCH   1  41
ATOM     41  C   UNL A   1      36.470  20.305  25.001  1.00  0.00    -0.052 C 
ATOM     42  H   UNL A   1      35.940  20.116  24.091  1.00  0.00     0.027 H 
ATOM     43  H   UNL A   1      35.943  19.990  25.877  1.00  0.00     0.027 H 
BRANCH  41  44
ATOM     44  C   UNL A   1      37.767  19.495  24.971  1.00  0.00    -0.036 C 
ATOM     45  H   UNL A   1      38.060  19.374  23.949  1.00  0.00     0.028 H 
ATOM     46  H   UNL A   1      37.554  18.569  25.463  1.00  0.00     0.028 H 
BRANCH  44  47
ATOM     47  C   UNL A   1      38.933  20.122  25.727  1.00  0.00     0.018 C 
ATOM     48  H   UNL A   1      38.589  20.434  26.692  1.00  0.00     0.049 H 
ATOM     49  H   UNL A   1      39.288  20.952  25.152  1.00  0.00     0.049 H 
BRANCH  47  50
ATOM     50  N   UNL A   1      40.040  19.198  25.901  1.00  0.00    -0.352 N 
ATOM     51  C   UNL A   1      41.365  19.464  26.125  1.00  0.00     0.251 C 
ATOM     52  H   UNL A   1      39.804  18.244  25.851  1.00  0.00     0.163 HD
ATOM     53  O   UNL A   1      42.191  18.554  26.081  1.00  0.00    -0.269 OA
BRANCH  51  54
ATOM     54  C   UNL A   1      41.817  20.845  26.406  1.00  0.00     0.039 A 
ATOM     55  C   UNL A   1      42.102  21.201  27.728  1.00  0.00    -0.049 A 
ATOM     56  C   UNL A   1      41.914  21.799  25.389  1.00  0.00    -0.049 A 
ATOM     57  C   UNL A   1      42.509  22.503  28.026  1.00  0.00    -0.053 A 
ATOM     58  H   UNL A   1      42.012  20.502  28.482  1.00  0.00     0.063 H 
ATOM     59  C   UNL A   1      42.384  23.080  25.677  1.00  0.00    -0.053 A 
ATOM     60  H   UNL A   1      41.637  21.556  24.424  1.00  0.00     0.063 H 
ATOM     61  C   UNL A   1      42.663  23.450  27.001  1.00  0.00    -0.014 A 
ATOM     62  H   UNL A   1      42.696  22.770  29.005  1.00  0.00     0.063 H 
ATOM     63  H   UNL A   1      42.527  23.757  24.913  1.00  0.00     0.063 H 
BRANCH  61  64
ATOM     64  C   UNL A   1      43.060  24.846  27.307  1.00  0.00     0.031 A 
ATOM     65  C   UNL A   1      44.458  25.312  27.000  1.00  0.00     0.074 A 
ATOM     66  C   UNL A   1      42.184  25.683  27.896  1.00  0.00     0.049 A 
ATOM     67  N   UNL A   1      45.012  26.478  27.221  1.00  0.00    -0.248 NA
ATOM     68  C   UNL A   1      45.362  24.326  26.387  1.00  0.00    -0.034 C 
ATOM     69  C   UNL A   1      40.816  25.338  28.284  1.00  0.00    -0.036 A 
ATOM     70  N   UNL A   1      42.317  26.995  28.273  1.00  0.00    -0.354 N 
ATOM     71  C   UNL A   1      46.330  26.355  26.799  1.00  0.00     0.074 A 
ATOM     72  C   UNL A   1      46.507  24.992  26.352  1.00  0.00    -0.034 C 
ATOM     73  H   UNL A   1      45.157  23.367  26.067  1.00  0.00     0.065 H 
ATOM     74  C   UNL A   1      40.228  26.418  28.820  1.00  0.00    -0.036 A 
ATOM     75  H   UNL A   1      40.376  24.411  28.165  1.00  0.00     0.065 H 
ATOM     76  C   UNL A   1      41.182  27.522  28.837  1.00  0.00     0.049 A 
ATOM     77  H   UNL A   1      43.147  27.509  28.151  1.00  0.00     0.167 HD
ATOM     78  C   UNL A   1      47.298  27.302  26.765  1.00  0.00     0.037 A 
ATOM     79  H   UNL A   1      47.407  24.590  26.047  1.00  0.00     0.065 H 
ATOM     80  H   UNL A   1      39.256  26.461  29.165  1.00  0.00     0.065 H 
ATOM     81  C   UNL A   1      40.940  28.761  29.306  1.00  0.00     0.037 A 
ATOM     82  C   UNL A   1      47.107  28.670  27.166  1.00  0.00     0.049 A 
ATOM     83  C   UNL A   1      42.022  29.804  29.225  1.00  0.00     0.074 A 
ATOM     84  C   UNL A   1      48.004  29.723  27.108  1.00  0.00    -0.036 A 
ATOM     85  N   UNL A   1      45.931  29.177  27.698  1.00  0.00    -0.354 N 
ATOM     86  N   UNL A   1      43.243  29.696  28.760  1.00  0.00    -0.248 NA
ATOM     87  C   UNL A   1      41.686  31.146  29.722  1.00  0.00    -0.034 C 
ATOM     88  C   UNL A   1      47.381  30.858  27.636  1.00  0.00    -0.036 A 
ATOM     89  H   UNL A   1      48.967  29.677  26.739  1.00  0.00     0.065 H 
ATOM     90  C   UNL A   1      46.082  30.524  27.983  1.00  0.00     0.049 A 
ATOM     91  H   UNL A   1      45.109  28.656  27.851  1.00  0.00     0.167 HD
ATOM     92  C   UNL A   1      43.807  30.959  28.873  1.00  0.00     0.074 A 
ATOM     93  C   UNL A   1      42.793  31.820  29.444  1.00  0.00    -0.034 C 
ATOM     94  H   UNL A   1      40.817  31.475  30.170  1.00  0.00     0.065 H 
ATOM     95  H   UNL A   1      47.815  31.788  27.747  1.00  0.00     0.065 H 
ATOM     96  C   UNL A   1      45.054  31.370  28.532  1.00  0.00     0.037 A 
ATOM     97  H   UNL A   1      42.916  32.831  29.613  1.00  0.00     0.065 H 
BRANCH  78  98
ATOM     98  C   UNL A   1      48.654  26.888  26.270  1.00  0.00     0.064 A 
ATOM     99  C   UNL A   1      49.020  27.026  24.923  1.00  0.00     0.173 A 
ATOM    100  C   UNL A   1      49.607  26.369  27.159  1.00  0.00     0.173 A 
ATOM    101  F   UNL A   1      48.141  27.505  24.030  1.00  0.00    -0.203 F 
ATOM    102  C   UNL A   1      50.279  26.631  24.479  1.00  0.00     0.198 A 
ATOM    103  C   UNL A   1      50.875  26.001  26.718  1.00  0.00     0.198 A 
ATOM    104  F   UNL A   1      49.310  26.220  28.459  1.00  0.00    -0.203 F 
ATOM    105  F   UNL A   1      50.588  26.722  23.178  1.00  0.00    -0.200 F 
ATOM    106  C   UNL A   1      51.207  26.124  25.377  1.00  0.00     0.200 A 
ATOM    107  F   UNL A   1      51.774  25.523  27.588  1.00  0.00    -0.200 F 
ATOM    108  F   UNL A   1      52.419  25.746  24.948  1.00  0.00    -0.200 F 
ENDBRANCH  78  98
BRANCH  81 109
ATOM    109  C   UNL A   1      39.599  29.101  29.847  1.00  0.00     0.064 A 
ATOM    110  C   UNL A   1      39.304  28.904  31.203  1.00  0.00     0.173 A 
ATOM    111  C   UNL A   1      38.589  29.623  29.027  1.00  0.00     0.173 A 
ATOM    112  F   UNL A   1      40.233  28.389  32.022  1.00  0.00    -0.203 F 
ATOM    113  C   UNL A   1      38.041  29.195  31.715  1.00  0.00     0.198 A 
ATOM    114  C   UNL A   1      37.334  29.937  29.544  1.00  0.00     0.198 A 
ATOM    115  F   UNL A   1      38.823  29.835  27.724  1.00  0.00    -0.203 F 
ATOM    116  F   UNL A   1      37.773  28.955  33.005  1.00  0.00    -0.200 F 
ATOM    117  C   UNL A   1      37.058  29.716  30.886  1.00  0.00     0.200 A 
ATOM    118  F   UNL A   1      36.391  30.451  28.744  1.00  0.00    -0.200 F 
ATOM    119  F   UNL A   1      35.845  29.997  31.378  1.00  0.00    -0.200 F 
ENDBRANCH  81 109
BRANCH  96 120
ATOM    120  C   UNL A   1      45.373  32.824  28.718  1.00  0.00     0.064 A 
ATOM    121  C   UNL A   1      45.975  33.303  29.890  1.00  0.00     0.173 A 
ATOM    122  C   UNL A   1      45.100  33.744  27.693  1.00  0.00     0.173 A 
ATOM    123  F   UNL A   1      46.241  32.465  30.903  1.00  0.00    -0.203 F 
ATOM    124  C   UNL A   1      46.269  34.656  30.040  1.00  0.00     0.198 A 
ATOM    125  C   UNL A   1      45.420  35.090  27.836  1.00  0.00     0.198 A 
ATOM    126  F   UNL A   1      44.530  33.333  26.550  1.00  0.00    -0.203 F 
ATOM    127  F   UNL A   1      46.801  35.100  31.187  1.00  0.00    -0.200 F 
ATOM    128  C   UNL A   1      45.997  35.546  29.012  1.00  0.00     0.200 A 
ATOM    129  F   UNL A   1      45.167  35.947  26.837  1.00  0.00    -0.200 F 
ATOM    130  F   UNL A   1      46.284  36.847  29.158  1.00  0.00    -0.200 F 
ENDBRANCH  96 120
ENDBRANCH  61  64
ENDBRANCH  51  54
ENDBRANCH  47  50
ENDBRANCH  44  47
ENDBRANCH  41  44
ENDBRANCH   1  41
TORSDOF 17
ENDMDL
MODEL 5
REMARK VINA RESULT:     -11.5      5.937     10.291
REMARK SMILES C[C@@H](C(=O)NCCCCCCNC(=O)c1ccc(-c2c3nc(c(-c4c(F)c(F)c(F)c(F)c4F)c4ccc([nH]4)c(-c4c(F)c(F)c(F)c(F)c4F)c4nc(c(-c5c(F)c(F)c(F)c(F)c5F)c5ccc2[nH]5)C=C4)C=C3)cc1)c1ccc(Cc2ccco2)cc1F
REMARK SMILES IDX 8 1 7 4 6 7 5 10 3 11 4 12 2 14 1 16 78 20 79 21 89 22 80 23
REMARK SMILES IDX 88 25 90 26 81 27 82 30 83 33 84 34 87 35 85 36 86 38 9 41
REMARK SMILES IDX 10 44 11 47 12 50 13 51 14 53 15 54 16 55 77 56 17 57 76 59
REMARK SMILES IDX 18 61 19 64 20 65 70 66 21 67 75 68 69 69 71 70 22 71 74 72
REMARK SMILES IDX 68 74 67 76 23 78 55 81 35 82 54 83 36 84 39 85 53 86 72 87
REMARK SMILES IDX 37 88 38 90 52 92 73 93 40 96 24 98 25 99 33 100 26 101
REMARK SMILES IDX 27 102 31 103 34 104 28 105 29 106 32 107 30 108 56 109
REMARK SMILES IDX 57 110 65 111 58 112 59 113 63 114 66 115 60 116 61 117
REMARK SMILES IDX 64 118 62 119 41 120 42 121 50 122 43 123 44 124 48 125
REMARK SMILES IDX 51 126 45 127 46 128 49 129 47 130
REMARK H PARENT 8 2 8 3 7 5 7 6 6 8 6 9 5 13 2 15 1 17 1 18 1 19 79 24 80 28
REMARK H PARENT 88 29 82 31 82 32 84 37 85 39 86 40 9 42 9 43 10 45 10 46
REMARK H PARENT 11 48 11 49 12 52 16 58 77 60 17 62 76 63 75 73 69 75 71 77
REMARK H PARENT 74 79 68 80 36 89 39 91 72 94 37 95 73 97
REMARK Flexibility Score: inf
ROOT
ATOM      1  C   UNL A   1      36.822  21.677  25.446  1.00  0.00    -0.052 C 
ATOM      2  H   UNL A   1      37.636  21.631  26.139  1.00  0.00     0.027 H 
ATOM      3  H   UNL A   1      36.908  22.470  24.734  1.00  0.00     0.027 H 
ENDROOT
BRANCH   1   4
ATOM      4  C   UNL A   1      35.539  21.960  26.240  1.00  0.00    -0.036 C 
ATOM      5  H   UNL A   1      34.768  21.319  25.868  1.00  0.00     0.028 H 
ATOM      6  H   UNL A   1      35.772  21.781  27.269  1.00  0.00     0.028 H 
BRANCH   4   7
ATOM      7  C   UNL A   1      35.045  23.405  26.152  1.00  0.00     0.017 C 
ATOM      8  H   UNL A   1      35.785  24.053  26.572  1.00  0.00     0.049 H 
ATOM      9  H   UNL A   1      34.875  23.642  25.122  1.00  0.00     0.049 H 
BRANCH   7  10
ATOM     10  N   UNL A   1      33.802  23.578  26.873  1.00  0.00    -0.356 N 
ATOM     11  C   UNL A   1      32.520  23.700  26.422  1.00  0.00     0.227 C 
ATOM     12  O   UNL A   1      31.649  23.827  27.285  1.00  0.00    -0.274 OA
ATOM     13  H   UNL A   1      33.897  23.613  27.852  1.00  0.00     0.163 HD
BRANCH  11  14
ATOM     14  C   UNL A   1      32.214  23.593  24.919  1.00  0.00     0.063 C 
ATOM     15  H   UNL A   1      32.997  24.149  24.447  1.00  0.00     0.045 H 
BRANCH  14  16
ATOM     16  C   UNL A   1      30.882  24.233  24.512  1.00  0.00    -0.049 C 
ATOM     17  H   UNL A   1      30.974  24.656  23.533  1.00  0.00     0.024 H 
ATOM     18  H   UNL A   1      30.628  25.004  25.210  1.00  0.00     0.024 H 
ATOM     19  H   UNL A   1      30.115  23.488  24.507  1.00  0.00     0.024 H 
ENDBRANCH  14  16
BRANCH  14  20
ATOM     20  C   UNL A   1      32.253  22.153  24.425  1.00  0.00    -0.000 A 
ATOM     21  C   UNL A   1      32.148  21.089  25.330  1.00  0.00    -0.055 A 
ATOM     22  C   UNL A   1      32.413  21.852  23.065  1.00  0.00     0.127 A 
ATOM     23  C   UNL A   1      32.229  19.766  24.882  1.00  0.00    -0.058 A 
ATOM     24  H   UNL A   1      32.011  21.282  26.335  1.00  0.00     0.063 H 
ATOM     25  C   UNL A   1      32.505  20.538  22.615  1.00  0.00    -0.022 A 
ATOM     26  F   UNL A   1      32.511  22.840  22.165  1.00  0.00    -0.207 F 
ATOM     27  C   UNL A   1      32.424  19.476  23.523  1.00  0.00    -0.038 A 
ATOM     28  H   UNL A   1      32.143  18.993  25.560  1.00  0.00     0.063 H 
ATOM     29  H   UNL A   1      32.633  20.347  21.609  1.00  0.00     0.066 H 
BRANCH  27  30
ATOM     30  C   UNL A   1      32.568  18.049  23.047  1.00  0.00     0.031 C 
ATOM     31  H   UNL A   1      32.996  18.058  22.067  1.00  0.00     0.040 H 
ATOM     32  H   UNL A   1      31.592  17.611  23.056  1.00  0.00     0.040 H 
BRANCH  30  33
ATOM     33  C   UNL A   1      33.434  17.221  23.934  1.00  0.00     0.108 A 
ATOM     34  C   UNL A   1      34.778  17.249  24.252  1.00  0.00    -0.020 A 
ATOM     35  O   UNL A   1      32.819  16.218  24.626  1.00  0.00    -0.469 OA
ATOM     36  C   UNL A   1      34.995  16.204  25.181  1.00  0.00    -0.024 A 
ATOM     37  H   UNL A   1      35.485  17.905  23.884  1.00  0.00     0.066 H 
ATOM     38  C   UNL A   1      33.772  15.608  25.376  1.00  0.00     0.091 A 
ATOM     39  H   UNL A   1      35.891  15.942  25.621  1.00  0.00     0.066 H 
ATOM     40  H   UNL A   1      33.603  14.809  26.007  1.00  0.00     0.104 H 
ENDBRANCH  30  33
ENDBRANCH  27  30
ENDBRANCH  14  20
ENDBRANCH  11  14
ENDBRANCH   7  10
ENDBRANCH   4   7
ENDBRANCH   1   4
BRANCH   1  41
ATOM     41  C   UNL A   1      36.819  20.378  24.633  1.00  0.00    -0.052 C 
ATOM     42  H   UNL A   1      36.938  20.634  23.601  1.00  0.00     0.027 H 
ATOM     43  H   UNL A   1      35.890  19.895  24.851  1.00  0.00     0.027 H 
BRANCH  41  44
ATOM     44  C   UNL A   1      37.914  19.375  25.001  1.00  0.00    -0.036 C 
ATOM     45  H   UNL A   1      38.267  18.922  24.098  1.00  0.00     0.028 H 
ATOM     46  H   UNL A   1      37.467  18.677  25.678  1.00  0.00     0.028 H 
BRANCH  44  47
ATOM     47  C   UNL A   1      39.112  19.971  25.731  1.00  0.00     0.018 C 
ATOM     48  H   UNL A   1      38.788  20.330  26.687  1.00  0.00     0.049 H 
ATOM     49  H   UNL A   1      39.501  20.764  25.128  1.00  0.00     0.049 H 
BRANCH  47  50
ATOM     50  N   UNL A   1      40.176  19.004  25.931  1.00  0.00    -0.352 N 
ATOM     51  C   UNL A   1      41.513  19.215  26.142  1.00  0.00     0.251 C 
ATOM     52  H   UNL A   1      39.896  18.060  25.913  1.00  0.00     0.163 HD
ATOM     53  O   UNL A   1      42.296  18.266  26.125  1.00  0.00    -0.269 OA
BRANCH  51  54
ATOM     54  C   UNL A   1      42.030  20.582  26.377  1.00  0.00     0.039 A 
ATOM     55  C   UNL A   1      42.271  20.989  27.692  1.00  0.00    -0.049 A 
ATOM     56  C   UNL A   1      42.230  21.474  25.320  1.00  0.00    -0.049 A 
ATOM     57  C   UNL A   1      42.737  22.281  27.946  1.00  0.00    -0.053 A 
ATOM     58  H   UNL A   1      42.106  20.337  28.475  1.00  0.00     0.063 H 
ATOM     59  C   UNL A   1      42.758  22.740  25.568  1.00  0.00    -0.053 A 
ATOM     60  H   UNL A   1      41.986  21.197  24.356  1.00  0.00     0.063 H 
ATOM     61  C   UNL A   1      42.995  23.164  26.884  1.00  0.00    -0.014 A 
ATOM     62  H   UNL A   1      42.893  22.589  28.918  1.00  0.00     0.063 H 
ATOM     63  H   UNL A   1      42.976  23.368  24.779  1.00  0.00     0.063 H 
BRANCH  61  64
ATOM     64  C   UNL A   1      43.456  24.550  27.141  1.00  0.00     0.031 A 
ATOM     65  C   UNL A   1      42.500  25.565  27.707  1.00  0.00     0.074 A 
ATOM     66  C   UNL A   1      44.716  24.909  26.830  1.00  0.00     0.049 A 
ATOM     67  N   UNL A   1      42.696  26.833  27.972  1.00  0.00    -0.248 NA
ATOM     68  C   UNL A   1      41.134  25.099  27.989  1.00  0.00    -0.034 C 
ATOM     69  C   UNL A   1      45.723  24.030  26.235  1.00  0.00    -0.036 A 
ATOM     70  N   UNL A   1      45.362  26.111  26.969  1.00  0.00    -0.354 N 
ATOM     71  C   UNL A   1      41.475  27.317  28.423  1.00  0.00     0.074 A 
ATOM     72  C   UNL A   1      40.533  26.222  28.355  1.00  0.00    -0.034 C 
ATOM     73  H   UNL A   1      40.744  24.146  27.919  1.00  0.00     0.065 H 
ATOM     74  C   UNL A   1      46.868  24.714  26.084  1.00  0.00    -0.036 A 
ATOM     75  H   UNL A   1      45.576  23.043  25.973  1.00  0.00     0.065 H 
ATOM     76  C   UNL A   1      46.669  26.084  26.548  1.00  0.00     0.049 A 
ATOM     77  H   UNL A   1      44.931  26.916  27.336  1.00  0.00     0.167 HD
ATOM     78  C   UNL A   1      41.173  28.557  28.878  1.00  0.00     0.037 A 
ATOM     79  H   UNL A   1      39.526  26.304  28.563  1.00  0.00     0.065 H 
ATOM     80  H   UNL A   1      47.748  24.333  25.703  1.00  0.00     0.065 H 
ATOM     81  C   UNL A   1      47.601  27.056  26.546  1.00  0.00     0.037 A 
ATOM     82  C   UNL A   1      42.123  29.631  28.989  1.00  0.00     0.049 A 
ATOM     83  C   UNL A   1      47.249  28.416  27.088  1.00  0.00     0.074 A 
ATOM     84  C   UNL A   1      41.933  30.904  29.499  1.00  0.00    -0.036 A 
ATOM     85  N   UNL A   1      43.447  29.555  28.586  1.00  0.00    -0.354 N 
ATOM     86  N   UNL A   1      46.110  28.843  27.576  1.00  0.00    -0.248 NA
ATOM     87  C   UNL A   1      48.319  29.424  27.089  1.00  0.00    -0.034 C 
ATOM     88  C   UNL A   1      43.135  31.609  29.373  1.00  0.00    -0.036 A 
ATOM     89  H   UNL A   1      41.056  31.270  29.901  1.00  0.00     0.065 H 
ATOM     90  C   UNL A   1      44.085  30.762  28.826  1.00  0.00     0.049 A 
ATOM     91  H   UNL A   1      43.873  28.761  28.189  1.00  0.00     0.167 HD
ATOM     92  C   UNL A   1      46.335  30.152  27.978  1.00  0.00     0.074 A 
ATOM     93  C   UNL A   1      47.721  30.449  27.681  1.00  0.00    -0.034 C 
ATOM     94  H   UNL A   1      49.281  29.353  26.724  1.00  0.00     0.065 H 
ATOM     95  H   UNL A   1      43.288  32.593  29.644  1.00  0.00     0.065 H 
ATOM     96  C   UNL A   1      45.471  31.031  28.543  1.00  0.00     0.037 A 
ATOM     97  H   UNL A   1      48.185  31.343  27.902  1.00  0.00     0.065 H 
BRANCH  78  98
ATOM     98  C   UNL A   1      39.754  28.815  29.294  1.00  0.00     0.064 A 
ATOM     99  C   UNL A   1      39.322  28.602  30.611  1.00  0.00     0.173 A 
ATOM    100  C   UNL A   1      38.819  29.303  28.368  1.00  0.00     0.173 A 
ATOM    101  F   UNL A   1      40.173  28.123  31.532  1.00  0.00    -0.203 F 
ATOM    102  C   UNL A   1      38.000  28.839  30.980  1.00  0.00     0.198 A 
ATOM    103  C   UNL A   1      37.506  29.567  28.746  1.00  0.00     0.198 A 
ATOM    104  F   UNL A   1      39.181  29.528  27.096  1.00  0.00    -0.203 F 
ATOM    105  F   UNL A   1      37.598  28.579  32.231  1.00  0.00    -0.200 F 
ATOM    106  C   UNL A   1      37.095  29.327  30.049  1.00  0.00     0.200 A 
ATOM    107  F   UNL A   1      36.635  30.049  27.850  1.00  0.00    -0.200 F 
ATOM    108  F   UNL A   1      35.824  29.557  30.405  1.00  0.00    -0.200 F 
ENDBRANCH  78  98
BRANCH  81 109
ATOM    109  C   UNL A   1      48.975  26.766  26.061  1.00  0.00     0.064 A 
ATOM    110  C   UNL A   1      49.325  26.998  24.723  1.00  0.00     0.173 A 
ATOM    111  C   UNL A   1      49.960  26.252  26.915  1.00  0.00     0.173 A 
ATOM    112  F   UNL A   1      48.410  27.470  23.864  1.00  0.00    -0.203 F 
ATOM    113  C   UNL A   1      50.603  26.704  24.252  1.00  0.00     0.198 A 
ATOM    114  C   UNL A   1      51.245  25.982  26.450  1.00  0.00     0.198 A 
ATOM    115  F   UNL A   1      49.676  26.019  28.205  1.00  0.00    -0.203 F 
ATOM    116  F   UNL A   1      50.897  26.892  22.959  1.00  0.00    -0.200 F 
ATOM    117  C   UNL A   1      51.564  26.201  25.117  1.00  0.00     0.200 A 
ATOM    118  F   UNL A   1      52.174  25.508  27.290  1.00  0.00    -0.200 F 
ATOM    119  F   UNL A   1      52.793  25.920  24.665  1.00  0.00    -0.200 F 
ENDBRANCH  81 109
BRANCH  96 120
ATOM    120  C   UNL A   1      46.012  32.377  28.926  1.00  0.00     0.064 A 
ATOM    121  C   UNL A   1      45.957  33.471  28.051  1.00  0.00     0.173 A 
ATOM    122  C   UNL A   1      46.564  32.579  30.201  1.00  0.00     0.173 A 
ATOM    123  F   UNL A   1      45.452  33.322  26.817  1.00  0.00    -0.203 F 
ATOM    124  C   UNL A   1      46.459  34.713  28.429  1.00  0.00     0.198 A 
ATOM    125  C   UNL A   1      47.040  33.829  30.584  1.00  0.00     0.198 A 
ATOM    126  F   UNL A   1      46.633  31.565  31.076  1.00  0.00    -0.203 F 
ATOM    127  F   UNL A   1      46.440  35.733  27.560  1.00  0.00    -0.200 F 
ATOM    128  C   UNL A   1      46.994  34.893  29.696  1.00  0.00     0.200 A 
ATOM    129  F   UNL A   1      47.545  34.004  31.813  1.00  0.00    -0.200 F 
ATOM    130  F   UNL A   1      47.473  36.091  30.058  1.00  0.00    -0.200 F 
ENDBRANCH  96 120
ENDBRANCH  61  64
ENDBRANCH  51  54
ENDBRANCH  47  50
ENDBRANCH  44  47
ENDBRANCH  41  44
ENDBRANCH   1  41
TORSDOF 17
ENDMDL
MODEL 6
REMARK VINA RESULT:     -11.4      4.412      8.989
REMARK SMILES C[C@@H](C(=O)NCCCCCCNC(=O)c1ccc(-c2c3nc(c(-c4c(F)c(F)c(F)c(F)c4F)c4ccc([nH]4)c(-c4c(F)c(F)c(F)c(F)c4F)c4nc(c(-c5c(F)c(F)c(F)c(F)c5F)c5ccc2[nH]5)C=C4)C=C3)cc1)c1ccc(Cc2ccco2)cc1F
REMARK SMILES IDX 8 1 7 4 6 7 5 10 3 11 4 12 2 14 1 16 78 20 79 21 89 22 80 23
REMARK SMILES IDX 88 25 90 26 81 27 82 30 83 33 84 34 87 35 85 36 86 38 9 41
REMARK SMILES IDX 10 44 11 47 12 50 13 51 14 53 15 54 16 55 77 56 17 57 76 59
REMARK SMILES IDX 18 61 19 64 20 65 70 66 21 67 75 68 69 69 71 70 22 71 74 72
REMARK SMILES IDX 68 74 67 76 23 78 55 81 35 82 54 83 36 84 39 85 53 86 72 87
REMARK SMILES IDX 37 88 38 90 52 92 73 93 40 96 24 98 25 99 33 100 26 101
REMARK SMILES IDX 27 102 31 103 34 104 28 105 29 106 32 107 30 108 56 109
REMARK SMILES IDX 57 110 65 111 58 112 59 113 63 114 66 115 60 116 61 117
REMARK SMILES IDX 64 118 62 119 41 120 42 121 50 122 43 123 44 124 48 125
REMARK SMILES IDX 51 126 45 127 46 128 49 129 47 130
REMARK H PARENT 8 2 8 3 7 5 7 6 6 8 6 9 5 13 2 15 1 17 1 18 1 19 79 24 80 28
REMARK H PARENT 88 29 82 31 82 32 84 37 85 39 86 40 9 42 9 43 10 45 10 46
REMARK H PARENT 11 48 11 49 12 52 16 58 77 60 17 62 76 63 75 73 69 75 71 77
REMARK H PARENT 74 79 68 80 36 89 39 91 72 94 37 95 73 97
REMARK Flexibility Score: inf
ROOT
ATOM      1  C   UNL A   1      33.851  23.986  26.443  1.00  0.00    -0.052 C 
ATOM      2  H   UNL A   1      33.527  24.813  27.040  1.00  0.00     0.027 H 
ATOM      3  H   UNL A   1      33.065  23.527  25.880  1.00  0.00     0.027 H 
ENDROOT
BRANCH   1   4
ATOM      4  C   UNL A   1      34.383  22.899  27.388  1.00  0.00    -0.036 C 
ATOM      5  H   UNL A   1      35.431  22.784  27.207  1.00  0.00     0.028 H 
ATOM      6  H   UNL A   1      34.162  23.226  28.382  1.00  0.00     0.028 H 
BRANCH   4   7
ATOM      7  C   UNL A   1      33.716  21.533  27.221  1.00  0.00     0.017 C 
ATOM      8  H   UNL A   1      33.665  21.051  28.176  1.00  0.00     0.049 H 
ATOM      9  H   UNL A   1      32.735  21.681  26.820  1.00  0.00     0.049 H 
BRANCH   7  10
ATOM     10  N   UNL A   1      34.463  20.694  26.308  1.00  0.00    -0.356 N 
ATOM     11  C   UNL A   1      34.060  19.998  25.206  1.00  0.00     0.227 C 
ATOM     12  O   UNL A   1      34.937  19.369  24.609  1.00  0.00    -0.274 OA
ATOM     13  H   UNL A   1      35.421  20.612  26.517  1.00  0.00     0.163 HD
BRANCH  11  14
ATOM     14  C   UNL A   1      32.604  20.090  24.722  1.00  0.00     0.063 C 
ATOM     15  H   UNL A   1      32.019  19.912  25.599  1.00  0.00     0.045 H 
BRANCH  14  16
ATOM     16  C   UNL A   1      32.227  19.021  23.688  1.00  0.00    -0.049 C 
ATOM     17  H   UNL A   1      32.372  19.412  22.703  1.00  0.00     0.024 H 
ATOM     18  H   UNL A   1      31.200  18.748  23.816  1.00  0.00     0.024 H 
ATOM     19  H   UNL A   1      32.846  18.160  23.825  1.00  0.00     0.024 H 
ENDBRANCH  14  16
BRANCH  14  20
ATOM     20  C   UNL A   1      32.268  21.468  24.166  1.00  0.00    -0.000 A 
ATOM     21  C   UNL A   1      32.943  21.964  23.043  1.00  0.00    -0.055 A 
ATOM     22  C   UNL A   1      31.298  22.280  24.768  1.00  0.00     0.127 A 
ATOM     23  C   UNL A   1      32.667  23.248  22.560  1.00  0.00    -0.058 A 
ATOM     24  H   UNL A   1      33.650  21.380  22.570  1.00  0.00     0.063 H 
ATOM     25  C   UNL A   1      31.026  23.563  24.298  1.00  0.00    -0.022 A 
ATOM     26  F   UNL A   1      30.624  21.842  25.841  1.00  0.00    -0.207 F 
ATOM     27  C   UNL A   1      31.718  24.067  23.191  1.00  0.00    -0.038 A 
ATOM     28  H   UNL A   1      33.168  23.597  21.729  1.00  0.00     0.063 H 
ATOM     29  H   UNL A   1      30.313  24.142  24.768  1.00  0.00     0.066 H 
BRANCH  27  30
ATOM     30  C   UNL A   1      31.461  25.474  22.703  1.00  0.00     0.031 C 
ATOM     31  H   UNL A   1      30.451  25.737  22.937  1.00  0.00     0.040 H 
ATOM     32  H   UNL A   1      31.646  25.484  21.649  1.00  0.00     0.040 H 
BRANCH  30  33
ATOM     33  C   UNL A   1      32.367  26.483  23.322  1.00  0.00     0.108 A 
ATOM     34  C   UNL A   1      33.483  27.164  22.876  1.00  0.00    -0.020 A 
ATOM     35  O   UNL A   1      32.066  26.877  24.593  1.00  0.00    -0.469 OA
ATOM     36  C   UNL A   1      33.888  28.012  23.934  1.00  0.00    -0.024 A 
ATOM     37  H   UNL A   1      33.933  27.073  21.951  1.00  0.00     0.066 H 
ATOM     38  C   UNL A   1      32.993  27.801  24.955  1.00  0.00     0.091 A 
ATOM     39  H   UNL A   1      34.693  28.658  23.937  1.00  0.00     0.066 H 
ATOM     40  H   UNL A   1      33.021  28.280  25.869  1.00  0.00     0.104 H 
ENDBRANCH  30  33
ENDBRANCH  27  30
ENDBRANCH  14  20
ENDBRANCH  11  14
ENDBRANCH   7  10
ENDBRANCH   4   7
ENDBRANCH   1   4
BRANCH   1  41
ATOM     41  C   UNL A   1      34.856  24.511  25.412  1.00  0.00    -0.052 C 
ATOM     42  H   UNL A   1      35.494  25.216  25.903  1.00  0.00     0.027 H 
ATOM     43  H   UNL A   1      34.274  24.937  24.622  1.00  0.00     0.027 H 
BRANCH  41  44
ATOM     44  C   UNL A   1      35.740  23.447  24.761  1.00  0.00    -0.036 C 
ATOM     45  H   UNL A   1      35.430  23.334  23.743  1.00  0.00     0.028 H 
ATOM     46  H   UNL A   1      35.616  22.557  25.342  1.00  0.00     0.028 H 
BRANCH  44  47
ATOM     47  C   UNL A   1      37.232  23.758  24.769  1.00  0.00     0.018 C 
ATOM     48  H   UNL A   1      37.390  24.670  25.308  1.00  0.00     0.049 H 
ATOM     49  H   UNL A   1      37.554  23.845  23.752  1.00  0.00     0.049 H 
BRANCH  47  50
ATOM     50  N   UNL A   1      38.014  22.705  25.393  1.00  0.00    -0.352 N 
ATOM     51  C   UNL A   1      39.065  22.806  26.266  1.00  0.00     0.251 C 
ATOM     52  H   UNL A   1      37.750  21.787  25.154  1.00  0.00     0.163 HD
ATOM     53  O   UNL A   1      39.716  21.804  26.562  1.00  0.00    -0.269 OA
BRANCH  51  54
ATOM     54  C   UNL A   1      39.437  24.115  26.846  1.00  0.00     0.039 A 
ATOM     55  C   UNL A   1      40.151  25.020  26.055  1.00  0.00    -0.049 A 
ATOM     56  C   UNL A   1      39.131  24.435  28.172  1.00  0.00    -0.049 A 
ATOM     57  C   UNL A   1      40.535  26.255  26.583  1.00  0.00    -0.053 A 
ATOM     58  H   UNL A   1      40.395  24.777  25.082  1.00  0.00     0.063 H 
ATOM     59  C   UNL A   1      39.455  25.693  28.678  1.00  0.00    -0.053 A 
ATOM     60  H   UNL A   1      38.664  23.741  28.777  1.00  0.00     0.063 H 
ATOM     61  C   UNL A   1      40.181  26.605  27.896  1.00  0.00    -0.014 A 
ATOM     62  H   UNL A   1      41.083  26.911  26.006  1.00  0.00     0.063 H 
ATOM     63  H   UNL A   1      39.161  25.955  29.631  1.00  0.00     0.063 H 
BRANCH  61  64
ATOM     64  C   UNL A   1      40.612  27.898  28.482  1.00  0.00     0.031 A 
ATOM     65  C   UNL A   1      42.063  28.124  28.811  1.00  0.00     0.074 A 
ATOM     66  C   UNL A   1      39.701  28.851  28.755  1.00  0.00     0.049 A 
ATOM     67  N   UNL A   1      42.638  29.167  29.358  1.00  0.00    -0.248 NA
ATOM     68  C   UNL A   1      42.988  27.021  28.511  1.00  0.00    -0.034 C 
ATOM     69  C   UNL A   1      38.261  28.735  28.524  1.00  0.00    -0.036 A 
ATOM     70  N   UNL A   1      39.853  30.105  29.291  1.00  0.00    -0.354 N 
ATOM     71  C   UNL A   1      43.979  28.833  29.488  1.00  0.00     0.074 A 
ATOM     72  C   UNL A   1      44.128  27.477  29.008  1.00  0.00    -0.034 C 
ATOM     73  H   UNL A   1      42.798  26.124  28.036  1.00  0.00     0.065 H 
ATOM     74  C   UNL A   1      37.665  29.880  28.892  1.00  0.00    -0.036 A 
ATOM     75  H   UNL A   1      37.781  27.905  28.142  1.00  0.00     0.065 H 
ATOM     76  C   UNL A   1      38.675  30.800  29.406  1.00  0.00     0.049 A 
ATOM     77  H   UNL A   1      40.724  30.471  29.567  1.00  0.00     0.167 HD
ATOM     78  C   UNL A   1      45.000  29.597  29.945  1.00  0.00     0.037 A 
ATOM     79  H   UNL A   1      45.005  26.937  29.047  1.00  0.00     0.065 H 
ATOM     80  H   UNL A   1      36.654  30.078  28.821  1.00  0.00     0.065 H 
ATOM     81  C   UNL A   1      38.441  32.044  29.867  1.00  0.00     0.037 A 
ATOM     82  C   UNL A   1      44.858  30.961  30.378  1.00  0.00     0.049 A 
ATOM     83  C   UNL A   1      39.598  32.885  30.336  1.00  0.00     0.074 A 
ATOM     84  C   UNL A   1      45.841  31.843  30.796  1.00  0.00    -0.036 A 
ATOM     85  N   UNL A   1      43.654  31.644  30.445  1.00  0.00    -0.354 N 
ATOM     86  N   UNL A   1      40.872  32.583  30.391  1.00  0.00    -0.248 NA
ATOM     87  C   UNL A   1      39.282  34.244  30.796  1.00  0.00    -0.034 C 
ATOM     88  C   UNL A   1      45.225  33.049  31.147  1.00  0.00    -0.036 A 
ATOM     89  H   UNL A   1      46.852  31.644  30.840  1.00  0.00     0.065 H 
ATOM     90  C   UNL A   1      43.865  32.933  30.908  1.00  0.00     0.049 A 
ATOM     91  H   UNL A   1      42.777  31.270  30.200  1.00  0.00     0.167 HD
ATOM     92  C   UNL A   1      41.514  33.723  30.853  1.00  0.00     0.074 A 
ATOM     93  C   UNL A   1      40.490  34.726  31.058  1.00  0.00    -0.034 C 
ATOM     94  H   UNL A   1      38.363  34.703  30.891  1.00  0.00     0.065 H 
ATOM     95  H   UNL A   1      45.703  33.884  31.521  1.00  0.00     0.065 H 
ATOM     96  C   UNL A   1      42.835  33.924  31.085  1.00  0.00     0.037 A 
ATOM     97  H   UNL A   1      40.675  35.692  31.368  1.00  0.00     0.065 H 
BRANCH  78  98
ATOM     98  C   UNL A   1      46.364  28.973  29.993  1.00  0.00     0.064 A 
ATOM     99  C   UNL A   1      47.241  29.031  28.899  1.00  0.00     0.173 A 
ATOM    100  C   UNL A   1      46.810  28.328  31.157  1.00  0.00     0.173 A 
ATOM    101  F   UNL A   1      46.858  29.624  27.758  1.00  0.00    -0.203 F 
ATOM    102  C   UNL A   1      48.501  28.440  28.958  1.00  0.00     0.198 A 
ATOM    103  C   UNL A   1      48.081  27.764  31.223  1.00  0.00     0.198 A 
ATOM    104  F   UNL A   1      46.014  28.248  32.234  1.00  0.00    -0.203 F 
ATOM    105  F   UNL A   1      49.300  28.462  27.883  1.00  0.00    -0.200 F 
ATOM    106  C   UNL A   1      48.922  27.812  30.121  1.00  0.00     0.200 A 
ATOM    107  F   UNL A   1      48.492  27.168  32.350  1.00  0.00    -0.200 F 
ATOM    108  F   UNL A   1      50.135  27.247  30.176  1.00  0.00    -0.200 F 
ENDBRANCH  78  98
BRANCH  81 109
ATOM    109  C   UNL A   1      37.060  32.591  29.859  1.00  0.00     0.064 A 
ATOM    110  C   UNL A   1      36.585  33.316  28.757  1.00  0.00     0.173 A 
ATOM    111  C   UNL A   1      36.193  32.407  30.944  1.00  0.00     0.173 A 
ATOM    112  F   UNL A   1      37.386  33.535  27.704  1.00  0.00    -0.203 F 
ATOM    113  C   UNL A   1      35.301  33.857  28.751  1.00  0.00     0.198 A 
ATOM    114  C   UNL A   1      34.900  32.925  30.927  1.00  0.00     0.198 A 
ATOM    115  F   UNL A   1      36.599  31.715  32.019  1.00  0.00    -0.203 F 
ATOM    116  F   UNL A   1      34.887  34.584  27.705  1.00  0.00    -0.200 F 
ATOM    117  C   UNL A   1      34.457  33.656  29.834  1.00  0.00     0.200 A 
ATOM    118  F   UNL A   1      34.084  32.720  31.969  1.00  0.00    -0.200 F 
ATOM    119  F   UNL A   1      33.222  34.174  29.827  1.00  0.00    -0.200 F 
ENDBRANCH  81 109
BRANCH  96 120
ATOM    120  C   UNL A   1      43.254  35.292  31.536  1.00  0.00     0.064 A 
ATOM    121  C   UNL A   1      43.660  36.277  30.625  1.00  0.00     0.173 A 
ATOM    122  C   UNL A   1      43.216  35.629  32.898  1.00  0.00     0.173 A 
ATOM    123  F   UNL A   1      43.727  35.997  29.315  1.00  0.00    -0.203 F 
ATOM    124  C   UNL A   1      44.039  37.543  31.064  1.00  0.00     0.198 A 
ATOM    125  C   UNL A   1      43.569  36.904  33.330  1.00  0.00     0.198 A 
ATOM    126  F   UNL A   1      42.828  34.723  33.808  1.00  0.00    -0.203 F 
ATOM    127  F   UNL A   1      44.469  38.455  30.181  1.00  0.00    -0.200 F 
ATOM    128  C   UNL A   1      43.986  37.857  32.414  1.00  0.00     0.200 A 
ATOM    129  F   UNL A   1      43.506  37.209  34.633  1.00  0.00    -0.200 F 
ATOM    130  F   UNL A   1      44.348  39.078  32.833  1.00  0.00    -0.200 F 
ENDBRANCH  96 120
ENDBRANCH  61  64
ENDBRANCH  51  54
ENDBRANCH  47  50
ENDBRANCH  44  47
ENDBRANCH  41  44
ENDBRANCH   1  41
TORSDOF 17
ENDMDL
MODEL 7
REMARK VINA RESULT:     -11.4      6.008     10.450
REMARK SMILES C[C@@H](C(=O)NCCCCCCNC(=O)c1ccc(-c2c3nc(c(-c4c(F)c(F)c(F)c(F)c4F)c4ccc([nH]4)c(-c4c(F)c(F)c(F)c(F)c4F)c4nc(c(-c5c(F)c(F)c(F)c(F)c5F)c5ccc2[nH]5)C=C4)C=C3)cc1)c1ccc(Cc2ccco2)cc1F
REMARK SMILES IDX 8 1 7 4 6 7 5 10 3 11 4 12 2 14 1 16 78 20 79 21 89 22 80 23
REMARK SMILES IDX 88 25 90 26 81 27 82 30 83 33 84 34 87 35 85 36 86 38 9 41
REMARK SMILES IDX 10 44 11 47 12 50 13 51 14 53 15 54 16 55 77 56 17 57 76 59
REMARK SMILES IDX 18 61 19 64 20 65 70 66 21 67 75 68 69 69 71 70 22 71 74 72
REMARK SMILES IDX 68 74 67 76 23 78 55 81 35 82 54 83 36 84 39 85 53 86 72 87
REMARK SMILES IDX 37 88 38 90 52 92 73 93 40 96 24 98 25 99 33 100 26 101
REMARK SMILES IDX 27 102 31 103 34 104 28 105 29 106 32 107 30 108 56 109
REMARK SMILES IDX 57 110 65 111 58 112 59 113 63 114 66 115 60 116 61 117
REMARK SMILES IDX 64 118 62 119 41 120 42 121 50 122 43 123 44 124 48 125
REMARK SMILES IDX 51 126 45 127 46 128 49 129 47 130
REMARK H PARENT 8 2 8 3 7 5 7 6 6 8 6 9 5 13 2 15 1 17 1 18 1 19 79 24 80 28
REMARK H PARENT 88 29 82 31 82 32 84 37 85 39 86 40 9 42 9 43 10 45 10 46
REMARK H PARENT 11 48 11 49 12 52 16 58 77 60 17 62 76 63 75 73 69 75 71 77
REMARK H PARENT 74 79 68 80 36 89 39 91 72 94 37 95 73 97
REMARK Flexibility Score: inf
ROOT
ATOM      1  C   UNL A   1      36.941  21.619  25.614  1.00  0.00    -0.052 C 
ATOM      2  H   UNL A   1      37.566  21.418  26.458  1.00  0.00     0.027 H 
ATOM      3  H   UNL A   1      37.216  22.501  25.075  1.00  0.00     0.027 H 
ENDROOT
BRANCH   1   4
ATOM      4  C   UNL A   1      35.516  21.865  26.128  1.00  0.00    -0.036 C 
ATOM      5  H   UNL A   1      34.841  21.289  25.531  1.00  0.00     0.028 H 
ATOM      6  H   UNL A   1      35.511  21.581  27.159  1.00  0.00     0.028 H 
BRANCH   4   7
ATOM      7  C   UNL A   1      35.068  23.327  26.078  1.00  0.00     0.017 C 
ATOM      8  H   UNL A   1      35.850  23.945  26.468  1.00  0.00     0.049 H 
ATOM      9  H   UNL A   1      34.857  23.582  25.061  1.00  0.00     0.049 H 
BRANCH   7  10
ATOM     10  N   UNL A   1      33.869  23.535  26.861  1.00  0.00    -0.356 N 
ATOM     11  C   UNL A   1      32.569  23.689  26.476  1.00  0.00     0.227 C 
ATOM     12  O   UNL A   1      31.747  23.841  27.383  1.00  0.00    -0.274 OA
ATOM     13  H   UNL A   1      34.015  23.569  27.834  1.00  0.00     0.163 HD
BRANCH  11  14
ATOM     14  C   UNL A   1      32.184  23.587  24.991  1.00  0.00     0.063 C 
ATOM     15  H   UNL A   1      32.927  24.163  24.482  1.00  0.00     0.045 H 
BRANCH  14  16
ATOM     16  C   UNL A   1      30.817  24.200  24.663  1.00  0.00    -0.049 C 
ATOM     17  H   UNL A   1      30.919  24.876  23.840  1.00  0.00     0.024 H 
ATOM     18  H   UNL A   1      30.450  24.730  25.517  1.00  0.00     0.024 H 
ATOM     19  H   UNL A   1      30.131  23.422  24.403  1.00  0.00     0.024 H 
ENDBRANCH  14  16
BRANCH  14  20
ATOM     20  C   UNL A   1      32.227  22.151  24.483  1.00  0.00    -0.000 A 
ATOM     21  C   UNL A   1      32.109  21.078  25.376  1.00  0.00    -0.055 A 
ATOM     22  C   UNL A   1      32.405  21.864  23.123  1.00  0.00     0.127 A 
ATOM     23  C   UNL A   1      32.194  19.760  24.916  1.00  0.00    -0.058 A 
ATOM     24  H   UNL A   1      31.960  21.261  26.381  1.00  0.00     0.063 H 
ATOM     25  C   UNL A   1      32.501  20.554  22.660  1.00  0.00    -0.022 A 
ATOM     26  F   UNL A   1      32.516  22.861  22.234  1.00  0.00    -0.207 F 
ATOM     27  C   UNL A   1      32.407  19.484  23.557  1.00  0.00    -0.038 A 
ATOM     28  H   UNL A   1      32.099  18.980  25.585  1.00  0.00     0.063 H 
ATOM     29  H   UNL A   1      32.641  20.374  21.654  1.00  0.00     0.066 H 
BRANCH  27  30
ATOM     30  C   UNL A   1      32.555  18.061  23.069  1.00  0.00     0.031 C 
ATOM     31  H   UNL A   1      32.975  18.080  22.085  1.00  0.00     0.040 H 
ATOM     32  H   UNL A   1      31.581  17.617  23.081  1.00  0.00     0.040 H 
BRANCH  30  33
ATOM     33  C   UNL A   1      33.432  17.230  23.943  1.00  0.00     0.108 A 
ATOM     34  C   UNL A   1      34.779  17.261  24.246  1.00  0.00    -0.020 A 
ATOM     35  O   UNL A   1      32.826  16.223  24.636  1.00  0.00    -0.469 OA
ATOM     36  C   UNL A   1      35.008  16.211  25.168  1.00  0.00    -0.024 A 
ATOM     37  H   UNL A   1      35.481  17.920  23.875  1.00  0.00     0.066 H 
ATOM     38  C   UNL A   1      33.788  15.612  25.373  1.00  0.00     0.091 A 
ATOM     39  H   UNL A   1      35.909  15.949  25.598  1.00  0.00     0.066 H 
ATOM     40  H   UNL A   1      33.627  14.809  26.002  1.00  0.00     0.104 H 
ENDBRANCH  30  33
ENDBRANCH  27  30
ENDBRANCH  14  20
ENDBRANCH  11  14
ENDBRANCH   7  10
ENDBRANCH   4   7
ENDBRANCH   1   4
BRANCH   1  41
ATOM     41  C   UNL A   1      37.092  20.457  24.626  1.00  0.00    -0.052 C 
ATOM     42  H   UNL A   1      37.354  20.866  23.673  1.00  0.00     0.027 H 
ATOM     43  H   UNL A   1      36.154  19.943  24.629  1.00  0.00     0.027 H 
BRANCH  41  44
ATOM     44  C   UNL A   1      38.147  19.414  25.000  1.00  0.00    -0.036 C 
ATOM     45  H   UNL A   1      38.566  19.025  24.096  1.00  0.00     0.028 H 
ATOM     46  H   UNL A   1      37.644  18.674  25.587  1.00  0.00     0.028 H 
BRANCH  44  47
ATOM     47  C   UNL A   1      39.289  19.939  25.864  1.00  0.00     0.018 C 
ATOM     48  H   UNL A   1      38.910  20.154  26.842  1.00  0.00     0.049 H 
ATOM     49  H   UNL A   1      39.678  20.817  25.393  1.00  0.00     0.049 H 
BRANCH  47  50
ATOM     50  N   UNL A   1      40.376  18.983  25.984  1.00  0.00    -0.352 N 
ATOM     51  C   UNL A   1      41.720  19.209  26.124  1.00  0.00     0.251 C 
ATOM     52  H   UNL A   1      40.108  18.035  25.963  1.00  0.00     0.163 HD
ATOM     53  O   UNL A   1      42.513  18.273  26.044  1.00  0.00    -0.269 OA
BRANCH  51  54
ATOM     54  C   UNL A   1      42.230  20.579  26.358  1.00  0.00     0.039 A 
ATOM     55  C   UNL A   1      42.373  21.024  27.676  1.00  0.00    -0.049 A 
ATOM     56  C   UNL A   1      42.520  21.437  25.294  1.00  0.00    -0.049 A 
ATOM     57  C   UNL A   1      42.831  22.320  27.927  1.00  0.00    -0.053 A 
ATOM     58  H   UNL A   1      42.141  20.398  28.462  1.00  0.00     0.063 H 
ATOM     59  C   UNL A   1      43.041  22.706  25.544  1.00  0.00    -0.053 A 
ATOM     60  H   UNL A   1      42.349  21.133  24.322  1.00  0.00     0.063 H 
ATOM     61  C   UNL A   1      43.178  23.167  26.862  1.00  0.00    -0.014 A 
ATOM     62  H   UNL A   1      42.913  22.655  28.898  1.00  0.00     0.063 H 
ATOM     63  H   UNL A   1      43.325  23.308  24.757  1.00  0.00     0.063 H 
BRANCH  61  64
ATOM     64  C   UNL A   1      43.633  24.557  27.113  1.00  0.00     0.031 A 
ATOM     65  C   UNL A   1      42.658  25.582  27.628  1.00  0.00     0.074 A 
ATOM     66  C   UNL A   1      44.904  24.910  26.842  1.00  0.00     0.049 A 
ATOM     67  N   UNL A   1      42.846  26.855  27.878  1.00  0.00    -0.248 NA
ATOM     68  C   UNL A   1      41.282  25.122  27.867  1.00  0.00    -0.034 C 
ATOM     69  C   UNL A   1      45.930  24.020  26.299  1.00  0.00    -0.036 A 
ATOM     70  N   UNL A   1      45.546  26.113  26.985  1.00  0.00    -0.354 N 
ATOM     71  C   UNL A   1      41.611  27.347  28.278  1.00  0.00     0.074 A 
ATOM     72  C   UNL A   1      40.670  26.252  28.193  1.00  0.00    -0.034 C 
ATOM     73  H   UNL A   1      40.893  24.169  27.799  1.00  0.00     0.065 H 
ATOM     74  C   UNL A   1      47.081  24.701  26.178  1.00  0.00    -0.036 A 
ATOM     75  H   UNL A   1      45.791  23.029  26.047  1.00  0.00     0.065 H 
ATOM     76  C   UNL A   1      46.867  26.079  26.612  1.00  0.00     0.049 A 
ATOM     77  H   UNL A   1      45.103  26.925  27.323  1.00  0.00     0.167 HD
ATOM     78  C   UNL A   1      41.294  28.594  28.701  1.00  0.00     0.037 A 
ATOM     79  H   UNL A   1      39.656  26.338  28.363  1.00  0.00     0.065 H 
ATOM     80  H   UNL A   1      47.973  24.313  25.835  1.00  0.00     0.065 H 
ATOM     81  C   UNL A   1      47.800  27.050  26.627  1.00  0.00     0.037 A 
ATOM     82  C   UNL A   1      42.241  29.669  28.828  1.00  0.00     0.049 A 
ATOM     83  C   UNL A   1      47.431  28.418  27.134  1.00  0.00     0.074 A 
ATOM     84  C   UNL A   1      42.035  30.951  29.310  1.00  0.00    -0.036 A 
ATOM     85  N   UNL A   1      43.579  29.586  28.475  1.00  0.00    -0.354 N 
ATOM     86  N   UNL A   1      46.276  28.854  27.574  1.00  0.00    -0.248 NA
ATOM     87  C   UNL A   1      48.501  29.425  27.158  1.00  0.00    -0.034 C 
ATOM     88  C   UNL A   1      43.241  31.652  29.217  1.00  0.00    -0.036 A 
ATOM     89  H   UNL A   1      41.144  31.324  29.675  1.00  0.00     0.065 H 
ATOM     90  C   UNL A   1      44.209  30.796  28.718  1.00  0.00     0.049 A 
ATOM     91  H   UNL A   1      44.018  28.785  28.107  1.00  0.00     0.167 HD
ATOM     92  C   UNL A   1      46.488  30.170  27.962  1.00  0.00     0.074 A 
ATOM     93  C   UNL A   1      47.884  30.460  27.711  1.00  0.00    -0.034 C 
ATOM     94  H   UNL A   1      49.476  29.347  26.829  1.00  0.00     0.065 H 
ATOM     95  H   UNL A   1      43.387  32.641  29.477  1.00  0.00     0.065 H 
ATOM     96  C   UNL A   1      45.605  31.059  28.481  1.00  0.00     0.037 A 
ATOM     97  H   UNL A   1      48.341  31.358  27.934  1.00  0.00     0.065 H 
BRANCH  78  98
ATOM     98  C   UNL A   1      39.861  28.860  29.061  1.00  0.00     0.064 A 
ATOM     99  C   UNL A   1      38.934  29.313  28.110  1.00  0.00     0.173 A 
ATOM    100  C   UNL A   1      39.403  28.636  30.368  1.00  0.00     0.173 A 
ATOM    101  F   UNL A   1      39.324  29.555  26.849  1.00  0.00    -0.203 F 
ATOM    102  C   UNL A   1      37.610  29.561  28.462  1.00  0.00     0.198 A 
ATOM    103  C   UNL A   1      38.072  28.858  30.710  1.00  0.00     0.198 A 
ATOM    104  F   UNL A   1      40.247  28.199  31.315  1.00  0.00    -0.203 F 
ATOM    105  F   UNL A   1      36.756  30.044  27.549  1.00  0.00    -0.200 F 
ATOM    106  C   UNL A   1      37.179  29.329  29.759  1.00  0.00     0.200 A 
ATOM    107  F   UNL A   1      37.654  28.622  31.960  1.00  0.00    -0.200 F 
ATOM    108  F   UNL A   1      35.904  29.566  30.096  1.00  0.00    -0.200 F 
ENDBRANCH  78  98
BRANCH  81 109
ATOM    109  C   UNL A   1      49.190  26.751  26.197  1.00  0.00     0.064 A 
ATOM    110  C   UNL A   1      50.133  26.263  27.112  1.00  0.00     0.173 A 
ATOM    111  C   UNL A   1      49.605  26.947  24.873  1.00  0.00     0.173 A 
ATOM    112  F   UNL A   1      49.787  26.078  28.395  1.00  0.00    -0.203 F 
ATOM    113  C   UNL A   1      51.446  26.005  26.725  1.00  0.00     0.198 A 
ATOM    114  C   UNL A   1      50.911  26.665  24.480  1.00  0.00     0.198 A 
ATOM    115  F   UNL A   1      48.739  27.407  23.958  1.00  0.00    -0.203 F 
ATOM    116  F   UNL A   1      52.338  25.582  27.630  1.00  0.00    -0.200 F 
ATOM    117  C   UNL A   1      51.833  26.201  25.407  1.00  0.00     0.200 A 
ATOM    118  F   UNL A   1      51.280  26.844  23.205  1.00  0.00    -0.200 F 
ATOM    119  F   UNL A   1      53.095  25.951  25.034  1.00  0.00    -0.200 F 
ENDBRANCH  81 109
BRANCH  96 120
ATOM    120  C   UNL A   1      46.134  32.410  28.862  1.00  0.00     0.064 A 
ATOM    121  C   UNL A   1      46.122  33.487  27.964  1.00  0.00     0.173 A 
ATOM    122  C   UNL A   1      46.630  32.635  30.156  1.00  0.00     0.173 A 
ATOM    123  F   UNL A   1      45.672  33.316  26.712  1.00  0.00    -0.203 F 
ATOM    124  C   UNL A   1      46.612  34.735  28.339  1.00  0.00     0.198 A 
ATOM    125  C   UNL A   1      47.094  33.891  30.535  1.00  0.00     0.198 A 
ATOM    126  F   UNL A   1      46.657  31.638  31.053  1.00  0.00    -0.203 F 
ATOM    127  F   UNL A   1      46.635  35.738  27.451  1.00  0.00    -0.200 F 
ATOM    128  C   UNL A   1      47.091  34.937  29.625  1.00  0.00     0.200 A 
ATOM    129  F   UNL A   1      47.545  34.088  31.782  1.00  0.00    -0.200 F 
ATOM    130  F   UNL A   1      47.559  36.141  29.985  1.00  0.00    -0.200 F 
ENDBRANCH  96 120
ENDBRANCH  61  64
ENDBRANCH  51  54
ENDBRANCH  47  50
ENDBRANCH  44  47
ENDBRANCH  41  44
ENDBRANCH   1  41
TORSDOF 17
ENDMDL
MODEL 8
REMARK VINA RESULT:     -11.1      4.026      8.720
REMARK SMILES C[C@@H](C(=O)NCCCCCCNC(=O)c1ccc(-c2c3nc(c(-c4c(F)c(F)c(F)c(F)c4F)c4ccc([nH]4)c(-c4c(F)c(F)c(F)c(F)c4F)c4nc(c(-c5c(F)c(F)c(F)c(F)c5F)c5ccc2[nH]5)C=C4)C=C3)cc1)c1ccc(Cc2ccco2)cc1F
REMARK SMILES IDX 8 1 7 4 6 7 5 10 3 11 4 12 2 14 1 16 78 20 79 21 89 22 80 23
REMARK SMILES IDX 88 25 90 26 81 27 82 30 83 33 84 34 87 35 85 36 86 38 9 41
REMARK SMILES IDX 10 44 11 47 12 50 13 51 14 53 15 54 16 55 77 56 17 57 76 59
REMARK SMILES IDX 18 61 19 64 20 65 70 66 21 67 75 68 69 69 71 70 22 71 74 72
REMARK SMILES IDX 68 74 67 76 23 78 55 81 35 82 54 83 36 84 39 85 53 86 72 87
REMARK SMILES IDX 37 88 38 90 52 92 73 93 40 96 24 98 25 99 33 100 26 101
REMARK SMILES IDX 27 102 31 103 34 104 28 105 29 106 32 107 30 108 56 109
REMARK SMILES IDX 57 110 65 111 58 112 59 113 63 114 66 115 60 116 61 117
REMARK SMILES IDX 64 118 62 119 41 120 42 121 50 122 43 123 44 124 48 125
REMARK SMILES IDX 51 126 45 127 46 128 49 129 47 130
REMARK H PARENT 8 2 8 3 7 5 7 6 6 8 6 9 5 13 2 15 1 17 1 18 1 19 79 24 80 28
REMARK H PARENT 88 29 82 31 82 32 84 37 85 39 86 40 9 42 9 43 10 45 10 46
REMARK H PARENT 11 48 11 49 12 52 16 58 77 60 17 62 76 63 75 73 69 75 71 77
REMARK H PARENT 74 79 68 80 36 89 39 91 72 94 37 95 73 97
REMARK Flexibility Score: inf
ROOT
ATOM      1  C   UNL A   1      33.683  23.951  26.426  1.00  0.00    -0.052 C 
ATOM      2  H   UNL A   1      33.398  24.819  26.983  1.00  0.00     0.027 H 
ATOM      3  H   UNL A   1      32.867  23.472  25.927  1.00  0.00     0.027 H 
ENDROOT
BRANCH   1   4
ATOM      4  C   UNL A   1      34.239  22.916  27.414  1.00  0.00    -0.036 C 
ATOM      5  H   UNL A   1      35.295  22.840  27.259  1.00  0.00     0.028 H 
ATOM      6  H   UNL A   1      33.982  23.261  28.393  1.00  0.00     0.028 H 
BRANCH   4   7
ATOM      7  C   UNL A   1      33.634  21.518  27.274  1.00  0.00     0.017 C 
ATOM      8  H   UNL A   1      33.628  21.043  28.233  1.00  0.00     0.049 H 
ATOM      9  H   UNL A   1      32.638  21.615  26.895  1.00  0.00     0.049 H 
BRANCH   7  10
ATOM     10  N   UNL A   1      34.398  20.706  26.350  1.00  0.00    -0.356 N 
ATOM     11  C   UNL A   1      34.014  20.034  25.227  1.00  0.00     0.227 C 
ATOM     12  O   UNL A   1      34.903  19.426  24.626  1.00  0.00    -0.274 OA
ATOM     13  H   UNL A   1      35.354  20.627  26.569  1.00  0.00     0.163 HD
BRANCH  11  14
ATOM     14  C   UNL A   1      32.563  20.127  24.727  1.00  0.00     0.063 C 
ATOM     15  H   UNL A   1      31.969  19.985  25.604  1.00  0.00     0.045 H 
BRANCH  14  16
ATOM     16  C   UNL A   1      32.182  19.029  23.727  1.00  0.00    -0.049 C 
ATOM     17  H   UNL A   1      31.282  18.550  24.050  1.00  0.00     0.024 H 
ATOM     18  H   UNL A   1      32.970  18.307  23.673  1.00  0.00     0.024 H 
ATOM     19  H   UNL A   1      32.028  19.464  22.762  1.00  0.00     0.024 H 
ENDBRANCH  14  16
BRANCH  14  20
ATOM     20  C   UNL A   1      32.249  21.490  24.123  1.00  0.00    -0.000 A 
ATOM     21  C   UNL A   1      32.943  21.942  22.993  1.00  0.00    -0.055 A 
ATOM     22  C   UNL A   1      31.280  22.331  24.686  1.00  0.00     0.127 A 
ATOM     23  C   UNL A   1      32.686  23.212  22.465  1.00  0.00    -0.058 A 
ATOM     24  H   UNL A   1      33.649  21.335  22.548  1.00  0.00     0.063 H 
ATOM     25  C   UNL A   1      31.028  23.600  24.171  1.00  0.00    -0.022 A 
ATOM     26  F   UNL A   1      30.589  21.935  25.763  1.00  0.00    -0.207 F 
ATOM     27  C   UNL A   1      31.739  24.061  23.057  1.00  0.00    -0.038 A 
ATOM     28  H   UNL A   1      33.201  23.529  21.628  1.00  0.00     0.063 H 
ATOM     29  H   UNL A   1      30.316  24.202  24.612  1.00  0.00     0.066 H 
BRANCH  27  30
ATOM     30  C   UNL A   1      31.503  25.453  22.520  1.00  0.00     0.031 C 
ATOM     31  H   UNL A   1      30.508  25.753  22.774  1.00  0.00     0.040 H 
ATOM     32  H   UNL A   1      31.653  25.416  21.461  1.00  0.00     0.040 H 
BRANCH  30  33
ATOM     33  C   UNL A   1      32.455  26.462  23.067  1.00  0.00     0.108 A 
ATOM     34  C   UNL A   1      33.548  27.124  22.544  1.00  0.00    -0.020 A 
ATOM     35  O   UNL A   1      32.235  26.877  24.349  1.00  0.00    -0.469 OA
ATOM     36  C   UNL A   1      34.025  27.983  23.563  1.00  0.00    -0.024 A 
ATOM     37  H   UNL A   1      33.940  27.015  21.595  1.00  0.00     0.066 H 
ATOM     38  C   UNL A   1      33.192  27.796  24.640  1.00  0.00     0.091 A 
ATOM     39  H   UNL A   1      34.835  28.619  23.508  1.00  0.00     0.066 H 
ATOM     40  H   UNL A   1      33.280  28.287  25.543  1.00  0.00     0.104 H 
ENDBRANCH  30  33
ENDBRANCH  27  30
ENDBRANCH  14  20
ENDBRANCH  11  14
ENDBRANCH   7  10
ENDBRANCH   4   7
ENDBRANCH   1   4
BRANCH   1  41
ATOM     41  C   UNL A   1      34.651  24.393  25.323  1.00  0.00    -0.052 C 
ATOM     42  H   UNL A   1      35.098  25.316  25.627  1.00  0.00     0.027 H 
ATOM     43  H   UNL A   1      34.066  24.474  24.432  1.00  0.00     0.027 H 
BRANCH  41  44
ATOM     44  C   UNL A   1      35.774  23.405  25.005  1.00  0.00    -0.036 C 
ATOM     45  H   UNL A   1      35.627  23.043  24.009  1.00  0.00     0.028 H 
ATOM     46  H   UNL A   1      35.717  22.636  25.747  1.00  0.00     0.028 H 
BRANCH  44  47
ATOM     47  C   UNL A   1      37.183  23.983  25.096  1.00  0.00     0.018 C 
ATOM     48  H   UNL A   1      37.198  24.733  25.859  1.00  0.00     0.049 H 
ATOM     49  H   UNL A   1      37.429  24.394  24.139  1.00  0.00     0.049 H 
BRANCH  47  50
ATOM     50  N   UNL A   1      38.176  22.972  25.413  1.00  0.00    -0.352 N 
ATOM     51  C   UNL A   1      39.340  23.092  26.126  1.00  0.00     0.251 C 
ATOM     52  H   UNL A   1      37.985  22.070  25.066  1.00  0.00     0.163 HD
ATOM     53  O   UNL A   1      40.143  22.161  26.153  1.00  0.00    -0.269 OA
BRANCH  51  54
ATOM     54  C   UNL A   1      39.647  24.343  26.856  1.00  0.00     0.039 A 
ATOM     55  C   UNL A   1      40.388  25.333  26.204  1.00  0.00    -0.049 A 
ATOM     56  C   UNL A   1      39.255  24.524  28.185  1.00  0.00    -0.049 A 
ATOM     57  C   UNL A   1      40.713  26.514  26.875  1.00  0.00    -0.053 A 
ATOM     58  H   UNL A   1      40.695  25.192  25.229  1.00  0.00     0.063 H 
ATOM     59  C   UNL A   1      39.521  25.729  28.832  1.00  0.00    -0.053 A 
ATOM     60  H   UNL A   1      38.768  23.765  28.688  1.00  0.00     0.063 H 
ATOM     61  C   UNL A   1      40.272  26.726  28.192  1.00  0.00    -0.014 A 
ATOM     62  H   UNL A   1      41.280  27.234  26.401  1.00  0.00     0.063 H 
ATOM     63  H   UNL A   1      39.163  25.889  29.786  1.00  0.00     0.063 H 
BRANCH  61  64
ATOM     64  C   UNL A   1      40.639  27.960  28.928  1.00  0.00     0.031 A 
ATOM     65  C   UNL A   1      42.036  28.124  29.467  1.00  0.00     0.074 A 
ATOM     66  C   UNL A   1      39.714  28.913  29.149  1.00  0.00     0.049 A 
ATOM     67  N   UNL A   1      42.546  29.108  30.165  1.00  0.00    -0.248 NA
ATOM     68  C   UNL A   1      42.975  27.022  29.209  1.00  0.00    -0.034 C 
ATOM     69  C   UNL A   1      38.318  28.852  28.718  1.00  0.00    -0.036 A 
ATOM     70  N   UNL A   1      39.811  30.119  29.796  1.00  0.00    -0.354 N 
ATOM     71  C   UNL A   1      43.852  28.731  30.448  1.00  0.00     0.074 A 
ATOM     72  C   UNL A   1      44.044  27.411  29.889  1.00  0.00    -0.034 C 
ATOM     73  H   UNL A   1      42.838  26.169  28.645  1.00  0.00     0.065 H 
ATOM     74  C   UNL A   1      37.695  29.981  29.089  1.00  0.00    -0.036 A 
ATOM     75  H   UNL A   1      37.882  28.065  28.212  1.00  0.00     0.065 H 
ATOM     76  C   UNL A   1      38.639  30.834  29.804  1.00  0.00     0.049 A 
ATOM     77  H   UNL A   1      40.642  30.441  30.214  1.00  0.00     0.167 HD
ATOM     78  C   UNL A   1      44.813  29.432  31.096  1.00  0.00     0.037 A 
ATOM     79  H   UNL A   1      44.900  26.847  30.005  1.00  0.00     0.065 H 
ATOM     80  H   UNL A   1      36.706  30.210  28.899  1.00  0.00     0.065 H 
ATOM     81  C   UNL A   1      38.364  32.045  30.325  1.00  0.00     0.037 A 
ATOM     82  C   UNL A   1      44.634  30.763  31.611  1.00  0.00     0.049 A 
ATOM     83  C   UNL A   1      39.458  32.819  31.010  1.00  0.00     0.074 A 
ATOM     84  C   UNL A   1      45.564  31.586  32.224  1.00  0.00    -0.036 A 
ATOM     85  N   UNL A   1      43.442  31.470  31.568  1.00  0.00    -0.354 N 
ATOM     86  N   UNL A   1      40.709  32.481  31.212  1.00  0.00    -0.248 NA
ATOM     87  C   UNL A   1      39.104  34.148  31.527  1.00  0.00    -0.034 C 
ATOM     88  C   UNL A   1      44.924  32.778  32.581  1.00  0.00    -0.036 A 
ATOM     89  H   UNL A   1      46.557  31.358  32.389  1.00  0.00     0.065 H 
ATOM     90  C   UNL A   1      43.608  32.715  32.153  1.00  0.00     0.049 A 
ATOM     91  H   UNL A   1      42.601  31.137  31.178  1.00  0.00     0.167 HD
ATOM     92  C   UNL A   1      41.299  33.567  31.843  1.00  0.00     0.074 A 
ATOM     93  C   UNL A   1      40.272  34.577  31.986  1.00  0.00    -0.034 C 
ATOM     94  H   UNL A   1      38.188  34.622  31.532  1.00  0.00     0.065 H 
ATOM     95  H   UNL A   1      45.360  33.570  33.080  1.00  0.00     0.065 H 
ATOM     96  C   UNL A   1      42.579  33.716  32.266  1.00  0.00     0.037 A 
ATOM     97  H   UNL A   1      40.428  35.513  32.392  1.00  0.00     0.065 H 
BRANCH  78  98
ATOM     98  C   UNL A   1      46.148  28.771  31.280  1.00  0.00     0.064 A 
ATOM     99  C   UNL A   1      46.441  28.005  32.418  1.00  0.00     0.173 A 
ATOM    100  C   UNL A   1      47.139  28.885  30.293  1.00  0.00     0.173 A 
ATOM    101  F   UNL A   1      45.532  27.875  33.396  1.00  0.00    -0.203 F 
ATOM    102  C   UNL A   1      47.687  27.403  32.576  1.00  0.00     0.198 A 
ATOM    103  C   UNL A   1      48.374  28.259  30.441  1.00  0.00     0.198 A 
ATOM    104  F   UNL A   1      46.910  29.602  29.183  1.00  0.00    -0.203 F 
ATOM    105  F   UNL A   1      47.962  26.721  33.696  1.00  0.00    -0.200 F 
ATOM    106  C   UNL A   1      48.650  27.526  31.586  1.00  0.00     0.200 A 
ATOM    107  F   UNL A   1      49.299  28.368  29.479  1.00  0.00    -0.200 F 
ATOM    108  F   UNL A   1      49.847  26.945  31.738  1.00  0.00    -0.200 F 
ENDBRANCH  78  98
BRANCH  81 109
ATOM    109  C   UNL A   1      37.006  32.627  30.173  1.00  0.00     0.064 A 
ATOM    110  C   UNL A   1      36.057  32.506  31.198  1.00  0.00     0.173 A 
ATOM    111  C   UNL A   1      36.626  33.307  29.008  1.00  0.00     0.173 A 
ATOM    112  F   UNL A   1      36.369  31.846  32.323  1.00  0.00    -0.203 F 
ATOM    113  C   UNL A   1      34.772  33.025  31.055  1.00  0.00     0.198 A 
ATOM    114  C   UNL A   1      35.349  33.848  28.875  1.00  0.00     0.198 A 
ATOM    115  F   UNL A   1      37.499  33.454  28.001  1.00  0.00    -0.203 F 
ATOM    116  F   UNL A   1      33.872  32.857  32.032  1.00  0.00    -0.200 F 
ATOM    117  C   UNL A   1      34.420  33.700  29.895  1.00  0.00     0.200 A 
ATOM    118  F   UNL A   1      35.016  34.510  27.760  1.00  0.00    -0.200 F 
ATOM    119  F   UNL A   1      33.186  34.201  29.758  1.00  0.00    -0.200 F 
ENDBRANCH  81 109
BRANCH  96 120
ATOM    120  C   UNL A   1      42.953  35.035  32.874  1.00  0.00     0.064 A 
ATOM    121  C   UNL A   1      42.864  35.263  34.254  1.00  0.00     0.173 A 
ATOM    122  C   UNL A   1      43.438  36.074  32.064  1.00  0.00     0.173 A 
ATOM    123  F   UNL A   1      42.392  34.306  35.067  1.00  0.00    -0.203 F 
ATOM    124  C   UNL A   1      43.222  36.494  34.800  1.00  0.00     0.198 A 
ATOM    125  C   UNL A   1      43.821  37.292  32.616  1.00  0.00     0.198 A 
ATOM    126  F   UNL A   1      43.548  35.902  30.738  1.00  0.00    -0.203 F 
ATOM    127  F   UNL A   1      43.085  36.706  36.115  1.00  0.00    -0.200 F 
ATOM    128  C   UNL A   1      43.706  37.504  33.981  1.00  0.00     0.200 A 
ATOM    129  F   UNL A   1      44.299  38.263  31.825  1.00  0.00    -0.200 F 
ATOM    130  F   UNL A   1      44.054  38.686  34.509  1.00  0.00    -0.200 F 
ENDBRANCH  96 120
ENDBRANCH  61  64
ENDBRANCH  51  54
ENDBRANCH  47  50
ENDBRANCH  44  47
ENDBRANCH  41  44
ENDBRANCH   1  41
TORSDOF 17
ENDMDL
MODEL 9
REMARK VINA RESULT:     -11.0      5.814     11.248
REMARK SMILES C[C@@H](C(=O)NCCCCCCNC(=O)c1ccc(-c2c3nc(c(-c4c(F)c(F)c(F)c(F)c4F)c4ccc([nH]4)c(-c4c(F)c(F)c(F)c(F)c4F)c4nc(c(-c5c(F)c(F)c(F)c(F)c5F)c5ccc2[nH]5)C=C4)C=C3)cc1)c1ccc(Cc2ccco2)cc1F
REMARK SMILES IDX 8 1 7 4 6 7 5 10 3 11 4 12 2 14 1 16 78 20 79 21 89 22 80 23
REMARK SMILES IDX 88 25 90 26 81 27 82 30 83 33 84 34 87 35 85 36 86 38 9 41
REMARK SMILES IDX 10 44 11 47 12 50 13 51 14 53 15 54 16 55 77 56 17 57 76 59
REMARK SMILES IDX 18 61 19 64 20 65 70 66 21 67 75 68 69 69 71 70 22 71 74 72
REMARK SMILES IDX 68 74 67 76 23 78 55 81 35 82 54 83 36 84 39 85 53 86 72 87
REMARK SMILES IDX 37 88 38 90 52 92 73 93 40 96 24 98 25 99 33 100 26 101
REMARK SMILES IDX 27 102 31 103 34 104 28 105 29 106 32 107 30 108 56 109
REMARK SMILES IDX 57 110 65 111 58 112 59 113 63 114 66 115 60 116 61 117
REMARK SMILES IDX 64 118 62 119 41 120 42 121 50 122 43 123 44 124 48 125
REMARK SMILES IDX 51 126 45 127 46 128 49 129 47 130
REMARK H PARENT 8 2 8 3 7 5 7 6 6 8 6 9 5 13 2 15 1 17 1 18 1 19 79 24 80 28
REMARK H PARENT 88 29 82 31 82 32 84 37 85 39 86 40 9 42 9 43 10 45 10 46
REMARK H PARENT 11 48 11 49 12 52 16 58 77 60 17 62 76 63 75 73 69 75 71 77
REMARK H PARENT 74 79 68 80 36 89 39 91 72 94 37 95 73 97
REMARK Flexibility Score: inf
ROOT
ATOM      1  C   UNL A   1      39.390  21.602  26.121  1.00  0.00    -0.052 C 
ATOM      2  H   UNL A   1      39.307  21.557  25.055  1.00  0.00     0.027 H 
ATOM      3  H   UNL A   1      38.655  21.018  26.635  1.00  0.00     0.027 H 
ENDROOT
BRANCH   1   4
ATOM      4  C   UNL A   1      39.152  23.055  26.553  1.00  0.00    -0.036 C 
ATOM      5  H   UNL A   1      39.174  23.093  27.622  1.00  0.00     0.028 H 
ATOM      6  H   UNL A   1      39.924  23.638  26.097  1.00  0.00     0.028 H 
BRANCH   4   7
ATOM      7  C   UNL A   1      37.824  23.648  26.081  1.00  0.00     0.017 C 
ATOM      8  H   UNL A   1      37.024  23.186  26.622  1.00  0.00     0.049 H 
ATOM      9  H   UNL A   1      37.840  24.703  26.261  1.00  0.00     0.049 H 
BRANCH   7  10
ATOM     10  N   UNL A   1      37.625  23.429  24.665  1.00  0.00    -0.356 N 
ATOM     11  C   UNL A   1      36.516  23.048  23.969  1.00  0.00     0.227 C 
ATOM     12  O   UNL A   1      36.646  22.951  22.746  1.00  0.00    -0.274 OA
ATOM     13  H   UNL A   1      38.425  23.580  24.111  1.00  0.00     0.163 HD
BRANCH  11  14
ATOM     14  C   UNL A   1      35.177  22.845  24.697  1.00  0.00     0.063 C 
ATOM     15  H   UNL A   1      35.452  22.507  25.673  1.00  0.00     0.045 H 
BRANCH  14  16
ATOM     16  C   UNL A   1      34.287  21.767  24.067  1.00  0.00    -0.049 C 
ATOM     17  H   UNL A   1      34.161  20.961  24.758  1.00  0.00     0.024 H 
ATOM     18  H   UNL A   1      34.749  21.401  23.174  1.00  0.00     0.024 H 
ATOM     19  H   UNL A   1      33.332  22.186  23.830  1.00  0.00     0.024 H 
ENDBRANCH  14  16
BRANCH  14  20
ATOM     20  C   UNL A   1      34.386  24.142  24.819  1.00  0.00    -0.000 A 
ATOM     21  C   UNL A   1      34.348  25.053  23.756  1.00  0.00    -0.055 A 
ATOM     22  C   UNL A   1      33.697  24.467  25.995  1.00  0.00     0.127 A 
ATOM     23  C   UNL A   1      33.660  26.264  23.885  1.00  0.00    -0.058 A 
ATOM     24  H   UNL A   1      34.833  24.831  22.872  1.00  0.00     0.063 H 
ATOM     25  C   UNL A   1      33.019  25.676  26.133  1.00  0.00    -0.022 A 
ATOM     26  F   UNL A   1      33.702  23.621  27.035  1.00  0.00    -0.207 F 
ATOM     27  C   UNL A   1      33.002  26.596  25.079  1.00  0.00    -0.038 A 
ATOM     28  H   UNL A   1      33.636  26.923  23.090  1.00  0.00     0.063 H 
ATOM     29  H   UNL A   1      32.529  25.893  27.014  1.00  0.00     0.066 H 
BRANCH  27  30
ATOM     30  C   UNL A   1      32.307  27.928  25.237  1.00  0.00     0.031 C 
ATOM     31  H   UNL A   1      33.035  28.706  25.144  1.00  0.00     0.040 H 
ATOM     32  H   UNL A   1      31.837  27.931  26.198  1.00  0.00     0.040 H 
BRANCH  30  33
ATOM     33  C   UNL A   1      31.240  28.156  24.220  1.00  0.00     0.108 A 
ATOM     34  C   UNL A   1      30.132  27.435  23.822  1.00  0.00    -0.020 A 
ATOM     35  O   UNL A   1      31.305  29.325  23.517  1.00  0.00    -0.469 OA
ATOM     36  C   UNL A   1      29.492  28.199  22.818  1.00  0.00    -0.024 A 
ATOM     37  H   UNL A   1      29.829  26.518  24.186  1.00  0.00     0.066 H 
ATOM     38  C   UNL A   1      30.244  29.340  22.670  1.00  0.00     0.091 A 
ATOM     39  H   UNL A   1      28.635  27.950  22.300  1.00  0.00     0.066 H 
ATOM     40  H   UNL A   1      30.031  30.103  22.008  1.00  0.00     0.104 H 
ENDBRANCH  30  33
ENDBRANCH  27  30
ENDBRANCH  14  20
ENDBRANCH  11  14
ENDBRANCH   7  10
ENDBRANCH   4   7
ENDBRANCH   1   4
BRANCH   1  41
ATOM     41  C   UNL A   1      40.748  21.012  26.515  1.00  0.00    -0.052 C 
ATOM     42  H   UNL A   1      40.826  21.046  27.581  1.00  0.00     0.027 H 
ATOM     43  H   UNL A   1      41.484  21.603  26.011  1.00  0.00     0.027 H 
BRANCH  41  44
ATOM     44  C   UNL A   1      40.987  19.568  26.069  1.00  0.00    -0.036 C 
ATOM     45  H   UNL A   1      40.953  19.539  25.000  1.00  0.00     0.028 H 
ATOM     46  H   UNL A   1      40.222  18.980  26.533  1.00  0.00     0.028 H 
BRANCH  44  47
ATOM     47  C   UNL A   1      42.316  18.969  26.517  1.00  0.00     0.018 C 
ATOM     48  H   UNL A   1      42.123  18.044  27.021  1.00  0.00     0.049 H 
ATOM     49  H   UNL A   1      42.790  19.676  27.167  1.00  0.00     0.049 H 
BRANCH  47  50
ATOM     50  N   UNL A   1      43.213  18.719  25.404  1.00  0.00    -0.352 N 
ATOM     51  C   UNL A   1      44.003  19.598  24.711  1.00  0.00     0.251 C 
ATOM     52  H   UNL A   1      43.261  17.782  25.104  1.00  0.00     0.163 HD
ATOM     53  O   UNL A   1      44.575  19.233  23.685  1.00  0.00    -0.269 OA
BRANCH  51  54
ATOM     54  C   UNL A   1      44.165  20.992  25.180  1.00  0.00     0.039 A 
ATOM     55  C   UNL A   1      43.649  22.027  24.394  1.00  0.00    -0.049 A 
ATOM     56  C   UNL A   1      44.859  21.288  26.357  1.00  0.00    -0.049 A 
ATOM     57  C   UNL A   1      43.805  23.354  24.800  1.00  0.00    -0.053 A 
ATOM     58  H   UNL A   1      43.152  21.811  23.515  1.00  0.00     0.063 H 
ATOM     59  C   UNL A   1      44.957  22.607  26.795  1.00  0.00    -0.053 A 
ATOM     60  H   UNL A   1      45.300  20.529  26.901  1.00  0.00     0.063 H 
ATOM     61  C   UNL A   1      44.452  23.654  26.010  1.00  0.00    -0.014 A 
ATOM     62  H   UNL A   1      43.445  24.118  24.207  1.00  0.00     0.063 H 
ATOM     63  H   UNL A   1      45.403  22.814  27.702  1.00  0.00     0.063 H 
BRANCH  61  64
ATOM     64  C   UNL A   1      44.657  25.060  26.436  1.00  0.00     0.031 A 
ATOM     65  C   UNL A   1      46.009  25.702  26.276  1.00  0.00     0.074 A 
ATOM     66  C   UNL A   1      43.646  25.747  27.000  1.00  0.00     0.049 A 
ATOM     67  N   UNL A   1      46.402  26.904  26.616  1.00  0.00    -0.248 NA
ATOM     68  C   UNL A   1      47.067  24.872  25.680  1.00  0.00    -0.034 C 
ATOM     69  C   UNL A   1      42.303  25.222  27.250  1.00  0.00    -0.036 A 
ATOM     70  N   UNL A   1      43.593  27.035  27.470  1.00  0.00    -0.354 N 
ATOM     71  C   UNL A   1      47.753  26.962  26.299  1.00  0.00     0.074 A 
ATOM     72  C   UNL A   1      48.124  25.664  25.783  1.00  0.00    -0.034 C 
ATOM     73  H   UNL A   1      47.002  23.921  25.284  1.00  0.00     0.065 H 
ATOM     74  C   UNL A   1      41.551  26.187  27.803  1.00  0.00    -0.036 A 
ATOM     75  H   UNL A   1      41.986  24.263  27.037  1.00  0.00     0.065 H 
ATOM     76  C   UNL A   1      42.364  27.389  27.969  1.00  0.00     0.049 A 
ATOM     77  H   UNL A   1      44.363  27.647  27.451  1.00  0.00     0.167 HD
ATOM     78  C   UNL A   1      48.602  28.012  26.406  1.00  0.00     0.037 A 
ATOM     79  H   UNL A   1      49.086  25.389  25.529  1.00  0.00     0.065 H 
ATOM     80  H   UNL A   1      40.558  26.095  28.067  1.00  0.00     0.065 H 
ATOM     81  C   UNL A   1      41.942  28.555  28.493  1.00  0.00     0.037 A 
ATOM     82  C   UNL A   1      48.220  29.317  26.875  1.00  0.00     0.049 A 
ATOM     83  C   UNL A   1      42.896  29.717  28.569  1.00  0.00     0.074 A 
ATOM     84  C   UNL A   1      48.988  30.466  26.959  1.00  0.00    -0.036 A 
ATOM     85  N   UNL A   1      46.956  29.647  27.338  1.00  0.00    -0.354 N 
ATOM     86  N   UNL A   1      44.153  29.781  28.202  1.00  0.00    -0.248 NA
ATOM     87  C   UNL A   1      42.366  30.972  29.120  1.00  0.00    -0.034 C 
ATOM     88  C   UNL A   1      48.197  31.482  27.503  1.00  0.00    -0.036 A 
ATOM     89  H   UNL A   1      49.974  30.556  26.669  1.00  0.00     0.065 H 
ATOM     90  C   UNL A   1      46.924  30.979  27.719  1.00  0.00     0.049 A 
ATOM     91  H   UNL A   1      46.192  29.028  27.388  1.00  0.00     0.167 HD
ATOM     92  C   UNL A   1      44.553  31.088  28.441  1.00  0.00     0.074 A 
ATOM     93  C   UNL A   1      43.404  31.786  28.979  1.00  0.00    -0.034 C 
ATOM     94  H   UNL A   1      41.433  31.168  29.514  1.00  0.00     0.065 H 
ATOM     95  H   UNL A   1      48.508  32.445  27.709  1.00  0.00     0.065 H 
ATOM     96  C   UNL A   1      45.764  31.661  28.232  1.00  0.00     0.037 A 
ATOM     97  H   UNL A   1      43.393  32.789  29.221  1.00  0.00     0.065 H 
BRANCH  78  98
ATOM     98  C   UNL A   1      50.031  27.791  26.001  1.00  0.00     0.064 A 
ATOM     99  C   UNL A   1      50.420  27.773  24.653  1.00  0.00     0.173 A 
ATOM    100  C   UNL A   1      51.027  27.619  26.974  1.00  0.00     0.173 A 
ATOM    101  F   UNL A   1      49.504  27.920  23.683  1.00  0.00    -0.203 F 
ATOM    102  C   UNL A   1      51.749  27.560  24.294  1.00  0.00     0.198 A 
ATOM    103  C   UNL A   1      52.359  27.435  26.612  1.00  0.00     0.198 A 
ATOM    104  F   UNL A   1      50.709  27.632  28.277  1.00  0.00    -0.203 F 
ATOM    105  F   UNL A   1      52.088  27.493  22.999  1.00  0.00    -0.200 F 
ATOM    106  C   UNL A   1      52.717  27.397  25.273  1.00  0.00     0.200 A 
ATOM    107  F   UNL A   1      53.295  27.289  27.559  1.00  0.00    -0.200 F 
ATOM    108  F   UNL A   1      53.995  27.194  24.926  1.00  0.00    -0.200 F 
ENDBRANCH  78  98
BRANCH  81 109
ATOM    109  C   UNL A   1      40.533  28.701  28.941  1.00  0.00     0.064 A 
ATOM    110  C   UNL A   1      40.178  28.458  30.275  1.00  0.00     0.173 A 
ATOM    111  C   UNL A   1      39.518  29.079  28.052  1.00  0.00     0.173 A 
ATOM    112  F   UNL A   1      41.112  28.074  31.157  1.00  0.00    -0.203 F 
ATOM    113  C   UNL A   1      38.855  28.566  30.699  1.00  0.00     0.198 A 
ATOM    114  C   UNL A   1      38.199  29.212  28.482  1.00  0.00     0.198 A 
ATOM    115  F   UNL A   1      39.808  29.328  26.767  1.00  0.00    -0.203 F 
ATOM    116  F   UNL A   1      38.536  28.285  31.969  1.00  0.00    -0.200 F 
ATOM    117  C   UNL A   1      37.867  28.948  29.803  1.00  0.00     0.200 A 
ATOM    118  F   UNL A   1      37.249  29.592  27.618  1.00  0.00    -0.200 F 
ATOM    119  F   UNL A   1      36.596  29.054  30.211  1.00  0.00    -0.200 F 
ENDBRANCH  81 109
BRANCH  96 120
ATOM    120  C   UNL A   1      45.893  33.124  28.536  1.00  0.00     0.064 A 
ATOM    121  C   UNL A   1      46.327  33.583  29.788  1.00  0.00     0.173 A 
ATOM    122  C   UNL A   1      45.610  34.079  27.546  1.00  0.00     0.173 A 
ATOM    123  F   UNL A   1      46.595  32.710  30.770  1.00  0.00    -0.203 F 
ATOM    124  C   UNL A   1      46.446  34.946  30.048  1.00  0.00     0.198 A 
ATOM    125  C   UNL A   1      45.757  35.439  27.801  1.00  0.00     0.198 A 
ATOM    126  F   UNL A   1      45.198  33.690  26.330  1.00  0.00    -0.203 F 
ATOM    127  F   UNL A   1      46.816  35.364  31.266  1.00  0.00    -0.200 F 
ATOM    128  C   UNL A   1      46.167  35.871  29.053  1.00  0.00     0.200 A 
ATOM    129  F   UNL A   1      45.499  36.331  26.835  1.00  0.00    -0.200 F 
ATOM    130  F   UNL A   1      46.287  37.182  29.304  1.00  0.00    -0.200 F 
ENDBRANCH  96 120
ENDBRANCH  61  64
ENDBRANCH  51  54
ENDBRANCH  47  50
ENDBRANCH  44  47
ENDBRANCH  41  44
ENDBRANCH   1  41
TORSDOF 17
ENDMDL
MODEL 10
REMARK VINA RESULT:     -10.9      2.183      4.031
REMARK SMILES C[C@@H](C(=O)NCCCCCCNC(=O)c1ccc(-c2c3nc(c(-c4c(F)c(F)c(F)c(F)c4F)c4ccc([nH]4)c(-c4c(F)c(F)c(F)c(F)c4F)c4nc(c(-c5c(F)c(F)c(F)c(F)c5F)c5ccc2[nH]5)C=C4)C=C3)cc1)c1ccc(Cc2ccco2)cc1F
REMARK SMILES IDX 8 1 7 4 6 7 5 10 3 11 4 12 2 14 1 16 78 20 79 21 89 22 80 23
REMARK SMILES IDX 88 25 90 26 81 27 82 30 83 33 84 34 87 35 85 36 86 38 9 41
REMARK SMILES IDX 10 44 11 47 12 50 13 51 14 53 15 54 16 55 77 56 17 57 76 59
REMARK SMILES IDX 18 61 19 64 20 65 70 66 21 67 75 68 69 69 71 70 22 71 74 72
REMARK SMILES IDX 68 74 67 76 23 78 55 81 35 82 54 83 36 84 39 85 53 86 72 87
REMARK SMILES IDX 37 88 38 90 52 92 73 93 40 96 24 98 25 99 33 100 26 101
REMARK SMILES IDX 27 102 31 103 34 104 28 105 29 106 32 107 30 108 56 109
REMARK SMILES IDX 57 110 65 111 58 112 59 113 63 114 66 115 60 116 61 117
REMARK SMILES IDX 64 118 62 119 41 120 42 121 50 122 43 123 44 124 48 125
REMARK SMILES IDX 51 126 45 127 46 128 49 129 47 130
REMARK H PARENT 8 2 8 3 7 5 7 6 6 8 6 9 5 13 2 15 1 17 1 18 1 19 79 24 80 28
REMARK H PARENT 88 29 82 31 82 32 84 37 85 39 86 40 9 42 9 43 10 45 10 46
REMARK H PARENT 11 48 11 49 12 52 16 58 77 60 17 62 76 63 75 73 69 75 71 77
REMARK H PARENT 74 79 68 80 36 89 39 91 72 94 37 95 73 97
REMARK Flexibility Score: inf
ROOT
ATOM      1  C   UNL A   1      34.426  32.352  29.199  1.00  0.00    -0.052 C 
ATOM      2  H   UNL A   1      35.197  32.250  29.934  1.00  0.00     0.027 H 
ATOM      3  H   UNL A   1      33.439  32.215  29.588  1.00  0.00     0.027 H 
ENDROOT
BRANCH   1   4
ATOM      4  C   UNL A   1      34.623  31.249  28.150  1.00  0.00    -0.036 C 
ATOM      5  H   UNL A   1      35.463  31.513  27.542  1.00  0.00     0.028 H 
ATOM      6  H   UNL A   1      34.766  30.337  28.690  1.00  0.00     0.028 H 
BRANCH   4   7
ATOM      7  C   UNL A   1      33.420  31.027  27.231  1.00  0.00     0.017 C 
ATOM      8  H   UNL A   1      32.801  31.900  27.248  1.00  0.00     0.049 H 
ATOM      9  H   UNL A   1      33.780  30.838  26.241  1.00  0.00     0.049 H 
BRANCH   7  10
ATOM     10  N   UNL A   1      32.639  29.886  27.659  1.00  0.00    -0.356 N 
ATOM     11  C   UNL A   1      32.036  28.898  26.937  1.00  0.00     0.227 C 
ATOM     12  O   UNL A   1      31.437  28.037  27.586  1.00  0.00    -0.274 OA
ATOM     13  H   UNL A   1      32.523  29.810  28.633  1.00  0.00     0.163 HD
BRANCH  11  14
ATOM     14  C   UNL A   1      32.192  28.851  25.408  1.00  0.00     0.063 C 
ATOM     15  H   UNL A   1      33.036  29.475  25.206  1.00  0.00     0.045 H 
BRANCH  14  16
ATOM     16  C   UNL A   1      30.995  29.431  24.646  1.00  0.00    -0.049 C 
ATOM     17  H   UNL A   1      30.655  30.318  25.138  1.00  0.00     0.024 H 
ATOM     18  H   UNL A   1      30.203  28.711  24.623  1.00  0.00     0.024 H 
ATOM     19  H   UNL A   1      31.290  29.669  23.646  1.00  0.00     0.024 H 
ENDBRANCH  14  16
BRANCH  14  20
ATOM     20  C   UNL A   1      32.477  27.443  24.901  1.00  0.00    -0.000 A 
ATOM     21  C   UNL A   1      31.596  26.817  24.009  1.00  0.00    -0.055 A 
ATOM     22  C   UNL A   1      33.607  26.730  25.324  1.00  0.00     0.127 A 
ATOM     23  C   UNL A   1      31.833  25.508  23.580  1.00  0.00    -0.058 A 
ATOM     24  H   UNL A   1      30.765  27.326  23.668  1.00  0.00     0.063 H 
ATOM     25  C   UNL A   1      33.843  25.423  24.908  1.00  0.00    -0.022 A 
ATOM     26  F   UNL A   1      34.479  27.293  26.172  1.00  0.00    -0.207 F 
ATOM     27  C   UNL A   1      32.950  24.791  24.036  1.00  0.00    -0.038 A 
ATOM     28  H   UNL A   1      31.179  25.063  22.918  1.00  0.00     0.063 H 
ATOM     29  H   UNL A   1      34.679  24.919  25.244  1.00  0.00     0.066 H 
BRANCH  27  30
ATOM     30  C   UNL A   1      33.175  23.357  23.615  1.00  0.00     0.031 C 
ATOM     31  H   UNL A   1      32.892  23.254  22.589  1.00  0.00     0.040 H 
ATOM     32  H   UNL A   1      32.585  22.739  24.259  1.00  0.00     0.040 H 
BRANCH  30  33
ATOM     33  C   UNL A   1      34.594  22.920  23.760  1.00  0.00     0.108 A 
ATOM     34  C   UNL A   1      35.252  22.100  24.656  1.00  0.00    -0.020 A 
ATOM     35  O   UNL A   1      35.473  23.375  22.821  1.00  0.00    -0.469 OA
ATOM     36  C   UNL A   1      36.606  22.060  24.245  1.00  0.00    -0.024 A 
ATOM     37  H   UNL A   1      34.838  21.611  25.465  1.00  0.00     0.066 H 
ATOM     38  C   UNL A   1      36.688  22.851  23.125  1.00  0.00     0.091 A 
ATOM     39  H   UNL A   1      37.376  21.542  24.698  1.00  0.00     0.066 H 
ATOM     40  H   UNL A   1      37.553  23.021  22.588  1.00  0.00     0.104 H 
ENDBRANCH  30  33
ENDBRANCH  27  30
ENDBRANCH  14  20
ENDBRANCH  11  14
ENDBRANCH   7  10
ENDBRANCH   4   7
ENDBRANCH   1   4
BRANCH   1  41
ATOM     41  C   UNL A   1      34.471  33.787  28.662  1.00  0.00    -0.052 C 
ATOM     42  H   UNL A   1      34.715  33.743  27.622  1.00  0.00     0.027 H 
ATOM     43  H   UNL A   1      35.202  34.300  29.252  1.00  0.00     0.027 H 
BRANCH  41  44
ATOM     44  C   UNL A   1      33.173  34.581  28.811  1.00  0.00    -0.036 C 
ATOM     45  H   UNL A   1      32.508  34.020  29.435  1.00  0.00     0.028 H 
ATOM     46  H   UNL A   1      32.797  34.732  27.820  1.00  0.00     0.028 H 
BRANCH  44  47
ATOM     47  C   UNL A   1      33.335  35.969  29.422  1.00  0.00     0.018 C 
ATOM     48  H   UNL A   1      33.089  36.701  28.680  1.00  0.00     0.049 H 
ATOM     49  H   UNL A   1      34.351  36.067  29.745  1.00  0.00     0.049 H 
BRANCH  47  50
ATOM     50  N   UNL A   1      32.480  36.168  30.578  1.00  0.00    -0.352 N 
ATOM     51  C   UNL A   1      32.607  35.668  31.848  1.00  0.00     0.251 C 
ATOM     52  H   UNL A   1      31.697  36.747  30.429  1.00  0.00     0.163 HD
ATOM     53  O   UNL A   1      31.693  35.810  32.658  1.00  0.00    -0.269 OA
BRANCH  51  54
ATOM     54  C   UNL A   1      33.833  34.944  32.250  1.00  0.00     0.039 A 
ATOM     55  C   UNL A   1      35.073  35.551  32.031  1.00  0.00    -0.049 A 
ATOM     56  C   UNL A   1      33.771  33.658  32.795  1.00  0.00    -0.049 A 
ATOM     57  C   UNL A   1      36.248  34.882  32.380  1.00  0.00    -0.053 A 
ATOM     58  H   UNL A   1      35.120  36.493  31.611  1.00  0.00     0.063 H 
ATOM     59  C   UNL A   1      34.939  33.018  33.205  1.00  0.00    -0.053 A 
ATOM     60  H   UNL A   1      32.860  33.181  32.893  1.00  0.00     0.063 H 
ATOM     61  C   UNL A   1      36.189  33.614  32.980  1.00  0.00    -0.014 A 
ATOM     62  H   UNL A   1      37.163  35.322  32.196  1.00  0.00     0.063 H 
ATOM     63  H   UNL A   1      34.884  32.102  33.675  1.00  0.00     0.063 H 
BRANCH  61  64
ATOM     64  C   UNL A   1      37.430  32.876  33.324  1.00  0.00     0.031 A 
ATOM     65  C   UNL A   1      38.142  33.171  34.617  1.00  0.00     0.074 A 
ATOM     66  C   UNL A   1      37.939  31.975  32.463  1.00  0.00     0.049 A 
ATOM     67  N   UNL A   1      39.255  32.663  35.086  1.00  0.00    -0.248 NA
ATOM     68  C   UNL A   1      37.537  34.192  35.485  1.00  0.00    -0.034 C 
ATOM     69  C   UNL A   1      37.367  31.634  31.160  1.00  0.00    -0.036 A 
ATOM     70  N   UNL A   1      39.055  31.183  32.555  1.00  0.00    -0.354 N 
ATOM     71  C   UNL A   1      39.492  33.320  36.286  1.00  0.00     0.074 A 
ATOM     72  C   UNL A   1      38.437  34.294  36.453  1.00  0.00    -0.034 C 
ATOM     73  H   UNL A   1      36.644  34.697  35.371  1.00  0.00     0.065 H 
ATOM     74  C   UNL A   1      38.121  30.684  30.585  1.00  0.00    -0.036 A 
ATOM     75  H   UNL A   1      36.520  32.057  30.749  1.00  0.00     0.065 H 
ATOM     76  C   UNL A   1      39.242  30.367  31.466  1.00  0.00     0.049 A 
ATOM     77  H   UNL A   1      39.665  31.199  33.327  1.00  0.00     0.167 HD
ATOM     78  C   UNL A   1      40.488  33.113  37.181  1.00  0.00     0.037 A 
ATOM     79  H   UNL A   1      38.391  34.979  37.223  1.00  0.00     0.065 H 
ATOM     80  H   UNL A   1      37.938  30.247  29.668  1.00  0.00     0.065 H 
ATOM     81  C   UNL A   1      40.205  29.461  31.214  1.00  0.00     0.037 A 
ATOM     82  C   UNL A   1      41.510  32.112  37.035  1.00  0.00     0.049 A 
ATOM     83  C   UNL A   1      41.281  29.225  32.240  1.00  0.00     0.074 A 
ATOM     84  C   UNL A   1      42.525  31.777  37.916  1.00  0.00    -0.036 A 
ATOM     85  N   UNL A   1      41.645  31.278  35.936  1.00  0.00    -0.354 N 
ATOM     86  N   UNL A   1      41.457  29.804  33.403  1.00  0.00    -0.248 NA
ATOM     87  C   UNL A   1      42.284  28.200  31.923  1.00  0.00    -0.034 C 
ATOM     88  C   UNL A   1      43.292  30.763  37.334  1.00  0.00    -0.036 A 
ATOM     89  H   UNL A   1      42.686  32.202  38.842  1.00  0.00     0.065 H 
ATOM     90  C   UNL A   1      42.732  30.437  36.109  1.00  0.00     0.049 A 
ATOM     91  H   UNL A   1      41.055  31.283  35.147  1.00  0.00     0.167 HD
ATOM     92  C   UNL A   1      42.564  29.189  33.972  1.00  0.00     0.074 A 
ATOM     93  C   UNL A   1      43.016  28.188  33.028  1.00  0.00    -0.034 C 
ATOM     94  H   UNL A   1      42.392  27.637  31.064  1.00  0.00     0.065 H 
ATOM     95  H   UNL A   1      44.135  30.331  37.746  1.00  0.00     0.065 H 
ATOM     96  C   UNL A   1      43.154  29.431  35.169  1.00  0.00     0.037 A 
ATOM     97  H   UNL A   1      43.807  27.546  33.195  1.00  0.00     0.065 H 
BRANCH  78  98
ATOM     98  C   UNL A   1      40.515  33.987  38.401  1.00  0.00     0.064 A 
ATOM     99  C   UNL A   1      39.824  33.639  39.571  1.00  0.00     0.173 A 
ATOM    100  C   UNL A   1      41.260  35.175  38.408  1.00  0.00     0.173 A 
ATOM    101  F   UNL A   1      39.086  32.519  39.612  1.00  0.00    -0.203 F 
ATOM    102  C   UNL A   1      39.854  34.464  40.693  1.00  0.00     0.198 A 
ATOM    103  C   UNL A   1      41.311  35.984  39.541  1.00  0.00     0.198 A 
ATOM    104  F   UNL A   1      41.943  35.553  37.316  1.00  0.00    -0.203 F 
ATOM    105  F   UNL A   1      39.143  34.137  41.781  1.00  0.00    -0.200 F 
ATOM    106  C   UNL A   1      40.601  35.632  40.679  1.00  0.00     0.200 A 
ATOM    107  F   UNL A   1      42.043  37.105  39.530  1.00  0.00    -0.200 F 
ATOM    108  F   UNL A   1      40.630  36.423  41.759  1.00  0.00    -0.200 F 
ENDBRANCH  78  98
BRANCH  81 109
ATOM    109  C   UNL A   1      40.169  28.668  29.959  1.00  0.00     0.064 A 
ATOM    110  C   UNL A   1      40.770  29.153  28.789  1.00  0.00     0.173 A 
ATOM    111  C   UNL A   1      39.535  27.420  29.899  1.00  0.00     0.173 A 
ATOM    112  F   UNL A   1      41.371  30.352  28.794  1.00  0.00    -0.203 F 
ATOM    113  C   UNL A   1      40.718  28.429  27.600  1.00  0.00     0.198 A 
ATOM    114  C   UNL A   1      39.506  26.684  28.716  1.00  0.00     0.198 A 
ATOM    115  F   UNL A   1      38.950  26.909  30.993  1.00  0.00    -0.203 F 
ATOM    116  F   UNL A   1      41.262  28.937  26.485  1.00  0.00    -0.200 F 
ATOM    117  C   UNL A   1      40.090  27.193  27.565  1.00  0.00     0.200 A 
ATOM    118  F   UNL A   1      38.909  25.486  28.688  1.00  0.00    -0.200 F 
ATOM    119  F   UNL A   1      40.043  26.496  26.422  1.00  0.00    -0.200 F 
ENDBRANCH  81 109
BRANCH  96 120
ATOM    120  C   UNL A   1      44.317  28.565  35.549  1.00  0.00     0.064 A 
ATOM    121  C   UNL A   1      45.635  28.911  35.217  1.00  0.00     0.173 A 
ATOM    122  C   UNL A   1      44.110  27.387  36.285  1.00  0.00     0.173 A 
ATOM    123  F   UNL A   1      45.881  30.018  34.502  1.00  0.00    -0.203 F 
ATOM    124  C   UNL A   1      46.702  28.095  35.585  1.00  0.00     0.198 A 
ATOM    125  C   UNL A   1      45.182  26.589  36.675  1.00  0.00     0.198 A 
ATOM    126  F   UNL A   1      42.868  27.017  36.632  1.00  0.00    -0.203 F 
ATOM    127  F   UNL A   1      47.948  28.420  35.217  1.00  0.00    -0.200 F 
ATOM    128  C   UNL A   1      46.475  26.940  36.318  1.00  0.00     0.200 A 
ATOM    129  F   UNL A   1      44.962  25.480  37.393  1.00  0.00    -0.200 F 
ATOM    130  F   UNL A   1      47.504  26.159  36.675  1.00  0.00    -0.200 F 
ENDBRANCH  96 120
ENDBRANCH  61  64
ENDBRANCH  51  54
ENDBRANCH  47  50
ENDBRANCH  44  47
ENDBRANCH  41  44
ENDBRANCH   1  41
TORSDOF 17
ENDMDL
