MODEL 1
REMARK VINA RESULT:     -12.4      0.000      0.000
REMARK SMILES C[C@@H](C(=O)NCCCCCCNC(=O)c1ccc(-c2c3nc(c(-c4c(F)c(F)c(F)c(F)c4F)c4ccc([nH]4)c(-c4c(F)c(F)c(F)c(F)c4F)c4nc(c(-c5c(F)c(F)c(F)c(F)c5F)c5ccc2[nH]5)C=C4)C=C3)cc1)c1ccccc1-c1ccn(C(F)F)c(=O)c1
REMARK SMILES IDX 8 1 7 4 6 7 5 10 3 11 4 12 2 14 1 16 78 20 79 21 83 22 80 23
REMARK SMILES IDX 82 25 81 26 84 30 85 31 93 32 86 33 91 35 87 37 92 39 88 40
REMARK SMILES IDX 89 41 90 42 9 44 10 47 11 50 12 53 13 54 14 56 15 57 16 58
REMARK SMILES IDX 77 59 17 60 76 62 18 64 19 67 20 68 70 69 21 70 75 71 69 72
REMARK SMILES IDX 71 73 22 74 74 75 68 77 67 79 23 81 55 84 35 85 54 86 36 87
REMARK SMILES IDX 39 88 53 89 72 90 37 91 38 93 52 95 73 96 40 99 24 101
REMARK SMILES IDX 25 102 33 103 26 104 27 105 31 106 34 107 28 108 29 109
REMARK SMILES IDX 32 110 30 111 56 112 57 113 65 114 58 115 59 116 63 117
REMARK SMILES IDX 66 118 60 119 61 120 64 121 62 122 41 123 42 124 50 125
REMARK SMILES IDX 43 126 44 127 48 128 51 129 45 130 46 131 49 132 47 133
REMARK H PARENT 8 2 8 3 7 5 7 6 6 8 6 9 5 13 2 15 1 17 1 18 1 19 79 24 80 27
REMARK H PARENT 82 28 81 29 85 34 93 36 86 38 88 43 9 45 9 46 10 48 10 49
REMARK H PARENT 11 51 11 52 12 55 16 61 77 63 17 65 76 66 75 76 69 78 71 80
REMARK H PARENT 74 82 68 83 36 92 39 94 72 97 37 98 73 100
REMARK Flexibility Score: inf
ROOT
ATOM      1  C   UNL A   1      34.672  32.595  27.934  1.00  0.00    -0.052 C 
ATOM      2  H   UNL A   1      34.213  33.039  27.075  1.00  0.00     0.027 H 
ATOM      3  H   UNL A   1      35.741  32.600  27.889  1.00  0.00     0.027 H 
ENDROOT
BRANCH   1   4
ATOM      4  C   UNL A   1      34.246  31.121  27.998  1.00  0.00    -0.036 C 
ATOM      5  H   UNL A   1      35.055  30.517  27.642  1.00  0.00     0.028 H 
ATOM      6  H   UNL A   1      34.000  30.905  29.017  1.00  0.00     0.028 H 
BRANCH   4   7
ATOM      7  C   UNL A   1      33.003  30.812  27.157  1.00  0.00     0.017 C 
ATOM      8  H   UNL A   1      32.319  30.221  27.729  1.00  0.00     0.049 H 
ATOM      9  H   UNL A   1      32.523  31.724  26.870  1.00  0.00     0.049 H 
BRANCH   7  10
ATOM     10  N   UNL A   1      33.410  30.078  25.976  1.00  0.00    -0.356 N 
ATOM     11  C   UNL A   1      33.068  28.810  25.603  1.00  0.00     0.227 C 
ATOM     12  O   UNL A   1      33.850  28.215  24.859  1.00  0.00    -0.274 OA
ATOM     13  H   UNL A   1      34.012  30.556  25.362  1.00  0.00     0.163 HD
BRANCH  11  14
ATOM     14  C   UNL A   1      31.729  28.221  26.063  1.00  0.00     0.061 C 
ATOM     15  H   UNL A   1      30.905  28.807  25.712  1.00  0.00     0.045 H 
BRANCH  14  16
ATOM     16  C   UNL A   1      31.676  28.260  27.598  1.00  0.00    -0.049 C 
ATOM     17  H   UNL A   1      30.657  28.208  27.921  1.00  0.00     0.024 H 
ATOM     18  H   UNL A   1      32.115  29.170  27.948  1.00  0.00     0.024 H 
ATOM     19  H   UNL A   1      32.217  27.426  27.994  1.00  0.00     0.024 H 
ENDBRANCH  14  16
BRANCH  14  20
ATOM     20  C   UNL A   1      31.505  26.833  25.441  1.00  0.00    -0.028 A 
ATOM     21  C   UNL A   1      32.070  25.686  26.038  1.00  0.00    -0.058 A 
ATOM     22  C   UNL A   1      30.767  26.660  24.239  1.00  0.00    -0.014 A 
ATOM     23  C   UNL A   1      31.925  24.418  25.471  1.00  0.00    -0.062 A 
ATOM     24  H   UNL A   1      32.604  25.786  26.915  1.00  0.00     0.063 H 
ATOM     25  C   UNL A   1      30.653  25.378  23.670  1.00  0.00    -0.054 A 
ATOM     26  C   UNL A   1      31.225  24.265  24.283  1.00  0.00    -0.062 A 
ATOM     27  H   UNL A   1      32.338  23.596  25.936  1.00  0.00     0.062 H 
ATOM     28  H   UNL A   1      30.136  25.259  22.785  1.00  0.00     0.063 H 
ATOM     29  H   UNL A   1      31.131  23.331  23.854  1.00  0.00     0.062 H 
BRANCH  22  30
ATOM     30  C   UNL A   1      30.074  27.766  23.533  1.00  0.00    -0.011 A 
ATOM     31  C   UNL A   1      30.752  28.731  22.689  1.00  0.00    -0.038 A 
ATOM     32  C   UNL A   1      28.738  27.848  23.661  1.00  0.00     0.012 A 
ATOM     33  C   UNL A   1      30.086  29.765  22.163  1.00  0.00     0.013 A 
ATOM     34  H   UNL A   1      31.760  28.620  22.493  1.00  0.00     0.064 H 
ATOM     35  C   UNL A   1      27.969  28.946  23.012  1.00  0.00     0.255 A 
ATOM     36  H   UNL A   1      28.238  27.138  24.217  1.00  0.00     0.069 H 
ATOM     37  N   UNL A   1      28.723  29.899  22.347  1.00  0.00    -0.258 N 
ATOM     38  H   UNL A   1      30.598  30.473  21.612  1.00  0.00     0.082 H 
ATOM     39  O   UNL A   1      26.748  28.953  23.126  1.00  0.00    -0.269 OA
BRANCH  37  40
ATOM     40  C   UNL A   1      28.015  31.020  21.785  1.00  0.00     0.321 C 
ATOM     41  F   UNL A   1      27.655  31.903  22.746  1.00  0.00    -0.185 F 
ATOM     42  F   UNL A   1      28.778  31.675  20.875  1.00  0.00    -0.185 F 
ATOM     43  H   UNL A   1      27.141  30.625  21.309  1.00  0.00     0.131 H 
ENDBRANCH  37  40
ENDBRANCH  22  30
ENDBRANCH  14  20
ENDBRANCH  11  14
ENDBRANCH   7  10
ENDBRANCH   4   7
ENDBRANCH   1   4
BRANCH   1  44
ATOM     44  C   UNL A   1      34.287  33.425  29.163  1.00  0.00    -0.052 C 
ATOM     45  H   UNL A   1      35.165  33.925  29.517  1.00  0.00     0.027 H 
ATOM     46  H   UNL A   1      33.879  32.742  29.878  1.00  0.00     0.027 H 
BRANCH  44  47
ATOM     47  C   UNL A   1      33.210  34.479  28.903  1.00  0.00    -0.036 C 
ATOM     48  H   UNL A   1      32.303  34.154  29.367  1.00  0.00     0.028 H 
ATOM     49  H   UNL A   1      33.119  34.573  27.842  1.00  0.00     0.028 H 
BRANCH  47  50
ATOM     50  C   UNL A   1      33.556  35.862  29.441  1.00  0.00     0.018 C 
ATOM     51  H   UNL A   1      33.533  36.563  28.632  1.00  0.00     0.049 H 
ATOM     52  H   UNL A   1      34.530  35.812  29.881  1.00  0.00     0.049 H 
BRANCH  50  53
ATOM     53  N   UNL A   1      32.621  36.297  30.466  1.00  0.00    -0.352 N 
ATOM     54  C   UNL A   1      32.572  35.932  31.792  1.00  0.00     0.251 C 
ATOM     55  H   UNL A   1      31.932  36.936  30.173  1.00  0.00     0.163 HD
ATOM     56  O   UNL A   1      31.619  36.226  32.492  1.00  0.00    -0.269 OA
BRANCH  54  57
ATOM     57  C   UNL A   1      33.695  35.151  32.350  1.00  0.00     0.039 A 
ATOM     58  C   UNL A   1      33.462  33.857  32.819  1.00  0.00    -0.049 A 
ATOM     59  C   UNL A   1      34.982  35.695  32.368  1.00  0.00    -0.049 A 
ATOM     60  C   UNL A   1      34.537  33.079  33.251  1.00  0.00    -0.053 A 
ATOM     61  H   UNL A   1      32.502  33.479  32.846  1.00  0.00     0.063 H 
ATOM     62  C   UNL A   1      36.058  34.895  32.729  1.00  0.00    -0.053 A 
ATOM     63  H   UNL A   1      35.132  36.684  32.114  1.00  0.00     0.063 H 
ATOM     64  C   UNL A   1      35.846  33.581  33.178  1.00  0.00    -0.014 A 
ATOM     65  H   UNL A   1      34.369  32.132  33.626  1.00  0.00     0.063 H 
ATOM     66  H   UNL A   1      37.019  35.268  32.669  1.00  0.00     0.063 H 
BRANCH  64  67
ATOM     67  C   UNL A   1      37.022  32.769  33.574  1.00  0.00     0.031 A 
ATOM     68  C   UNL A   1      37.735  33.079  34.858  1.00  0.00     0.074 A 
ATOM     69  C   UNL A   1      37.515  31.843  32.731  1.00  0.00     0.049 A 
ATOM     70  N   UNL A   1      38.873  32.618  35.309  1.00  0.00    -0.248 NA
ATOM     71  C   UNL A   1      37.099  34.075  35.732  1.00  0.00    -0.034 C 
ATOM     72  C   UNL A   1      36.936  31.485  31.436  1.00  0.00    -0.036 A 
ATOM     73  N   UNL A   1      38.637  31.058  32.823  1.00  0.00    -0.354 N 
ATOM     74  C   UNL A   1      39.103  33.290  36.501  1.00  0.00     0.074 A 
ATOM     75  C   UNL A   1      38.013  34.224  36.678  1.00  0.00    -0.034 C 
ATOM     76  H   UNL A   1      36.181  34.537  35.636  1.00  0.00     0.065 H 
ATOM     77  C   UNL A   1      37.708  30.556  30.852  1.00  0.00    -0.036 A 
ATOM     78  H   UNL A   1      36.071  31.884  31.036  1.00  0.00     0.065 H 
ATOM     79  C   UNL A   1      38.858  30.285  31.710  1.00  0.00     0.049 A 
ATOM     80  H   UNL A   1      39.226  31.049  33.612  1.00  0.00     0.167 HD
ATOM     81  C   UNL A   1      40.124  33.128  37.376  1.00  0.00     0.037 A 
ATOM     82  H   UNL A   1      37.956  34.917  37.442  1.00  0.00     0.065 H 
ATOM     83  H   UNL A   1      37.519  30.104  29.943  1.00  0.00     0.065 H 
ATOM     84  C   UNL A   1      39.887  29.471  31.404  1.00  0.00     0.037 A 
ATOM     85  C   UNL A   1      41.188  32.175  37.204  1.00  0.00     0.049 A 
ATOM     86  C   UNL A   1      41.009  29.299  32.390  1.00  0.00     0.074 A 
ATOM     87  C   UNL A   1      42.225  31.875  38.068  1.00  0.00    -0.036 A 
ATOM     88  N   UNL A   1      41.351  31.371  36.084  1.00  0.00    -0.354 N 
ATOM     89  N   UNL A   1      41.184  29.885  33.550  1.00  0.00    -0.248 NA
ATOM     90  C   UNL A   1      42.073  28.351  32.032  1.00  0.00    -0.034 C 
ATOM     91  C   UNL A   1      43.047  30.928  37.448  1.00  0.00    -0.036 A 
ATOM     92  H   UNL A   1      42.368  32.278  39.006  1.00  0.00     0.065 H 
ATOM     93  C   UNL A   1      42.490  30.595  36.222  1.00  0.00     0.049 A 
ATOM     94  H   UNL A   1      40.747  31.355  35.306  1.00  0.00     0.167 HD
ATOM     95  C   UNL A   1      42.357  29.359  34.072  1.00  0.00     0.074 A 
ATOM     96  C   UNL A   1      42.854  28.404  33.103  1.00  0.00    -0.034 C 
ATOM     97  H   UNL A   1      42.184  27.790  31.172  1.00  0.00     0.065 H 
ATOM     98  H   UNL A   1      43.922  30.543  37.837  1.00  0.00     0.065 H 
ATOM     99  C   UNL A   1      42.964  29.639  35.252  1.00  0.00     0.037 A 
ATOM    100  H   UNL A   1      43.706  27.836  33.230  1.00  0.00     0.065 H 
BRANCH  81 101
ATOM    101  C   UNL A   1      40.142  34.017  38.587  1.00  0.00     0.064 A 
ATOM    102  C   UNL A   1      39.491  33.662  39.778  1.00  0.00     0.173 A 
ATOM    103  C   UNL A   1      40.820  35.246  38.553  1.00  0.00     0.173 A 
ATOM    104  F   UNL A   1      38.820  32.503  39.861  1.00  0.00    -0.203 F 
ATOM    105  C   UNL A   1      39.476  34.523  40.871  1.00  0.00     0.198 A 
ATOM    106  C   UNL A   1      40.833  36.089  39.661  1.00  0.00     0.198 A 
ATOM    107  F   UNL A   1      41.465  35.634  37.443  1.00  0.00    -0.203 F 
ATOM    108  F   UNL A   1      38.787  34.192  41.973  1.00  0.00    -0.200 F 
ATOM    109  C   UNL A   1      40.149  35.732  40.814  1.00  0.00     0.200 A 
ATOM    110  F   UNL A   1      41.497  37.251  39.610  1.00  0.00    -0.200 F 
ATOM    111  F   UNL A   1      40.130  36.562  41.867  1.00  0.00    -0.200 F 
ENDBRANCH  81 101
BRANCH  84 112
ATOM    112  C   UNL A   1      39.884  28.755  30.102  1.00  0.00     0.064 A 
ATOM    113  C   UNL A   1      40.469  29.326  28.964  1.00  0.00     0.173 A 
ATOM    114  C   UNL A   1      39.339  27.468  29.981  1.00  0.00     0.173 A 
ATOM    115  F   UNL A   1      40.987  30.561  29.027  1.00  0.00    -0.203 F 
ATOM    116  C   UNL A   1      40.504  28.638  27.753  1.00  0.00     0.198 A 
ATOM    117  C   UNL A   1      39.398  26.772  28.776  1.00  0.00     0.198 A 
ATOM    118  F   UNL A   1      38.775  26.875  31.045  1.00  0.00    -0.203 F 
ATOM    119  F   UNL A   1      41.047  29.217  26.672  1.00  0.00    -0.200 F 
ATOM    120  C   UNL A   1      39.977  27.359  27.662  1.00  0.00     0.200 A 
ATOM    121  F   UNL A   1      38.903  25.529  28.699  1.00  0.00    -0.200 F 
ATOM    122  F   UNL A   1      40.027  26.692  26.501  1.00  0.00    -0.200 F 
ENDBRANCH  84 112
BRANCH  99 123
ATOM    123  C   UNL A   1      44.213  28.881  35.591  1.00  0.00     0.064 A 
ATOM    124  C   UNL A   1      45.485  29.370  35.264  1.00  0.00     0.173 A 
ATOM    125  C   UNL A   1      44.136  27.693  36.336  1.00  0.00     0.173 A 
ATOM    126  F   UNL A   1      45.612  30.494  34.541  1.00  0.00    -0.203 F 
ATOM    127  C   UNL A   1      46.635  28.694  35.664  1.00  0.00     0.198 A 
ATOM    128  C   UNL A   1      45.287  27.035  36.758  1.00  0.00     0.198 A 
ATOM    129  F   UNL A   1      42.941  27.188  36.680  1.00  0.00    -0.203 F 
ATOM    130  F   UNL A   1      47.841  29.165  35.319  1.00  0.00    -0.200 F 
ATOM    131  C   UNL A   1      46.535  27.535  36.421  1.00  0.00     0.200 A 
ATOM    132  F   UNL A   1      45.188  25.925  37.501  1.00  0.00    -0.200 F 
ATOM    133  F   UNL A   1      47.644  26.899  36.825  1.00  0.00    -0.200 F 
ENDBRANCH  99 123
ENDBRANCH  64  67
ENDBRANCH  54  57
ENDBRANCH  50  53
ENDBRANCH  47  50
ENDBRANCH  44  47
ENDBRANCH   1  44
TORSDOF 17
ENDMDL
MODEL 2
REMARK VINA RESULT:     -12.4      2.684      8.158
REMARK SMILES C[C@@H](C(=O)NCCCCCCNC(=O)c1ccc(-c2c3nc(c(-c4c(F)c(F)c(F)c(F)c4F)c4ccc([nH]4)c(-c4c(F)c(F)c(F)c(F)c4F)c4nc(c(-c5c(F)c(F)c(F)c(F)c5F)c5ccc2[nH]5)C=C4)C=C3)cc1)c1ccccc1-c1ccn(C(F)F)c(=O)c1
REMARK SMILES IDX 8 1 7 4 6 7 5 10 3 11 4 12 2 14 1 16 78 20 79 21 83 22 80 23
REMARK SMILES IDX 82 25 81 26 84 30 85 31 93 32 86 33 91 35 87 37 92 39 88 40
REMARK SMILES IDX 89 41 90 42 9 44 10 47 11 50 12 53 13 54 14 56 15 57 16 58
REMARK SMILES IDX 77 59 17 60 76 62 18 64 19 67 20 68 70 69 21 70 75 71 69 72
REMARK SMILES IDX 71 73 22 74 74 75 68 77 67 79 23 81 55 84 35 85 54 86 36 87
REMARK SMILES IDX 39 88 53 89 72 90 37 91 38 93 52 95 73 96 40 99 24 101
REMARK SMILES IDX 25 102 33 103 26 104 27 105 31 106 34 107 28 108 29 109
REMARK SMILES IDX 32 110 30 111 56 112 57 113 65 114 58 115 59 116 63 117
REMARK SMILES IDX 66 118 60 119 61 120 64 121 62 122 41 123 42 124 50 125
REMARK SMILES IDX 43 126 44 127 48 128 51 129 45 130 46 131 49 132 47 133
REMARK H PARENT 8 2 8 3 7 5 7 6 6 8 6 9 5 13 2 15 1 17 1 18 1 19 79 24 80 27
REMARK H PARENT 82 28 81 29 85 34 93 36 86 38 88 43 9 45 9 46 10 48 10 49
REMARK H PARENT 11 51 11 52 12 55 16 61 77 63 17 65 76 66 75 76 69 78 71 80
REMARK H PARENT 74 82 68 83 36 92 39 94 72 97 37 98 73 100
REMARK Flexibility Score: inf
ROOT
ATOM      1  C   UNL A   1      31.800  29.087  26.665  1.00  0.00    -0.052 C 
ATOM      2  H   UNL A   1      31.107  29.148  27.478  1.00  0.00     0.027 H 
ATOM      3  H   UNL A   1      31.506  28.383  25.915  1.00  0.00     0.027 H 
ENDROOT
BRANCH   1   4
ATOM      4  C   UNL A   1      33.147  28.597  27.218  1.00  0.00    -0.036 C 
ATOM      5  H   UNL A   1      33.694  29.443  27.580  1.00  0.00     0.028 H 
ATOM      6  H   UNL A   1      32.934  27.892  27.994  1.00  0.00     0.028 H 
BRANCH   4   7
ATOM      7  C   UNL A   1      34.004  27.875  26.174  1.00  0.00     0.017 C 
ATOM      8  H   UNL A   1      35.019  27.832  26.509  1.00  0.00     0.049 H 
ATOM      9  H   UNL A   1      33.640  26.879  26.031  1.00  0.00     0.049 H 
BRANCH   7  10
ATOM     10  N   UNL A   1      33.934  28.607  24.925  1.00  0.00    -0.356 N 
ATOM     11  C   UNL A   1      33.845  28.116  23.655  1.00  0.00     0.227 C 
ATOM     12  O   UNL A   1      34.263  28.836  22.746  1.00  0.00    -0.274 OA
ATOM     13  H   UNL A   1      33.955  29.588  25.004  1.00  0.00     0.163 HD
BRANCH  11  14
ATOM     14  C   UNL A   1      33.187  26.751  23.416  1.00  0.00     0.061 C 
ATOM     15  H   UNL A   1      33.484  26.041  24.160  1.00  0.00     0.045 H 
BRANCH  14  16
ATOM     16  C   UNL A   1      33.669  26.202  22.065  1.00  0.00    -0.049 C 
ATOM     17  H   UNL A   1      34.145  26.985  21.512  1.00  0.00     0.024 H 
ATOM     18  H   UNL A   1      32.833  25.831  21.511  1.00  0.00     0.024 H 
ATOM     19  H   UNL A   1      34.368  25.409  22.231  1.00  0.00     0.024 H 
ENDBRANCH  14  16
BRANCH  14  20
ATOM     20  C   UNL A   1      31.660  26.852  23.569  1.00  0.00    -0.028 A 
ATOM     21  C   UNL A   1      30.954  27.918  22.973  1.00  0.00    -0.058 A 
ATOM     22  C   UNL A   1      30.921  25.913  24.337  1.00  0.00    -0.014 A 
ATOM     23  C   UNL A   1      29.576  28.064  23.133  1.00  0.00    -0.062 A 
ATOM     24  H   UNL A   1      31.470  28.607  22.404  1.00  0.00     0.063 H 
ATOM     25  C   UNL A   1      29.535  26.091  24.507  1.00  0.00    -0.054 A 
ATOM     26  C   UNL A   1      28.867  27.157  23.907  1.00  0.00    -0.062 A 
ATOM     27  H   UNL A   1      29.083  28.845  22.674  1.00  0.00     0.062 H 
ATOM     28  H   UNL A   1      29.003  25.421  25.085  1.00  0.00     0.063 H 
ATOM     29  H   UNL A   1      27.850  27.272  24.039  1.00  0.00     0.062 H 
BRANCH  22  30
ATOM     30  C   UNL A   1      31.521  24.716  24.976  1.00  0.00    -0.011 A 
ATOM     31  C   UNL A   1      32.073  24.711  26.317  1.00  0.00    -0.038 A 
ATOM     32  C   UNL A   1      31.518  23.568  24.276  1.00  0.00     0.012 A 
ATOM     33  C   UNL A   1      32.693  23.626  26.797  1.00  0.00     0.013 A 
ATOM     34  H   UNL A   1      31.987  25.554  26.908  1.00  0.00     0.064 H 
ATOM     35  C   UNL A   1      32.130  22.328  24.829  1.00  0.00     0.255 A 
ATOM     36  H   UNL A   1      31.083  23.546  23.341  1.00  0.00     0.069 H 
ATOM     37  N   UNL A   1      32.758  22.461  26.057  1.00  0.00    -0.258 N 
ATOM     38  H   UNL A   1      33.128  23.662  27.732  1.00  0.00     0.082 H 
ATOM     39  O   UNL A   1      32.064  21.297  24.169  1.00  0.00    -0.269 OA
BRANCH  37  40
ATOM     40  C   UNL A   1      33.435  21.301  26.576  1.00  0.00     0.321 C 
ATOM     41  F   UNL A   1      34.539  21.012  25.849  1.00  0.00    -0.185 F 
ATOM     42  F   UNL A   1      33.816  21.493  27.864  1.00  0.00    -0.185 F 
ATOM     43  H   UNL A   1      32.740  20.489  26.521  1.00  0.00     0.131 H 
ENDBRANCH  37  40
ENDBRANCH  22  30
ENDBRANCH  14  20
ENDBRANCH  11  14
ENDBRANCH   7  10
ENDBRANCH   4   7
ENDBRANCH   1   4
BRANCH   1  44
ATOM     44  C   UNL A   1      31.851  30.456  25.978  1.00  0.00    -0.052 C 
ATOM     45  H   UNL A   1      31.129  30.460  25.187  1.00  0.00     0.027 H 
ATOM     46  H   UNL A   1      32.853  30.585  25.628  1.00  0.00     0.027 H 
BRANCH  44  47
ATOM     47  C   UNL A   1      31.555  31.638  26.900  1.00  0.00    -0.036 C 
ATOM     48  H   UNL A   1      31.099  31.263  27.792  1.00  0.00     0.028 H 
ATOM     49  H   UNL A   1      30.914  32.301  26.358  1.00  0.00     0.028 H 
BRANCH  47  50
ATOM     50  C   UNL A   1      32.789  32.441  27.293  1.00  0.00     0.018 C 
ATOM     51  H   UNL A   1      33.507  32.380  26.502  1.00  0.00     0.049 H 
ATOM     52  H   UNL A   1      33.178  32.027  28.200  1.00  0.00     0.049 H 
BRANCH  50  53
ATOM     53  N   UNL A   1      32.474  33.840  27.535  1.00  0.00    -0.352 N 
ATOM     54  C   UNL A   1      33.017  34.691  28.470  1.00  0.00     0.251 C 
ATOM     55  H   UNL A   1      31.782  34.229  26.954  1.00  0.00     0.163 HD
ATOM     56  O   UNL A   1      32.524  35.784  28.690  1.00  0.00    -0.269 OA
BRANCH  54  57
ATOM     57  C   UNL A   1      34.205  34.243  29.225  1.00  0.00     0.039 A 
ATOM     58  C   UNL A   1      34.032  33.484  30.384  1.00  0.00    -0.049 A 
ATOM     59  C   UNL A   1      35.486  34.546  28.756  1.00  0.00    -0.049 A 
ATOM     60  C   UNL A   1      35.151  32.971  31.043  1.00  0.00    -0.053 A 
ATOM     61  H   UNL A   1      33.084  33.303  30.751  1.00  0.00     0.063 H 
ATOM     62  C   UNL A   1      36.593  33.975  29.370  1.00  0.00    -0.053 A 
ATOM     63  H   UNL A   1      35.608  35.189  27.958  1.00  0.00     0.063 H 
ATOM     64  C   UNL A   1      36.436  33.186  30.522  1.00  0.00    -0.014 A 
ATOM     65  H   UNL A   1      35.033  32.434  31.917  1.00  0.00     0.063 H 
ATOM     66  H   UNL A   1      37.536  34.133  28.980  1.00  0.00     0.063 H 
BRANCH  64  67
ATOM     67  C   UNL A   1      37.648  32.614  31.158  1.00  0.00     0.031 A 
ATOM     68  C   UNL A   1      38.359  31.469  30.496  1.00  0.00     0.074 A 
ATOM     69  C   UNL A   1      38.032  33.039  32.376  1.00  0.00     0.049 A 
ATOM     70  N   UNL A   1      39.321  30.712  30.956  1.00  0.00    -0.248 NA
ATOM     71  C   UNL A   1      37.894  31.104  29.150  1.00  0.00    -0.034 C 
ATOM     72  C   UNL A   1      37.393  34.112  33.138  1.00  0.00    -0.036 A 
ATOM     73  N   UNL A   1      39.035  32.594  33.202  1.00  0.00    -0.354 N 
ATOM     74  C   UNL A   1      39.554  29.763  29.970  1.00  0.00     0.074 A 
ATOM     75  C   UNL A   1      38.600  30.010  28.910  1.00  0.00    -0.034 C 
ATOM     76  H   UNL A   1      37.200  31.576  28.550  1.00  0.00     0.065 H 
ATOM     77  C   UNL A   1      38.015  34.239  34.321  1.00  0.00    -0.036 A 
ATOM     78  H   UNL A   1      36.593  34.679  32.817  1.00  0.00     0.065 H 
ATOM     79  C   UNL A   1      39.065  33.230  34.419  1.00  0.00     0.049 A 
ATOM     80  H   UNL A   1      39.670  31.887  32.946  1.00  0.00     0.167 HD
ATOM     81  C   UNL A   1      40.490  28.785  29.946  1.00  0.00     0.037 A 
ATOM     82  H   UNL A   1      38.485  29.412  28.078  1.00  0.00     0.065 H 
ATOM     83  H   UNL A   1      37.786  34.939  35.045  1.00  0.00     0.065 H 
ATOM     84  C   UNL A   1      39.835  33.005  35.501  1.00  0.00     0.037 A 
ATOM     85  C   UNL A   1      41.452  28.567  30.992  1.00  0.00     0.049 A 
ATOM     86  C   UNL A   1      40.873  31.919  35.454  1.00  0.00     0.074 A 
ATOM     87  C   UNL A   1      42.494  27.658  31.031  1.00  0.00    -0.036 A 
ATOM     88  N   UNL A   1      41.485  29.267  32.191  1.00  0.00    -0.354 N 
ATOM     89  N   UNL A   1      41.136  31.071  34.489  1.00  0.00    -0.248 NA
ATOM     90  C   UNL A   1      41.727  31.760  36.639  1.00  0.00    -0.034 C 
ATOM     91  C   UNL A   1      43.124  27.769  32.275  1.00  0.00    -0.036 A 
ATOM     92  H   UNL A   1      42.760  27.010  30.274  1.00  0.00     0.065 H 
ATOM     93  C   UNL A   1      42.511  28.789  32.989  1.00  0.00     0.049 A 
ATOM     94  H   UNL A   1      40.869  29.994  32.438  1.00  0.00     0.167 HD
ATOM     95  C   UNL A   1      42.199  30.299  34.936  1.00  0.00     0.074 A 
ATOM     96  C   UNL A   1      42.535  30.778  36.261  1.00  0.00    -0.034 C 
ATOM     97  H   UNL A   1      41.704  32.277  37.533  1.00  0.00     0.065 H 
ATOM     98  H   UNL A   1      43.910  27.190  32.606  1.00  0.00     0.065 H 
ATOM     99  C   UNL A   1      42.841  29.286  34.302  1.00  0.00     0.037 A 
ATOM    100  H   UNL A   1      43.307  30.406  36.835  1.00  0.00     0.065 H 
BRANCH  81 101
ATOM    101  C   UNL A   1      40.501  27.870  28.754  1.00  0.00     0.064 A 
ATOM    102  C   UNL A   1      41.240  28.165  27.599  1.00  0.00     0.173 A 
ATOM    103  C   UNL A   1      39.756  26.680  28.769  1.00  0.00     0.173 A 
ATOM    104  F   UNL A   1      41.962  29.294  27.529  1.00  0.00    -0.203 F 
ATOM    105  C   UNL A   1      41.196  27.330  26.486  1.00  0.00     0.198 A 
ATOM    106  C   UNL A   1      39.743  25.829  27.667  1.00  0.00     0.198 A 
ATOM    107  F   UNL A   1      39.036  26.344  29.849  1.00  0.00    -0.203 F 
ATOM    108  F   UNL A   1      41.855  27.670  25.369  1.00  0.00    -0.200 F 
ATOM    109  C   UNL A   1      40.452  26.162  26.522  1.00  0.00     0.200 A 
ATOM    110  F   UNL A   1      39.035  24.692  27.708  1.00  0.00    -0.200 F 
ATOM    111  F   UNL A   1      40.407  25.361  25.448  1.00  0.00    -0.200 F 
ENDBRANCH  81 101
BRANCH  84 112
ATOM    112  C   UNL A   1      39.645  33.842  36.714  1.00  0.00     0.064 A 
ATOM    113  C   UNL A   1      40.236  35.109  36.814  1.00  0.00     0.173 A 
ATOM    114  C   UNL A   1      38.833  33.414  37.774  1.00  0.00     0.173 A 
ATOM    115  F   UNL A   1      41.036  35.554  35.834  1.00  0.00    -0.203 F 
ATOM    116  C   UNL A   1      40.026  35.912  37.933  1.00  0.00     0.198 A 
ATOM    117  C   UNL A   1      38.603  34.230  38.880  1.00  0.00     0.198 A 
ATOM    118  F   UNL A   1      38.237  32.212  37.720  1.00  0.00    -0.203 F 
ATOM    119  F   UNL A   1      40.623  37.109  38.017  1.00  0.00    -0.200 F 
ATOM    120  C   UNL A   1      39.202  35.477  38.960  1.00  0.00     0.200 A 
ATOM    121  F   UNL A   1      37.791  33.810  39.861  1.00  0.00    -0.200 F 
ATOM    122  F   UNL A   1      38.986  36.258  40.027  1.00  0.00    -0.200 F 
ENDBRANCH  84 112
BRANCH  99 123
ATOM    123  C   UNL A   1      44.001  28.647  35.005  1.00  0.00     0.064 A 
ATOM    124  C   UNL A   1      43.833  27.547  35.857  1.00  0.00     0.173 A 
ATOM    125  C   UNL A   1      45.310  29.087  34.749  1.00  0.00     0.173 A 
ATOM    126  F   UNL A   1      42.602  27.098  36.145  1.00  0.00    -0.203 F 
ATOM    127  C   UNL A   1      44.932  26.914  36.431  1.00  0.00     0.198 A 
ATOM    128  C   UNL A   1      46.407  28.436  35.303  1.00  0.00     0.198 A 
ATOM    129  F   UNL A   1      45.523  30.133  33.935  1.00  0.00    -0.203 F 
ATOM    130  F   UNL A   1      44.748  25.880  37.263  1.00  0.00    -0.200 F 
ATOM    131  C   UNL A   1      46.218  27.351  36.144  1.00  0.00     0.200 A 
ATOM    132  F   UNL A   1      47.648  28.850  35.012  1.00  0.00    -0.200 F 
ATOM    133  F   UNL A   1      47.276  26.725  36.680  1.00  0.00    -0.200 F 
ENDBRANCH  99 123
ENDBRANCH  64  67
ENDBRANCH  54  57
ENDBRANCH  50  53
ENDBRANCH  47  50
ENDBRANCH  44  47
ENDBRANCH   1  44
TORSDOF 17
ENDMDL
MODEL 3
REMARK VINA RESULT:     -12.3      2.681      8.020
REMARK SMILES C[C@@H](C(=O)NCCCCCCNC(=O)c1ccc(-c2c3nc(c(-c4c(F)c(F)c(F)c(F)c4F)c4ccc([nH]4)c(-c4c(F)c(F)c(F)c(F)c4F)c4nc(c(-c5c(F)c(F)c(F)c(F)c5F)c5ccc2[nH]5)C=C4)C=C3)cc1)c1ccccc1-c1ccn(C(F)F)c(=O)c1
REMARK SMILES IDX 8 1 7 4 6 7 5 10 3 11 4 12 2 14 1 16 78 20 79 21 83 22 80 23
REMARK SMILES IDX 82 25 81 26 84 30 85 31 93 32 86 33 91 35 87 37 92 39 88 40
REMARK SMILES IDX 89 41 90 42 9 44 10 47 11 50 12 53 13 54 14 56 15 57 16 58
REMARK SMILES IDX 77 59 17 60 76 62 18 64 19 67 20 68 70 69 21 70 75 71 69 72
REMARK SMILES IDX 71 73 22 74 74 75 68 77 67 79 23 81 55 84 35 85 54 86 36 87
REMARK SMILES IDX 39 88 53 89 72 90 37 91 38 93 52 95 73 96 40 99 24 101
REMARK SMILES IDX 25 102 33 103 26 104 27 105 31 106 34 107 28 108 29 109
REMARK SMILES IDX 32 110 30 111 56 112 57 113 65 114 58 115 59 116 63 117
REMARK SMILES IDX 66 118 60 119 61 120 64 121 62 122 41 123 42 124 50 125
REMARK SMILES IDX 43 126 44 127 48 128 51 129 45 130 46 131 49 132 47 133
REMARK H PARENT 8 2 8 3 7 5 7 6 6 8 6 9 5 13 2 15 1 17 1 18 1 19 79 24 80 27
REMARK H PARENT 82 28 81 29 85 34 93 36 86 38 88 43 9 45 9 46 10 48 10 49
REMARK H PARENT 11 51 11 52 12 55 16 61 77 63 17 65 76 66 75 76 69 78 71 80
REMARK H PARENT 74 82 68 83 36 92 39 94 72 97 37 98 73 100
REMARK Flexibility Score: inf
ROOT
ATOM      1  C   UNL A   1      31.784  29.075  26.609  1.00  0.00    -0.052 C 
ATOM      2  H   UNL A   1      31.079  29.098  27.415  1.00  0.00     0.027 H 
ATOM      3  H   UNL A   1      31.525  28.370  25.846  1.00  0.00     0.027 H 
ENDROOT
BRANCH   1   4
ATOM      4  C   UNL A   1      33.141  28.627  27.172  1.00  0.00    -0.036 C 
ATOM      5  H   UNL A   1      33.657  29.489  27.541  1.00  0.00     0.028 H 
ATOM      6  H   UNL A   1      32.945  27.914  27.946  1.00  0.00     0.028 H 
BRANCH   4   7
ATOM      7  C   UNL A   1      34.030  27.936  26.134  1.00  0.00     0.017 C 
ATOM      8  H   UNL A   1      35.043  27.923  26.479  1.00  0.00     0.049 H 
ATOM      9  H   UNL A   1      33.698  26.929  25.984  1.00  0.00     0.049 H 
BRANCH   7  10
ATOM     10  N   UNL A   1      33.949  28.670  24.888  1.00  0.00    -0.356 N 
ATOM     11  C   UNL A   1      33.844  28.181  23.618  1.00  0.00     0.227 C 
ATOM     12  O   UNL A   1      34.254  28.900  22.705  1.00  0.00    -0.274 OA
ATOM     13  H   UNL A   1      33.975  29.651  24.967  1.00  0.00     0.163 HD
BRANCH  11  14
ATOM     14  C   UNL A   1      33.177  26.819  23.385  1.00  0.00     0.061 C 
ATOM     15  H   UNL A   1      33.462  26.113  24.136  1.00  0.00     0.045 H 
BRANCH  14  16
ATOM     16  C   UNL A   1      33.665  26.256  22.041  1.00  0.00    -0.049 C 
ATOM     17  H   UNL A   1      32.906  26.396  21.300  1.00  0.00     0.024 H 
ATOM     18  H   UNL A   1      33.874  25.212  22.146  1.00  0.00     0.024 H 
ATOM     19  H   UNL A   1      34.555  26.770  21.742  1.00  0.00     0.024 H 
ENDBRANCH  14  16
BRANCH  14  20
ATOM     20  C   UNL A   1      31.650  26.933  23.525  1.00  0.00    -0.028 A 
ATOM     21  C   UNL A   1      30.958  28.005  22.922  1.00  0.00    -0.058 A 
ATOM     22  C   UNL A   1      30.896  26.001  24.288  1.00  0.00    -0.014 A 
ATOM     23  C   UNL A   1      29.579  28.162  23.070  1.00  0.00    -0.062 A 
ATOM     24  H   UNL A   1      31.484  28.689  22.357  1.00  0.00     0.063 H 
ATOM     25  C   UNL A   1      29.510  26.191  24.446  1.00  0.00    -0.054 A 
ATOM     26  C   UNL A   1      28.856  27.262  23.840  1.00  0.00    -0.062 A 
ATOM     27  H   UNL A   1      29.097  28.948  22.607  1.00  0.00     0.062 H 
ATOM     28  H   UNL A   1      28.968  25.527  25.020  1.00  0.00     0.063 H 
ATOM     29  H   UNL A   1      27.839  27.386  23.963  1.00  0.00     0.062 H 
BRANCH  22  30
ATOM     30  C   UNL A   1      31.480  24.800  24.932  1.00  0.00    -0.011 A 
ATOM     31  C   UNL A   1      31.987  24.782  26.291  1.00  0.00    -0.038 A 
ATOM     32  C   UNL A   1      31.507  23.660  24.219  1.00  0.00     0.012 A 
ATOM     33  C   UNL A   1      32.596  23.694  26.778  1.00  0.00     0.013 A 
ATOM     34  H   UNL A   1      31.877  25.616  26.888  1.00  0.00     0.064 H 
ATOM     35  C   UNL A   1      32.107  22.417  24.777  1.00  0.00     0.255 A 
ATOM     36  H   UNL A   1      31.105  23.647  23.269  1.00  0.00     0.069 H 
ATOM     37  N   UNL A   1      32.692  22.538  26.028  1.00  0.00    -0.258 N 
ATOM     38  H   UNL A   1      33.000  23.721  27.728  1.00  0.00     0.082 H 
ATOM     39  O   UNL A   1      32.070  21.394  24.103  1.00  0.00    -0.269 OA
BRANCH  37  40
ATOM     40  C   UNL A   1      33.358  21.376  26.556  1.00  0.00     0.321 C 
ATOM     41  F   UNL A   1      34.549  21.174  25.946  1.00  0.00    -0.185 F 
ATOM     42  F   UNL A   1      33.582  21.503  27.887  1.00  0.00    -0.185 F 
ATOM     43  H   UNL A   1      32.711  20.542  26.375  1.00  0.00     0.131 H 
ENDBRANCH  37  40
ENDBRANCH  22  30
ENDBRANCH  14  20
ENDBRANCH  11  14
ENDBRANCH   7  10
ENDBRANCH   4   7
ENDBRANCH   1   4
BRANCH   1  44
ATOM     44  C   UNL A   1      31.792  30.453  25.941  1.00  0.00    -0.052 C 
ATOM     45  H   UNL A   1      31.038  30.460  25.181  1.00  0.00     0.027 H 
ATOM     46  H   UNL A   1      32.777  30.599  25.552  1.00  0.00     0.027 H 
BRANCH  44  47
ATOM     47  C   UNL A   1      31.521  31.619  26.891  1.00  0.00    -0.036 C 
ATOM     48  H   UNL A   1      31.093  31.228  27.790  1.00  0.00     0.028 H 
ATOM     49  H   UNL A   1      30.864  32.290  26.380  1.00  0.00     0.028 H 
BRANCH  47  50
ATOM     50  C   UNL A   1      32.765  32.418  27.262  1.00  0.00     0.018 C 
ATOM     51  H   UNL A   1      33.468  32.355  26.457  1.00  0.00     0.049 H 
ATOM     52  H   UNL A   1      33.170  32.002  28.161  1.00  0.00     0.049 H 
BRANCH  50  53
ATOM     53  N   UNL A   1      32.459  33.817  27.511  1.00  0.00    -0.352 N 
ATOM     54  C   UNL A   1      33.014  34.663  28.444  1.00  0.00     0.251 C 
ATOM     55  H   UNL A   1      31.763  34.211  26.938  1.00  0.00     0.163 HD
ATOM     56  O   UNL A   1      32.529  35.757  28.671  1.00  0.00    -0.269 OA
BRANCH  54  57
ATOM     57  C   UNL A   1      34.207  34.207  29.187  1.00  0.00     0.039 A 
ATOM     58  C   UNL A   1      34.042  33.425  30.331  1.00  0.00    -0.049 A 
ATOM     59  C   UNL A   1      35.485  34.526  28.719  1.00  0.00    -0.049 A 
ATOM     60  C   UNL A   1      35.166  32.906  30.977  1.00  0.00    -0.053 A 
ATOM     61  H   UNL A   1      33.096  33.232  30.697  1.00  0.00     0.063 H 
ATOM     62  C   UNL A   1      36.597  33.949  29.319  1.00  0.00    -0.053 A 
ATOM     63  H   UNL A   1      35.601  35.185  27.934  1.00  0.00     0.063 H 
ATOM     64  C   UNL A   1      36.448  33.138  30.456  1.00  0.00    -0.014 A 
ATOM     65  H   UNL A   1      35.053  32.351  31.840  1.00  0.00     0.063 H 
ATOM     66  H   UNL A   1      37.537  34.120  28.930  1.00  0.00     0.063 H 
BRANCH  64  67
ATOM     67  C   UNL A   1      37.664  32.560  31.078  1.00  0.00     0.031 A 
ATOM     68  C   UNL A   1      38.377  31.429  30.394  1.00  0.00     0.074 A 
ATOM     69  C   UNL A   1      38.053  32.966  32.301  1.00  0.00     0.049 A 
ATOM     70  N   UNL A   1      39.345  30.669  30.837  1.00  0.00    -0.248 NA
ATOM     71  C   UNL A   1      37.908  31.084  29.044  1.00  0.00    -0.034 C 
ATOM     72  C   UNL A   1      37.412  34.023  33.083  1.00  0.00    -0.036 A 
ATOM     73  N   UNL A   1      39.060  32.511  33.115  1.00  0.00    -0.354 N 
ATOM     74  C   UNL A   1      39.577  29.737  29.834  1.00  0.00     0.074 A 
ATOM     75  C   UNL A   1      38.617  29.998  28.783  1.00  0.00    -0.034 C 
ATOM     76  H   UNL A   1      37.210  31.563  28.454  1.00  0.00     0.065 H 
ATOM     77  C   UNL A   1      38.038  34.134  34.265  1.00  0.00    -0.036 A 
ATOM     78  H   UNL A   1      36.608  34.593  32.775  1.00  0.00     0.065 H 
ATOM     79  C   UNL A   1      39.093  33.127  34.342  1.00  0.00     0.049 A 
ATOM     80  H   UNL A   1      39.698  31.812  32.844  1.00  0.00     0.167 HD
ATOM     81  C   UNL A   1      40.517  28.763  29.790  1.00  0.00     0.037 A 
ATOM     82  H   UNL A   1      38.501  29.412  27.941  1.00  0.00     0.065 H 
ATOM     83  H   UNL A   1      37.810  34.820  35.002  1.00  0.00     0.065 H 
ATOM     84  C   UNL A   1      39.869  32.888  35.417  1.00  0.00     0.037 A 
ATOM     85  C   UNL A   1      41.484  28.532  30.829  1.00  0.00     0.049 A 
ATOM     86  C   UNL A   1      40.911  31.807  35.347  1.00  0.00     0.074 A 
ATOM     87  C   UNL A   1      42.530  27.626  30.847  1.00  0.00    -0.036 A 
ATOM     88  N   UNL A   1      41.519  29.212  32.038  1.00  0.00    -0.354 N 
ATOM     89  N   UNL A   1      41.173  30.976  34.367  1.00  0.00    -0.248 NA
ATOM     90  C   UNL A   1      41.771  31.632  36.526  1.00  0.00    -0.034 C 
ATOM     91  C   UNL A   1      43.164  27.720  32.091  1.00  0.00    -0.036 A 
ATOM     92  H   UNL A   1      42.796  26.992  30.079  1.00  0.00     0.065 H 
ATOM     93  C   UNL A   1      42.551  28.725  32.824  1.00  0.00     0.049 A 
ATOM     94  H   UNL A   1      40.902  29.933  32.300  1.00  0.00     0.167 HD
ATOM     95  C   UNL A   1      42.241  30.201  34.797  1.00  0.00     0.074 A 
ATOM     96  C   UNL A   1      42.581  30.660  36.128  1.00  0.00    -0.034 C 
ATOM     97  H   UNL A   1      41.750  32.134  37.428  1.00  0.00     0.065 H 
ATOM     98  H   UNL A   1      43.955  27.138  32.409  1.00  0.00     0.065 H 
ATOM     99  C   UNL A   1      42.884  29.202  34.143  1.00  0.00     0.037 A 
ATOM    100  H   UNL A   1      43.357  30.281  36.693  1.00  0.00     0.065 H 
BRANCH  81 101
ATOM    101  C   UNL A   1      40.526  27.868  28.583  1.00  0.00     0.064 A 
ATOM    102  C   UNL A   1      39.837  26.646  28.561  1.00  0.00     0.173 A 
ATOM    103  C   UNL A   1      41.238  28.239  27.432  1.00  0.00     0.173 A 
ATOM    104  F   UNL A   1      39.148  26.239  29.639  1.00  0.00    -0.203 F 
ATOM    105  C   UNL A   1      39.899  25.807  27.452  1.00  0.00     0.198 A 
ATOM    106  C   UNL A   1      41.268  27.413  26.311  1.00  0.00     0.198 A 
ATOM    107  F   UNL A   1      41.909  29.399  27.394  1.00  0.00    -0.203 F 
ATOM    108  F   UNL A   1      39.290  24.613  27.482  1.00  0.00    -0.200 F 
ATOM    109  C   UNL A   1      40.611  26.193  26.327  1.00  0.00     0.200 A 
ATOM    110  F   UNL A   1      41.944  27.794  25.218  1.00  0.00    -0.200 F 
ATOM    111  F   UNL A   1      40.673  25.382  25.262  1.00  0.00    -0.200 F 
ENDBRANCH  81 101
BRANCH  84 112
ATOM    112  C   UNL A   1      39.681  33.704  36.644  1.00  0.00     0.064 A 
ATOM    113  C   UNL A   1      40.373  34.910  36.820  1.00  0.00     0.173 A 
ATOM    114  C   UNL A   1      38.772  33.320  37.642  1.00  0.00     0.173 A 
ATOM    115  F   UNL A   1      41.265  35.309  35.903  1.00  0.00    -0.203 F 
ATOM    116  C   UNL A   1      40.167  35.697  37.951  1.00  0.00     0.198 A 
ATOM    117  C   UNL A   1      38.549  34.122  38.759  1.00  0.00     0.198 A 
ATOM    118  F   UNL A   1      38.079  32.179  37.514  1.00  0.00    -0.203 F 
ATOM    119  F   UNL A   1      40.861  36.833  38.109  1.00  0.00    -0.200 F 
ATOM    120  C   UNL A   1      39.250  35.307  38.915  1.00  0.00     0.200 A 
ATOM    121  F   UNL A   1      37.647  33.749  39.677  1.00  0.00    -0.200 F 
ATOM    122  F   UNL A   1      39.039  36.075  39.993  1.00  0.00    -0.200 F 
ENDBRANCH  84 112
BRANCH  99 123
ATOM    123  C   UNL A   1      44.051  28.556  34.831  1.00  0.00     0.064 A 
ATOM    124  C   UNL A   1      45.343  29.093  34.754  1.00  0.00     0.173 A 
ATOM    125  C   UNL A   1      43.851  27.434  35.652  1.00  0.00     0.173 A 
ATOM    126  F   UNL A   1      45.587  30.155  33.972  1.00  0.00    -0.203 F 
ATOM    127  C   UNL A   1      46.395  28.528  35.470  1.00  0.00     0.198 A 
ATOM    128  C   UNL A   1      44.898  26.889  36.387  1.00  0.00     0.198 A 
ATOM    129  F   UNL A   1      42.631  26.887  35.764  1.00  0.00    -0.203 F 
ATOM    130  F   UNL A   1      47.628  29.042  35.363  1.00  0.00    -0.200 F 
ATOM    131  C   UNL A   1      46.170  27.435  36.296  1.00  0.00     0.200 A 
ATOM    132  F   UNL A   1      44.676  25.843  37.195  1.00  0.00    -0.200 F 
ATOM    133  F   UNL A   1      47.179  26.907  37.002  1.00  0.00    -0.200 F 
ENDBRANCH  99 123
ENDBRANCH  64  67
ENDBRANCH  54  57
ENDBRANCH  50  53
ENDBRANCH  47  50
ENDBRANCH  44  47
ENDBRANCH   1  44
TORSDOF 17
ENDMDL
MODEL 4
REMARK VINA RESULT:     -12.3      2.951      8.523
REMARK SMILES C[C@@H](C(=O)NCCCCCCNC(=O)c1ccc(-c2c3nc(c(-c4c(F)c(F)c(F)c(F)c4F)c4ccc([nH]4)c(-c4c(F)c(F)c(F)c(F)c4F)c4nc(c(-c5c(F)c(F)c(F)c(F)c5F)c5ccc2[nH]5)C=C4)C=C3)cc1)c1ccccc1-c1ccn(C(F)F)c(=O)c1
REMARK SMILES IDX 8 1 7 4 6 7 5 10 3 11 4 12 2 14 1 16 78 20 79 21 83 22 80 23
REMARK SMILES IDX 82 25 81 26 84 30 85 31 93 32 86 33 91 35 87 37 92 39 88 40
REMARK SMILES IDX 89 41 90 42 9 44 10 47 11 50 12 53 13 54 14 56 15 57 16 58
REMARK SMILES IDX 77 59 17 60 76 62 18 64 19 67 20 68 70 69 21 70 75 71 69 72
REMARK SMILES IDX 71 73 22 74 74 75 68 77 67 79 23 81 55 84 35 85 54 86 36 87
REMARK SMILES IDX 39 88 53 89 72 90 37 91 38 93 52 95 73 96 40 99 24 101
REMARK SMILES IDX 25 102 33 103 26 104 27 105 31 106 34 107 28 108 29 109
REMARK SMILES IDX 32 110 30 111 56 112 57 113 65 114 58 115 59 116 63 117
REMARK SMILES IDX 66 118 60 119 61 120 64 121 62 122 41 123 42 124 50 125
REMARK SMILES IDX 43 126 44 127 48 128 51 129 45 130 46 131 49 132 47 133
REMARK H PARENT 8 2 8 3 7 5 7 6 6 8 6 9 5 13 2 15 1 17 1 18 1 19 79 24 80 27
REMARK H PARENT 82 28 81 29 85 34 93 36 86 38 88 43 9 45 9 46 10 48 10 49
REMARK H PARENT 11 51 11 52 12 55 16 61 77 63 17 65 76 66 75 76 69 78 71 80
REMARK H PARENT 74 82 68 83 36 92 39 94 72 97 37 98 73 100
REMARK Flexibility Score: inf
ROOT
ATOM      1  C   UNL A   1      34.060  26.590  25.197  1.00  0.00    -0.052 C 
ATOM      2  H   UNL A   1      33.903  27.196  24.330  1.00  0.00     0.027 H 
ATOM      3  H   UNL A   1      34.842  26.956  25.830  1.00  0.00     0.027 H 
ENDROOT
BRANCH   1   4
ATOM      4  C   UNL A   1      34.494  25.191  24.733  1.00  0.00    -0.036 C 
ATOM      5  H   UNL A   1      33.620  24.637  24.461  1.00  0.00     0.028 H 
ATOM      6  H   UNL A   1      35.160  25.324  23.906  1.00  0.00     0.028 H 
BRANCH   4   7
ATOM      7  C   UNL A   1      35.254  24.405  25.805  1.00  0.00     0.017 C 
ATOM      8  H   UNL A   1      36.062  24.997  26.181  1.00  0.00     0.049 H 
ATOM      9  H   UNL A   1      34.594  24.162  26.613  1.00  0.00     0.049 H 
BRANCH   7  10
ATOM     10  N   UNL A   1      35.774  23.190  25.213  1.00  0.00    -0.356 N 
ATOM     11  C   UNL A   1      35.302  21.915  25.332  1.00  0.00     0.227 C 
ATOM     12  O   UNL A   1      36.110  21.000  25.163  1.00  0.00    -0.274 OA
ATOM     13  H   UNL A   1      36.575  23.298  24.651  1.00  0.00     0.163 HD
BRANCH  11  14
ATOM     14  C   UNL A   1      33.809  21.684  25.601  1.00  0.00     0.061 C 
ATOM     15  H   UNL A   1      33.248  22.587  25.482  1.00  0.00     0.045 H 
BRANCH  14  16
ATOM     16  C   UNL A   1      33.635  21.245  27.063  1.00  0.00    -0.049 C 
ATOM     17  H   UNL A   1      32.600  21.300  27.331  1.00  0.00     0.024 H 
ATOM     18  H   UNL A   1      34.203  21.891  27.700  1.00  0.00     0.024 H 
ATOM     19  H   UNL A   1      33.979  20.238  27.176  1.00  0.00     0.024 H 
ENDBRANCH  14  16
BRANCH  14  20
ATOM     20  C   UNL A   1      33.214  20.722  24.559  1.00  0.00    -0.028 A 
ATOM     21  C   UNL A   1      33.366  19.328  24.709  1.00  0.00    -0.058 A 
ATOM     22  C   UNL A   1      32.534  21.196  23.405  1.00  0.00    -0.014 A 
ATOM     23  C   UNL A   1      32.879  18.431  23.757  1.00  0.00    -0.062 A 
ATOM     24  H   UNL A   1      33.850  18.961  25.543  1.00  0.00     0.063 H 
ATOM     25  C   UNL A   1      32.071  20.277  22.444  1.00  0.00    -0.054 A 
ATOM     26  C   UNL A   1      32.241  18.905  22.620  1.00  0.00    -0.062 A 
ATOM     27  H   UNL A   1      32.993  17.416  23.898  1.00  0.00     0.062 H 
ATOM     28  H   UNL A   1      31.599  20.624  21.595  1.00  0.00     0.063 H 
ATOM     29  H   UNL A   1      31.894  18.244  21.907  1.00  0.00     0.062 H 
BRANCH  22  30
ATOM     30  C   UNL A   1      32.254  22.629  23.144  1.00  0.00    -0.011 A 
ATOM     31  C   UNL A   1      31.313  23.419  23.914  1.00  0.00    -0.038 A 
ATOM     32  C   UNL A   1      32.942  23.229  22.157  1.00  0.00     0.012 A 
ATOM     33  C   UNL A   1      31.030  24.679  23.563  1.00  0.00     0.013 A 
ATOM     34  H   UNL A   1      30.856  23.005  24.742  1.00  0.00     0.064 H 
ATOM     35  C   UNL A   1      32.700  24.656  21.806  1.00  0.00     0.255 A 
ATOM     36  H   UNL A   1      33.651  22.691  21.634  1.00  0.00     0.069 H 
ATOM     37  N   UNL A   1      31.681  25.284  22.505  1.00  0.00    -0.258 N 
ATOM     38  H   UNL A   1      30.316  25.205  24.090  1.00  0.00     0.082 H 
ATOM     39  O   UNL A   1      33.382  25.168  20.925  1.00  0.00    -0.269 OA
BRANCH  37  40
ATOM     40  C   UNL A   1      31.364  26.636  22.127  1.00  0.00     0.321 C 
ATOM     41  F   UNL A   1      30.176  27.025  22.647  1.00  0.00    -0.185 F 
ATOM     42  F   UNL A   1      32.316  27.501  22.558  1.00  0.00    -0.185 F 
ATOM     43  H   UNL A   1      31.315  26.653  21.058  1.00  0.00     0.131 H 
ENDBRANCH  37  40
ENDBRANCH  22  30
ENDBRANCH  14  20
ENDBRANCH  11  14
ENDBRANCH   7  10
ENDBRANCH   4   7
ENDBRANCH   1   4
BRANCH   1  44
ATOM     44  C   UNL A   1      32.778  26.615  26.036  1.00  0.00    -0.052 C 
ATOM     45  H   UNL A   1      32.985  26.149  26.978  1.00  0.00     0.027 H 
ATOM     46  H   UNL A   1      32.032  26.097  25.471  1.00  0.00     0.027 H 
BRANCH  44  47
ATOM     47  C   UNL A   1      32.227  28.014  26.308  1.00  0.00    -0.036 C 
ATOM     48  H   UNL A   1      32.136  28.140  27.367  1.00  0.00     0.028 H 
ATOM     49  H   UNL A   1      31.286  28.080  25.804  1.00  0.00     0.028 H 
BRANCH  47  50
ATOM     50  C   UNL A   1      33.099  29.139  25.764  1.00  0.00     0.018 C 
ATOM     51  H   UNL A   1      33.130  29.067  24.697  1.00  0.00     0.049 H 
ATOM     52  H   UNL A   1      34.076  29.034  26.187  1.00  0.00     0.049 H 
BRANCH  50  53
ATOM     53  N   UNL A   1      32.589  30.450  26.132  1.00  0.00    -0.352 N 
ATOM     54  C   UNL A   1      33.084  31.332  27.066  1.00  0.00     0.251 C 
ATOM     55  H   UNL A   1      31.783  30.746  25.651  1.00  0.00     0.163 HD
ATOM     56  O   UNL A   1      32.446  32.313  27.407  1.00  0.00    -0.269 OA
BRANCH  54  57
ATOM     57  C   UNL A   1      34.404  31.053  27.667  1.00  0.00     0.039 A 
ATOM     58  C   UNL A   1      35.347  32.079  27.749  1.00  0.00    -0.049 A 
ATOM     59  C   UNL A   1      34.683  29.784  28.182  1.00  0.00    -0.049 A 
ATOM     60  C   UNL A   1      36.556  31.849  28.409  1.00  0.00    -0.053 A 
ATOM     61  H   UNL A   1      35.152  33.000  27.326  1.00  0.00     0.063 H 
ATOM     62  C   UNL A   1      35.853  29.580  28.901  1.00  0.00    -0.053 A 
ATOM     63  H   UNL A   1      34.023  29.006  28.030  1.00  0.00     0.063 H 
ATOM     64  C   UNL A   1      36.803  30.608  29.017  1.00  0.00    -0.014 A 
ATOM     65  H   UNL A   1      37.271  32.593  28.449  1.00  0.00     0.063 H 
ATOM     66  H   UNL A   1      36.028  28.667  29.350  1.00  0.00     0.063 H 
BRANCH  64  67
ATOM     67  C   UNL A   1      38.049  30.339  29.775  1.00  0.00     0.031 A 
ATOM     68  C   UNL A   1      39.055  29.371  29.223  1.00  0.00     0.074 A 
ATOM     69  C   UNL A   1      38.218  30.867  31.002  1.00  0.00     0.049 A 
ATOM     70  N   UNL A   1      40.117  28.862  29.792  1.00  0.00    -0.248 NA
ATOM     71  C   UNL A   1      38.806  28.880  27.859  1.00  0.00    -0.034 C 
ATOM     72  C   UNL A   1      37.289  31.784  31.663  1.00  0.00    -0.036 A 
ATOM     73  N   UNL A   1      39.216  30.679  31.926  1.00  0.00    -0.354 N 
ATOM     74  C   UNL A   1      40.644  27.969  28.869  1.00  0.00     0.074 A 
ATOM     75  C   UNL A   1      39.758  27.970  27.725  1.00  0.00    -0.034 C 
ATOM     76  H   UNL A   1      38.082  29.169  27.184  1.00  0.00     0.065 H 
ATOM     77  C   UNL A   1      37.757  32.075  32.886  1.00  0.00    -0.036 A 
ATOM     78  H   UNL A   1      36.414  32.148  31.253  1.00  0.00     0.065 H 
ATOM     79  C   UNL A   1      38.993  31.332  33.113  1.00  0.00     0.049 A 
ATOM     80  H   UNL A   1      40.014  30.130  31.753  1.00  0.00     0.167 HD
ATOM     81  C   UNL A   1      41.774  27.228  28.963  1.00  0.00     0.037 A 
ATOM     82  H   UNL A   1      39.855  27.343  26.911  1.00  0.00     0.065 H 
ATOM     83  H   UNL A   1      37.313  32.720  33.559  1.00  0.00     0.065 H 
ATOM     84  C   UNL A   1      39.693  31.312  34.264  1.00  0.00     0.037 A 
ATOM     85  C   UNL A   1      42.662  27.257  30.094  1.00  0.00     0.049 A 
ATOM     86  C   UNL A   1      40.948  30.489  34.348  1.00  0.00     0.074 A 
ATOM     87  C   UNL A   1      43.873  26.608  30.256  1.00  0.00    -0.036 A 
ATOM     88  N   UNL A   1      42.429  27.972  31.261  1.00  0.00    -0.354 N 
ATOM     89  N   UNL A   1      41.480  29.700  33.444  1.00  0.00    -0.248 NA
ATOM     90  C   UNL A   1      41.706  30.553  35.605  1.00  0.00    -0.034 C 
ATOM     91  C   UNL A   1      44.347  26.887  31.543  1.00  0.00    -0.036 A 
ATOM     92  H   UNL A   1      44.345  26.021  29.552  1.00  0.00     0.065 H 
ATOM     93  C   UNL A   1      43.460  27.757  32.160  1.00  0.00     0.049 A 
ATOM     94  H   UNL A   1      41.647  28.547  31.425  1.00  0.00     0.167 HD
ATOM     95  C   UNL A   1      42.644  29.200  34.009  1.00  0.00     0.074 A 
ATOM     96  C   UNL A   1      42.744  29.772  35.336  1.00  0.00    -0.034 C 
ATOM     97  H   UNL A   1      41.487  31.071  36.471  1.00  0.00     0.065 H 
ATOM     98  H   UNL A   1      45.210  26.509  31.962  1.00  0.00     0.065 H 
ATOM     99  C   UNL A   1      43.551  28.345  33.474  1.00  0.00     0.037 A 
ATOM    100  H   UNL A   1      43.524  29.597  35.988  1.00  0.00     0.065 H 
BRANCH  81 101
ATOM    101  C   UNL A   1      42.096  26.313  27.816  1.00  0.00     0.064 A 
ATOM    102  C   UNL A   1      41.530  25.034  27.706  1.00  0.00     0.173 A 
ATOM    103  C   UNL A   1      42.987  26.723  26.812  1.00  0.00     0.173 A 
ATOM    104  F   UNL A   1      40.679  24.589  28.644  1.00  0.00    -0.203 F 
ATOM    105  C   UNL A   1      41.881  24.182  26.663  1.00  0.00     0.198 A 
ATOM    106  C   UNL A   1      43.307  25.881  25.750  1.00  0.00     0.198 A 
ATOM    107  F   UNL A   1      43.552  27.938  26.862  1.00  0.00    -0.203 F 
ATOM    108  F   UNL A   1      41.380  22.938  26.619  1.00  0.00    -0.200 F 
ATOM    109  C   UNL A   1      42.764  24.607  25.684  1.00  0.00     0.200 A 
ATOM    110  F   UNL A   1      44.151  26.299  24.797  1.00  0.00    -0.200 F 
ATOM    111  F   UNL A   1      43.104  23.783  24.682  1.00  0.00    -0.200 F 
ENDBRANCH  81 101
BRANCH  84 112
ATOM    112  C   UNL A   1      39.213  32.111  35.420  1.00  0.00     0.064 A 
ATOM    113  C   UNL A   1      38.447  31.522  36.435  1.00  0.00     0.173 A 
ATOM    114  C   UNL A   1      39.548  33.467  35.557  1.00  0.00     0.173 A 
ATOM    115  F   UNL A   1      38.086  30.234  36.339  1.00  0.00    -0.203 F 
ATOM    116  C   UNL A   1      38.031  32.260  37.541  1.00  0.00     0.198 A 
ATOM    117  C   UNL A   1      39.153  34.196  36.676  1.00  0.00     0.198 A 
ATOM    118  F   UNL A   1      40.287  34.073  34.616  1.00  0.00    -0.203 F 
ATOM    119  F   UNL A   1      37.277  31.680  38.485  1.00  0.00    -0.200 F 
ATOM    120  C   UNL A   1      38.391  33.593  37.665  1.00  0.00     0.200 A 
ATOM    121  F   UNL A   1      39.519  35.479  36.799  1.00  0.00    -0.200 F 
ATOM    122  F   UNL A   1      38.006  34.298  38.738  1.00  0.00    -0.200 F 
ENDBRANCH  84 112
BRANCH  99 123
ATOM    123  C   UNL A   1      44.757  28.001  34.297  1.00  0.00     0.064 A 
ATOM    124  C   UNL A   1      45.907  28.802  34.291  1.00  0.00     0.173 A 
ATOM    125  C   UNL A   1      44.723  26.904  35.172  1.00  0.00     0.173 A 
ATOM    126  F   UNL A   1      45.994  29.854  33.462  1.00  0.00    -0.203 F 
ATOM    127  C   UNL A   1      46.982  28.514  35.127  1.00  0.00     0.198 A 
ATOM    128  C   UNL A   1      45.787  26.635  36.026  1.00  0.00     0.198 A 
ATOM    129  F   UNL A   1      43.641  26.111  35.219  1.00  0.00    -0.203 F 
ATOM    130  F   UNL A   1      48.082  29.278  35.088  1.00  0.00    -0.200 F 
ATOM    131  C   UNL A   1      46.917  27.439  36.002  1.00  0.00     0.200 A 
ATOM    132  F   UNL A   1      45.716  25.605  36.880  1.00  0.00    -0.200 F 
ATOM    133  F   UNL A   1      47.944  27.177  36.823  1.00  0.00    -0.200 F 
ENDBRANCH  99 123
ENDBRANCH  64  67
ENDBRANCH  54  57
ENDBRANCH  50  53
ENDBRANCH  47  50
ENDBRANCH  44  47
ENDBRANCH   1  44
TORSDOF 17
ENDMDL
MODEL 5
REMARK VINA RESULT:     -12.2      6.493     10.787
REMARK SMILES C[C@@H](C(=O)NCCCCCCNC(=O)c1ccc(-c2c3nc(c(-c4c(F)c(F)c(F)c(F)c4F)c4ccc([nH]4)c(-c4c(F)c(F)c(F)c(F)c4F)c4nc(c(-c5c(F)c(F)c(F)c(F)c5F)c5ccc2[nH]5)C=C4)C=C3)cc1)c1ccccc1-c1ccn(C(F)F)c(=O)c1
REMARK SMILES IDX 8 1 7 4 6 7 5 10 3 11 4 12 2 14 1 16 78 20 79 21 83 22 80 23
REMARK SMILES IDX 82 25 81 26 84 30 85 31 93 32 86 33 91 35 87 37 92 39 88 40
REMARK SMILES IDX 89 41 90 42 9 44 10 47 11 50 12 53 13 54 14 56 15 57 16 58
REMARK SMILES IDX 77 59 17 60 76 62 18 64 19 67 20 68 70 69 21 70 75 71 69 72
REMARK SMILES IDX 71 73 22 74 74 75 68 77 67 79 23 81 55 84 35 85 54 86 36 87
REMARK SMILES IDX 39 88 53 89 72 90 37 91 38 93 52 95 73 96 40 99 24 101
REMARK SMILES IDX 25 102 33 103 26 104 27 105 31 106 34 107 28 108 29 109
REMARK SMILES IDX 32 110 30 111 56 112 57 113 65 114 58 115 59 116 63 117
REMARK SMILES IDX 66 118 60 119 61 120 64 121 62 122 41 123 42 124 50 125
REMARK SMILES IDX 43 126 44 127 48 128 51 129 45 130 46 131 49 132 47 133
REMARK H PARENT 8 2 8 3 7 5 7 6 6 8 6 9 5 13 2 15 1 17 1 18 1 19 79 24 80 27
REMARK H PARENT 82 28 81 29 85 34 93 36 86 38 88 43 9 45 9 46 10 48 10 49
REMARK H PARENT 11 51 11 52 12 55 16 61 77 63 17 65 76 66 75 76 69 78 71 80
REMARK H PARENT 74 82 68 83 36 92 39 94 72 97 37 98 73 100
REMARK Flexibility Score: inf
ROOT
ATOM      1  C   UNL A   1      36.435  22.090  24.194  1.00  0.00    -0.052 C 
ATOM      2  H   UNL A   1      37.025  22.044  23.302  1.00  0.00     0.027 H 
ATOM      3  H   UNL A   1      35.382  22.068  24.003  1.00  0.00     0.027 H 
ENDROOT
BRANCH   1   4
ATOM      4  C   UNL A   1      36.723  23.429  24.890  1.00  0.00    -0.036 C 
ATOM      5  H   UNL A   1      37.595  23.315  25.500  1.00  0.00     0.028 H 
ATOM      6  H   UNL A   1      36.862  24.162  24.123  1.00  0.00     0.028 H 
BRANCH   4   7
ATOM      7  C   UNL A   1      35.570  23.912  25.775  1.00  0.00     0.017 C 
ATOM      8  H   UNL A   1      35.889  24.755  26.352  1.00  0.00     0.049 H 
ATOM      9  H   UNL A   1      34.739  24.200  25.165  1.00  0.00     0.049 H 
BRANCH   7  10
ATOM     10  N   UNL A   1      35.179  22.835  26.661  1.00  0.00    -0.356 N 
ATOM     11  C   UNL A   1      33.930  22.515  27.111  1.00  0.00     0.227 C 
ATOM     12  O   UNL A   1      33.859  21.902  28.178  1.00  0.00    -0.274 OA
ATOM     13  H   UNL A   1      35.909  22.260  26.983  1.00  0.00     0.163 HD
BRANCH  11  14
ATOM     14  C   UNL A   1      32.706  22.865  26.255  1.00  0.00     0.061 C 
ATOM     15  H   UNL A   1      32.833  23.805  25.761  1.00  0.00     0.045 H 
BRANCH  14  16
ATOM     16  C   UNL A   1      31.487  23.013  27.179  1.00  0.00    -0.049 C 
ATOM     17  H   UNL A   1      30.932  22.098  27.187  1.00  0.00     0.024 H 
ATOM     18  H   UNL A   1      30.863  23.806  26.824  1.00  0.00     0.024 H 
ATOM     19  H   UNL A   1      31.818  23.237  28.172  1.00  0.00     0.024 H 
ENDBRANCH  14  16
BRANCH  14  20
ATOM     20  C   UNL A   1      32.535  21.850  25.113  1.00  0.00    -0.028 A 
ATOM     21  C   UNL A   1      32.688  20.469  25.359  1.00  0.00    -0.058 A 
ATOM     22  C   UNL A   1      32.260  22.261  23.781  1.00  0.00    -0.014 A 
ATOM     23  C   UNL A   1      32.587  19.527  24.334  1.00  0.00    -0.062 A 
ATOM     24  H   UNL A   1      32.881  20.147  26.320  1.00  0.00     0.063 H 
ATOM     25  C   UNL A   1      32.185  21.297  22.757  1.00  0.00    -0.054 A 
ATOM     26  C   UNL A   1      32.345  19.941  23.032  1.00  0.00    -0.062 A 
ATOM     27  H   UNL A   1      32.691  18.523  24.545  1.00  0.00     0.062 H 
ATOM     28  H   UNL A   1      32.009  21.600  21.786  1.00  0.00     0.063 H 
ATOM     29  H   UNL A   1      32.285  19.247  22.271  1.00  0.00     0.062 H 
BRANCH  22  30
ATOM     30  C   UNL A   1      32.022  23.670  23.386  1.00  0.00    -0.011 A 
ATOM     31  C   UNL A   1      30.836  24.420  23.753  1.00  0.00    -0.038 A 
ATOM     32  C   UNL A   1      32.981  24.290  22.677  1.00  0.00     0.012 A 
ATOM     33  C   UNL A   1      30.634  25.655  23.279  1.00  0.00     0.013 A 
ATOM     34  H   UNL A   1      30.139  23.996  24.386  1.00  0.00     0.064 H 
ATOM     35  C   UNL A   1      32.810  25.694  22.212  1.00  0.00     0.255 A 
ATOM     36  H   UNL A   1      33.852  23.784  22.452  1.00  0.00     0.069 H 
ATOM     37  N   UNL A   1      31.583  26.276  22.490  1.00  0.00    -0.258 N 
ATOM     38  H   UNL A   1      29.757  26.150  23.507  1.00  0.00     0.082 H 
ATOM     39  O   UNL A   1      33.731  26.228  21.604  1.00  0.00    -0.269 OA
BRANCH  37  40
ATOM     40  C   UNL A   1      31.354  27.601  21.976  1.00  0.00     0.321 C 
ATOM     41  F   UNL A   1      30.060  27.969  22.127  1.00  0.00    -0.185 F 
ATOM     42  F   UNL A   1      32.129  28.514  22.614  1.00  0.00    -0.185 F 
ATOM     43  H   UNL A   1      31.606  27.575  20.936  1.00  0.00     0.131 H 
ENDBRANCH  37  40
ENDBRANCH  22  30
ENDBRANCH  14  20
ENDBRANCH  11  14
ENDBRANCH   7  10
ENDBRANCH   4   7
ENDBRANCH   1   4
BRANCH   1  44
ATOM     44  C   UNL A   1      36.747  20.851  25.039  1.00  0.00    -0.052 C 
ATOM     45  H   UNL A   1      35.974  20.130  24.873  1.00  0.00     0.027 H 
ATOM     46  H   UNL A   1      36.799  21.179  26.056  1.00  0.00     0.027 H 
BRANCH  44  47
ATOM     47  C   UNL A   1      38.090  20.192  24.724  1.00  0.00    -0.036 C 
ATOM     48  H   UNL A   1      38.437  20.568  23.784  1.00  0.00     0.028 H 
ATOM     49  H   UNL A   1      37.921  19.136  24.707  1.00  0.00     0.028 H 
BRANCH  47  50
ATOM     50  C   UNL A   1      39.167  20.450  25.771  1.00  0.00     0.018 C 
ATOM     51  H   UNL A   1      38.696  20.624  26.715  1.00  0.00     0.049 H 
ATOM     52  H   UNL A   1      39.735  21.301  25.459  1.00  0.00     0.049 H 
BRANCH  50  53
ATOM     53  N   UNL A   1      40.079  19.324  25.902  1.00  0.00    -0.352 N 
ATOM     54  C   UNL A   1      41.439  19.343  26.110  1.00  0.00     0.251 C 
ATOM     55  H   UNL A   1      39.670  18.432  25.832  1.00  0.00     0.163 HD
ATOM     56  O   UNL A   1      42.106  18.328  26.009  1.00  0.00    -0.269 OA
BRANCH  54  57
ATOM     57  C   UNL A   1      42.084  20.631  26.440  1.00  0.00     0.039 A 
ATOM     58  C   UNL A   1      42.414  21.513  25.410  1.00  0.00    -0.049 A 
ATOM     59  C   UNL A   1      42.321  20.971  27.774  1.00  0.00    -0.049 A 
ATOM     60  C   UNL A   1      42.927  22.773  25.723  1.00  0.00    -0.053 A 
ATOM     61  H   UNL A   1      42.278  21.236  24.425  1.00  0.00     0.063 H 
ATOM     62  C   UNL A   1      42.762  22.250  28.086  1.00  0.00    -0.053 A 
ATOM     63  H   UNL A   1      42.168  20.277  28.522  1.00  0.00     0.063 H 
ATOM     64  C   UNL A   1      43.074  23.161  27.063  1.00  0.00    -0.014 A 
ATOM     65  H   UNL A   1      43.201  23.420  24.966  1.00  0.00     0.063 H 
ATOM     66  H   UNL A   1      42.865  22.532  29.074  1.00  0.00     0.063 H 
BRANCH  64  67
ATOM     67  C   UNL A   1      43.564  24.510  27.441  1.00  0.00     0.031 A 
ATOM     68  C   UNL A   1      42.591  25.530  27.959  1.00  0.00     0.074 A 
ATOM     69  C   UNL A   1      44.845  24.850  27.208  1.00  0.00     0.049 A 
ATOM     70  N   UNL A   1      42.767  26.807  28.182  1.00  0.00    -0.248 NA
ATOM     71  C   UNL A   1      41.226  25.054  28.222  1.00  0.00    -0.034 C 
ATOM     72  C   UNL A   1      45.871  23.960  26.665  1.00  0.00    -0.036 A 
ATOM     73  N   UNL A   1      45.493  26.050  27.365  1.00  0.00    -0.354 N 
ATOM     74  C   UNL A   1      41.529  27.291  28.579  1.00  0.00     0.074 A 
ATOM     75  C   UNL A   1      40.601  26.182  28.520  1.00  0.00    -0.034 C 
ATOM     76  H   UNL A   1      40.851  24.093  28.185  1.00  0.00     0.065 H 
ATOM     77  C   UNL A   1      47.017  24.644  26.530  1.00  0.00    -0.036 A 
ATOM     78  H   UNL A   1      45.734  22.965  26.425  1.00  0.00     0.065 H 
ATOM     79  C   UNL A   1      46.796  26.029  26.933  1.00  0.00     0.049 A 
ATOM     80  H   UNL A   1      45.064  26.848  27.750  1.00  0.00     0.167 HD
ATOM     81  C   UNL A   1      41.202  28.545  28.974  1.00  0.00     0.037 A 
ATOM     82  H   UNL A   1      39.586  26.261  28.688  1.00  0.00     0.065 H 
ATOM     83  H   UNL A   1      47.912  24.253  26.195  1.00  0.00     0.065 H 
ATOM     84  C   UNL A   1      47.702  27.023  26.847  1.00  0.00     0.037 A 
ATOM     85  C   UNL A   1      42.139  29.632  29.056  1.00  0.00     0.049 A 
ATOM     86  C   UNL A   1      47.322  28.406  27.296  1.00  0.00     0.074 A 
ATOM     87  C   UNL A   1      41.929  30.919  29.520  1.00  0.00    -0.036 A 
ATOM     88  N   UNL A   1      43.467  29.560  28.658  1.00  0.00    -0.354 N 
ATOM     89  N   UNL A   1      46.168  28.842  27.739  1.00  0.00    -0.248 NA
ATOM     90  C   UNL A   1      48.369  29.437  27.239  1.00  0.00    -0.034 C 
ATOM     91  C   UNL A   1      43.115  31.641  29.352  1.00  0.00    -0.036 A 
ATOM     92  H   UNL A   1      41.051  31.283  29.920  1.00  0.00     0.065 H 
ATOM     93  C   UNL A   1      44.081  30.788  28.838  1.00  0.00     0.049 A 
ATOM     94  H   UNL A   1      43.907  28.755  28.301  1.00  0.00     0.167 HD
ATOM     95  C   UNL A   1      46.354  30.184  28.041  1.00  0.00     0.074 A 
ATOM     96  C   UNL A   1      47.735  30.494  27.730  1.00  0.00    -0.034 C 
ATOM     97  H   UNL A   1      49.342  29.359  26.905  1.00  0.00     0.065 H 
ATOM     98  H   UNL A   1      43.249  32.640  29.572  1.00  0.00     0.065 H 
ATOM     99  C   UNL A   1      45.461  31.077  28.535  1.00  0.00     0.037 A 
ATOM    100  H   UNL A   1      48.170  31.418  27.874  1.00  0.00     0.065 H 
BRANCH  81 101
ATOM    101  C   UNL A   1      39.764  28.803  29.328  1.00  0.00     0.064 A 
ATOM    102  C   UNL A   1      39.270  28.594  30.624  1.00  0.00     0.173 A 
ATOM    103  C   UNL A   1      38.867  29.263  28.352  1.00  0.00     0.173 A 
ATOM    104  F   UNL A   1      40.084  28.146  31.593  1.00  0.00    -0.203 F 
ATOM    105  C   UNL A   1      37.924  28.790  30.919  1.00  0.00     0.198 A 
ATOM    106  C   UNL A   1      37.528  29.493  28.659  1.00  0.00     0.198 A 
ATOM    107  F   UNL A   1      39.285  29.486  27.097  1.00  0.00    -0.203 F 
ATOM    108  F   UNL A   1      37.463  28.517  32.148  1.00  0.00    -0.200 F 
ATOM    109  C   UNL A   1      37.056  29.243  29.939  1.00  0.00     0.200 A 
ATOM    110  F   UNL A   1      36.693  29.944  27.715  1.00  0.00    -0.200 F 
ATOM    111  F   UNL A   1      35.759  29.427  30.224  1.00  0.00    -0.200 F 
ENDBRANCH  81 101
BRANCH  84 112
ATOM    112  C   UNL A   1      49.058  26.725  26.319  1.00  0.00     0.064 A 
ATOM    113  C   UNL A   1      50.040  26.150  27.137  1.00  0.00     0.173 A 
ATOM    114  C   UNL A   1      49.385  26.965  24.976  1.00  0.00     0.173 A 
ATOM    115  F   UNL A   1      49.780  25.919  28.432  1.00  0.00    -0.203 F 
ATOM    116  C   UNL A   1      51.299  25.832  26.633  1.00  0.00     0.198 A 
ATOM    117  C   UNL A   1      50.636  26.622  24.468  1.00  0.00     0.198 A 
ATOM    118  F   UNL A   1      48.476  27.506  24.151  1.00  0.00    -0.203 F 
ATOM    119  F   UNL A   1      52.229  25.307  27.442  1.00  0.00    -0.200 F 
ATOM    120  C   UNL A   1      51.593  26.060  25.297  1.00  0.00     0.200 A 
ATOM    121  F   UNL A   1      50.908  26.828  23.172  1.00  0.00    -0.200 F 
ATOM    122  F   UNL A   1      52.798  25.737  24.809  1.00  0.00    -0.200 F 
ENDBRANCH  84 112
BRANCH  99 123
ATOM    123  C   UNL A   1      45.948  32.468  28.815  1.00  0.00     0.064 A 
ATOM    124  C   UNL A   1      46.549  32.808  30.034  1.00  0.00     0.173 A 
ATOM    125  C   UNL A   1      45.892  33.449  27.811  1.00  0.00     0.173 A 
ATOM    126  F   UNL A   1      46.614  31.911  31.029  1.00  0.00    -0.203 F 
ATOM    127  C   UNL A   1      47.072  34.082  30.241  1.00  0.00     0.198 A 
ATOM    128  C   UNL A   1      46.439  34.711  28.012  1.00  0.00     0.198 A 
ATOM    129  F   UNL A   1      45.331  33.169  26.624  1.00  0.00    -0.203 F 
ATOM    130  F   UNL A   1      47.620  34.395  31.423  1.00  0.00    -0.200 F 
ATOM    131  C   UNL A   1      47.028  35.028  29.226  1.00  0.00     0.200 A 
ATOM    132  F   UNL A   1      46.409  35.618  27.025  1.00  0.00    -0.200 F 
ATOM    133  F   UNL A   1      47.553  36.246  29.420  1.00  0.00    -0.200 F 
ENDBRANCH  99 123
ENDBRANCH  64  67
ENDBRANCH  54  57
ENDBRANCH  50  53
ENDBRANCH  47  50
ENDBRANCH  44  47
ENDBRANCH   1  44
TORSDOF 17
ENDMDL
MODEL 6
REMARK VINA RESULT:     -12.2      6.475     10.864
REMARK SMILES C[C@@H](C(=O)NCCCCCCNC(=O)c1ccc(-c2c3nc(c(-c4c(F)c(F)c(F)c(F)c4F)c4ccc([nH]4)c(-c4c(F)c(F)c(F)c(F)c4F)c4nc(c(-c5c(F)c(F)c(F)c(F)c5F)c5ccc2[nH]5)C=C4)C=C3)cc1)c1ccccc1-c1ccn(C(F)F)c(=O)c1
REMARK SMILES IDX 8 1 7 4 6 7 5 10 3 11 4 12 2 14 1 16 78 20 79 21 83 22 80 23
REMARK SMILES IDX 82 25 81 26 84 30 85 31 93 32 86 33 91 35 87 37 92 39 88 40
REMARK SMILES IDX 89 41 90 42 9 44 10 47 11 50 12 53 13 54 14 56 15 57 16 58
REMARK SMILES IDX 77 59 17 60 76 62 18 64 19 67 20 68 70 69 21 70 75 71 69 72
REMARK SMILES IDX 71 73 22 74 74 75 68 77 67 79 23 81 55 84 35 85 54 86 36 87
REMARK SMILES IDX 39 88 53 89 72 90 37 91 38 93 52 95 73 96 40 99 24 101
REMARK SMILES IDX 25 102 33 103 26 104 27 105 31 106 34 107 28 108 29 109
REMARK SMILES IDX 32 110 30 111 56 112 57 113 65 114 58 115 59 116 63 117
REMARK SMILES IDX 66 118 60 119 61 120 64 121 62 122 41 123 42 124 50 125
REMARK SMILES IDX 43 126 44 127 48 128 51 129 45 130 46 131 49 132 47 133
REMARK H PARENT 8 2 8 3 7 5 7 6 6 8 6 9 5 13 2 15 1 17 1 18 1 19 79 24 80 27
REMARK H PARENT 82 28 81 29 85 34 93 36 86 38 88 43 9 45 9 46 10 48 10 49
REMARK H PARENT 11 51 11 52 12 55 16 61 77 63 17 65 76 66 75 76 69 78 71 80
REMARK H PARENT 74 82 68 83 36 92 39 94 72 97 37 98 73 100
REMARK Flexibility Score: inf
ROOT
ATOM      1  C   UNL A   1      37.702  21.855  25.273  1.00  0.00    -0.052 C 
ATOM      2  H   UNL A   1      37.482  21.781  26.318  1.00  0.00     0.027 H 
ATOM      3  H   UNL A   1      38.741  22.014  25.074  1.00  0.00     0.027 H 
ENDROOT
BRANCH   1   4
ATOM      4  C   UNL A   1      36.960  23.077  24.712  1.00  0.00    -0.036 C 
ATOM      5  H   UNL A   1      37.672  23.856  24.535  1.00  0.00     0.028 H 
ATOM      6  H   UNL A   1      36.472  22.766  23.812  1.00  0.00     0.028 H 
BRANCH   4   7
ATOM      7  C   UNL A   1      35.877  23.614  25.653  1.00  0.00     0.017 C 
ATOM      8  H   UNL A   1      36.279  24.405  26.251  1.00  0.00     0.049 H 
ATOM      9  H   UNL A   1      35.054  23.991  25.082  1.00  0.00     0.049 H 
BRANCH   7  10
ATOM     10  N   UNL A   1      35.427  22.536  26.510  1.00  0.00    -0.356 N 
ATOM     11  C   UNL A   1      34.163  22.270  26.951  1.00  0.00     0.227 C 
ATOM     12  O   UNL A   1      34.058  21.635  28.002  1.00  0.00    -0.274 OA
ATOM     13  H   UNL A   1      36.126  21.915  26.817  1.00  0.00     0.163 HD
BRANCH  11  14
ATOM     14  C   UNL A   1      32.960  22.708  26.105  1.00  0.00     0.061 C 
ATOM     15  H   UNL A   1      33.154  23.632  25.602  1.00  0.00     0.045 H 
BRANCH  14  16
ATOM     16  C   UNL A   1      31.766  22.955  27.039  1.00  0.00    -0.049 C 
ATOM     17  H   UNL A   1      31.978  22.545  28.005  1.00  0.00     0.024 H 
ATOM     18  H   UNL A   1      30.893  22.485  26.636  1.00  0.00     0.024 H 
ATOM     19  H   UNL A   1      31.596  24.007  27.129  1.00  0.00     0.024 H 
ENDBRANCH  14  16
BRANCH  14  20
ATOM     20  C   UNL A   1      32.701  21.701  24.971  1.00  0.00    -0.028 A 
ATOM     21  C   UNL A   1      32.890  20.320  25.189  1.00  0.00    -0.058 A 
ATOM     22  C   UNL A   1      32.306  22.121  23.672  1.00  0.00    -0.014 A 
ATOM     23  C   UNL A   1      32.709  19.386  24.168  1.00  0.00    -0.062 A 
ATOM     24  H   UNL A   1      33.169  19.992  26.126  1.00  0.00     0.063 H 
ATOM     25  C   UNL A   1      32.153  21.166  22.649  1.00  0.00    -0.054 A 
ATOM     26  C   UNL A   1      32.351  19.809  22.896  1.00  0.00    -0.062 A 
ATOM     27  H   UNL A   1      32.841  18.381  24.358  1.00  0.00     0.062 H 
ATOM     28  H   UNL A   1      31.890  21.476  21.701  1.00  0.00     0.063 H 
ATOM     29  H   UNL A   1      32.231  19.122  22.136  1.00  0.00     0.062 H 
BRANCH  22  30
ATOM     30  C   UNL A   1      32.021  23.532  23.314  1.00  0.00    -0.011 A 
ATOM     31  C   UNL A   1      30.804  24.226  23.688  1.00  0.00    -0.038 A 
ATOM     32  C   UNL A   1      32.964  24.206  22.634  1.00  0.00     0.012 A 
ATOM     33  C   UNL A   1      30.561  25.466  23.246  1.00  0.00     0.013 A 
ATOM     34  H   UNL A   1      30.117  23.759  24.300  1.00  0.00     0.064 H 
ATOM     35  C   UNL A   1      32.746  25.616  22.206  1.00  0.00     0.255 A 
ATOM     36  H   UNL A   1      33.856  23.739  22.406  1.00  0.00     0.069 H 
ATOM     37  N   UNL A   1      31.495  26.144  22.486  1.00  0.00    -0.258 N 
ATOM     38  H   UNL A   1      29.664  25.921  23.476  1.00  0.00     0.082 H 
ATOM     39  O   UNL A   1      33.653  26.199  21.624  1.00  0.00    -0.269 OA
BRANCH  37  40
ATOM     40  C   UNL A   1      31.223  27.473  22.006  1.00  0.00     0.321 C 
ATOM     41  F   UNL A   1      29.933  27.819  22.226  1.00  0.00    -0.185 F 
ATOM     42  F   UNL A   1      32.015  28.387  22.620  1.00  0.00    -0.185 F 
ATOM     43  H   UNL A   1      31.423  27.468  20.954  1.00  0.00     0.131 H 
ENDBRANCH  37  40
ENDBRANCH  22  30
ENDBRANCH  14  20
ENDBRANCH  11  14
ENDBRANCH   7  10
ENDBRANCH   4   7
ENDBRANCH   1   4
BRANCH   1  44
ATOM     44  C   UNL A   1      37.332  20.523  24.612  1.00  0.00    -0.052 C 
ATOM     45  H   UNL A   1      37.390  20.650  23.550  1.00  0.00     0.027 H 
ATOM     46  H   UNL A   1      36.348  20.277  24.949  1.00  0.00     0.027 H 
BRANCH  44  47
ATOM     47  C   UNL A   1      38.233  19.352  25.001  1.00  0.00    -0.036 C 
ATOM     48  H   UNL A   1      38.743  19.013  24.124  1.00  0.00     0.028 H 
ATOM     49  H   UNL A   1      37.599  18.601  25.424  1.00  0.00     0.028 H 
BRANCH  47  50
ATOM     50  C   UNL A   1      39.275  19.697  26.058  1.00  0.00     0.018 C 
ATOM     51  H   UNL A   1      38.836  19.578  27.027  1.00  0.00     0.049 H 
ATOM     52  H   UNL A   1      39.588  20.707  25.897  1.00  0.00     0.049 H 
BRANCH  50  53
ATOM     53  N   UNL A   1      40.448  18.843  25.966  1.00  0.00    -0.352 N 
ATOM     54  C   UNL A   1      41.776  19.203  26.006  1.00  0.00     0.251 C 
ATOM     55  H   UNL A   1      40.269  17.881  25.860  1.00  0.00     0.163 HD
ATOM     56  O   UNL A   1      42.654  18.406  25.725  1.00  0.00    -0.269 OA
BRANCH  54  57
ATOM     57  C   UNL A   1      42.119  20.591  26.379  1.00  0.00     0.039 A 
ATOM     58  C   UNL A   1      42.293  20.913  27.726  1.00  0.00    -0.049 A 
ATOM     59  C   UNL A   1      42.302  21.555  25.384  1.00  0.00    -0.049 A 
ATOM     60  C   UNL A   1      42.719  22.196  28.075  1.00  0.00    -0.053 A 
ATOM     61  H   UNL A   1      42.111  20.208  28.457  1.00  0.00     0.063 H 
ATOM     62  C   UNL A   1      42.795  22.807  25.729  1.00  0.00    -0.053 A 
ATOM     63  H   UNL A   1      42.075  21.338  24.402  1.00  0.00     0.063 H 
ATOM     64  C   UNL A   1      43.003  23.141  27.077  1.00  0.00    -0.014 A 
ATOM     65  H   UNL A   1      42.822  22.451  29.070  1.00  0.00     0.063 H 
ATOM     66  H   UNL A   1      43.006  23.497  24.991  1.00  0.00     0.063 H 
BRANCH  64  67
ATOM     67  C   UNL A   1      43.509  24.497  27.401  1.00  0.00     0.031 A 
ATOM     68  C   UNL A   1      42.557  25.535  27.921  1.00  0.00     0.074 A 
ATOM     69  C   UNL A   1      44.783  24.825  27.117  1.00  0.00     0.049 A 
ATOM     70  N   UNL A   1      42.745  26.817  28.103  1.00  0.00    -0.248 NA
ATOM     71  C   UNL A   1      41.199  25.073  28.241  1.00  0.00    -0.034 C 
ATOM     72  C   UNL A   1      45.788  23.916  26.567  1.00  0.00    -0.036 A 
ATOM     73  N   UNL A   1      45.440  26.026  27.220  1.00  0.00    -0.354 N 
ATOM     74  C   UNL A   1      41.522  27.318  28.526  1.00  0.00     0.074 A 
ATOM     75  C   UNL A   1      40.589  26.212  28.528  1.00  0.00    -0.034 C 
ATOM     76  H   UNL A   1      40.821  24.113  28.243  1.00  0.00     0.065 H 
ATOM     77  C   UNL A   1      46.932  24.591  26.376  1.00  0.00    -0.036 A 
ATOM     78  H   UNL A   1      45.640  22.915  26.359  1.00  0.00     0.065 H 
ATOM     79  C   UNL A   1      46.729  25.988  26.748  1.00  0.00     0.049 A 
ATOM     80  H   UNL A   1      45.027  26.836  27.597  1.00  0.00     0.167 HD
ATOM     81  C   UNL A   1      41.212  28.583  28.896  1.00  0.00     0.037 A 
ATOM     82  H   UNL A   1      39.580  26.300  28.726  1.00  0.00     0.065 H 
ATOM     83  H   UNL A   1      47.814  24.186  26.023  1.00  0.00     0.065 H 
ATOM     84  C   UNL A   1      47.635  26.974  26.605  1.00  0.00     0.037 A 
ATOM     85  C   UNL A   1      42.155  29.669  28.918  1.00  0.00     0.049 A 
ATOM     86  C   UNL A   1      47.275  28.372  27.027  1.00  0.00     0.074 A 
ATOM     87  C   UNL A   1      41.965  30.968  29.352  1.00  0.00    -0.036 A 
ATOM     88  N   UNL A   1      43.469  29.579  28.480  1.00  0.00    -0.354 N 
ATOM     89  N   UNL A   1      46.137  28.824  27.495  1.00  0.00    -0.248 NA
ATOM     90  C   UNL A   1      48.322  29.395  26.907  1.00  0.00    -0.034 C 
ATOM     91  C   UNL A   1      43.148  31.680  29.126  1.00  0.00    -0.036 A 
ATOM     92  H   UNL A   1      41.101  31.347  29.770  1.00  0.00     0.065 H 
ATOM     93  C   UNL A   1      44.094  30.809  28.606  1.00  0.00     0.049 A 
ATOM     94  H   UNL A   1      43.895  28.763  28.131  1.00  0.00     0.167 HD
ATOM     95  C   UNL A   1      46.337  30.173  27.753  1.00  0.00     0.074 A 
ATOM     96  C   UNL A   1      47.708  30.468  27.389  1.00  0.00    -0.034 C 
ATOM     97  H   UNL A   1      49.285  29.304  26.545  1.00  0.00     0.065 H 
ATOM     98  H   UNL A   1      43.291  32.684  29.314  1.00  0.00     0.065 H 
ATOM     99  C   UNL A   1      45.464  31.083  28.251  1.00  0.00     0.037 A 
ATOM    100  H   UNL A   1      48.151  31.394  27.494  1.00  0.00     0.065 H 
BRANCH  81 101
ATOM    101  C   UNL A   1      39.788  28.857  29.289  1.00  0.00     0.064 A 
ATOM    102  C   UNL A   1      38.835  29.304  28.360  1.00  0.00     0.173 A 
ATOM    103  C   UNL A   1      39.370  28.671  30.616  1.00  0.00     0.173 A 
ATOM    104  F   UNL A   1      39.184  29.507  27.080  1.00  0.00    -0.203 F 
ATOM    105  C   UNL A   1      37.534  29.601  28.754  1.00  0.00     0.198 A 
ATOM    106  C   UNL A   1      38.058  28.935  30.999  1.00  0.00     0.198 A 
ATOM    107  F   UNL A   1      40.236  28.239  31.544  1.00  0.00    -0.203 F 
ATOM    108  F   UNL A   1      36.662  30.094  27.862  1.00  0.00    -0.200 F 
ATOM    109  C   UNL A   1      37.145  29.412  30.070  1.00  0.00     0.200 A 
ATOM    110  F   UNL A   1      37.679  28.738  32.269  1.00  0.00    -0.200 F 
ATOM    111  F   UNL A   1      35.892  29.703  30.449  1.00  0.00    -0.200 F 
ENDBRANCH  81 101
BRANCH  84 112
ATOM    112  C   UNL A   1      48.973  26.656  26.042  1.00  0.00     0.064 A 
ATOM    113  C   UNL A   1      49.282  26.950  24.708  1.00  0.00     0.173 A 
ATOM    114  C   UNL A   1      49.982  26.095  26.839  1.00  0.00     0.173 A 
ATOM    115  F   UNL A   1      48.344  27.470  23.903  1.00  0.00    -0.203 F 
ATOM    116  C   UNL A   1      50.549  26.690  24.190  1.00  0.00     0.198 A 
ATOM    117  C   UNL A   1      51.256  25.860  26.326  1.00  0.00     0.198 A 
ATOM    118  F   UNL A   1      49.738  25.804  28.125  1.00  0.00    -0.203 F 
ATOM    119  F   UNL A   1      50.811  26.957  22.903  1.00  0.00    -0.200 F 
ATOM    120  C   UNL A   1      51.537  26.154  25.001  1.00  0.00     0.200 A 
ATOM    121  F   UNL A   1      52.212  25.359  27.120  1.00  0.00    -0.200 F 
ATOM    122  F   UNL A   1      52.761  25.922  24.507  1.00  0.00    -0.200 F 
ENDBRANCH  84 112
BRANCH  99 123
ATOM    123  C   UNL A   1      45.964  32.480  28.476  1.00  0.00     0.064 A 
ATOM    124  C   UNL A   1      45.839  33.475  27.497  1.00  0.00     0.173 A 
ATOM    125  C   UNL A   1      46.493  32.846  29.724  1.00  0.00     0.173 A 
ATOM    126  F   UNL A   1      45.353  33.172  26.283  1.00  0.00    -0.203 F 
ATOM    127  C   UNL A   1      46.230  34.785  27.758  1.00  0.00     0.198 A 
ATOM    128  C   UNL A   1      46.857  34.162  29.990  1.00  0.00     0.198 A 
ATOM    129  F   UNL A   1      46.627  31.930  30.696  1.00  0.00    -0.203 F 
ATOM    130  F   UNL A   1      46.125  35.717  26.799  1.00  0.00    -0.200 F 
ATOM    131  C   UNL A   1      46.726  35.130  29.007  1.00  0.00     0.200 A 
ATOM    132  F   UNL A   1      47.322  34.495  31.202  1.00  0.00    -0.200 F 
ATOM    133  F   UNL A   1      47.081  36.398  29.262  1.00  0.00    -0.200 F 
ENDBRANCH  99 123
ENDBRANCH  64  67
ENDBRANCH  54  57
ENDBRANCH  50  53
ENDBRANCH  47  50
ENDBRANCH  44  47
ENDBRANCH   1  44
TORSDOF 17
ENDMDL
MODEL 7
REMARK VINA RESULT:     -12.2      2.900      8.412
REMARK SMILES C[C@@H](C(=O)NCCCCCCNC(=O)c1ccc(-c2c3nc(c(-c4c(F)c(F)c(F)c(F)c4F)c4ccc([nH]4)c(-c4c(F)c(F)c(F)c(F)c4F)c4nc(c(-c5c(F)c(F)c(F)c(F)c5F)c5ccc2[nH]5)C=C4)C=C3)cc1)c1ccccc1-c1ccn(C(F)F)c(=O)c1
REMARK SMILES IDX 8 1 7 4 6 7 5 10 3 11 4 12 2 14 1 16 78 20 79 21 83 22 80 23
REMARK SMILES IDX 82 25 81 26 84 30 85 31 93 32 86 33 91 35 87 37 92 39 88 40
REMARK SMILES IDX 89 41 90 42 9 44 10 47 11 50 12 53 13 54 14 56 15 57 16 58
REMARK SMILES IDX 77 59 17 60 76 62 18 64 19 67 20 68 70 69 21 70 75 71 69 72
REMARK SMILES IDX 71 73 22 74 74 75 68 77 67 79 23 81 55 84 35 85 54 86 36 87
REMARK SMILES IDX 39 88 53 89 72 90 37 91 38 93 52 95 73 96 40 99 24 101
REMARK SMILES IDX 25 102 33 103 26 104 27 105 31 106 34 107 28 108 29 109
REMARK SMILES IDX 32 110 30 111 56 112 57 113 65 114 58 115 59 116 63 117
REMARK SMILES IDX 66 118 60 119 61 120 64 121 62 122 41 123 42 124 50 125
REMARK SMILES IDX 43 126 44 127 48 128 51 129 45 130 46 131 49 132 47 133
REMARK H PARENT 8 2 8 3 7 5 7 6 6 8 6 9 5 13 2 15 1 17 1 18 1 19 79 24 80 27
REMARK H PARENT 82 28 81 29 85 34 93 36 86 38 88 43 9 45 9 46 10 48 10 49
REMARK H PARENT 11 51 11 52 12 55 16 61 77 63 17 65 76 66 75 76 69 78 71 80
REMARK H PARENT 74 82 68 83 36 92 39 94 72 97 37 98 73 100
REMARK Flexibility Score: inf
ROOT
ATOM      1  C   UNL A   1      30.685  26.700  25.873  1.00  0.00    -0.052 C 
ATOM      2  H   UNL A   1      29.872  27.394  25.921  1.00  0.00     0.027 H 
ATOM      3  H   UNL A   1      31.170  26.687  24.918  1.00  0.00     0.027 H 
ENDROOT
BRANCH   1   4
ATOM      4  C   UNL A   1      30.124  25.288  26.095  1.00  0.00    -0.036 C 
ATOM      5  H   UNL A   1      30.092  25.096  27.148  1.00  0.00     0.028 H 
ATOM      6  H   UNL A   1      29.151  25.259  25.651  1.00  0.00     0.028 H 
BRANCH   4   7
ATOM      7  C   UNL A   1      30.960  24.192  25.428  1.00  0.00     0.017 C 
ATOM      8  H   UNL A   1      30.319  23.399  25.101  1.00  0.00     0.049 H 
ATOM      9  H   UNL A   1      31.478  24.594  24.582  1.00  0.00     0.049 H 
BRANCH   7  10
ATOM     10  N   UNL A   1      31.914  23.680  26.390  1.00  0.00    -0.356 N 
ATOM     11  C   UNL A   1      32.618  22.511  26.352  1.00  0.00     0.227 C 
ATOM     12  O   UNL A   1      32.993  22.047  27.430  1.00  0.00    -0.274 OA
ATOM     13  H   UNL A   1      32.075  24.250  27.176  1.00  0.00     0.163 HD
BRANCH  11  14
ATOM     14  C   UNL A   1      32.958  21.877  24.997  1.00  0.00     0.061 C 
ATOM     15  H   UNL A   1      32.606  22.480  24.186  1.00  0.00     0.045 H 
BRANCH  14  16
ATOM     16  C   UNL A   1      32.233  20.527  24.889  1.00  0.00    -0.049 C 
ATOM     17  H   UNL A   1      32.953  19.744  24.776  1.00  0.00     0.024 H 
ATOM     18  H   UNL A   1      31.580  20.538  24.042  1.00  0.00     0.024 H 
ATOM     19  H   UNL A   1      31.661  20.358  25.778  1.00  0.00     0.024 H 
ENDBRANCH  14  16
BRANCH  14  20
ATOM     20  C   UNL A   1      34.481  21.814  24.795  1.00  0.00    -0.028 A 
ATOM     21  C   UNL A   1      35.194  20.641  25.122  1.00  0.00    -0.058 A 
ATOM     22  C   UNL A   1      35.221  22.929  24.318  1.00  0.00    -0.014 A 
ATOM     23  C   UNL A   1      36.582  20.569  24.996  1.00  0.00    -0.062 A 
ATOM     24  H   UNL A   1      34.677  19.816  25.463  1.00  0.00     0.063 H 
ATOM     25  C   UNL A   1      36.623  22.845  24.221  1.00  0.00    -0.054 A 
ATOM     26  C   UNL A   1      37.298  21.672  24.556  1.00  0.00    -0.062 A 
ATOM     27  H   UNL A   1      37.076  19.694  25.230  1.00  0.00     0.062 H 
ATOM     28  H   UNL A   1      37.160  23.664  23.898  1.00  0.00     0.063 H 
ATOM     29  H   UNL A   1      38.325  21.625  24.476  1.00  0.00     0.062 H 
BRANCH  22  30
ATOM     30  C   UNL A   1      34.600  24.206  23.887  1.00  0.00    -0.011 A 
ATOM     31  C   UNL A   1      34.499  25.378  24.735  1.00  0.00    -0.038 A 
ATOM     32  C   UNL A   1      34.138  24.280  22.627  1.00  0.00     0.012 A 
ATOM     33  C   UNL A   1      33.836  26.465  24.322  1.00  0.00     0.013 A 
ATOM     34  H   UNL A   1      34.943  25.374  25.667  1.00  0.00     0.064 H 
ATOM     35  C   UNL A   1      33.471  25.513  22.123  1.00  0.00     0.255 A 
ATOM     36  H   UNL A   1      34.249  23.470  21.998  1.00  0.00     0.069 H 
ATOM     37  N   UNL A   1      33.295  26.526  23.052  1.00  0.00    -0.258 N 
ATOM     38  H   UNL A   1      33.727  27.268  24.962  1.00  0.00     0.082 H 
ATOM     39  O   UNL A   1      33.104  25.545  20.954  1.00  0.00    -0.269 OA
BRANCH  37  40
ATOM     40  C   UNL A   1      32.574  27.695  22.619  1.00  0.00     0.321 C 
ATOM     41  F   UNL A   1      31.237  27.501  22.693  1.00  0.00    -0.185 F 
ATOM     42  F   UNL A   1      32.887  28.773  23.381  1.00  0.00    -0.185 F 
ATOM     43  H   UNL A   1      32.860  27.873  21.603  1.00  0.00     0.131 H 
ENDBRANCH  37  40
ENDBRANCH  22  30
ENDBRANCH  14  20
ENDBRANCH  11  14
ENDBRANCH   7  10
ENDBRANCH   4   7
ENDBRANCH   1   4
BRANCH   1  44
ATOM     44  C   UNL A   1      31.745  27.135  26.890  1.00  0.00    -0.052 C 
ATOM     45  H   UNL A   1      32.709  26.902  26.488  1.00  0.00     0.027 H 
ATOM     46  H   UNL A   1      31.533  26.608  27.796  1.00  0.00     0.027 H 
BRANCH  44  47
ATOM     47  C   UNL A   1      31.719  28.623  27.234  1.00  0.00    -0.036 C 
ATOM     48  H   UNL A   1      31.830  28.726  28.294  1.00  0.00     0.028 H 
ATOM     49  H   UNL A   1      30.786  29.008  26.879  1.00  0.00     0.028 H 
BRANCH  47  50
ATOM     50  C   UNL A   1      32.816  29.435  26.556  1.00  0.00     0.018 C 
ATOM     51  H   UNL A   1      32.878  29.142  25.529  1.00  0.00     0.049 H 
ATOM     52  H   UNL A   1      33.736  29.241  27.069  1.00  0.00     0.049 H 
BRANCH  50  53
ATOM     53  N   UNL A   1      32.557  30.864  26.623  1.00  0.00    -0.352 N 
ATOM     54  C   UNL A   1      33.268  31.834  27.291  1.00  0.00     0.251 C 
ATOM     55  H   UNL A   1      31.769  31.179  26.124  1.00  0.00     0.163 HD
ATOM     56  O   UNL A   1      32.828  32.964  27.417  1.00  0.00    -0.269 OA
BRANCH  54  57
ATOM     57  C   UNL A   1      34.575  31.472  27.877  1.00  0.00     0.039 A 
ATOM     58  C   UNL A   1      35.580  32.438  27.953  1.00  0.00    -0.049 A 
ATOM     59  C   UNL A   1      34.782  30.186  28.382  1.00  0.00    -0.049 A 
ATOM     60  C   UNL A   1      36.780  32.132  28.598  1.00  0.00    -0.053 A 
ATOM     61  H   UNL A   1      35.437  33.372  27.536  1.00  0.00     0.063 H 
ATOM     62  C   UNL A   1      35.945  29.907  29.087  1.00  0.00    -0.053 A 
ATOM     63  H   UNL A   1      34.074  29.450  28.234  1.00  0.00     0.063 H 
ATOM     64  C   UNL A   1      36.957  30.875  29.197  1.00  0.00    -0.014 A 
ATOM     65  H   UNL A   1      37.539  32.831  28.633  1.00  0.00     0.063 H 
ATOM     66  H   UNL A   1      36.069  28.982  29.529  1.00  0.00     0.063 H 
BRANCH  64  67
ATOM     67  C   UNL A   1      38.193  30.526  29.940  1.00  0.00     0.031 A 
ATOM     68  C   UNL A   1      39.149  29.529  29.354  1.00  0.00     0.074 A 
ATOM     69  C   UNL A   1      38.391  31.011  31.180  1.00  0.00     0.049 A 
ATOM     70  N   UNL A   1      40.189  28.954  29.902  1.00  0.00    -0.248 NA
ATOM     71  C   UNL A   1      38.872  29.089  27.979  1.00  0.00    -0.034 C 
ATOM     72  C   UNL A   1      37.509  31.950  31.872  1.00  0.00    -0.036 A 
ATOM     73  N   UNL A   1      39.383  30.750  32.092  1.00  0.00    -0.354 N 
ATOM     74  C   UNL A   1      40.669  28.064  28.952  1.00  0.00     0.074 A 
ATOM     75  C   UNL A   1      39.779  28.139  27.813  1.00  0.00    -0.034 C 
ATOM     76  H   UNL A   1      38.158  29.430  27.317  1.00  0.00     0.065 H 
ATOM     77  C   UNL A   1      37.996  32.184  33.101  1.00  0.00    -0.036 A 
ATOM     78  H   UNL A   1      36.651  32.367  31.478  1.00  0.00     0.065 H 
ATOM     79  C   UNL A   1      39.197  31.378  33.299  1.00  0.00     0.049 A 
ATOM     80  H   UNL A   1      40.154  30.169  31.899  1.00  0.00     0.167 HD
ATOM     81  C   UNL A   1      41.763  27.269  29.019  1.00  0.00     0.037 A 
ATOM     82  H   UNL A   1      39.843  27.531  26.982  1.00  0.00     0.065 H 
ATOM     83  H   UNL A   1      37.587  32.830  33.795  1.00  0.00     0.065 H 
ATOM     84  C   UNL A   1      39.901  31.292  34.445  1.00  0.00     0.037 A 
ATOM     85  C   UNL A   1      42.657  27.224  30.144  1.00  0.00     0.049 A 
ATOM     86  C   UNL A   1      41.116  30.409  34.498  1.00  0.00     0.074 A 
ATOM     87  C   UNL A   1      43.837  26.515  30.281  1.00  0.00    -0.036 A 
ATOM     88  N   UNL A   1      42.463  27.916  31.332  1.00  0.00    -0.354 N 
ATOM     89  N   UNL A   1      41.606  29.623  33.569  1.00  0.00    -0.248 NA
ATOM     90  C   UNL A   1      41.882  30.402  35.752  1.00  0.00    -0.034 C 
ATOM     91  C   UNL A   1      44.329  26.735  31.572  1.00  0.00    -0.036 A 
ATOM     92  H   UNL A   1      44.277  25.927  29.558  1.00  0.00     0.065 H 
ATOM     93  C   UNL A   1      43.487  27.627  32.219  1.00  0.00     0.049 A 
ATOM     94  H   UNL A   1      41.710  28.521  31.518  1.00  0.00     0.167 HD
ATOM     95  C   UNL A   1      42.748  29.053  34.113  1.00  0.00     0.074 A 
ATOM     96  C   UNL A   1      42.881  29.582  35.455  1.00  0.00    -0.034 C 
ATOM     97  H   UNL A   1      41.692  30.905  36.634  1.00  0.00     0.065 H 
ATOM     98  H   UNL A   1      45.176  26.304  31.975  1.00  0.00     0.065 H 
ATOM     99  C   UNL A   1      43.611  28.172  33.548  1.00  0.00     0.037 A 
ATOM    100  H   UNL A   1      43.655  29.352  36.097  1.00  0.00     0.065 H 
BRANCH  81 101
ATOM    101  C   UNL A   1      42.037  26.373  27.844  1.00  0.00     0.064 A 
ATOM    102  C   UNL A   1      41.378  25.145  27.678  1.00  0.00     0.173 A 
ATOM    103  C   UNL A   1      42.975  26.749  26.870  1.00  0.00     0.173 A 
ATOM    104  F   UNL A   1      40.478  24.734  28.585  1.00  0.00    -0.203 F 
ATOM    105  C   UNL A   1      41.683  24.306  26.610  1.00  0.00     0.198 A 
ATOM    106  C   UNL A   1      43.251  25.923  25.784  1.00  0.00     0.198 A 
ATOM    107  F   UNL A   1      43.630  27.914  26.974  1.00  0.00    -0.203 F 
ATOM    108  F   UNL A   1      41.090  23.107  26.513  1.00  0.00    -0.200 F 
ATOM    109  C   UNL A   1      42.615  24.697  25.662  1.00  0.00     0.200 A 
ATOM    110  F   UNL A   1      44.142  26.308  24.860  1.00  0.00    -0.200 F 
ATOM    111  F   UNL A   1      42.910  23.885  24.637  1.00  0.00    -0.200 F 
ENDBRANCH  81 101
BRANCH  84 112
ATOM    112  C   UNL A   1      39.464  32.080  35.626  1.00  0.00     0.064 A 
ATOM    113  C   UNL A   1      39.925  33.387  35.832  1.00  0.00     0.173 A 
ATOM    114  C   UNL A   1      38.541  31.560  36.547  1.00  0.00     0.173 A 
ATOM    115  F   UNL A   1      40.822  33.920  34.990  1.00  0.00    -0.203 F 
ATOM    116  C   UNL A   1      39.484  34.141  36.917  1.00  0.00     0.198 A 
ATOM    117  C   UNL A   1      38.082  32.326  37.616  1.00  0.00     0.198 A 
ATOM    118  F   UNL A   1      38.063  30.316  36.387  1.00  0.00    -0.203 F 
ATOM    119  F   UNL A   1      39.961  35.380  37.106  1.00  0.00    -0.200 F 
ATOM    120  C   UNL A   1      38.557  33.614  37.802  1.00  0.00     0.200 A 
ATOM    121  F   UNL A   1      37.172  31.817  38.458  1.00  0.00    -0.200 F 
ATOM    122  F   UNL A   1      38.120  34.347  38.835  1.00  0.00    -0.200 F 
ENDBRANCH  84 112
BRANCH  99 123
ATOM    123  C   UNL A   1      44.804  27.749  34.354  1.00  0.00     0.064 A 
ATOM    124  C   UNL A   1      45.990  28.495  34.364  1.00  0.00     0.173 A 
ATOM    125  C   UNL A   1      44.722  26.630  35.199  1.00  0.00     0.173 A 
ATOM    126  F   UNL A   1      46.123  29.564  33.564  1.00  0.00    -0.203 F 
ATOM    127  C   UNL A   1      47.054  28.133  35.186  1.00  0.00     0.198 A 
ATOM    128  C   UNL A   1      45.777  26.287  36.038  1.00  0.00     0.198 A 
ATOM    129  F   UNL A   1      43.604  25.887  35.230  1.00  0.00    -0.203 F 
ATOM    130  F   UNL A   1      48.189  28.845  35.161  1.00  0.00    -0.200 F 
ATOM    131  C   UNL A   1      46.942  27.038  36.031  1.00  0.00     0.200 A 
ATOM    132  F   UNL A   1      45.660  25.238  36.864  1.00  0.00    -0.200 F 
ATOM    133  F   UNL A   1      47.960  26.705  36.837  1.00  0.00    -0.200 F 
ENDBRANCH  99 123
ENDBRANCH  64  67
ENDBRANCH  54  57
ENDBRANCH  50  53
ENDBRANCH  47  50
ENDBRANCH  44  47
ENDBRANCH   1  44
TORSDOF 17
ENDMDL
MODEL 8
REMARK VINA RESULT:     -12.1      2.963      5.161
REMARK SMILES C[C@@H](C(=O)NCCCCCCNC(=O)c1ccc(-c2c3nc(c(-c4c(F)c(F)c(F)c(F)c4F)c4ccc([nH]4)c(-c4c(F)c(F)c(F)c(F)c4F)c4nc(c(-c5c(F)c(F)c(F)c(F)c5F)c5ccc2[nH]5)C=C4)C=C3)cc1)c1ccccc1-c1ccn(C(F)F)c(=O)c1
REMARK SMILES IDX 8 1 7 4 6 7 5 10 3 11 4 12 2 14 1 16 78 20 79 21 83 22 80 23
REMARK SMILES IDX 82 25 81 26 84 30 85 31 93 32 86 33 91 35 87 37 92 39 88 40
REMARK SMILES IDX 89 41 90 42 9 44 10 47 11 50 12 53 13 54 14 56 15 57 16 58
REMARK SMILES IDX 77 59 17 60 76 62 18 64 19 67 20 68 70 69 21 70 75 71 69 72
REMARK SMILES IDX 71 73 22 74 74 75 68 77 67 79 23 81 55 84 35 85 54 86 36 87
REMARK SMILES IDX 39 88 53 89 72 90 37 91 38 93 52 95 73 96 40 99 24 101
REMARK SMILES IDX 25 102 33 103 26 104 27 105 31 106 34 107 28 108 29 109
REMARK SMILES IDX 32 110 30 111 56 112 57 113 65 114 58 115 59 116 63 117
REMARK SMILES IDX 66 118 60 119 61 120 64 121 62 122 41 123 42 124 50 125
REMARK SMILES IDX 43 126 44 127 48 128 51 129 45 130 46 131 49 132 47 133
REMARK H PARENT 8 2 8 3 7 5 7 6 6 8 6 9 5 13 2 15 1 17 1 18 1 19 79 24 80 27
REMARK H PARENT 82 28 81 29 85 34 93 36 86 38 88 43 9 45 9 46 10 48 10 49
REMARK H PARENT 11 51 11 52 12 55 16 61 77 63 17 65 76 66 75 76 69 78 71 80
REMARK H PARENT 74 82 68 83 36 92 39 94 72 97 37 98 73 100
REMARK Flexibility Score: inf
ROOT
ATOM      1  C   UNL A   1      33.730  27.040  26.049  1.00  0.00    -0.052 C 
ATOM      2  H   UNL A   1      34.129  27.870  25.504  1.00  0.00     0.027 H 
ATOM      3  H   UNL A   1      34.198  26.897  27.000  1.00  0.00     0.027 H 
ENDROOT
BRANCH   1   4
ATOM      4  C   UNL A   1      33.995  25.762  25.238  1.00  0.00    -0.036 C 
ATOM      5  H   UNL A   1      33.070  25.431  24.814  1.00  0.00     0.028 H 
ATOM      6  H   UNL A   1      34.717  26.007  24.487  1.00  0.00     0.028 H 
BRANCH   4   7
ATOM      7  C   UNL A   1      34.581  24.623  26.076  1.00  0.00     0.017 C 
ATOM      8  H   UNL A   1      35.319  25.012  26.747  1.00  0.00     0.049 H 
ATOM      9  H   UNL A   1      33.805  24.153  26.644  1.00  0.00     0.049 H 
BRANCH   7  10
ATOM     10  N   UNL A   1      35.194  23.657  25.187  1.00  0.00    -0.356 N 
ATOM     11  C   UNL A   1      34.943  22.319  25.082  1.00  0.00     0.227 C 
ATOM     12  O   UNL A   1      35.850  21.612  24.638  1.00  0.00    -0.274 OA
ATOM     13  H   UNL A   1      35.882  24.011  24.580  1.00  0.00     0.163 HD
BRANCH  11  14
ATOM     14  C   UNL A   1      33.555  21.779  25.452  1.00  0.00     0.061 C 
ATOM     15  H   UNL A   1      32.843  22.571  25.549  1.00  0.00     0.045 H 
BRANCH  14  16
ATOM     16  C   UNL A   1      33.644  21.094  26.824  1.00  0.00    -0.049 C 
ATOM     17  H   UNL A   1      33.238  21.742  27.572  1.00  0.00     0.024 H 
ATOM     18  H   UNL A   1      34.667  20.882  27.053  1.00  0.00     0.024 H 
ATOM     19  H   UNL A   1      33.086  20.181  26.803  1.00  0.00     0.024 H 
ENDBRANCH  14  16
BRANCH  14  20
ATOM     20  C   UNL A   1      32.999  20.898  24.321  1.00  0.00    -0.028 A 
ATOM     21  C   UNL A   1      33.139  19.495  24.377  1.00  0.00    -0.058 A 
ATOM     22  C   UNL A   1      32.367  21.456  23.177  1.00  0.00    -0.014 A 
ATOM     23  C   UNL A   1      32.688  18.672  23.344  1.00  0.00    -0.062 A 
ATOM     24  H   UNL A   1      33.588  19.066  25.201  1.00  0.00     0.063 H 
ATOM     25  C   UNL A   1      31.941  20.612  22.135  1.00  0.00    -0.054 A 
ATOM     26  C   UNL A   1      32.098  19.230  22.219  1.00  0.00    -0.062 A 
ATOM     27  H   UNL A   1      32.792  17.648  23.418  1.00  0.00     0.062 H 
ATOM     28  H   UNL A   1      31.504  21.022  21.295  1.00  0.00     0.063 H 
ATOM     29  H   UNL A   1      31.777  18.624  21.448  1.00  0.00     0.062 H 
BRANCH  22  30
ATOM     30  C   UNL A   1      32.104  22.906  23.008  1.00  0.00    -0.011 A 
ATOM     31  C   UNL A   1      31.041  23.617  23.692  1.00  0.00    -0.038 A 
ATOM     32  C   UNL A   1      32.925  23.599  22.198  1.00  0.00     0.012 A 
ATOM     33  C   UNL A   1      30.792  24.903  23.418  1.00  0.00     0.013 A 
ATOM     34  H   UNL A   1      30.471  23.125  24.398  1.00  0.00     0.064 H 
ATOM     35  C   UNL A   1      32.712  25.051  21.946  1.00  0.00     0.255 A 
ATOM     36  H   UNL A   1      33.715  23.116  21.744  1.00  0.00     0.069 H 
ATOM     37  N   UNL A   1      31.586  25.607  22.533  1.00  0.00    -0.258 N 
ATOM     38  H   UNL A   1      29.995  25.374  23.874  1.00  0.00     0.082 H 
ATOM     39  O   UNL A   1      33.512  25.646  21.232  1.00  0.00    -0.269 OA
BRANCH  37  40
ATOM     40  C   UNL A   1      31.305  26.987  22.236  1.00  0.00     0.321 C 
ATOM     41  F   UNL A   1      30.019  27.298  22.521  1.00  0.00    -0.185 F 
ATOM     42  F   UNL A   1      32.107  27.814  22.950  1.00  0.00    -0.185 F 
ATOM     43  H   UNL A   1      31.487  27.119  21.189  1.00  0.00     0.131 H 
ENDBRANCH  37  40
ENDBRANCH  22  30
ENDBRANCH  14  20
ENDBRANCH  11  14
ENDBRANCH   7  10
ENDBRANCH   4   7
ENDBRANCH   1   4
BRANCH   1  44
ATOM     44  C   UNL A   1      32.251  27.321  26.332  1.00  0.00    -0.052 C 
ATOM     45  H   UNL A   1      32.034  26.996  27.329  1.00  0.00     0.027 H 
ATOM     46  H   UNL A   1      31.691  26.793  25.590  1.00  0.00     0.027 H 
BRANCH  44  47
ATOM     47  C   UNL A   1      31.853  28.792  26.214  1.00  0.00    -0.036 C 
ATOM     48  H   UNL A   1      31.451  29.109  27.154  1.00  0.00     0.028 H 
ATOM     49  H   UNL A   1      31.140  28.858  25.419  1.00  0.00     0.028 H 
BRANCH  47  50
ATOM     50  C   UNL A   1      33.007  29.718  25.850  1.00  0.00     0.018 C 
ATOM     51  H   UNL A   1      33.152  29.688  24.790  1.00  0.00     0.049 H 
ATOM     52  H   UNL A   1      33.879  29.380  26.369  1.00  0.00     0.049 H 
BRANCH  50  53
ATOM     53  N   UNL A   1      32.749  31.092  26.250  1.00  0.00    -0.352 N 
ATOM     54  C   UNL A   1      33.381  31.835  27.221  1.00  0.00     0.251 C 
ATOM     55  H   UNL A   1      32.028  31.552  25.763  1.00  0.00     0.163 HD
ATOM     56  O   UNL A   1      32.936  32.911  27.582  1.00  0.00    -0.269 OA
BRANCH  54  57
ATOM     57  C   UNL A   1      34.608  31.289  27.839  1.00  0.00     0.039 A 
ATOM     58  C   UNL A   1      35.731  32.109  27.966  1.00  0.00    -0.049 A 
ATOM     59  C   UNL A   1      34.622  29.979  28.323  1.00  0.00    -0.049 A 
ATOM     60  C   UNL A   1      36.856  31.631  28.642  1.00  0.00    -0.053 A 
ATOM     61  H   UNL A   1      35.729  33.060  27.565  1.00  0.00     0.063 H 
ATOM     62  C   UNL A   1      35.713  29.532  29.057  1.00  0.00    -0.053 A 
ATOM     63  H   UNL A   1      33.827  29.348  28.138  1.00  0.00     0.063 H 
ATOM     64  C   UNL A   1      36.841  30.352  29.219  1.00  0.00    -0.014 A 
ATOM     65  H   UNL A   1      37.701  32.220  28.715  1.00  0.00     0.063 H 
ATOM     66  H   UNL A   1      35.696  28.593  29.484  1.00  0.00     0.063 H 
BRANCH  64  67
ATOM     67  C   UNL A   1      37.993  29.827  29.992  1.00  0.00     0.031 A 
ATOM     68  C   UNL A   1      38.244  30.337  31.382  1.00  0.00     0.074 A 
ATOM     69  C   UNL A   1      38.872  28.993  29.407  1.00  0.00     0.049 A 
ATOM     70  N   UNL A   1      39.277  30.148  32.162  1.00  0.00    -0.248 NA
ATOM     71  C   UNL A   1      37.208  31.210  31.953  1.00  0.00    -0.034 C 
ATOM     72  C   UNL A   1      38.760  28.465  28.047  1.00  0.00    -0.036 A 
ATOM     73  N   UNL A   1      40.053  28.470  29.871  1.00  0.00    -0.354 N 
ATOM     74  C   UNL A   1      39.029  30.903  33.300  1.00  0.00     0.074 A 
ATOM     75  C   UNL A   1      37.773  31.591  33.087  1.00  0.00    -0.034 C 
ATOM     76  H   UNL A   1      36.283  31.461  31.570  1.00  0.00     0.065 H 
ATOM     77  C   UNL A   1      39.830  27.698  27.785  1.00  0.00    -0.036 A 
ATOM     78  H   UNL A   1      37.982  28.653  27.394  1.00  0.00     0.065 H 
ATOM     79  C   UNL A   1      40.723  27.716  28.939  1.00  0.00     0.049 A 
ATOM     80  H   UNL A   1      40.387  28.621  30.785  1.00  0.00     0.167 HD
ATOM     81  C   UNL A   1      39.775  31.000  34.426  1.00  0.00     0.037 A 
ATOM     82  H   UNL A   1      37.372  32.286  33.735  1.00  0.00     0.065 H 
ATOM     83  H   UNL A   1      39.994  27.179  26.907  1.00  0.00     0.065 H 
ATOM     84  C   UNL A   1      41.934  27.128  29.000  1.00  0.00     0.037 A 
ATOM     85  C   UNL A   1      41.008  30.290  34.638  1.00  0.00     0.049 A 
ATOM     86  C   UNL A   1      42.745  27.241  30.261  1.00  0.00     0.074 A 
ATOM     87  C   UNL A   1      41.799  30.255  35.772  1.00  0.00    -0.036 A 
ATOM     88  N   UNL A   1      41.631  29.493  33.687  1.00  0.00    -0.354 N 
ATOM     89  N   UNL A   1      42.471  27.900  31.361  1.00  0.00    -0.248 NA
ATOM     90  C   UNL A   1      44.029  26.528  30.294  1.00  0.00    -0.034 C 
ATOM     91  C   UNL A   1      42.929  29.480  35.490  1.00  0.00    -0.036 A 
ATOM     92  H   UNL A   1      41.592  30.719  36.669  1.00  0.00     0.065 H 
ATOM     93  C   UNL A   1      42.813  28.984  34.199  1.00  0.00     0.049 A 
ATOM     94  H   UNL A   1      41.284  29.315  32.783  1.00  0.00     0.167 HD
ATOM     95  C   UNL A   1      43.530  27.658  32.226  1.00  0.00     0.074 A 
ATOM     96  C   UNL A   1      44.454  26.792  31.523  1.00  0.00    -0.034 C 
ATOM     97  H   UNL A   1      44.483  25.968  29.555  1.00  0.00     0.065 H 
ATOM     98  H   UNL A   1      43.717  29.307  36.133  1.00  0.00     0.065 H 
ATOM     99  C   UNL A   1      43.716  28.112  33.490  1.00  0.00     0.037 A 
ATOM    100  H   UNL A   1      45.329  26.425  31.927  1.00  0.00     0.065 H 
BRANCH  81 101
ATOM    101  C   UNL A   1      39.280  31.924  35.503  1.00  0.00     0.064 A 
ATOM    102  C   UNL A   1      39.637  33.280  35.539  1.00  0.00     0.173 A 
ATOM    103  C   UNL A   1      38.438  31.441  36.517  1.00  0.00     0.173 A 
ATOM    104  F   UNL A   1      40.447  33.791  34.599  1.00  0.00    -0.203 F 
ATOM    105  C   UNL A   1      39.209  34.107  36.574  1.00  0.00     0.198 A 
ATOM    106  C   UNL A   1      37.983  32.280  37.531  1.00  0.00     0.198 A 
ATOM    107  F   UNL A   1      38.060  30.155  36.529  1.00  0.00    -0.203 F 
ATOM    108  F   UNL A   1      39.621  35.382  36.624  1.00  0.00    -0.200 F 
ATOM    109  C   UNL A   1      38.380  33.609  37.566  1.00  0.00     0.200 A 
ATOM    110  F   UNL A   1      37.170  31.801  38.482  1.00  0.00    -0.200 F 
ATOM    111  F   UNL A   1      37.973  34.406  38.564  1.00  0.00    -0.200 F 
ENDBRANCH  81 101
BRANCH  84 112
ATOM    112  C   UNL A   1      42.434  26.373  27.822  1.00  0.00     0.064 A 
ATOM    113  C   UNL A   1      42.030  25.053  27.588  1.00  0.00     0.173 A 
ATOM    114  C   UNL A   1      43.289  26.972  26.884  1.00  0.00     0.173 A 
ATOM    115  F   UNL A   1      41.229  24.432  28.465  1.00  0.00    -0.203 F 
ATOM    116  C   UNL A   1      42.466  24.357  26.462  1.00  0.00     0.198 A 
ATOM    117  C   UNL A   1      43.703  26.284  25.746  1.00  0.00     0.198 A 
ATOM    118  F   UNL A   1      43.697  28.238  27.060  1.00  0.00    -0.203 F 
ATOM    119  F   UNL A   1      42.086  23.086  26.273  1.00  0.00    -0.200 F 
ATOM    120  C   UNL A   1      43.294  24.976  25.537  1.00  0.00     0.200 A 
ATOM    121  F   UNL A   1      44.488  26.893  24.847  1.00  0.00    -0.200 F 
ATOM    122  F   UNL A   1      43.698  24.313  24.446  1.00  0.00    -0.200 F 
ENDBRANCH  84 112
BRANCH  99 123
ATOM    123  C   UNL A   1      44.942  27.653  34.223  1.00  0.00     0.064 A 
ATOM    124  C   UNL A   1      44.961  26.456  34.952  1.00  0.00     0.173 A 
ATOM    125  C   UNL A   1      46.139  28.377  34.115  1.00  0.00     0.173 A 
ATOM    126  F   UNL A   1      43.838  25.735  35.097  1.00  0.00    -0.203 F 
ATOM    127  C   UNL A   1      46.133  26.005  35.553  1.00  0.00     0.198 A 
ATOM    128  C   UNL A   1      47.315  27.910  34.693  1.00  0.00     0.198 A 
ATOM    129  F   UNL A   1      46.174  29.526  33.421  1.00  0.00    -0.203 F 
ATOM    130  F   UNL A   1      46.124  24.871  36.267  1.00  0.00    -0.200 F 
ATOM    131  C   UNL A   1      47.311  26.724  35.412  1.00  0.00     0.200 A 
ATOM    132  F   UNL A   1      48.455  28.599  34.543  1.00  0.00    -0.200 F 
ATOM    133  F   UNL A   1      48.444  26.276  35.971  1.00  0.00    -0.200 F 
ENDBRANCH  99 123
ENDBRANCH  64  67
ENDBRANCH  54  57
ENDBRANCH  50  53
ENDBRANCH  47  50
ENDBRANCH  44  47
ENDBRANCH   1  44
TORSDOF 17
ENDMDL
MODEL 9
REMARK VINA RESULT:     -12.1      4.929      7.175
REMARK SMILES C[C@@H](C(=O)NCCCCCCNC(=O)c1ccc(-c2c3nc(c(-c4c(F)c(F)c(F)c(F)c4F)c4ccc([nH]4)c(-c4c(F)c(F)c(F)c(F)c4F)c4nc(c(-c5c(F)c(F)c(F)c(F)c5F)c5ccc2[nH]5)C=C4)C=C3)cc1)c1ccccc1-c1ccn(C(F)F)c(=O)c1
REMARK SMILES IDX 8 1 7 4 6 7 5 10 3 11 4 12 2 14 1 16 78 20 79 21 83 22 80 23
REMARK SMILES IDX 82 25 81 26 84 30 85 31 93 32 86 33 91 35 87 37 92 39 88 40
REMARK SMILES IDX 89 41 90 42 9 44 10 47 11 50 12 53 13 54 14 56 15 57 16 58
REMARK SMILES IDX 77 59 17 60 76 62 18 64 19 67 20 68 70 69 21 70 75 71 69 72
REMARK SMILES IDX 71 73 22 74 74 75 68 77 67 79 23 81 55 84 35 85 54 86 36 87
REMARK SMILES IDX 39 88 53 89 72 90 37 91 38 93 52 95 73 96 40 99 24 101
REMARK SMILES IDX 25 102 33 103 26 104 27 105 31 106 34 107 28 108 29 109
REMARK SMILES IDX 32 110 30 111 56 112 57 113 65 114 58 115 59 116 63 117
REMARK SMILES IDX 66 118 60 119 61 120 64 121 62 122 41 123 42 124 50 125
REMARK SMILES IDX 43 126 44 127 48 128 51 129 45 130 46 131 49 132 47 133
REMARK H PARENT 8 2 8 3 7 5 7 6 6 8 6 9 5 13 2 15 1 17 1 18 1 19 79 24 80 27
REMARK H PARENT 82 28 81 29 85 34 93 36 86 38 88 43 9 45 9 46 10 48 10 49
REMARK H PARENT 11 51 11 52 12 55 16 61 77 63 17 65 76 66 75 76 69 78 71 80
REMARK H PARENT 74 82 68 83 36 92 39 94 72 97 37 98 73 100
REMARK Flexibility Score: inf
ROOT
ATOM      1  C   UNL A   1      32.460  28.928  24.042  1.00  0.00    -0.052 C 
ATOM      2  H   UNL A   1      31.688  28.325  23.610  1.00  0.00     0.027 H 
ATOM      3  H   UNL A   1      32.526  29.902  23.603  1.00  0.00     0.027 H 
ENDROOT
BRANCH   1   4
ATOM      4  C   UNL A   1      33.808  28.241  23.780  1.00  0.00    -0.036 C 
ATOM      5  H   UNL A   1      34.589  28.868  24.159  1.00  0.00     0.028 H 
ATOM      6  H   UNL A   1      33.781  27.291  24.272  1.00  0.00     0.028 H 
BRANCH   4   7
ATOM      7  C   UNL A   1      34.075  27.975  22.296  1.00  0.00     0.017 C 
ATOM      8  H   UNL A   1      34.390  28.880  21.819  1.00  0.00     0.049 H 
ATOM      9  H   UNL A   1      34.845  27.239  22.191  1.00  0.00     0.049 H 
BRANCH   7  10
ATOM     10  N   UNL A   1      32.854  27.500  21.679  1.00  0.00    -0.356 N 
ATOM     11  C   UNL A   1      32.423  26.214  21.526  1.00  0.00     0.227 C 
ATOM     12  O   UNL A   1      31.640  25.992  20.601  1.00  0.00    -0.274 OA
ATOM     13  H   UNL A   1      32.257  28.196  21.322  1.00  0.00     0.163 HD
BRANCH  11  14
ATOM     14  C   UNL A   1      32.871  25.141  22.528  1.00  0.00     0.061 C 
ATOM     15  H   UNL A   1      33.847  25.353  22.913  1.00  0.00     0.045 H 
BRANCH  14  16
ATOM     16  C   UNL A   1      32.967  23.794  21.796  1.00  0.00    -0.049 C 
ATOM     17  H   UNL A   1      33.490  23.091  22.411  1.00  0.00     0.024 H 
ATOM     18  H   UNL A   1      33.496  23.925  20.875  1.00  0.00     0.024 H 
ATOM     19  H   UNL A   1      31.983  23.427  21.594  1.00  0.00     0.024 H 
ENDBRANCH  14  16
BRANCH  14  20
ATOM     20  C   UNL A   1      31.960  25.144  23.767  1.00  0.00    -0.028 A 
ATOM     21  C   UNL A   1      30.669  25.708  23.700  1.00  0.00    -0.058 A 
ATOM     22  C   UNL A   1      32.393  24.623  25.016  1.00  0.00    -0.014 A 
ATOM     23  C   UNL A   1      29.837  25.768  24.819  1.00  0.00    -0.062 A 
ATOM     24  H   UNL A   1      30.331  26.085  22.802  1.00  0.00     0.063 H 
ATOM     25  C   UNL A   1      31.549  24.715  26.139  1.00  0.00    -0.054 A 
ATOM     26  C   UNL A   1      30.280  25.281  26.040  1.00  0.00    -0.062 A 
ATOM     27  H   UNL A   1      28.892  26.174  24.738  1.00  0.00     0.062 H 
ATOM     28  H   UNL A   1      31.875  24.357  27.050  1.00  0.00     0.063 H 
ATOM     29  H   UNL A   1      29.672  25.339  26.872  1.00  0.00     0.062 H 
BRANCH  22  30
ATOM     30  C   UNL A   1      33.702  23.954  25.220  1.00  0.00    -0.011 A 
ATOM     31  C   UNL A   1      34.938  24.667  25.477  1.00  0.00    -0.038 A 
ATOM     32  C   UNL A   1      33.726  22.610  25.198  1.00  0.00     0.012 A 
ATOM     33  C   UNL A   1      36.102  24.012  25.550  1.00  0.00     0.013 A 
ATOM     34  H   UNL A   1      34.920  25.692  25.604  1.00  0.00     0.064 H 
ATOM     35  C   UNL A   1      35.002  21.860  25.361  1.00  0.00     0.255 A 
ATOM     36  H   UNL A   1      32.845  22.089  25.066  1.00  0.00     0.069 H 
ATOM     37  N   UNL A   1      36.148  22.634  25.458  1.00  0.00    -0.258 N 
ATOM     38  H   UNL A   1      36.978  24.543  25.677  1.00  0.00     0.082 H 
ATOM     39  O   UNL A   1      34.965  20.635  25.375  1.00  0.00    -0.269 OA
BRANCH  37  40
ATOM     40  C   UNL A   1      37.406  21.936  25.527  1.00  0.00     0.321 C 
ATOM     41  F   UNL A   1      37.723  21.378  24.336  1.00  0.00    -0.185 F 
ATOM     42  F   UNL A   1      38.411  22.775  25.882  1.00  0.00    -0.185 F 
ATOM     43  H   UNL A   1      37.293  21.172  26.268  1.00  0.00     0.131 H 
ENDBRANCH  37  40
ENDBRANCH  22  30
ENDBRANCH  14  20
ENDBRANCH  11  14
ENDBRANCH   7  10
ENDBRANCH   4   7
ENDBRANCH   1   4
BRANCH   1  44
ATOM     44  C   UNL A   1      32.128  29.141  25.522  1.00  0.00    -0.052 C 
ATOM     45  H   UNL A   1      31.062  29.177  25.624  1.00  0.00     0.027 H 
ATOM     46  H   UNL A   1      32.605  30.052  25.815  1.00  0.00     0.027 H 
BRANCH  44  47
ATOM     47  C   UNL A   1      32.659  28.052  26.453  1.00  0.00    -0.036 C 
ATOM     48  H   UNL A   1      33.027  27.246  25.853  1.00  0.00     0.028 H 
ATOM     49  H   UNL A   1      31.846  27.758  27.083  1.00  0.00     0.028 H 
BRANCH  47  50
ATOM     50  C   UNL A   1      33.783  28.517  27.372  1.00  0.00     0.018 C 
ATOM     51  H   UNL A   1      34.722  28.278  26.917  1.00  0.00     0.049 H 
ATOM     52  H   UNL A   1      33.671  28.017  28.311  1.00  0.00     0.049 H 
BRANCH  50  53
ATOM     53  N   UNL A   1      33.729  29.949  27.616  1.00  0.00    -0.352 N 
ATOM     54  C   UNL A   1      34.677  30.754  28.206  1.00  0.00     0.251 C 
ATOM     55  H   UNL A   1      32.907  30.403  27.320  1.00  0.00     0.163 HD
ATOM     56  O   UNL A   1      34.420  31.904  28.519  1.00  0.00    -0.269 OA
BRANCH  54  57
ATOM     57  C   UNL A   1      36.014  30.188  28.475  1.00  0.00     0.039 A 
ATOM     58  C   UNL A   1      36.994  30.250  27.483  1.00  0.00    -0.049 A 
ATOM     59  C   UNL A   1      36.298  29.632  29.725  1.00  0.00    -0.049 A 
ATOM     60  C   UNL A   1      38.289  29.810  27.768  1.00  0.00    -0.053 A 
ATOM     61  H   UNL A   1      36.765  30.619  26.547  1.00  0.00     0.063 H 
ATOM     62  C   UNL A   1      37.602  29.264  30.030  1.00  0.00    -0.053 A 
ATOM     63  H   UNL A   1      35.545  29.499  30.418  1.00  0.00     0.063 H 
ATOM     64  C   UNL A   1      38.608  29.345  29.053  1.00  0.00    -0.014 A 
ATOM     65  H   UNL A   1      39.012  29.826  27.031  1.00  0.00     0.063 H 
ATOM     66  H   UNL A   1      37.833  28.926  30.978  1.00  0.00     0.063 H 
BRANCH  64  67
ATOM     67  C   UNL A   1      39.983  28.920  29.415  1.00  0.00     0.031 A 
ATOM     68  C   UNL A   1      40.880  29.872  30.151  1.00  0.00     0.074 A 
ATOM     69  C   UNL A   1      40.458  27.737  28.981  1.00  0.00     0.049 A 
ATOM     70  N   UNL A   1      42.158  29.776  30.411  1.00  0.00    -0.248 NA
ATOM     71  C   UNL A   1      40.261  31.120  30.621  1.00  0.00    -0.034 C 
ATOM     72  C   UNL A   1      39.695  26.749  28.219  1.00  0.00    -0.036 A 
ATOM     73  N   UNL A   1      41.709  27.183  29.090  1.00  0.00    -0.354 N 
ATOM     74  C   UNL A   1      42.502  30.961  31.045  1.00  0.00     0.074 A 
ATOM     75  C   UNL A   1      41.310  31.780  31.086  1.00  0.00    -0.034 C 
ATOM     76  H   UNL A   1      39.270  31.406  30.595  1.00  0.00     0.065 H 
ATOM     77  C   UNL A   1      40.494  25.712  27.924  1.00  0.00    -0.036 A 
ATOM     78  H   UNL A   1      38.701  26.835  27.951  1.00  0.00     0.065 H 
ATOM     79  C   UNL A   1      41.834  25.981  28.437  1.00  0.00     0.049 A 
ATOM     80  H   UNL A   1      42.444  27.606  29.588  1.00  0.00     0.167 HD
ATOM     81  C   UNL A   1      43.700  31.325  31.560  1.00  0.00     0.037 A 
ATOM     82  H   UNL A   1      41.281  32.752  31.433  1.00  0.00     0.065 H 
ATOM     83  H   UNL A   1      40.207  24.859  27.416  1.00  0.00     0.065 H 
ATOM     84  C   UNL A   1      42.915  25.199  28.250  1.00  0.00     0.037 A 
ATOM     85  C   UNL A   1      44.872  30.491  31.539  1.00  0.00     0.049 A 
ATOM     86  C   UNL A   1      44.235  25.616  28.835  1.00  0.00     0.074 A 
ATOM     87  C   UNL A   1      46.111  30.730  32.103  1.00  0.00    -0.036 A 
ATOM     88  N   UNL A   1      44.947  29.254  30.912  1.00  0.00    -0.354 N 
ATOM     89  N   UNL A   1      44.537  26.708  29.497  1.00  0.00    -0.248 NA
ATOM     90  C   UNL A   1      45.366  24.695  28.654  1.00  0.00    -0.034 C 
ATOM     91  C   UNL A   1      46.953  29.663  31.772  1.00  0.00    -0.036 A 
ATOM     92  H   UNL A   1      46.371  31.551  32.670  1.00  0.00     0.065 H 
ATOM     93  C   UNL A   1      46.222  28.731  31.050  1.00  0.00     0.049 A 
ATOM     94  H   UNL A   1      44.204  28.814  30.438  1.00  0.00     0.167 HD
ATOM     95  C   UNL A   1      45.878  26.593  29.836  1.00  0.00     0.074 A 
ATOM     96  C   UNL A   1      46.335  25.324  29.307  1.00  0.00    -0.034 C 
ATOM     97  H   UNL A   1      45.398  23.794  28.152  1.00  0.00     0.065 H 
ATOM     98  H   UNL A   1      47.952  29.584  32.021  1.00  0.00     0.065 H 
ATOM     99  C   UNL A   1      46.657  27.460  30.528  1.00  0.00     0.037 A 
ATOM    100  H   UNL A   1      47.291  24.956  29.425  1.00  0.00     0.065 H 
BRANCH  81 101
ATOM    101  C   UNL A   1      43.800  32.693  32.173  1.00  0.00     0.064 A 
ATOM    102  C   UNL A   1      44.169  33.818  31.420  1.00  0.00     0.173 A 
ATOM    103  C   UNL A   1      43.525  32.880  33.537  1.00  0.00     0.173 A 
ATOM    104  F   UNL A   1      44.453  33.693  30.114  1.00  0.00    -0.203 F 
ATOM    105  C   UNL A   1      44.306  35.068  32.018  1.00  0.00     0.198 A 
ATOM    106  C   UNL A   1      43.628  34.139  34.123  1.00  0.00     0.198 A 
ATOM    107  F   UNL A   1      43.161  31.842  34.303  1.00  0.00    -0.203 F 
ATOM    108  F   UNL A   1      44.728  36.113  31.291  1.00  0.00    -0.200 F 
ATOM    109  C   UNL A   1      44.031  35.228  33.366  1.00  0.00     0.200 A 
ATOM    110  F   UNL A   1      43.348  34.296  35.424  1.00  0.00    -0.200 F 
ATOM    111  F   UNL A   1      44.167  36.432  33.940  1.00  0.00    -0.200 F 
ENDBRANCH  81 101
BRANCH  84 112
ATOM    112  C   UNL A   1      42.774  23.938  27.478  1.00  0.00     0.064 A 
ATOM    113  C   UNL A   1      43.053  23.899  26.105  1.00  0.00     0.173 A 
ATOM    114  C   UNL A   1      42.402  22.739  28.104  1.00  0.00     0.173 A 
ATOM    115  F   UNL A   1      43.394  25.023  25.459  1.00  0.00    -0.203 F 
ATOM    116  C   UNL A   1      42.961  22.708  25.388  1.00  0.00     0.198 A 
ATOM    117  C   UNL A   1      42.337  21.545  27.390  1.00  0.00     0.198 A 
ATOM    118  F   UNL A   1      42.133  22.724  29.419  1.00  0.00    -0.203 F 
ATOM    119  F   UNL A   1      43.209  22.701  24.071  1.00  0.00    -0.200 F 
ATOM    120  C   UNL A   1      42.612  21.531  26.032  1.00  0.00     0.200 A 
ATOM    121  F   UNL A   1      42.016  20.407  28.022  1.00  0.00    -0.200 F 
ATOM    122  F   UNL A   1      42.542  20.383  25.345  1.00  0.00    -0.200 F 
ENDBRANCH  84 112
BRANCH  99 123
ATOM    123  C   UNL A   1      48.078  27.060  30.796  1.00  0.00     0.064 A 
ATOM    124  C   UNL A   1      49.135  27.511  29.995  1.00  0.00     0.173 A 
ATOM    125  C   UNL A   1      48.391  26.287  31.926  1.00  0.00     0.173 A 
ATOM    126  F   UNL A   1      48.887  28.240  28.896  1.00  0.00    -0.203 F 
ATOM    127  C   UNL A   1      50.455  27.199  30.312  1.00  0.00     0.198 A 
ATOM    128  C   UNL A   1      49.711  26.000  32.255  1.00  0.00     0.198 A 
ATOM    129  F   UNL A   1      47.413  25.837  32.728  1.00  0.00    -0.203 F 
ATOM    130  F   UNL A   1      51.450  27.619  29.519  1.00  0.00    -0.200 F 
ATOM    131  C   UNL A   1      50.743  26.455  31.448  1.00  0.00     0.200 A 
ATOM    132  F   UNL A   1      49.987  25.294  33.361  1.00  0.00    -0.200 F 
ATOM    133  F   UNL A   1      52.015  26.175  31.763  1.00  0.00    -0.200 F 
ENDBRANCH  99 123
ENDBRANCH  64  67
ENDBRANCH  54  57
ENDBRANCH  50  53
ENDBRANCH  47  50
ENDBRANCH  44  47
ENDBRANCH   1  44
TORSDOF 17
ENDMDL
MODEL 10
REMARK VINA RESULT:     -12.1      2.047      3.049
REMARK SMILES C[C@@H](C(=O)NCCCCCCNC(=O)c1ccc(-c2c3nc(c(-c4c(F)c(F)c(F)c(F)c4F)c4ccc([nH]4)c(-c4c(F)c(F)c(F)c(F)c4F)c4nc(c(-c5c(F)c(F)c(F)c(F)c5F)c5ccc2[nH]5)C=C4)C=C3)cc1)c1ccccc1-c1ccn(C(F)F)c(=O)c1
REMARK SMILES IDX 8 1 7 4 6 7 5 10 3 11 4 12 2 14 1 16 78 20 79 21 83 22 80 23
REMARK SMILES IDX 82 25 81 26 84 30 85 31 93 32 86 33 91 35 87 37 92 39 88 40
REMARK SMILES IDX 89 41 90 42 9 44 10 47 11 50 12 53 13 54 14 56 15 57 16 58
REMARK SMILES IDX 77 59 17 60 76 62 18 64 19 67 20 68 70 69 21 70 75 71 69 72
REMARK SMILES IDX 71 73 22 74 74 75 68 77 67 79 23 81 55 84 35 85 54 86 36 87
REMARK SMILES IDX 39 88 53 89 72 90 37 91 38 93 52 95 73 96 40 99 24 101
REMARK SMILES IDX 25 102 33 103 26 104 27 105 31 106 34 107 28 108 29 109
REMARK SMILES IDX 32 110 30 111 56 112 57 113 65 114 58 115 59 116 63 117
REMARK SMILES IDX 66 118 60 119 61 120 64 121 62 122 41 123 42 124 50 125
REMARK SMILES IDX 43 126 44 127 48 128 51 129 45 130 46 131 49 132 47 133
REMARK H PARENT 8 2 8 3 7 5 7 6 6 8 6 9 5 13 2 15 1 17 1 18 1 19 79 24 80 27
REMARK H PARENT 82 28 81 29 85 34 93 36 86 38 88 43 9 45 9 46 10 48 10 49
REMARK H PARENT 11 51 11 52 12 55 16 61 77 63 17 65 76 66 75 76 69 78 71 80
REMARK H PARENT 74 82 68 83 36 92 39 94 72 97 37 98 73 100
REMARK Flexibility Score: inf
ROOT
ATOM      1  C   UNL A   1      34.653  32.282  28.152  1.00  0.00    -0.052 C 
ATOM      2  H   UNL A   1      35.167  32.709  27.316  1.00  0.00     0.027 H 
ATOM      3  H   UNL A   1      35.204  31.498  28.628  1.00  0.00     0.027 H 
ENDROOT
BRANCH   1   4
ATOM      4  C   UNL A   1      33.349  31.650  27.642  1.00  0.00    -0.036 C 
ATOM      5  H   UNL A   1      32.699  31.491  28.477  1.00  0.00     0.028 H 
ATOM      6  H   UNL A   1      32.928  32.325  26.926  1.00  0.00     0.028 H 
BRANCH   4   7
ATOM      7  C   UNL A   1      33.563  30.310  26.931  1.00  0.00     0.017 C 
ATOM      8  H   UNL A   1      33.225  30.382  25.918  1.00  0.00     0.049 H 
ATOM      9  H   UNL A   1      34.604  30.059  26.935  1.00  0.00     0.049 H 
BRANCH   7  10
ATOM     10  N   UNL A   1      32.808  29.287  27.624  1.00  0.00    -0.356 N 
ATOM     11  C   UNL A   1      32.052  28.282  27.095  1.00  0.00     0.227 C 
ATOM     12  O   UNL A   1      31.146  27.832  27.799  1.00  0.00    -0.274 OA
ATOM     13  H   UNL A   1      32.843  29.323  28.607  1.00  0.00     0.163 HD
BRANCH  11  14
ATOM     14  C   UNL A   1      32.398  27.726  25.707  1.00  0.00     0.061 C 
ATOM     15  H   UNL A   1      32.283  26.663  25.674  1.00  0.00     0.045 H 
BRANCH  14  16
ATOM     16  C   UNL A   1      33.877  28.020  25.415  1.00  0.00    -0.049 C 
ATOM     17  H   UNL A   1      33.960  28.957  24.905  1.00  0.00     0.024 H 
ATOM     18  H   UNL A   1      34.281  27.242  24.801  1.00  0.00     0.024 H 
ATOM     19  H   UNL A   1      34.420  28.067  26.336  1.00  0.00     0.024 H 
ENDBRANCH  14  16
BRANCH  14  20
ATOM     20  C   UNL A   1      31.410  28.252  24.652  1.00  0.00    -0.028 A 
ATOM     21  C   UNL A   1      30.991  29.599  24.678  1.00  0.00    -0.058 A 
ATOM     22  C   UNL A   1      30.861  27.405  23.652  1.00  0.00    -0.014 A 
ATOM     23  C   UNL A   1      30.060  30.094  23.764  1.00  0.00    -0.062 A 
ATOM     24  H   UNL A   1      31.383  30.234  25.391  1.00  0.00     0.063 H 
ATOM     25  C   UNL A   1      29.904  27.917  22.755  1.00  0.00    -0.054 A 
ATOM     26  C   UNL A   1      29.509  29.252  22.809  1.00  0.00    -0.062 A 
ATOM     27  H   UNL A   1      29.782  31.087  23.798  1.00  0.00     0.062 H 
ATOM     28  H   UNL A   1      29.489  27.294  22.045  1.00  0.00     0.063 H 
ATOM     29  H   UNL A   1      28.809  29.613  22.142  1.00  0.00     0.062 H 
BRANCH  22  30
ATOM     30  C   UNL A   1      31.248  25.985  23.472  1.00  0.00    -0.011 A 
ATOM     31  C   UNL A   1      30.567  24.877  24.114  1.00  0.00    -0.038 A 
ATOM     32  C   UNL A   1      32.269  25.717  22.639  1.00  0.00     0.012 A 
ATOM     33  C   UNL A   1      31.029  23.627  23.992  1.00  0.00     0.013 A 
ATOM     34  H   UNL A   1      29.716  25.055  24.671  1.00  0.00     0.064 H 
ATOM     35  C   UNL A   1      32.744  24.322  22.427  1.00  0.00     0.255 A 
ATOM     36  H   UNL A   1      32.730  26.492  22.138  1.00  0.00     0.069 H 
ATOM     37  N   UNL A   1      32.122  23.349  23.194  1.00  0.00    -0.258 N 
ATOM     38  H   UNL A   1      30.563  22.861  24.503  1.00  0.00     0.082 H 
ATOM     39  O   UNL A   1      33.652  24.127  21.626  1.00  0.00    -0.269 OA
BRANCH  37  40
ATOM     40  C   UNL A   1      32.620  22.004  23.076  1.00  0.00     0.321 C 
ATOM     41  F   UNL A   1      32.641  21.382  24.278  1.00  0.00    -0.185 F 
ATOM     42  F   UNL A   1      31.849  21.269  22.235  1.00  0.00    -0.185 F 
ATOM     43  H   UNL A   1      33.614  22.077  22.686  1.00  0.00     0.131 H 
ENDBRANCH  37  40
ENDBRANCH  22  30
ENDBRANCH  14  20
ENDBRANCH  11  14
ENDBRANCH   7  10
ENDBRANCH   4   7
ENDBRANCH   1   4
BRANCH   1  44
ATOM     44  C   UNL A   1      34.462  33.377  29.206  1.00  0.00    -0.052 C 
ATOM     45  H   UNL A   1      35.352  33.972  29.236  1.00  0.00     0.027 H 
ATOM     46  H   UNL A   1      34.262  32.880  30.132  1.00  0.00     0.027 H 
BRANCH  44  47
ATOM     47  C   UNL A   1      33.277  34.307  28.945  1.00  0.00    -0.036 C 
ATOM     48  H   UNL A   1      32.439  33.949  29.506  1.00  0.00     0.028 H 
ATOM     49  H   UNL A   1      33.102  34.297  27.890  1.00  0.00     0.028 H 
BRANCH  47  50
ATOM     50  C   UNL A   1      33.531  35.758  29.336  1.00  0.00     0.018 C 
ATOM     51  H   UNL A   1      33.420  36.374  28.468  1.00  0.00     0.049 H 
ATOM     52  H   UNL A   1      34.522  35.825  29.733  1.00  0.00     0.049 H 
BRANCH  50  53
ATOM     53  N   UNL A   1      32.605  36.216  30.359  1.00  0.00    -0.352 N 
ATOM     54  C   UNL A   1      32.567  35.882  31.693  1.00  0.00     0.251 C 
ATOM     55  H   UNL A   1      31.913  36.849  30.057  1.00  0.00     0.163 HD
ATOM     56  O   UNL A   1      31.620  36.193  32.394  1.00  0.00    -0.269 OA
BRANCH  54  57
ATOM     57  C   UNL A   1      33.695  35.115  32.260  1.00  0.00     0.039 A 
ATOM     58  C   UNL A   1      33.459  33.849  32.798  1.00  0.00    -0.049 A 
ATOM     59  C   UNL A   1      34.989  35.642  32.218  1.00  0.00    -0.049 A 
ATOM     60  C   UNL A   1      34.536  33.078  33.239  1.00  0.00    -0.053 A 
ATOM     61  H   UNL A   1      32.495  33.485  32.868  1.00  0.00     0.063 H 
ATOM     62  C   UNL A   1      36.064  34.846  32.589  1.00  0.00    -0.053 A 
ATOM     63  H   UNL A   1      35.144  36.615  31.912  1.00  0.00     0.063 H 
ATOM     64  C   UNL A   1      35.848  33.559  33.107  1.00  0.00    -0.014 A 
ATOM     65  H   UNL A   1      34.366  32.153  33.665  1.00  0.00     0.063 H 
ATOM     66  H   UNL A   1      37.027  35.203  32.486  1.00  0.00     0.063 H 
BRANCH  64  67
ATOM     67  C   UNL A   1      37.024  32.751  33.512  1.00  0.00     0.031 A 
ATOM     68  C   UNL A   1      37.738  33.076  34.793  1.00  0.00     0.074 A 
ATOM     69  C   UNL A   1      37.517  31.815  32.680  1.00  0.00     0.049 A 
ATOM     70  N   UNL A   1      38.876  32.620  35.248  1.00  0.00    -0.248 NA
ATOM     71  C   UNL A   1      37.102  34.082  35.656  1.00  0.00    -0.034 C 
ATOM     72  C   UNL A   1      36.937  31.443  31.389  1.00  0.00    -0.036 A 
ATOM     73  N   UNL A   1      38.639  31.031  32.781  1.00  0.00    -0.354 N 
ATOM     74  C   UNL A   1      39.106  33.305  36.433  1.00  0.00     0.074 A 
ATOM     75  C   UNL A   1      38.016  34.242  36.600  1.00  0.00    -0.034 C 
ATOM     76  H   UNL A   1      36.184  34.543  35.554  1.00  0.00     0.065 H 
ATOM     77  C   UNL A   1      37.710  30.507  30.816  1.00  0.00    -0.036 A 
ATOM     78  H   UNL A   1      36.073  31.837  30.985  1.00  0.00     0.065 H 
ATOM     79  C   UNL A   1      38.860  30.246  31.676  1.00  0.00     0.049 A 
ATOM     80  H   UNL A   1      39.228  31.032  33.570  1.00  0.00     0.167 HD
ATOM     81  C   UNL A   1      40.128  33.153  37.309  1.00  0.00     0.037 A 
ATOM     82  H   UNL A   1      37.959  34.943  37.355  1.00  0.00     0.065 H 
ATOM     83  H   UNL A   1      37.520  30.045  29.912  1.00  0.00     0.065 H 
ATOM     84  C   UNL A   1      39.889  29.428  31.379  1.00  0.00     0.037 A 
ATOM     85  C   UNL A   1      41.191  32.199  37.147  1.00  0.00     0.049 A 
ATOM     86  C   UNL A   1      41.011  29.268  32.367  1.00  0.00     0.074 A 
ATOM     87  C   UNL A   1      42.229  31.908  38.014  1.00  0.00    -0.036 A 
ATOM     88  N   UNL A   1      41.354  31.382  36.037  1.00  0.00    -0.354 N 
ATOM     89  N   UNL A   1      41.187  29.867  33.520  1.00  0.00    -0.248 NA
ATOM     90  C   UNL A   1      42.075  28.316  32.019  1.00  0.00    -0.034 C 
ATOM     91  C   UNL A   1      43.051  30.954  37.405  1.00  0.00    -0.036 A 
ATOM     92  H   UNL A   1      42.372  32.323  38.948  1.00  0.00     0.065 H 
ATOM     93  C   UNL A   1      42.493  30.607  36.183  1.00  0.00     0.049 A 
ATOM     94  H   UNL A   1      40.750  31.357  35.260  1.00  0.00     0.167 HD
ATOM     95  C   UNL A   1      42.360  29.347  34.048  1.00  0.00     0.074 A 
ATOM     96  C   UNL A   1      42.857  28.381  33.089  1.00  0.00    -0.034 C 
ATOM     97  H   UNL A   1      42.185  27.745  31.166  1.00  0.00     0.065 H 
ATOM     98  H   UNL A   1      43.926  30.574  37.798  1.00  0.00     0.065 H 
ATOM     99  C   UNL A   1      42.967  29.641  35.224  1.00  0.00     0.037 A 
ATOM    100  H   UNL A   1      43.709  27.815  33.222  1.00  0.00     0.065 H 
BRANCH  81 101
ATOM    101  C   UNL A   1      40.146  34.057  38.510  1.00  0.00     0.064 A 
ATOM    102  C   UNL A   1      39.509  33.708  39.710  1.00  0.00     0.173 A 
ATOM    103  C   UNL A   1      40.809  35.293  38.456  1.00  0.00     0.173 A 
ATOM    104  F   UNL A   1      38.853  32.541  39.812  1.00  0.00    -0.203 F 
ATOM    105  C   UNL A   1      39.494  34.581  40.794  1.00  0.00     0.198 A 
ATOM    106  C   UNL A   1      40.822  36.148  39.555  1.00  0.00     0.198 A 
ATOM    107  F   UNL A   1      41.440  35.675  37.336  1.00  0.00    -0.203 F 
ATOM    108  F   UNL A   1      38.819  34.254  41.906  1.00  0.00    -0.200 F 
ATOM    109  C   UNL A   1      40.153  35.797  40.718  1.00  0.00     0.200 A 
ATOM    110  F   UNL A   1      41.472  37.317  39.484  1.00  0.00    -0.200 F 
ATOM    111  F   UNL A   1      40.134  36.638  41.762  1.00  0.00    -0.200 F 
ENDBRANCH  81 101
BRANCH  84 112
ATOM    112  C   UNL A   1      39.886  28.698  30.086  1.00  0.00     0.064 A 
ATOM    113  C   UNL A   1      40.472  29.255  28.942  1.00  0.00     0.173 A 
ATOM    114  C   UNL A   1      39.339  27.410  29.979  1.00  0.00     0.173 A 
ATOM    115  F   UNL A   1      40.991  30.490  28.990  1.00  0.00    -0.203 F 
ATOM    116  C   UNL A   1      40.506  28.554  27.738  1.00  0.00     0.198 A 
ATOM    117  C   UNL A   1      39.398  26.700  28.782  1.00  0.00     0.198 A 
ATOM    118  F   UNL A   1      38.774  26.830  31.049  1.00  0.00    -0.203 F 
ATOM    119  F   UNL A   1      41.049  29.119  26.651  1.00  0.00    -0.200 F 
ATOM    120  C   UNL A   1      39.977  27.274  27.661  1.00  0.00     0.200 A 
ATOM    121  F   UNL A   1      38.901  25.457  28.719  1.00  0.00    -0.200 F 
ATOM    122  F   UNL A   1      40.027  26.593  26.509  1.00  0.00    -0.200 F 
ENDBRANCH  84 112
BRANCH  99 123
ATOM    123  C   UNL A   1      44.217  28.887  35.572  1.00  0.00     0.064 A 
ATOM    124  C   UNL A   1      44.176  27.676  36.275  1.00  0.00     0.173 A 
ATOM    125  C   UNL A   1      45.464  29.340  35.113  1.00  0.00     0.173 A 
ATOM    126  F   UNL A   1      43.010  27.207  36.747  1.00  0.00    -0.203 F 
ATOM    127  C   UNL A   1      45.339  26.948  36.512  1.00  0.00     0.198 A 
ATOM    128  C   UNL A   1      46.620  28.597  35.327  1.00  0.00     0.198 A 
ATOM    129  F   UNL A   1      45.554  30.492  34.429  1.00  0.00    -0.203 F 
ATOM    130  F   UNL A   1      45.281  25.804  37.209  1.00  0.00    -0.200 F 
ATOM    131  C   UNL A   1      46.557  27.402  36.027  1.00  0.00     0.200 A 
ATOM    132  F   UNL A   1      47.793  29.031  34.845  1.00  0.00    -0.200 F 
ATOM    133  F   UNL A   1      47.672  26.688  36.237  1.00  0.00    -0.200 F 
ENDBRANCH  99 123
ENDBRANCH  64  67
ENDBRANCH  54  57
ENDBRANCH  50  53
ENDBRANCH  47  50
ENDBRANCH  44  47
ENDBRANCH   1  44
TORSDOF 17
ENDMDL
