MODEL 1
REMARK VINA RESULT:     -12.1      0.000      0.000
REMARK SMILES C=Cc1cncc(-c2ccc([C@@H](C)C(=O)NCCCCCCNC(=O)c3ccc(-c4c5nc(c(-c6c(F)c(F)c(F)c(F)c6F)c6ccc([nH]6)c(-c6c(F)c(F)c(F)c(F)c6F)c6nc(c(-c7c(F)c(F)c(F)c(F)c7F)c7ccc4[nH]7)C=C6)C=C5)cc3)cc2)c1
REMARK SMILES IDX 19 1 18 4 17 7 16 10 14 11 15 12 12 14 11 16 8 17 9 18 90 19
REMARK SMILES IDX 10 20 89 22 7 26 3 27 4 28 91 29 5 30 6 33 2 35 1 36 13 40
REMARK SMILES IDX 20 44 21 47 22 50 23 53 24 54 25 56 26 57 27 58 88 59 28 60
REMARK SMILES IDX 87 62 29 64 30 67 31 68 81 69 32 70 86 71 80 72 82 73 33 74
REMARK SMILES IDX 85 75 79 77 78 79 34 81 66 84 46 85 65 86 47 87 50 88 64 89
REMARK SMILES IDX 83 90 48 91 49 93 63 95 84 96 51 99 35 101 36 102 44 103
REMARK SMILES IDX 37 104 38 105 42 106 45 107 39 108 40 109 43 110 41 111
REMARK SMILES IDX 67 112 68 113 76 114 69 115 70 116 74 117 77 118 71 119
REMARK SMILES IDX 72 120 75 121 73 122 52 123 53 124 61 125 54 126 55 127
REMARK SMILES IDX 59 128 62 129 56 130 57 131 60 132 58 133
REMARK H PARENT 19 2 19 3 18 5 18 6 17 8 17 9 16 13 12 15 9 21 90 23 10 24
REMARK H PARENT 89 25 4 31 91 32 6 34 1 37 1 38 2 39 13 41 13 42 13 43 20 45
REMARK H PARENT 20 46 21 48 21 49 22 51 22 52 23 55 27 61 88 63 28 65 87 66
REMARK H PARENT 86 76 80 78 82 80 85 82 79 83 47 92 50 94 83 97 48 98 84 100
REMARK Flexibility Score: inf
ROOT
ATOM      1  C   UNL A   1      34.001  27.679  24.582  1.00  0.00    -0.052 C 
ATOM      2  H   UNL A   1      33.974  27.478  23.530  1.00  0.00     0.027 H 
ATOM      3  H   UNL A   1      34.938  28.070  24.917  1.00  0.00     0.027 H 
ENDROOT
BRANCH   1   4
ATOM      4  C   UNL A   1      33.802  26.352  25.322  1.00  0.00    -0.036 C 
ATOM      5  H   UNL A   1      34.141  26.475  26.330  1.00  0.00     0.028 H 
ATOM      6  H   UNL A   1      32.760  26.118  25.266  1.00  0.00     0.028 H 
BRANCH   4   7
ATOM      7  C   UNL A   1      34.557  25.175  24.699  1.00  0.00     0.017 C 
ATOM      8  H   UNL A   1      34.547  25.282  23.634  1.00  0.00     0.049 H 
ATOM      9  H   UNL A   1      35.558  25.185  25.076  1.00  0.00     0.049 H 
BRANCH   7  10
ATOM     10  N   UNL A   1      33.954  23.907  25.049  1.00  0.00    -0.356 N 
ATOM     11  C   UNL A   1      32.943  23.197  24.480  1.00  0.00     0.227 C 
ATOM     12  O   UNL A   1      32.579  22.180  25.083  1.00  0.00    -0.274 OA
ATOM     13  H   UNL A   1      34.346  23.482  25.846  1.00  0.00     0.163 HD
BRANCH  11  14
ATOM     14  C   UNL A   1      32.272  23.580  23.153  1.00  0.00     0.060 C 
ATOM     15  H   UNL A   1      31.524  22.831  22.988  1.00  0.00     0.045 H 
BRANCH  14  16
ATOM     16  C   UNL A   1      31.458  24.864  23.220  1.00  0.00    -0.036 A 
ATOM     17  C   UNL A   1      29.918  27.277  23.227  1.00  0.00    -0.017 A 
ATOM     18  C   UNL A   1      29.685  26.249  24.153  1.00  0.00    -0.054 A 
ATOM     19  C   UNL A   1      30.953  27.074  22.302  1.00  0.00    -0.054 A 
ATOM     20  C   UNL A   1      30.459  25.082  24.171  1.00  0.00    -0.058 A 
ATOM     21  H   UNL A   1      28.922  26.355  24.840  1.00  0.00     0.063 H 
ATOM     22  C   UNL A   1      31.696  25.884  22.287  1.00  0.00    -0.058 A 
ATOM     23  H   UNL A   1      31.172  27.815  21.618  1.00  0.00     0.063 H 
ATOM     24  H   UNL A   1      30.288  24.372  24.899  1.00  0.00     0.063 H 
ATOM     25  H   UNL A   1      32.433  25.757  21.576  1.00  0.00     0.063 H 
BRANCH  17  26
ATOM     26  C   UNL A   1      29.109  28.515  23.248  1.00  0.00     0.001 A 
ATOM     27  C   UNL A   1      28.871  30.939  23.444  1.00  0.00    -0.007 A 
ATOM     28  C   UNL A   1      27.504  30.766  23.249  1.00  0.00     0.034 A 
ATOM     29  C   UNL A   1      29.670  29.788  23.444  1.00  0.00    -0.044 A 
ATOM     30  N   UNL A   1      26.909  29.570  23.055  1.00  0.00    -0.263 NA
ATOM     31  H   UNL A   1      26.906  31.607  23.254  1.00  0.00     0.085 H 
ATOM     32  H   UNL A   1      30.688  29.877  23.591  1.00  0.00     0.064 H 
ATOM     33  C   UNL A   1      27.722  28.487  23.068  1.00  0.00     0.035 A 
ATOM     34  H   UNL A   1      27.282  27.563  22.934  1.00  0.00     0.085 H 
BRANCH  27  35
ATOM     35  C   UNL A   1      29.402  32.282  23.696  1.00  0.00    -0.061 C 
ATOM     36  C   UNL A   1      28.970  33.389  23.081  1.00  0.00    -0.098 C 
ATOM     37  H   UNL A   1      29.390  34.303  23.308  1.00  0.00     0.054 H 
ATOM     38  H   UNL A   1      28.216  33.328  22.380  1.00  0.00     0.054 H 
ATOM     39  H   UNL A   1      30.158  32.379  24.392  1.00  0.00     0.062 H 
ENDBRANCH  27  35
ENDBRANCH  17  26
ENDBRANCH  14  16
BRANCH  14  40
ATOM     40  C   UNL A   1      33.177  23.428  21.929  1.00  0.00    -0.049 C 
ATOM     41  H   UNL A   1      33.379  22.390  21.762  1.00  0.00     0.024 H 
ATOM     42  H   UNL A   1      34.097  23.948  22.099  1.00  0.00     0.024 H 
ATOM     43  H   UNL A   1      32.689  23.839  21.071  1.00  0.00     0.024 H 
ENDBRANCH  14  40
ENDBRANCH  11  14
ENDBRANCH   7  10
ENDBRANCH   4   7
ENDBRANCH   1   4
BRANCH   1  44
ATOM     44  C   UNL A   1      32.953  28.758  24.887  1.00  0.00    -0.052 C 
ATOM     45  H   UNL A   1      32.373  28.914  24.003  1.00  0.00     0.027 H 
ATOM     46  H   UNL A   1      33.504  29.621  25.200  1.00  0.00     0.027 H 
BRANCH  44  47
ATOM     47  C   UNL A   1      31.990  28.438  26.035  1.00  0.00    -0.036 C 
ATOM     48  H   UNL A   1      32.131  27.414  26.313  1.00  0.00     0.028 H 
ATOM     49  H   UNL A   1      31.006  28.642  25.667  1.00  0.00     0.028 H 
BRANCH  47  50
ATOM     50  C   UNL A   1      32.171  29.299  27.283  1.00  0.00     0.018 C 
ATOM     51  H   UNL A   1      33.097  29.039  27.751  1.00  0.00     0.049 H 
ATOM     52  H   UNL A   1      31.343  29.115  27.935  1.00  0.00     0.049 H 
BRANCH  50  53
ATOM     53  N   UNL A   1      32.186  30.720  26.966  1.00  0.00    -0.352 N 
ATOM     54  C   UNL A   1      33.109  31.684  27.285  1.00  0.00     0.251 C 
ATOM     55  H   UNL A   1      31.416  31.037  26.441  1.00  0.00     0.163 HD
ATOM     56  O   UNL A   1      32.840  32.871  27.131  1.00  0.00    -0.269 OA
BRANCH  54  57
ATOM     57  C   UNL A   1      34.426  31.299  27.834  1.00  0.00     0.039 A 
ATOM     58  C   UNL A   1      35.392  32.288  28.035  1.00  0.00    -0.049 A 
ATOM     59  C   UNL A   1      34.713  29.965  28.136  1.00  0.00    -0.049 A 
ATOM     60  C   UNL A   1      36.617  31.953  28.617  1.00  0.00    -0.053 A 
ATOM     61  H   UNL A   1      35.201  33.263  27.753  1.00  0.00     0.063 H 
ATOM     62  C   UNL A   1      35.910  29.641  28.772  1.00  0.00    -0.053 A 
ATOM     63  H   UNL A   1      34.041  29.222  27.890  1.00  0.00     0.063 H 
ATOM     64  C   UNL A   1      36.866  30.635  29.033  1.00  0.00    -0.014 A 
ATOM     65  H   UNL A   1      37.341  32.677  28.743  1.00  0.00     0.063 H 
ATOM     66  H   UNL A   1      36.095  28.665  29.052  1.00  0.00     0.063 H 
BRANCH  64  67
ATOM     67  C   UNL A   1      38.090  30.289  29.796  1.00  0.00     0.031 A 
ATOM     68  C   UNL A   1      39.093  29.320  29.238  1.00  0.00     0.074 A 
ATOM     69  C   UNL A   1      38.250  30.788  31.037  1.00  0.00     0.049 A 
ATOM     70  N   UNL A   1      40.171  28.833  29.799  1.00  0.00    -0.248 NA
ATOM     71  C   UNL A   1      38.840  28.815  27.881  1.00  0.00    -0.034 C 
ATOM     72  C   UNL A   1      37.322  31.702  31.704  1.00  0.00    -0.036 A 
ATOM     73  N   UNL A   1      39.241  30.585  31.965  1.00  0.00    -0.354 N 
ATOM     74  C   UNL A   1      40.720  27.960  28.868  1.00  0.00     0.074 A 
ATOM     75  C   UNL A   1      39.833  27.951  27.724  1.00  0.00    -0.034 C 
ATOM     76  H   UNL A   1      38.087  29.068  27.222  1.00  0.00     0.065 H 
ATOM     77  C   UNL A   1      37.791  31.989  32.929  1.00  0.00    -0.036 A 
ATOM     78  H   UNL A   1      36.447  32.067  31.298  1.00  0.00     0.065 H 
ATOM     79  C   UNL A   1      39.029  31.250  33.148  1.00  0.00     0.049 A 
ATOM     80  H   UNL A   1      40.028  30.017  31.799  1.00  0.00     0.167 HD
ATOM     81  C   UNL A   1      41.869  27.248  28.957  1.00  0.00     0.037 A 
ATOM     82  H   UNL A   1      39.957  27.349  26.896  1.00  0.00     0.065 H 
ATOM     83  H   UNL A   1      37.349  32.631  33.605  1.00  0.00     0.065 H 
ATOM     84  C   UNL A   1      39.743  31.249  34.291  1.00  0.00     0.037 A 
ATOM     85  C   UNL A   1      42.754  27.272  30.092  1.00  0.00     0.049 A 
ATOM     86  C   UNL A   1      40.999  30.426  34.370  1.00  0.00     0.074 A 
ATOM     87  C   UNL A   1      43.978  26.641  30.247  1.00  0.00    -0.036 A 
ATOM     88  N   UNL A   1      42.508  27.957  31.272  1.00  0.00    -0.354 N 
ATOM     89  N   UNL A   1      41.548  29.664  33.456  1.00  0.00    -0.248 NA
ATOM     90  C   UNL A   1      41.735  30.464  35.642  1.00  0.00    -0.034 C 
ATOM     91  C   UNL A   1      44.445  26.902  31.538  1.00  0.00    -0.036 A 
ATOM     92  H   UNL A   1      44.461  26.076  29.531  1.00  0.00     0.065 H 
ATOM     93  C   UNL A   1      43.539  27.736  32.173  1.00  0.00     0.049 A 
ATOM     94  H   UNL A   1      41.717  28.517  31.446  1.00  0.00     0.167 HD
ATOM     95  C   UNL A   1      42.699  29.145  34.032  1.00  0.00     0.074 A 
ATOM     96  C   UNL A   1      42.782  29.698  35.369  1.00  0.00    -0.034 C 
ATOM     97  H   UNL A   1      41.499  30.957  36.517  1.00  0.00     0.065 H 
ATOM     98  H   UNL A   1      45.317  26.536  31.950  1.00  0.00     0.065 H 
ATOM     99  C   UNL A   1      43.603  28.285  33.503  1.00  0.00     0.037 A 
ATOM    100  H   UNL A   1      43.557  29.517  36.025  1.00  0.00     0.065 H 
BRANCH  81 101
ATOM    101  C   UNL A   1      42.239  26.377  27.792  1.00  0.00     0.064 A 
ATOM    102  C   UNL A   1      43.146  26.807  26.811  1.00  0.00     0.173 A 
ATOM    103  C   UNL A   1      41.722  25.076  27.681  1.00  0.00     0.173 A 
ATOM    104  F   UNL A   1      43.664  28.043  26.867  1.00  0.00    -0.203 F 
ATOM    105  C   UNL A   1      43.503  25.977  25.751  1.00  0.00     0.198 A 
ATOM    106  C   UNL A   1      42.101  24.240  26.634  1.00  0.00     0.198 A 
ATOM    107  F   UNL A   1      40.856  24.613  28.595  1.00  0.00    -0.203 F 
ATOM    108  F   UNL A   1      44.339  26.425  24.805  1.00  0.00    -0.200 F 
ATOM    109  C   UNL A   1      42.986  24.693  25.668  1.00  0.00     0.200 A 
ATOM    110  F   UNL A   1      41.613  22.994  26.563  1.00  0.00    -0.200 F 
ATOM    111  F   UNL A   1      43.339  23.892  24.652  1.00  0.00    -0.200 F 
ENDBRANCH  81 101
BRANCH  84 112
ATOM    112  C   UNL A   1      39.288  32.059  35.450  1.00  0.00     0.064 A 
ATOM    113  C   UNL A   1      38.484  31.496  36.450  1.00  0.00     0.173 A 
ATOM    114  C   UNL A   1      39.646  33.408  35.583  1.00  0.00     0.173 A 
ATOM    115  F   UNL A   1      38.098  30.215  36.355  1.00  0.00    -0.203 F 
ATOM    116  C   UNL A   1      38.039  32.256  37.530  1.00  0.00     0.198 A 
ATOM    117  C   UNL A   1      39.226  34.160  36.678  1.00  0.00     0.198 A 
ATOM    118  F   UNL A   1      40.419  33.993  34.656  1.00  0.00    -0.203 F 
ATOM    119  F   UNL A   1      37.235  31.704  38.449  1.00  0.00    -0.200 F 
ATOM    120  C   UNL A   1      38.416  33.585  37.646  1.00  0.00     0.200 A 
ATOM    121  F   UNL A   1      39.604  35.440  36.795  1.00  0.00    -0.200 F 
ATOM    122  F   UNL A   1      37.993  34.315  38.688  1.00  0.00    -0.200 F 
ENDBRANCH  84 112
BRANCH  99 123
ATOM    123  C   UNL A   1      44.765  27.897  34.369  1.00  0.00     0.064 A 
ATOM    124  C   UNL A   1      45.944  28.656  34.397  1.00  0.00     0.173 A 
ATOM    125  C   UNL A   1      44.687  26.774  35.206  1.00  0.00     0.173 A 
ATOM    126  F   UNL A   1      46.075  29.729  33.601  1.00  0.00    -0.203 F 
ATOM    127  C   UNL A   1      47.012  28.290  35.213  1.00  0.00     0.198 A 
ATOM    128  C   UNL A   1      45.745  26.429  36.043  1.00  0.00     0.198 A 
ATOM    129  F   UNL A   1      43.580  26.016  35.221  1.00  0.00    -0.203 F 
ATOM    130  F   UNL A   1      48.146  29.003  35.187  1.00  0.00    -0.200 F 
ATOM    131  C   UNL A   1      46.908  27.183  36.041  1.00  0.00     0.200 A 
ATOM    132  F   UNL A   1      45.639  25.364  36.851  1.00  0.00    -0.200 F 
ATOM    133  F   UNL A   1      47.935  26.836  36.830  1.00  0.00    -0.200 F 
ENDBRANCH  99 123
ENDBRANCH  64  67
ENDBRANCH  54  57
ENDBRANCH  50  53
ENDBRANCH  47  50
ENDBRANCH  44  47
ENDBRANCH   1  44
TORSDOF 17
ENDMDL
MODEL 2
REMARK VINA RESULT:     -12.1      1.815      2.755
REMARK SMILES C=Cc1cncc(-c2ccc([C@@H](C)C(=O)NCCCCCCNC(=O)c3ccc(-c4c5nc(c(-c6c(F)c(F)c(F)c(F)c6F)c6ccc([nH]6)c(-c6c(F)c(F)c(F)c(F)c6F)c6nc(c(-c7c(F)c(F)c(F)c(F)c7F)c7ccc4[nH]7)C=C6)C=C5)cc3)cc2)c1
REMARK SMILES IDX 19 1 18 4 17 7 16 10 14 11 15 12 12 14 11 16 8 17 9 18 90 19
REMARK SMILES IDX 10 20 89 22 7 26 3 27 4 28 91 29 5 30 6 33 2 35 1 36 13 40
REMARK SMILES IDX 20 44 21 47 22 50 23 53 24 54 25 56 26 57 27 58 88 59 28 60
REMARK SMILES IDX 87 62 29 64 30 67 31 68 81 69 32 70 86 71 80 72 82 73 33 74
REMARK SMILES IDX 85 75 79 77 78 79 34 81 66 84 46 85 65 86 47 87 50 88 64 89
REMARK SMILES IDX 83 90 48 91 49 93 63 95 84 96 51 99 35 101 36 102 44 103
REMARK SMILES IDX 37 104 38 105 42 106 45 107 39 108 40 109 43 110 41 111
REMARK SMILES IDX 67 112 68 113 76 114 69 115 70 116 74 117 77 118 71 119
REMARK SMILES IDX 72 120 75 121 73 122 52 123 53 124 61 125 54 126 55 127
REMARK SMILES IDX 59 128 62 129 56 130 57 131 60 132 58 133
REMARK H PARENT 19 2 19 3 18 5 18 6 17 8 17 9 16 13 12 15 9 21 90 23 10 24
REMARK H PARENT 89 25 4 31 91 32 6 34 1 37 1 38 2 39 13 41 13 42 13 43 20 45
REMARK H PARENT 20 46 21 48 21 49 22 51 22 52 23 55 27 61 88 63 28 65 87 66
REMARK H PARENT 86 76 80 78 82 80 85 82 79 83 47 92 50 94 83 97 48 98 84 100
REMARK Flexibility Score: inf
ROOT
ATOM      1  C   UNL A   1      32.235  29.412  27.050  1.00  0.00    -0.052 C 
ATOM      2  H   UNL A   1      33.241  29.148  26.795  1.00  0.00     0.027 H 
ATOM      3  H   UNL A   1      32.150  29.899  27.998  1.00  0.00     0.027 H 
ENDROOT
BRANCH   1   4
ATOM      4  C   UNL A   1      31.418  28.121  27.156  1.00  0.00    -0.036 C 
ATOM      5  H   UNL A   1      31.235  27.922  28.192  1.00  0.00     0.028 H 
ATOM      6  H   UNL A   1      30.515  28.278  26.604  1.00  0.00     0.028 H 
BRANCH   4   7
ATOM      7  C   UNL A   1      32.107  26.899  26.544  1.00  0.00     0.017 C 
ATOM      8  H   UNL A   1      32.127  27.009  25.480  1.00  0.00     0.049 H 
ATOM      9  H   UNL A   1      33.099  26.842  26.942  1.00  0.00     0.049 H 
BRANCH   7  10
ATOM     10  N   UNL A   1      31.415  25.672  26.876  1.00  0.00    -0.356 N 
ATOM     11  C   UNL A   1      30.717  24.791  26.110  1.00  0.00     0.227 C 
ATOM     12  O   UNL A   1      30.143  23.876  26.712  1.00  0.00    -0.274 OA
ATOM     13  H   UNL A   1      31.456  25.433  27.830  1.00  0.00     0.163 HD
BRANCH  11  14
ATOM     14  C   UNL A   1      30.633  24.869  24.579  1.00  0.00     0.060 C 
ATOM     15  H   UNL A   1      29.843  24.200  24.304  1.00  0.00     0.045 H 
BRANCH  14  16
ATOM     16  C   UNL A   1      30.139  26.210  24.055  1.00  0.00    -0.036 A 
ATOM     17  C   UNL A   1      29.286  28.721  22.977  1.00  0.00    -0.017 A 
ATOM     18  C   UNL A   1      28.374  27.793  23.500  1.00  0.00    -0.054 A 
ATOM     19  C   UNL A   1      30.644  28.367  23.018  1.00  0.00    -0.054 A 
ATOM     20  C   UNL A   1      28.793  26.578  24.057  1.00  0.00    -0.058 A 
ATOM     21  H   UNL A   1      27.365  28.010  23.474  1.00  0.00     0.063 H 
ATOM     22  C   UNL A   1      31.060  27.129  23.530  1.00  0.00    -0.058 A 
ATOM     23  H   UNL A   1      31.350  29.031  22.664  1.00  0.00     0.063 H 
ATOM     24  H   UNL A   1      28.094  25.946  24.477  1.00  0.00     0.063 H 
ATOM     25  H   UNL A   1      32.064  26.890  23.521  1.00  0.00     0.063 H 
BRANCH  17  26
ATOM     26  C   UNL A   1      28.823  30.011  22.423  1.00  0.00     0.001 A 
ATOM     27  C   UNL A   1      28.634  32.447  22.485  1.00  0.00    -0.007 A 
ATOM     28  C   UNL A   1      27.927  32.369  21.289  1.00  0.00     0.034 A 
ATOM     29  C   UNL A   1      29.078  31.244  23.049  1.00  0.00    -0.044 A 
ATOM     30  N   UNL A   1      27.653  31.215  20.642  1.00  0.00    -0.263 NA
ATOM     31  H   UNL A   1      27.590  33.248  20.869  1.00  0.00     0.085 H 
ATOM     32  H   UNL A   1      29.601  31.263  23.938  1.00  0.00     0.064 H 
ATOM     33  C   UNL A   1      28.100  30.079  21.227  1.00  0.00     0.035 A 
ATOM     34  H   UNL A   1      27.888  29.187  20.753  1.00  0.00     0.085 H 
BRANCH  27  35
ATOM     35  C   UNL A   1      28.829  33.751  23.126  1.00  0.00    -0.061 C 
ATOM     36  C   UNL A   1      30.006  34.198  23.579  1.00  0.00    -0.098 C 
ATOM     37  H   UNL A   1      30.071  35.128  24.020  1.00  0.00     0.054 H 
ATOM     38  H   UNL A   1      30.850  33.612  23.485  1.00  0.00     0.054 H 
ATOM     39  H   UNL A   1      28.005  34.363  23.236  1.00  0.00     0.062 H 
ENDBRANCH  27  35
ENDBRANCH  17  26
ENDBRANCH  14  16
BRANCH  14  40
ATOM     40  C   UNL A   1      31.843  24.276  23.856  1.00  0.00    -0.049 C 
ATOM     41  H   UNL A   1      31.539  23.415  23.297  1.00  0.00     0.024 H 
ATOM     42  H   UNL A   1      32.584  23.991  24.575  1.00  0.00     0.024 H 
ATOM     43  H   UNL A   1      32.254  25.006  23.191  1.00  0.00     0.024 H 
ENDBRANCH  14  40
ENDBRANCH  11  14
ENDBRANCH   7  10
ENDBRANCH   4   7
ENDBRANCH   1   4
BRANCH   1  44
ATOM     44  C   UNL A   1      31.730  30.419  26.006  1.00  0.00    -0.052 C 
ATOM     45  H   UNL A   1      30.814  30.043  25.603  1.00  0.00     0.027 H 
ATOM     46  H   UNL A   1      32.515  30.510  25.283  1.00  0.00     0.027 H 
BRANCH  44  47
ATOM     47  C   UNL A   1      31.473  31.837  26.526  1.00  0.00    -0.036 C 
ATOM     48  H   UNL A   1      30.643  31.799  27.201  1.00  0.00     0.028 H 
ATOM     49  H   UNL A   1      31.288  32.444  25.664  1.00  0.00     0.028 H 
BRANCH  47  50
ATOM     50  C   UNL A   1      32.651  32.475  27.257  1.00  0.00     0.018 C 
ATOM     51  H   UNL A   1      33.531  32.365  26.658  1.00  0.00     0.049 H 
ATOM     52  H   UNL A   1      32.762  31.981  28.201  1.00  0.00     0.049 H 
BRANCH  50  53
ATOM     53  N   UNL A   1      32.431  33.891  27.515  1.00  0.00    -0.352 N 
ATOM     54  C   UNL A   1      33.004  34.717  28.449  1.00  0.00     0.251 C 
ATOM     55  H   UNL A   1      31.769  34.321  26.926  1.00  0.00     0.163 HD
ATOM     56  O   UNL A   1      32.525  35.825  28.669  1.00  0.00    -0.269 OA
BRANCH  54  57
ATOM     57  C   UNL A   1      34.189  34.268  29.209  1.00  0.00     0.039 A 
ATOM     58  C   UNL A   1      34.005  33.671  30.460  1.00  0.00    -0.049 A 
ATOM     59  C   UNL A   1      35.477  34.448  28.699  1.00  0.00    -0.049 A 
ATOM     60  C   UNL A   1      35.108  33.179  31.161  1.00  0.00    -0.053 A 
ATOM     61  H   UNL A   1      33.058  33.596  30.863  1.00  0.00     0.063 H 
ATOM     62  C   UNL A   1      36.570  33.903  29.370  1.00  0.00    -0.053 A 
ATOM     63  H   UNL A   1      35.619  34.981  27.827  1.00  0.00     0.063 H 
ATOM     64  C   UNL A   1      36.393  33.249  30.599  1.00  0.00    -0.014 A 
ATOM     65  H   UNL A   1      34.978  32.761  32.096  1.00  0.00     0.063 H 
ATOM     66  H   UNL A   1      37.514  33.980  28.961  1.00  0.00     0.063 H 
BRANCH  64  67
ATOM     67  C   UNL A   1      37.553  32.591  31.250  1.00  0.00     0.031 A 
ATOM     68  C   UNL A   1      38.246  31.433  30.593  1.00  0.00     0.074 A 
ATOM     69  C   UNL A   1      37.925  32.990  32.482  1.00  0.00     0.049 A 
ATOM     70  N   UNL A   1      39.215  30.680  31.052  1.00  0.00    -0.248 NA
ATOM     71  C   UNL A   1      37.775  31.055  29.252  1.00  0.00    -0.034 C 
ATOM     72  C   UNL A   1      37.299  34.074  33.241  1.00  0.00    -0.036 A 
ATOM     73  N   UNL A   1      38.905  32.521  33.320  1.00  0.00    -0.354 N 
ATOM     74  C   UNL A   1      39.463  29.738  30.062  1.00  0.00     0.074 A 
ATOM     75  C   UNL A   1      38.514  29.984  28.997  1.00  0.00    -0.034 C 
ATOM     76  H   UNL A   1      37.056  31.505  28.663  1.00  0.00     0.065 H 
ATOM     77  C   UNL A   1      37.916  34.194  34.427  1.00  0.00    -0.036 A 
ATOM     78  H   UNL A   1      36.509  34.653  32.917  1.00  0.00     0.065 H 
ATOM     79  C   UNL A   1      38.952  33.172  34.528  1.00  0.00     0.049 A 
ATOM     80  H   UNL A   1      39.516  31.788  33.078  1.00  0.00     0.167 HD
ATOM     81  C   UNL A   1      40.409  28.769  30.041  1.00  0.00     0.037 A 
ATOM     82  H   UNL A   1      38.425  29.402  28.150  1.00  0.00     0.065 H 
ATOM     83  H   UNL A   1      37.696  34.897  35.149  1.00  0.00     0.065 H 
ATOM     84  C   UNL A   1      39.730  32.957  35.606  1.00  0.00     0.037 A 
ATOM     85  C   UNL A   1      41.359  28.537  31.098  1.00  0.00     0.049 A 
ATOM     86  C   UNL A   1      40.753  31.855  35.565  1.00  0.00     0.074 A 
ATOM     87  C   UNL A   1      42.402  27.627  31.138  1.00  0.00    -0.036 A 
ATOM     88  N   UNL A   1      41.377  29.216  32.307  1.00  0.00    -0.354 N 
ATOM     89  N   UNL A   1      41.029  31.019  34.594  1.00  0.00    -0.248 NA
ATOM     90  C   UNL A   1      41.572  31.667  36.771  1.00  0.00    -0.034 C 
ATOM     91  C   UNL A   1      43.017  27.719  32.390  1.00  0.00    -0.036 A 
ATOM     92  H   UNL A   1      42.678  26.989  30.374  1.00  0.00     0.065 H 
ATOM     93  C   UNL A   1      42.390  28.721  33.113  1.00  0.00     0.049 A 
ATOM     94  H   UNL A   1      40.761  29.942  32.557  1.00  0.00     0.167 HD
ATOM     95  C   UNL A   1      42.061  30.218  35.063  1.00  0.00     0.074 A 
ATOM     96  C   UNL A   1      42.378  30.684  36.397  1.00  0.00    -0.034 C 
ATOM     97  H   UNL A   1      41.531  32.168  37.672  1.00  0.00     0.065 H 
ATOM     98  H   UNL A   1      43.804  27.139  32.720  1.00  0.00     0.065 H 
ATOM     99  C   UNL A   1      42.688  29.188  34.443  1.00  0.00     0.037 A 
ATOM    100  H   UNL A   1      43.136  30.298  36.983  1.00  0.00     0.065 H 
BRANCH  81 101
ATOM    101  C   UNL A   1      40.466  27.879  28.833  1.00  0.00     0.064 A 
ATOM    102  C   UNL A   1      39.726  26.689  28.761  1.00  0.00     0.173 A 
ATOM    103  C   UNL A   1      41.228  28.246  27.713  1.00  0.00     0.173 A 
ATOM    104  F   UNL A   1      38.987  26.290  29.807  1.00  0.00    -0.203 F 
ATOM    105  C   UNL A   1      39.766  25.888  27.622  1.00  0.00     0.198 A 
ATOM    106  C   UNL A   1      41.244  27.457  26.566  1.00  0.00     0.198 A 
ATOM    107  F   UNL A   1      41.949  29.378  27.726  1.00  0.00    -0.203 F 
ATOM    108  F   UNL A   1      39.083  24.736  27.592  1.00  0.00    -0.200 F 
ATOM    109  C   UNL A   1      40.519  26.276  26.524  1.00  0.00     0.200 A 
ATOM    110  F   UNL A   1      41.960  27.840  25.500  1.00  0.00    -0.200 F 
ATOM    111  F   UNL A   1      40.547  25.509  25.425  1.00  0.00    -0.200 F 
ENDBRANCH  81 101
BRANCH  84 112
ATOM    112  C   UNL A   1      39.576  33.808  36.814  1.00  0.00     0.064 A 
ATOM    113  C   UNL A   1      38.762  33.401  37.881  1.00  0.00     0.173 A 
ATOM    114  C   UNL A   1      40.235  35.040  36.929  1.00  0.00     0.173 A 
ATOM    115  F   UNL A   1      38.095  32.241  37.809  1.00  0.00    -0.203 F 
ATOM    116  C   UNL A   1      38.599  34.204  39.009  1.00  0.00     0.198 A 
ATOM    117  C   UNL A   1      40.095  35.829  38.069  1.00  0.00     0.198 A 
ATOM    118  F   UNL A   1      41.029  35.472  35.938  1.00  0.00    -0.203 F 
ATOM    119  F   UNL A   1      37.781  33.812  39.995  1.00  0.00    -0.200 F 
ATOM    120  C   UNL A   1      39.270  35.414  39.104  1.00  0.00     0.200 A 
ATOM    121  F   UNL A   1      40.757  36.990  38.164  1.00  0.00    -0.200 F 
ATOM    122  F   UNL A   1      39.118  36.183  40.191  1.00  0.00    -0.200 F 
ENDBRANCH  84 112
BRANCH  99 123
ATOM    123  C   UNL A   1      43.785  28.500  35.202  1.00  0.00     0.064 A 
ATOM    124  C   UNL A   1      45.115  28.937  35.124  1.00  0.00     0.173 A 
ATOM    125  C   UNL A   1      43.499  27.413  36.042  1.00  0.00     0.173 A 
ATOM    126  F   UNL A   1      45.443  29.961  34.320  1.00  0.00    -0.203 F 
ATOM    127  C   UNL A   1      46.122  28.297  35.841  1.00  0.00     0.198 A 
ATOM    128  C   UNL A   1      44.504  26.794  36.780  1.00  0.00     0.198 A 
ATOM    129  F   UNL A   1      42.242  26.958  36.155  1.00  0.00    -0.203 F 
ATOM    130  F   UNL A   1      47.394  28.702  35.713  1.00  0.00    -0.200 F 
ATOM    131  C   UNL A   1      45.815  27.232  36.674  1.00  0.00     0.200 A 
ATOM    132  F   UNL A   1      44.203  25.772  37.593  1.00  0.00    -0.200 F 
ATOM    133  F   UNL A   1      46.785  26.620  37.367  1.00  0.00    -0.200 F 
ENDBRANCH  99 123
ENDBRANCH  64  67
ENDBRANCH  54  57
ENDBRANCH  50  53
ENDBRANCH  47  50
ENDBRANCH  44  47
ENDBRANCH   1  44
TORSDOF 17
ENDMDL
MODEL 3
REMARK VINA RESULT:     -11.9      0.523      7.330
REMARK SMILES C=Cc1cncc(-c2ccc([C@@H](C)C(=O)NCCCCCCNC(=O)c3ccc(-c4c5nc(c(-c6c(F)c(F)c(F)c(F)c6F)c6ccc([nH]6)c(-c6c(F)c(F)c(F)c(F)c6F)c6nc(c(-c7c(F)c(F)c(F)c(F)c7F)c7ccc4[nH]7)C=C6)C=C5)cc3)cc2)c1
REMARK SMILES IDX 19 1 18 4 17 7 16 10 14 11 15 12 12 14 11 16 8 17 9 18 90 19
REMARK SMILES IDX 10 20 89 22 7 26 3 27 4 28 91 29 5 30 6 33 2 35 1 36 13 40
REMARK SMILES IDX 20 44 21 47 22 50 23 53 24 54 25 56 26 57 27 58 88 59 28 60
REMARK SMILES IDX 87 62 29 64 30 67 31 68 81 69 32 70 86 71 80 72 82 73 33 74
REMARK SMILES IDX 85 75 79 77 78 79 34 81 66 84 46 85 65 86 47 87 50 88 64 89
REMARK SMILES IDX 83 90 48 91 49 93 63 95 84 96 51 99 35 101 36 102 44 103
REMARK SMILES IDX 37 104 38 105 42 106 45 107 39 108 40 109 43 110 41 111
REMARK SMILES IDX 67 112 68 113 76 114 69 115 70 116 74 117 77 118 71 119
REMARK SMILES IDX 72 120 75 121 73 122 52 123 53 124 61 125 54 126 55 127
REMARK SMILES IDX 59 128 62 129 56 130 57 131 60 132 58 133
REMARK H PARENT 19 2 19 3 18 5 18 6 17 8 17 9 16 13 12 15 9 21 90 23 10 24
REMARK H PARENT 89 25 4 31 91 32 6 34 1 37 1 38 2 39 13 41 13 42 13 43 20 45
REMARK H PARENT 20 46 21 48 21 49 22 51 22 52 23 55 27 61 88 63 28 65 87 66
REMARK H PARENT 86 76 80 78 82 80 85 82 79 83 47 92 50 94 83 97 48 98 84 100
REMARK Flexibility Score: inf
ROOT
ATOM      1  C   UNL A   1      33.652  27.324  24.959  1.00  0.00    -0.052 C 
ATOM      2  H   UNL A   1      33.479  27.066  23.934  1.00  0.00     0.027 H 
ATOM      3  H   UNL A   1      34.545  27.890  25.111  1.00  0.00     0.027 H 
ENDROOT
BRANCH   1   4
ATOM      4  C   UNL A   1      33.829  26.024  25.751  1.00  0.00    -0.036 C 
ATOM      5  H   UNL A   1      34.473  26.222  26.583  1.00  0.00     0.028 H 
ATOM      6  H   UNL A   1      32.853  25.708  26.053  1.00  0.00     0.028 H 
BRANCH   4   7
ATOM      7  C   UNL A   1      34.435  24.879  24.935  1.00  0.00     0.017 C 
ATOM      8  H   UNL A   1      34.422  25.147  23.899  1.00  0.00     0.049 H 
ATOM      9  H   UNL A   1      35.436  24.720  25.277  1.00  0.00     0.049 H 
BRANCH   7  10
ATOM     10  N   UNL A   1      33.695  23.648  25.110  1.00  0.00    -0.356 N 
ATOM     11  C   UNL A   1      32.699  23.078  24.379  1.00  0.00     0.227 C 
ATOM     12  O   UNL A   1      32.189  22.055  24.852  1.00  0.00    -0.274 OA
ATOM     13  H   UNL A   1      33.960  23.129  25.904  1.00  0.00     0.163 HD
BRANCH  11  14
ATOM     14  C   UNL A   1      32.213  23.620  23.027  1.00  0.00     0.060 C 
ATOM     15  H   UNL A   1      31.486  22.913  22.684  1.00  0.00     0.045 H 
BRANCH  14  16
ATOM     16  C   UNL A   1      31.411  24.910  23.132  1.00  0.00    -0.036 A 
ATOM     17  C   UNL A   1      29.894  27.336  23.208  1.00  0.00    -0.017 A 
ATOM     18  C   UNL A   1      29.644  26.279  24.096  1.00  0.00    -0.054 A 
ATOM     19  C   UNL A   1      30.935  27.154  22.285  1.00  0.00    -0.054 A 
ATOM     20  C   UNL A   1      30.407  25.105  24.081  1.00  0.00    -0.058 A 
ATOM     21  H   UNL A   1      28.876  26.369  24.781  1.00  0.00     0.063 H 
ATOM     22  C   UNL A   1      31.667  25.957  22.236  1.00  0.00    -0.058 A 
ATOM     23  H   UNL A   1      31.167  27.915  21.628  1.00  0.00     0.063 H 
ATOM     24  H   UNL A   1      30.223  24.373  24.784  1.00  0.00     0.063 H 
ATOM     25  H   UNL A   1      32.409  25.847  21.526  1.00  0.00     0.063 H 
BRANCH  17  26
ATOM     26  C   UNL A   1      29.097  28.580  23.264  1.00  0.00     0.001 A 
ATOM     27  C   UNL A   1      28.884  31.002  23.504  1.00  0.00    -0.007 A 
ATOM     28  C   UNL A   1      27.512  30.845  23.331  1.00  0.00     0.034 A 
ATOM     29  C   UNL A   1      29.673  29.845  23.471  1.00  0.00    -0.044 A 
ATOM     30  N   UNL A   1      26.903  29.657  23.128  1.00  0.00    -0.263 NA
ATOM     31  H   UNL A   1      26.922  31.690  23.361  1.00  0.00     0.085 H 
ATOM     32  H   UNL A   1      30.694  29.923  23.601  1.00  0.00     0.064 H 
ATOM     33  C   UNL A   1      27.706  28.567  23.107  1.00  0.00     0.035 A 
ATOM     34  H   UNL A   1      27.256  27.649  22.966  1.00  0.00     0.085 H 
BRANCH  27  35
ATOM     35  C   UNL A   1      29.431  32.336  23.770  1.00  0.00    -0.061 C 
ATOM     36  C   UNL A   1      29.053  33.446  23.126  1.00  0.00    -0.098 C 
ATOM     37  H   UNL A   1      29.481  34.353  23.365  1.00  0.00     0.054 H 
ATOM     38  H   UNL A   1      28.331  33.395  22.391  1.00  0.00     0.054 H 
ATOM     39  H   UNL A   1      30.156  32.424  24.499  1.00  0.00     0.062 H 
ENDBRANCH  27  35
ENDBRANCH  17  26
ENDBRANCH  14  16
BRANCH  14  40
ATOM     40  C   UNL A   1      33.271  23.581  21.923  1.00  0.00    -0.049 C 
ATOM     41  H   UNL A   1      33.701  22.602  21.877  1.00  0.00     0.024 H 
ATOM     42  H   UNL A   1      34.037  24.298  22.136  1.00  0.00     0.024 H 
ATOM     43  H   UNL A   1      32.815  23.815  20.984  1.00  0.00     0.024 H 
ENDBRANCH  14  40
ENDBRANCH  11  14
ENDBRANCH   7  10
ENDBRANCH   4   7
ENDBRANCH   1   4
BRANCH   1  44
ATOM     44  C   UNL A   1      32.494  28.218  25.426  1.00  0.00    -0.052 C 
ATOM     45  H   UNL A   1      32.163  27.858  26.377  1.00  0.00     0.027 H 
ATOM     46  H   UNL A   1      31.750  28.157  24.659  1.00  0.00     0.027 H 
BRANCH  44  47
ATOM     47  C   UNL A   1      32.826  29.706  25.573  1.00  0.00    -0.036 C 
ATOM     48  H   UNL A   1      32.370  30.231  24.760  1.00  0.00     0.028 H 
ATOM     49  H   UNL A   1      33.894  29.777  25.573  1.00  0.00     0.028 H 
BRANCH  47  50
ATOM     50  C   UNL A   1      32.351  30.343  26.877  1.00  0.00     0.018 C 
ATOM     51  H   UNL A   1      32.902  29.919  27.689  1.00  0.00     0.049 H 
ATOM     52  H   UNL A   1      31.304  30.150  26.977  1.00  0.00     0.049 H 
BRANCH  50  53
ATOM     53  N   UNL A   1      32.544  31.786  26.879  1.00  0.00    -0.352 N 
ATOM     54  C   UNL A   1      33.516  32.545  27.483  1.00  0.00     0.251 C 
ATOM     55  H   UNL A   1      31.875  32.296  26.367  1.00  0.00     0.163 HD
ATOM     56  O   UNL A   1      33.385  33.762  27.567  1.00  0.00    -0.269 OA
BRANCH  54  57
ATOM     57  C   UNL A   1      34.716  31.897  28.053  1.00  0.00     0.039 A 
ATOM     58  C   UNL A   1      35.889  32.645  28.188  1.00  0.00    -0.049 A 
ATOM     59  C   UNL A   1      34.689  30.554  28.439  1.00  0.00    -0.049 A 
ATOM     60  C   UNL A   1      37.011  32.070  28.788  1.00  0.00    -0.053 A 
ATOM     61  H   UNL A   1      35.925  33.617  27.845  1.00  0.00     0.063 H 
ATOM     62  C   UNL A   1      35.789  30.001  29.092  1.00  0.00    -0.053 A 
ATOM     63  H   UNL A   1      33.858  29.975  28.243  1.00  0.00     0.063 H 
ATOM     64  C   UNL A   1      36.954  30.758  29.287  1.00  0.00    -0.014 A 
ATOM     65  H   UNL A   1      37.886  32.611  28.866  1.00  0.00     0.063 H 
ATOM     66  H   UNL A   1      35.746  29.028  29.434  1.00  0.00     0.063 H 
BRANCH  64  67
ATOM     67  C   UNL A   1      38.077  30.184  30.069  1.00  0.00     0.031 A 
ATOM     68  C   UNL A   1      38.329  30.622  31.482  1.00  0.00     0.074 A 
ATOM     69  C   UNL A   1      38.922  29.326  29.466  1.00  0.00     0.049 A 
ATOM     70  N   UNL A   1      39.312  30.298  32.285  1.00  0.00    -0.248 NA
ATOM     71  C   UNL A   1      37.365  31.567  32.064  1.00  0.00    -0.034 C 
ATOM     72  C   UNL A   1      38.806  28.861  28.083  1.00  0.00    -0.036 A 
ATOM     73  N   UNL A   1      40.055  28.706  29.930  1.00  0.00    -0.354 N 
ATOM     74  C   UNL A   1      39.088  31.002  33.461  1.00  0.00     0.074 A 
ATOM     75  C   UNL A   1      37.902  31.806  33.252  1.00  0.00    -0.034 C 
ATOM     76  H   UNL A   1      36.496  31.945  31.655  1.00  0.00     0.065 H 
ATOM     77  C   UNL A   1      39.819  28.022  27.814  1.00  0.00    -0.036 A 
ATOM     78  H   UNL A   1      38.065  29.135  27.420  1.00  0.00     0.065 H 
ATOM     79  C   UNL A   1      40.677  27.922  28.990  1.00  0.00     0.049 A 
ATOM     80  H   UNL A   1      40.390  28.813  30.850  1.00  0.00     0.167 HD
ATOM     81  C   UNL A   1      39.800  30.965  34.613  1.00  0.00     0.037 A 
ATOM     82  H   UNL A   1      37.525  32.477  33.939  1.00  0.00     0.065 H 
ATOM     83  H   UNL A   1      39.966  27.526  26.921  1.00  0.00     0.065 H 
ATOM     84  C   UNL A   1      41.821  27.215  29.061  1.00  0.00     0.037 A 
ATOM     85  C   UNL A   1      40.971  30.153  34.819  1.00  0.00     0.049 A 
ATOM     86  C   UNL A   1      42.606  27.215  30.344  1.00  0.00     0.074 A 
ATOM     87  C   UNL A   1      41.718  29.992  35.974  1.00  0.00    -0.036 A 
ATOM     88  N   UNL A   1      41.572  29.371  33.845  1.00  0.00    -0.354 N 
ATOM     89  N   UNL A   1      42.343  27.826  31.473  1.00  0.00    -0.248 NA
ATOM     90  C   UNL A   1      43.846  26.427  30.361  1.00  0.00    -0.034 C 
ATOM     91  C   UNL A   1      42.799  29.155  35.684  1.00  0.00    -0.036 A 
ATOM     92  H   UNL A   1      41.511  30.418  36.892  1.00  0.00     0.065 H 
ATOM     93  C   UNL A   1      42.700  28.753  34.361  1.00  0.00     0.049 A 
ATOM     94  H   UNL A   1      41.246  29.269  32.921  1.00  0.00     0.167 HD
ATOM     95  C   UNL A   1      43.373  27.484  32.339  1.00  0.00     0.074 A 
ATOM     96  C   UNL A   1      44.253  26.594  31.611  1.00  0.00    -0.034 C 
ATOM     97  H   UNL A   1      44.286  25.886  29.600  1.00  0.00     0.065 H 
ATOM     98  H   UNL A   1      43.545  28.883  36.342  1.00  0.00     0.065 H 
ATOM     99  C   UNL A   1      43.572  27.877  33.622  1.00  0.00     0.037 A 
ATOM    100  H   UNL A   1      45.091  26.147  32.015  1.00  0.00     0.065 H 
BRANCH  81 101
ATOM    101  C   UNL A   1      39.332  31.830  35.747  1.00  0.00     0.064 A 
ATOM    102  C   UNL A   1      38.375  31.379  36.669  1.00  0.00     0.173 A 
ATOM    103  C   UNL A   1      39.885  33.105  35.947  1.00  0.00     0.173 A 
ATOM    104  F   UNL A   1      37.811  30.171  36.519  1.00  0.00    -0.203 F 
ATOM    105  C   UNL A   1      37.972  32.181  37.734  1.00  0.00     0.198 A 
ATOM    106  C   UNL A   1      39.499  33.893  37.028  1.00  0.00     0.198 A 
ATOM    107  F   UNL A   1      40.809  33.581  35.099  1.00  0.00    -0.203 F 
ATOM    108  F   UNL A   1      37.026  31.745  38.578  1.00  0.00    -0.200 F 
ATOM    109  C   UNL A   1      38.539  33.433  37.917  1.00  0.00     0.200 A 
ATOM    110  F   UNL A   1      40.058  35.097  37.212  1.00  0.00    -0.200 F 
ATOM    111  F   UNL A   1      38.157  34.199  38.948  1.00  0.00    -0.200 F 
ENDBRANCH  81 101
BRANCH  84 112
ATOM    112  C   UNL A   1      42.291  26.445  27.881  1.00  0.00     0.064 A 
ATOM    113  C   UNL A   1      41.822  25.147  27.635  1.00  0.00     0.173 A 
ATOM    114  C   UNL A   1      43.215  26.987  26.975  1.00  0.00     0.173 A 
ATOM    115  F   UNL A   1      40.955  24.578  28.485  1.00  0.00    -0.203 F 
ATOM    116  C   UNL A   1      42.274  24.413  26.540  1.00  0.00     0.198 A 
ATOM    117  C   UNL A   1      43.644  26.264  25.864  1.00  0.00     0.198 A 
ATOM    118  F   UNL A   1      43.689  28.228  27.161  1.00  0.00    -0.203 F 
ATOM    119  F   UNL A   1      41.843  23.158  26.354  1.00  0.00    -0.200 F 
ATOM    120  C   UNL A   1      43.179  24.975  25.652  1.00  0.00     0.200 A 
ATOM    121  F   UNL A   1      44.507  26.816  25.000  1.00  0.00    -0.200 F 
ATOM    122  F   UNL A   1      43.609  24.271  24.596  1.00  0.00    -0.200 F 
ENDBRANCH  84 112
BRANCH  99 123
ATOM    123  C   UNL A   1      44.786  27.337  34.320  1.00  0.00     0.064 A 
ATOM    124  C   UNL A   1      44.758  26.107  34.992  1.00  0.00     0.173 A 
ATOM    125  C   UNL A   1      45.999  28.042  34.289  1.00  0.00     0.173 A 
ATOM    126  F   UNL A   1      43.617  25.404  35.066  1.00  0.00    -0.203 F 
ATOM    127  C   UNL A   1      45.894  25.613  35.628  1.00  0.00     0.198 A 
ATOM    128  C   UNL A   1      47.140  27.530  34.901  1.00  0.00     0.198 A 
ATOM    129  F   UNL A   1      46.080  29.222  33.657  1.00  0.00    -0.203 F 
ATOM    130  F   UNL A   1      45.830  24.457  36.305  1.00  0.00    -0.200 F 
ATOM    131  C   UNL A   1      47.085  26.320  35.575  1.00  0.00     0.200 A 
ATOM    132  F   UNL A   1      48.294  28.211  34.839  1.00  0.00    -0.200 F 
ATOM    133  F   UNL A   1      48.179  25.840  36.183  1.00  0.00    -0.200 F 
ENDBRANCH  99 123
ENDBRANCH  64  67
ENDBRANCH  54  57
ENDBRANCH  50  53
ENDBRANCH  47  50
ENDBRANCH  44  47
ENDBRANCH   1  44
TORSDOF 17
ENDMDL
MODEL 4
REMARK VINA RESULT:     -11.9      2.402      5.493
REMARK SMILES C=Cc1cncc(-c2ccc([C@@H](C)C(=O)NCCCCCCNC(=O)c3ccc(-c4c5nc(c(-c6c(F)c(F)c(F)c(F)c6F)c6ccc([nH]6)c(-c6c(F)c(F)c(F)c(F)c6F)c6nc(c(-c7c(F)c(F)c(F)c(F)c7F)c7ccc4[nH]7)C=C6)C=C5)cc3)cc2)c1
REMARK SMILES IDX 19 1 18 4 17 7 16 10 14 11 15 12 12 14 11 16 8 17 9 18 90 19
REMARK SMILES IDX 10 20 89 22 7 26 3 27 4 28 91 29 5 30 6 33 2 35 1 36 13 40
REMARK SMILES IDX 20 44 21 47 22 50 23 53 24 54 25 56 26 57 27 58 88 59 28 60
REMARK SMILES IDX 87 62 29 64 30 67 31 68 81 69 32 70 86 71 80 72 82 73 33 74
REMARK SMILES IDX 85 75 79 77 78 79 34 81 66 84 46 85 65 86 47 87 50 88 64 89
REMARK SMILES IDX 83 90 48 91 49 93 63 95 84 96 51 99 35 101 36 102 44 103
REMARK SMILES IDX 37 104 38 105 42 106 45 107 39 108 40 109 43 110 41 111
REMARK SMILES IDX 67 112 68 113 76 114 69 115 70 116 74 117 77 118 71 119
REMARK SMILES IDX 72 120 75 121 73 122 52 123 53 124 61 125 54 126 55 127
REMARK SMILES IDX 59 128 62 129 56 130 57 131 60 132 58 133
REMARK H PARENT 19 2 19 3 18 5 18 6 17 8 17 9 16 13 12 15 9 21 90 23 10 24
REMARK H PARENT 89 25 4 31 91 32 6 34 1 37 1 38 2 39 13 41 13 42 13 43 20 45
REMARK H PARENT 20 46 21 48 21 49 22 51 22 52 23 55 27 61 88 63 28 65 87 66
REMARK H PARENT 86 76 80 78 82 80 85 82 79 83 47 92 50 94 83 97 48 98 84 100
REMARK Flexibility Score: inf
ROOT
ATOM      1  C   UNL A   1      32.507  29.714  26.793  1.00  0.00    -0.052 C 
ATOM      2  H   UNL A   1      33.350  29.451  26.187  1.00  0.00     0.027 H 
ATOM      3  H   UNL A   1      32.775  30.171  27.721  1.00  0.00     0.027 H 
ENDROOT
BRANCH   1   4
ATOM      4  C   UNL A   1      31.761  28.424  27.151  1.00  0.00    -0.036 C 
ATOM      5  H   UNL A   1      31.941  28.207  28.184  1.00  0.00     0.028 H 
ATOM      6  H   UNL A   1      30.725  28.596  26.943  1.00  0.00     0.028 H 
BRANCH   4   7
ATOM      7  C   UNL A   1      32.187  27.211  26.321  1.00  0.00     0.017 C 
ATOM      8  H   UNL A   1      31.743  27.282  25.350  1.00  0.00     0.049 H 
ATOM      9  H   UNL A   1      33.255  27.210  26.256  1.00  0.00     0.049 H 
BRANCH   7  10
ATOM     10  N   UNL A   1      31.771  25.969  26.937  1.00  0.00    -0.356 N 
ATOM     11  C   UNL A   1      31.716  24.696  26.459  1.00  0.00     0.227 C 
ATOM     12  O   UNL A   1      31.208  23.852  27.207  1.00  0.00    -0.274 OA
ATOM     13  H   UNL A   1      31.472  26.063  27.870  1.00  0.00     0.163 HD
BRANCH  11  14
ATOM     14  C   UNL A   1      32.261  24.273  25.087  1.00  0.00     0.060 C 
ATOM     15  H   UNL A   1      32.503  25.187  24.585  1.00  0.00     0.045 H 
BRANCH  14  16
ATOM     16  C   UNL A   1      33.600  23.554  25.150  1.00  0.00    -0.036 A 
ATOM     17  C   UNL A   1      36.136  22.246  25.379  1.00  0.00    -0.017 A 
ATOM     18  C   UNL A   1      35.013  21.594  24.847  1.00  0.00    -0.054 A 
ATOM     19  C   UNL A   1      35.963  23.578  25.783  1.00  0.00    -0.054 A 
ATOM     20  C   UNL A   1      33.781  22.243  24.705  1.00  0.00    -0.058 A 
ATOM     21  H   UNL A   1      35.097  20.608  24.552  1.00  0.00     0.063 H 
ATOM     22  C   UNL A   1      34.715  24.214  25.687  1.00  0.00    -0.058 A 
ATOM     23  H   UNL A   1      36.769  24.101  26.158  1.00  0.00     0.063 H 
ATOM     24  H   UNL A   1      32.993  21.744  24.263  1.00  0.00     0.063 H 
ATOM     25  H   UNL A   1      34.616  25.186  26.018  1.00  0.00     0.063 H 
BRANCH  17  26
ATOM     26  C   UNL A   1      37.436  21.550  25.489  1.00  0.00     0.001 A 
ATOM     27  C   UNL A   1      39.786  21.452  26.151  1.00  0.00    -0.007 A 
ATOM     28  C   UNL A   1      39.814  20.149  25.664  1.00  0.00     0.034 A 
ATOM     29  C   UNL A   1      38.575  22.150  26.053  1.00  0.00    -0.044 A 
ATOM     30  N   UNL A   1      38.753  19.521  25.115  1.00  0.00    -0.263 NA
ATOM     31  H   UNL A   1      40.702  19.629  25.727  1.00  0.00     0.085 H 
ATOM     32  H   UNL A   1      38.519  23.121  26.399  1.00  0.00     0.064 H 
ATOM     33  C   UNL A   1      37.606  20.236  25.037  1.00  0.00     0.035 A 
ATOM     34  H   UNL A   1      36.788  19.776  24.608  1.00  0.00     0.085 H 
BRANCH  27  35
ATOM     35  C   UNL A   1      41.014  22.052  26.682  1.00  0.00    -0.061 C 
ATOM     36  C   UNL A   1      41.294  22.165  27.986  1.00  0.00    -0.098 C 
ATOM     37  H   UNL A   1      42.179  22.599  28.288  1.00  0.00     0.054 H 
ATOM     38  H   UNL A   1      40.624  21.816  28.689  1.00  0.00     0.054 H 
ATOM     39  H   UNL A   1      41.707  22.412  26.006  1.00  0.00     0.062 H 
ENDBRANCH  27  35
ENDBRANCH  17  26
ENDBRANCH  14  16
BRANCH  14  40
ATOM     40  C   UNL A   1      31.212  23.650  24.165  1.00  0.00    -0.049 C 
ATOM     41  H   UNL A   1      30.272  24.141  24.311  1.00  0.00     0.024 H 
ATOM     42  H   UNL A   1      31.110  22.609  24.392  1.00  0.00     0.024 H 
ATOM     43  H   UNL A   1      31.519  23.764  23.147  1.00  0.00     0.024 H 
ENDBRANCH  14  40
ENDBRANCH  11  14
ENDBRANCH   7  10
ENDBRANCH   4   7
ENDBRANCH   1   4
BRANCH   1  44
ATOM     44  C   UNL A   1      31.677  30.755  26.028  1.00  0.00    -0.052 C 
ATOM     45  H   UNL A   1      30.732  30.314  25.791  1.00  0.00     0.027 H 
ATOM     46  H   UNL A   1      32.259  31.017  25.168  1.00  0.00     0.027 H 
BRANCH  44  47
ATOM     47  C   UNL A   1      31.414  32.067  26.773  1.00  0.00    -0.036 C 
ATOM     48  H   UNL A   1      30.721  31.868  27.563  1.00  0.00     0.028 H 
ATOM     49  H   UNL A   1      31.037  32.756  26.045  1.00  0.00     0.028 H 
BRANCH  47  50
ATOM     50  C   UNL A   1      32.654  32.719  27.381  1.00  0.00     0.018 C 
ATOM     51  H   UNL A   1      33.468  32.620  26.694  1.00  0.00     0.049 H 
ATOM     52  H   UNL A   1      32.867  32.225  28.306  1.00  0.00     0.049 H 
BRANCH  50  53
ATOM     53  N   UNL A   1      32.444  34.131  27.663  1.00  0.00    -0.352 N 
ATOM     54  C   UNL A   1      33.029  34.939  28.606  1.00  0.00     0.251 C 
ATOM     55  H   UNL A   1      31.780  34.576  27.087  1.00  0.00     0.163 HD
ATOM     56  O   UNL A   1      32.559  36.046  28.848  1.00  0.00    -0.269 OA
BRANCH  54  57
ATOM     57  C   UNL A   1      34.219  34.471  29.349  1.00  0.00     0.039 A 
ATOM     58  C   UNL A   1      34.051  33.945  30.632  1.00  0.00    -0.049 A 
ATOM     59  C   UNL A   1      35.495  34.564  28.788  1.00  0.00    -0.049 A 
ATOM     60  C   UNL A   1      35.154  33.434  31.321  1.00  0.00    -0.053 A 
ATOM     61  H   UNL A   1      33.116  33.935  31.070  1.00  0.00     0.063 H 
ATOM     62  C   UNL A   1      36.584  34.000  29.449  1.00  0.00    -0.053 A 
ATOM     63  H   UNL A   1      35.631  35.047  27.886  1.00  0.00     0.063 H 
ATOM     64  C   UNL A   1      36.421  33.415  30.714  1.00  0.00    -0.014 A 
ATOM     65  H   UNL A   1      35.037  33.068  32.279  1.00  0.00     0.063 H 
ATOM     66  H   UNL A   1      37.516  34.012  29.007  1.00  0.00     0.063 H 
BRANCH  64  67
ATOM     67  C   UNL A   1      37.571  32.735  31.360  1.00  0.00     0.031 A 
ATOM     68  C   UNL A   1      38.201  31.529  30.726  1.00  0.00     0.074 A 
ATOM     69  C   UNL A   1      37.988  33.160  32.567  1.00  0.00     0.049 A 
ATOM     70  N   UNL A   1      39.152  30.755  31.187  1.00  0.00    -0.248 NA
ATOM     71  C   UNL A   1      37.681  31.124  29.411  1.00  0.00    -0.034 C 
ATOM     72  C   UNL A   1      37.425  34.292  33.304  1.00  0.00    -0.036 A 
ATOM     73  N   UNL A   1      38.971  32.681  33.397  1.00  0.00    -0.354 N 
ATOM     74  C   UNL A   1      39.338  29.771  30.225  1.00  0.00     0.074 A 
ATOM     75  C   UNL A   1      38.372  30.018  29.175  1.00  0.00    -0.034 C 
ATOM     76  H   UNL A   1      36.966  31.583  28.825  1.00  0.00     0.065 H 
ATOM     77  C   UNL A   1      38.077  34.428  34.469  1.00  0.00    -0.036 A 
ATOM     78  H   UNL A   1      36.649  34.890  32.979  1.00  0.00     0.065 H 
ATOM     79  C   UNL A   1      39.075  33.370  34.581  1.00  0.00     0.049 A 
ATOM     80  H   UNL A   1      39.548  31.917  33.166  1.00  0.00     0.167 HD
ATOM     81  C   UNL A   1      40.245  28.764  30.214  1.00  0.00     0.037 A 
ATOM     82  H   UNL A   1      38.239  29.412  28.351  1.00  0.00     0.065 H 
ATOM     83  H   UNL A   1      37.902  35.163  35.172  1.00  0.00     0.065 H 
ATOM     84  C   UNL A   1      39.872  33.161  35.646  1.00  0.00     0.037 A 
ATOM     85  C   UNL A   1      41.213  28.532  31.255  1.00  0.00     0.049 A 
ATOM     86  C   UNL A   1      40.850  32.019  35.618  1.00  0.00     0.074 A 
ATOM     87  C   UNL A   1      42.220  27.583  31.301  1.00  0.00    -0.036 A 
ATOM     88  N   UNL A   1      41.288  29.249  32.439  1.00  0.00    -0.354 N 
ATOM     89  N   UNL A   1      41.068  31.141  34.670  1.00  0.00    -0.248 NA
ATOM     90  C   UNL A   1      41.692  31.840  36.809  1.00  0.00    -0.034 C 
ATOM     91  C   UNL A   1      42.870  27.693  32.533  1.00  0.00    -0.036 A 
ATOM     92  H   UNL A   1      42.452  26.910  30.553  1.00  0.00     0.065 H 
ATOM     93  C   UNL A   1      42.302  28.742  33.237  1.00  0.00     0.049 A 
ATOM     94  H   UNL A   1      40.707  30.007  32.679  1.00  0.00     0.167 HD
ATOM     95  C   UNL A   1      42.081  30.316  35.141  1.00  0.00     0.074 A 
ATOM     96  C   UNL A   1      42.450  30.813  36.450  1.00  0.00    -0.034 C 
ATOM     97  H   UNL A   1      41.693  32.372  37.693  1.00  0.00     0.065 H 
ATOM     98  H   UNL A   1      43.643  27.094  32.864  1.00  0.00     0.065 H 
ATOM     99  C   UNL A   1      42.651  29.241  34.542  1.00  0.00     0.037 A 
ATOM    100  H   UNL A   1      43.207  30.418  37.030  1.00  0.00     0.065 H 
BRANCH  81 101
ATOM    101  C   UNL A   1      40.237  27.833  29.037  1.00  0.00     0.064 A 
ATOM    102  C   UNL A   1      40.979  28.108  27.877  1.00  0.00     0.173 A 
ATOM    103  C   UNL A   1      39.523  26.626  29.087  1.00  0.00     0.173 A 
ATOM    104  F   UNL A   1      41.673  29.252  27.776  1.00  0.00    -0.203 F 
ATOM    105  C   UNL A   1      40.985  27.222  26.803  1.00  0.00     0.198 A 
ATOM    106  C   UNL A   1      39.554  25.729  28.022  1.00  0.00     0.198 A 
ATOM    107  F   UNL A   1      38.804  26.311  30.175  1.00  0.00    -0.203 F 
ATOM    108  F   UNL A   1      41.668  27.525  25.691  1.00  0.00    -0.200 F 
ATOM    109  C   UNL A   1      40.279  26.030  26.880  1.00  0.00     0.200 A 
ATOM    110  F   UNL A   1      38.884  24.571  28.103  1.00  0.00    -0.200 F 
ATOM    111  F   UNL A   1      40.296  25.173  25.849  1.00  0.00    -0.200 F 
ENDBRANCH  81 101
BRANCH  84 112
ATOM    112  C   UNL A   1      39.781  34.057  36.828  1.00  0.00     0.064 A 
ATOM    113  C   UNL A   1      40.528  35.241  36.892  1.00  0.00     0.173 A 
ATOM    114  C   UNL A   1      38.947  33.751  37.913  1.00  0.00     0.173 A 
ATOM    115  F   UNL A   1      41.355  35.564  35.888  1.00  0.00    -0.203 F 
ATOM    116  C   UNL A   1      40.460  36.075  38.006  1.00  0.00     0.198 A 
ATOM    117  C   UNL A   1      38.857  34.601  39.014  1.00  0.00     0.198 A 
ATOM    118  F   UNL A   1      38.206  32.633  37.898  1.00  0.00    -0.203 F 
ATOM    119  F   UNL A   1      41.219  37.178  38.061  1.00  0.00    -0.200 F 
ATOM    120  C   UNL A   1      39.620  35.758  39.063  1.00  0.00     0.200 A 
ATOM    121  F   UNL A   1      38.033  34.298  40.026  1.00  0.00    -0.200 F 
ATOM    122  F   UNL A   1      39.551  36.564  40.131  1.00  0.00    -0.200 F 
ENDBRANCH  84 112
BRANCH  99 123
ATOM    123  C   UNL A   1      43.740  28.537  35.297  1.00  0.00     0.064 A 
ATOM    124  C   UNL A   1      43.455  27.503  36.200  1.00  0.00     0.173 A 
ATOM    125  C   UNL A   1      45.086  28.876  35.091  1.00  0.00     0.173 A 
ATOM    126  F   UNL A   1      42.183  27.153  36.447  1.00  0.00    -0.203 F 
ATOM    127  C   UNL A   1      44.475  26.851  36.887  1.00  0.00     0.198 A 
ATOM    128  C   UNL A   1      46.105  28.202  35.757  1.00  0.00     0.198 A 
ATOM    129  F   UNL A   1      45.413  29.856  34.235  1.00  0.00    -0.203 F 
ATOM    130  F   UNL A   1      44.175  25.898  37.782  1.00  0.00    -0.200 F 
ATOM    131  C   UNL A   1      45.799  27.195  36.659  1.00  0.00     0.200 A 
ATOM    132  F   UNL A   1      47.385  28.528  35.528  1.00  0.00    -0.200 F 
ATOM    133  F   UNL A   1      46.780  26.561  37.317  1.00  0.00    -0.200 F 
ENDBRANCH  99 123
ENDBRANCH  64  67
ENDBRANCH  54  57
ENDBRANCH  50  53
ENDBRANCH  47  50
ENDBRANCH  44  47
ENDBRANCH   1  44
TORSDOF 17
ENDMDL
MODEL 5
REMARK VINA RESULT:     -11.8      4.441      7.830
REMARK SMILES C=Cc1cncc(-c2ccc([C@@H](C)C(=O)NCCCCCCNC(=O)c3ccc(-c4c5nc(c(-c6c(F)c(F)c(F)c(F)c6F)c6ccc([nH]6)c(-c6c(F)c(F)c(F)c(F)c6F)c6nc(c(-c7c(F)c(F)c(F)c(F)c7F)c7ccc4[nH]7)C=C6)C=C5)cc3)cc2)c1
REMARK SMILES IDX 19 1 18 4 17 7 16 10 14 11 15 12 12 14 11 16 8 17 9 18 90 19
REMARK SMILES IDX 10 20 89 22 7 26 3 27 4 28 91 29 5 30 6 33 2 35 1 36 13 40
REMARK SMILES IDX 20 44 21 47 22 50 23 53 24 54 25 56 26 57 27 58 88 59 28 60
REMARK SMILES IDX 87 62 29 64 30 67 31 68 81 69 32 70 86 71 80 72 82 73 33 74
REMARK SMILES IDX 85 75 79 77 78 79 34 81 66 84 46 85 65 86 47 87 50 88 64 89
REMARK SMILES IDX 83 90 48 91 49 93 63 95 84 96 51 99 35 101 36 102 44 103
REMARK SMILES IDX 37 104 38 105 42 106 45 107 39 108 40 109 43 110 41 111
REMARK SMILES IDX 67 112 68 113 76 114 69 115 70 116 74 117 77 118 71 119
REMARK SMILES IDX 72 120 75 121 73 122 52 123 53 124 61 125 54 126 55 127
REMARK SMILES IDX 59 128 62 129 56 130 57 131 60 132 58 133
REMARK H PARENT 19 2 19 3 18 5 18 6 17 8 17 9 16 13 12 15 9 21 90 23 10 24
REMARK H PARENT 89 25 4 31 91 32 6 34 1 37 1 38 2 39 13 41 13 42 13 43 20 45
REMARK H PARENT 20 46 21 48 21 49 22 51 22 52 23 55 27 61 88 63 28 65 87 66
REMARK H PARENT 86 76 80 78 82 80 85 82 79 83 47 92 50 94 83 97 48 98 84 100
REMARK Flexibility Score: inf
ROOT
ATOM      1  C   UNL A   1      34.806  23.630  25.092  1.00  0.00    -0.052 C 
ATOM      2  H   UNL A   1      33.797  23.269  25.099  1.00  0.00     0.027 H 
ATOM      3  H   UNL A   1      35.367  23.345  25.956  1.00  0.00     0.027 H 
ENDROOT
BRANCH   1   4
ATOM      4  C   UNL A   1      34.761  25.162  25.097  1.00  0.00    -0.036 C 
ATOM      5  H   UNL A   1      35.618  25.522  25.628  1.00  0.00     0.028 H 
ATOM      6  H   UNL A   1      34.751  25.476  24.074  1.00  0.00     0.028 H 
BRANCH   4   7
ATOM      7  C   UNL A   1      33.507  25.743  25.754  1.00  0.00     0.017 C 
ATOM      8  H   UNL A   1      32.945  24.946  26.195  1.00  0.00     0.049 H 
ATOM      9  H   UNL A   1      33.816  26.450  26.495  1.00  0.00     0.049 H 
BRANCH   7  10
ATOM     10  N   UNL A   1      32.670  26.431  24.794  1.00  0.00    -0.356 N 
ATOM     11  C   UNL A   1      31.448  26.128  24.278  1.00  0.00     0.227 C 
ATOM     12  O   UNL A   1      31.031  26.873  23.383  1.00  0.00    -0.274 OA
ATOM     13  H   UNL A   1      33.056  27.269  24.452  1.00  0.00     0.163 HD
BRANCH  11  14
ATOM     14  C   UNL A   1      30.583  24.954  24.759  1.00  0.00     0.060 C 
ATOM     15  H   UNL A   1      29.713  24.970  24.136  1.00  0.00     0.045 H 
BRANCH  14  16
ATOM     16  C   UNL A   1      31.184  23.586  24.470  1.00  0.00    -0.036 A 
ATOM     17  C   UNL A   1      32.228  20.963  23.993  1.00  0.00    -0.017 A 
ATOM     18  C   UNL A   1      32.101  21.907  22.963  1.00  0.00    -0.054 A 
ATOM     19  C   UNL A   1      31.830  21.369  25.276  1.00  0.00    -0.054 A 
ATOM     20  C   UNL A   1      31.621  23.201  23.201  1.00  0.00    -0.058 A 
ATOM     21  H   UNL A   1      32.370  21.641  22.002  1.00  0.00     0.063 H 
ATOM     22  C   UNL A   1      31.302  22.649  25.506  1.00  0.00    -0.058 A 
ATOM     23  H   UNL A   1      31.928  20.713  26.067  1.00  0.00     0.063 H 
ATOM     24  H   UNL A   1      31.591  23.880  22.426  1.00  0.00     0.063 H 
ATOM     25  H   UNL A   1      30.994  22.906  26.458  1.00  0.00     0.063 H 
BRANCH  17  26
ATOM     26  C   UNL A   1      32.768  19.613  23.724  1.00  0.00     0.001 A 
ATOM     27  C   UNL A   1      34.272  17.751  24.211  1.00  0.00    -0.007 A 
ATOM     28  C   UNL A   1      33.690  17.072  23.145  1.00  0.00     0.034 A 
ATOM     29  C   UNL A   1      33.797  19.039  24.490  1.00  0.00    -0.044 A 
ATOM     30  N   UNL A   1      32.700  17.572  22.376  1.00  0.00    -0.263 NA
ATOM     31  H   UNL A   1      34.038  16.126  22.928  1.00  0.00     0.085 H 
ATOM     32  H   UNL A   1      34.209  19.574  25.270  1.00  0.00     0.064 H 
ATOM     33  C   UNL A   1      32.276  18.821  22.681  1.00  0.00     0.035 A 
ATOM     34  H   UNL A   1      31.528  19.224  22.095  1.00  0.00     0.085 H 
BRANCH  27  35
ATOM     35  C   UNL A   1      35.378  17.130  24.946  1.00  0.00    -0.061 C 
ATOM     36  C   UNL A   1      35.399  15.849  25.334  1.00  0.00    -0.098 C 
ATOM     37  H   UNL A   1      36.212  15.478  25.849  1.00  0.00     0.054 H 
ATOM     38  H   UNL A   1      34.602  15.232  25.115  1.00  0.00     0.054 H 
ATOM     39  H   UNL A   1      36.193  17.719  25.182  1.00  0.00     0.062 H 
ENDBRANCH  27  35
ENDBRANCH  17  26
ENDBRANCH  14  16
BRANCH  14  40
ATOM     40  C   UNL A   1      29.999  25.142  26.160  1.00  0.00    -0.049 C 
ATOM     41  H   UNL A   1      29.139  24.515  26.275  1.00  0.00     0.024 H 
ATOM     42  H   UNL A   1      29.716  26.165  26.294  1.00  0.00     0.024 H 
ATOM     43  H   UNL A   1      30.733  24.877  26.891  1.00  0.00     0.024 H 
ENDBRANCH  14  40
ENDBRANCH  11  14
ENDBRANCH   7  10
ENDBRANCH   4   7
ENDBRANCH   1   4
BRANCH   1  44
ATOM     44  C   UNL A   1      35.526  23.004  23.889  1.00  0.00    -0.052 C 
ATOM     45  H   UNL A   1      36.060  23.780  23.384  1.00  0.00     0.027 H 
ATOM     46  H   UNL A   1      34.761  22.549  23.294  1.00  0.00     0.027 H 
BRANCH  44  47
ATOM     47  C   UNL A   1      36.519  21.886  24.222  1.00  0.00    -0.036 C 
ATOM     48  H   UNL A   1      37.384  22.013  23.605  1.00  0.00     0.028 H 
ATOM     49  H   UNL A   1      36.005  20.964  24.042  1.00  0.00     0.028 H 
BRANCH  47  50
ATOM     50  C   UNL A   1      36.975  21.847  25.679  1.00  0.00     0.018 C 
ATOM     51  H   UNL A   1      36.145  21.572  26.294  1.00  0.00     0.049 H 
ATOM     52  H   UNL A   1      37.341  22.819  25.937  1.00  0.00     0.049 H 
BRANCH  50  53
ATOM     53  N   UNL A   1      38.053  20.891  25.887  1.00  0.00    -0.352 N 
ATOM     54  C   UNL A   1      39.371  21.103  26.204  1.00  0.00     0.251 C 
ATOM     55  H   UNL A   1      37.795  19.946  25.786  1.00  0.00     0.163 HD
ATOM     56  O   UNL A   1      40.183  20.188  26.111  1.00  0.00    -0.269 OA
BRANCH  54  57
ATOM     57  C   UNL A   1      39.823  22.441  26.639  1.00  0.00     0.039 A 
ATOM     58  C   UNL A   1      40.836  22.535  27.598  1.00  0.00    -0.049 A 
ATOM     59  C   UNL A   1      39.242  23.599  26.116  1.00  0.00    -0.049 A 
ATOM     60  C   UNL A   1      41.324  23.790  27.970  1.00  0.00    -0.053 A 
ATOM     61  H   UNL A   1      41.221  21.680  28.029  1.00  0.00     0.063 H 
ATOM     62  C   UNL A   1      39.769  24.847  26.442  1.00  0.00    -0.053 A 
ATOM     63  H   UNL A   1      38.425  23.531  25.489  1.00  0.00     0.063 H 
ATOM     64  C   UNL A   1      40.825  24.952  27.360  1.00  0.00    -0.014 A 
ATOM     65  H   UNL A   1      42.053  23.862  28.697  1.00  0.00     0.063 H 
ATOM     66  H   UNL A   1      39.381  25.698  26.007  1.00  0.00     0.063 H 
BRANCH  64  67
ATOM     67  C   UNL A   1      41.437  26.279  27.621  1.00  0.00     0.031 A 
ATOM     68  C   UNL A   1      42.841  26.576  27.179  1.00  0.00     0.074 A 
ATOM     69  C   UNL A   1      40.748  27.187  28.337  1.00  0.00     0.049 A 
ATOM     70  N   UNL A   1      43.569  27.642  27.397  1.00  0.00    -0.248 NA
ATOM     71  C   UNL A   1      43.528  25.527  26.408  1.00  0.00    -0.034 C 
ATOM     72  C   UNL A   1      39.394  26.998  28.861  1.00  0.00    -0.036 A 
ATOM     73  N   UNL A   1      41.095  28.444  28.766  1.00  0.00    -0.354 N 
ATOM     74  C   UNL A   1      44.797  27.392  26.800  1.00  0.00     0.074 A 
ATOM     75  C   UNL A   1      44.733  26.055  26.248  1.00  0.00    -0.034 C 
ATOM     76  H   UNL A   1      43.165  24.619  26.078  1.00  0.00     0.065 H 
ATOM     77  C   UNL A   1      39.022  28.100  29.529  1.00  0.00    -0.036 A 
ATOM     78  H   UNL A   1      38.818  26.151  28.736  1.00  0.00     0.065 H 
ATOM     79  C   UNL A   1      40.123  29.057  29.517  1.00  0.00     0.049 A 
ATOM     80  H   UNL A   1      41.960  28.867  28.554  1.00  0.00     0.167 HD
ATOM     81  C   UNL A   1      45.871  28.212  26.708  1.00  0.00     0.037 A 
ATOM     82  H   UNL A   1      45.523  25.575  25.790  1.00  0.00     0.065 H 
ATOM     83  H   UNL A   1      38.105  28.248  29.977  1.00  0.00     0.065 H 
ATOM     84  C   UNL A   1      40.125  30.249  30.143  1.00  0.00     0.037 A 
ATOM     85  C   UNL A   1      45.924  29.546  27.247  1.00  0.00     0.049 A 
ATOM     86  C   UNL A   1      41.342  31.127  30.047  1.00  0.00     0.074 A 
ATOM     87  C   UNL A   1      46.941  30.480  27.141  1.00  0.00    -0.036 A 
ATOM     88  N   UNL A   1      44.920  30.133  28.002  1.00  0.00    -0.354 N 
ATOM     89  N   UNL A   1      42.470  30.910  29.415  1.00  0.00    -0.248 NA
ATOM     90  C   UNL A   1      41.286  32.416  30.751  1.00  0.00    -0.034 C 
ATOM     91  C   UNL A   1      46.574  31.612  27.876  1.00  0.00    -0.036 A 
ATOM     92  H   UNL A   1      47.819  30.362  26.612  1.00  0.00     0.065 H 
ATOM     93  C   UNL A   1      45.307  31.404  28.398  1.00  0.00     0.049 A 
ATOM     94  H   UNL A   1      44.059  29.711  28.225  1.00  0.00     0.167 HD
ATOM     95  C   UNL A   1      43.250  32.037  29.631  1.00  0.00     0.074 A 
ATOM     96  C   UNL A   1      42.458  32.947  30.433  1.00  0.00    -0.034 C 
ATOM     97  H   UNL A   1      40.533  32.805  31.340  1.00  0.00     0.065 H 
ATOM     98  H   UNL A   1      47.148  32.459  28.007  1.00  0.00     0.065 H 
ATOM     99  C   UNL A   1      44.512  32.294  29.205  1.00  0.00     0.037 A 
ATOM    100  H   UNL A   1      42.768  33.888  30.721  1.00  0.00     0.065 H 
BRANCH  81 101
ATOM    101  C   UNL A   1      47.085  27.690  25.994  1.00  0.00     0.064 A 
ATOM    102  C   UNL A   1      47.207  27.768  24.598  1.00  0.00     0.173 A 
ATOM    103  C   UNL A   1      48.162  27.155  26.718  1.00  0.00     0.173 A 
ATOM    104  F   UNL A   1      46.203  28.265  23.860  1.00  0.00    -0.203 F 
ATOM    105  C   UNL A   1      48.351  27.307  23.952  1.00  0.00     0.198 A 
ATOM    106  C   UNL A   1      49.315  26.720  26.070  1.00  0.00     0.198 A 
ATOM    107  F   UNL A   1      48.100  27.064  28.055  1.00  0.00    -0.203 F 
ATOM    108  F   UNL A   1      48.428  27.354  22.615  1.00  0.00    -0.200 F 
ATOM    109  C   UNL A   1      49.407  26.790  24.689  1.00  0.00     0.200 A 
ATOM    110  F   UNL A   1      50.340  26.234  26.784  1.00  0.00    -0.200 F 
ATOM    111  F   UNL A   1      50.511  26.357  24.065  1.00  0.00    -0.200 F 
ENDBRANCH  81 101
BRANCH  84 112
ATOM    112  C   UNL A   1      38.931  30.685  30.913  1.00  0.00     0.064 A 
ATOM    113  C   UNL A   1      37.856  31.320  30.276  1.00  0.00     0.173 A 
ATOM    114  C   UNL A   1      38.838  30.475  32.297  1.00  0.00     0.173 A 
ATOM    115  F   UNL A   1      37.908  31.561  28.958  1.00  0.00    -0.203 F 
ATOM    116  C   UNL A   1      36.743  31.747  30.996  1.00  0.00     0.198 A 
ATOM    117  C   UNL A   1      37.712  30.875  33.012  1.00  0.00     0.198 A 
ATOM    118  F   UNL A   1      39.837  29.866  32.953  1.00  0.00    -0.203 F 
ATOM    119  F   UNL A   1      35.749  32.391  30.370  1.00  0.00    -0.200 F 
ATOM    120  C   UNL A   1      36.669  31.518  32.362  1.00  0.00     0.200 A 
ATOM    121  F   UNL A   1      37.637  30.640  34.329  1.00  0.00    -0.200 F 
ATOM    122  F   UNL A   1      35.594  31.924  33.054  1.00  0.00    -0.200 F 
ENDBRANCH  84 112
BRANCH  99 123
ATOM    123  C   UNL A   1      45.108  33.615  29.593  1.00  0.00     0.064 A 
ATOM    124  C   UNL A   1      45.876  33.759  30.757  1.00  0.00     0.173 A 
ATOM    125  C   UNL A   1      44.938  34.743  28.775  1.00  0.00     0.173 A 
ATOM    126  F   UNL A   1      46.053  32.715  31.582  1.00  0.00    -0.203 F 
ATOM    127  C   UNL A   1      46.433  34.988  31.100  1.00  0.00     0.198 A 
ATOM    128  C   UNL A   1      45.521  35.963  29.106  1.00  0.00     0.198 A 
ATOM    129  F   UNL A   1      44.215  34.658  27.648  1.00  0.00    -0.203 F 
ATOM    130  F   UNL A   1      47.123  35.113  32.243  1.00  0.00    -0.200 F 
ATOM    131  C   UNL A   1      46.262  36.086  30.271  1.00  0.00     0.200 A 
ATOM    132  F   UNL A   1      45.363  37.021  28.298  1.00  0.00    -0.200 F 
ATOM    133  F   UNL A   1      46.803  37.267  30.601  1.00  0.00    -0.200 F 
ENDBRANCH  99 123
ENDBRANCH  64  67
ENDBRANCH  54  57
ENDBRANCH  50  53
ENDBRANCH  47  50
ENDBRANCH  44  47
ENDBRANCH   1  44
TORSDOF 17
ENDMDL
MODEL 6
REMARK VINA RESULT:     -11.8      4.728     11.186
REMARK SMILES C=Cc1cncc(-c2ccc([C@@H](C)C(=O)NCCCCCCNC(=O)c3ccc(-c4c5nc(c(-c6c(F)c(F)c(F)c(F)c6F)c6ccc([nH]6)c(-c6c(F)c(F)c(F)c(F)c6F)c6nc(c(-c7c(F)c(F)c(F)c(F)c7F)c7ccc4[nH]7)C=C6)C=C5)cc3)cc2)c1
REMARK SMILES IDX 19 1 18 4 17 7 16 10 14 11 15 12 12 14 11 16 8 17 9 18 90 19
REMARK SMILES IDX 10 20 89 22 7 26 3 27 4 28 91 29 5 30 6 33 2 35 1 36 13 40
REMARK SMILES IDX 20 44 21 47 22 50 23 53 24 54 25 56 26 57 27 58 88 59 28 60
REMARK SMILES IDX 87 62 29 64 30 67 31 68 81 69 32 70 86 71 80 72 82 73 33 74
REMARK SMILES IDX 85 75 79 77 78 79 34 81 66 84 46 85 65 86 47 87 50 88 64 89
REMARK SMILES IDX 83 90 48 91 49 93 63 95 84 96 51 99 35 101 36 102 44 103
REMARK SMILES IDX 37 104 38 105 42 106 45 107 39 108 40 109 43 110 41 111
REMARK SMILES IDX 67 112 68 113 76 114 69 115 70 116 74 117 77 118 71 119
REMARK SMILES IDX 72 120 75 121 73 122 52 123 53 124 61 125 54 126 55 127
REMARK SMILES IDX 59 128 62 129 56 130 57 131 60 132 58 133
REMARK H PARENT 19 2 19 3 18 5 18 6 17 8 17 9 16 13 12 15 9 21 90 23 10 24
REMARK H PARENT 89 25 4 31 91 32 6 34 1 37 1 38 2 39 13 41 13 42 13 43 20 45
REMARK H PARENT 20 46 21 48 21 49 22 51 22 52 23 55 27 61 88 63 28 65 87 66
REMARK H PARENT 86 76 80 78 82 80 85 82 79 83 47 92 50 94 83 97 48 98 84 100
REMARK Flexibility Score: inf
ROOT
ATOM      1  C   UNL A   1      38.178  34.283  30.608  1.00  0.00    -0.052 C 
ATOM      2  H   UNL A   1      39.235  34.139  30.710  1.00  0.00     0.027 H 
ATOM      3  H   UNL A   1      37.919  35.168  30.067  1.00  0.00     0.027 H 
ENDROOT
BRANCH   1   4
ATOM      4  C   UNL A   1      37.585  34.449  32.010  1.00  0.00    -0.036 C 
ATOM      5  H   UNL A   1      37.078  35.392  32.052  1.00  0.00     0.028 H 
ATOM      6  H   UNL A   1      36.925  33.622  32.169  1.00  0.00     0.028 H 
BRANCH   4   7
ATOM      7  C   UNL A   1      38.625  34.411  33.132  1.00  0.00     0.017 C 
ATOM      8  H   UNL A   1      39.536  34.002  32.747  1.00  0.00     0.049 H 
ATOM      9  H   UNL A   1      38.772  35.411  33.484  1.00  0.00     0.049 H 
BRANCH   7  10
ATOM     10  N   UNL A   1      38.181  33.601  34.246  1.00  0.00    -0.356 N 
ATOM     11  C   UNL A   1      37.855  32.283  34.334  1.00  0.00     0.227 C 
ATOM     12  O   UNL A   1      37.403  31.901  35.421  1.00  0.00    -0.274 OA
ATOM     13  H   UNL A   1      38.098  34.094  35.095  1.00  0.00     0.163 HD
BRANCH  11  14
ATOM     14  C   UNL A   1      38.040  31.279  33.188  1.00  0.00     0.060 C 
ATOM     15  H   UNL A   1      38.158  31.874  32.306  1.00  0.00     0.045 H 
BRANCH  14  16
ATOM     16  C   UNL A   1      39.347  30.502  33.252  1.00  0.00    -0.036 A 
ATOM     17  C   UNL A   1      41.782  28.997  33.263  1.00  0.00    -0.017 A 
ATOM     18  C   UNL A   1      41.730  30.323  33.720  1.00  0.00    -0.054 A 
ATOM     19  C   UNL A   1      40.578  28.435  32.812  1.00  0.00    -0.054 A 
ATOM     20  C   UNL A   1      40.533  31.049  33.745  1.00  0.00    -0.058 A 
ATOM     21  H   UNL A   1      42.598  30.777  34.046  1.00  0.00     0.063 H 
ATOM     22  C   UNL A   1      39.388  29.179  32.789  1.00  0.00    -0.058 A 
ATOM     23  H   UNL A   1      40.568  27.455  32.488  1.00  0.00     0.063 H 
ATOM     24  H   UNL A   1      40.528  32.004  34.135  1.00  0.00     0.063 H 
ATOM     25  H   UNL A   1      38.526  28.742  32.426  1.00  0.00     0.063 H 
BRANCH  17  26
ATOM     26  C   UNL A   1      43.052  28.240  33.276  1.00  0.00     0.001 A 
ATOM     27  C   UNL A   1      44.426  26.315  32.664  1.00  0.00    -0.007 A 
ATOM     28  C   UNL A   1      45.479  26.916  33.347  1.00  0.00     0.034 A 
ATOM     29  C   UNL A   1      43.202  26.996  32.640  1.00  0.00    -0.044 A 
ATOM     30  N   UNL A   1      45.394  28.108  33.975  1.00  0.00    -0.263 NA
ATOM     31  H   UNL A   1      46.382  26.420  33.376  1.00  0.00     0.085 H 
ATOM     32  H   UNL A   1      42.398  26.577  32.147  1.00  0.00     0.064 H 
ATOM     33  C   UNL A   1      44.190  28.727  33.928  1.00  0.00     0.035 A 
ATOM     34  H   UNL A   1      44.103  29.633  34.414  1.00  0.00     0.085 H 
BRANCH  27  35
ATOM     35  C   UNL A   1      44.618  24.992  32.061  1.00  0.00    -0.061 C 
ATOM     36  C   UNL A   1      44.513  23.838  32.730  1.00  0.00    -0.098 C 
ATOM     37  H   UNL A   1      44.661  22.942  32.241  1.00  0.00     0.054 H 
ATOM     38  H   UNL A   1      44.283  23.844  33.736  1.00  0.00     0.054 H 
ATOM     39  H   UNL A   1      44.849  24.948  31.055  1.00  0.00     0.062 H 
ENDBRANCH  27  35
ENDBRANCH  17  26
ENDBRANCH  14  16
BRANCH  14  40
ATOM     40  C   UNL A   1      36.790  30.455  32.873  1.00  0.00    -0.049 C 
ATOM     41  H   UNL A   1      36.719  29.638  33.561  1.00  0.00     0.024 H 
ATOM     42  H   UNL A   1      36.854  30.076  31.874  1.00  0.00     0.024 H 
ATOM     43  H   UNL A   1      35.922  31.074  32.964  1.00  0.00     0.024 H 
ENDBRANCH  14  40
ENDBRANCH  11  14
ENDBRANCH   7  10
ENDBRANCH   4   7
ENDBRANCH   1   4
BRANCH   1  44
ATOM     44  C   UNL A   1      37.615  33.107  29.798  1.00  0.00    -0.052 C 
ATOM     45  H   UNL A   1      37.646  32.235  30.417  1.00  0.00     0.027 H 
ATOM     46  H   UNL A   1      38.226  33.036  28.921  1.00  0.00     0.027 H 
BRANCH  44  47
ATOM     47  C   UNL A   1      36.178  33.279  29.295  1.00  0.00    -0.036 C 
ATOM     48  H   UNL A   1      36.170  33.095  28.241  1.00  0.00     0.028 H 
ATOM     49  H   UNL A   1      35.887  34.276  29.552  1.00  0.00     0.028 H 
BRANCH  47  50
ATOM     50  C   UNL A   1      35.156  32.350  29.947  1.00  0.00     0.018 C 
ATOM     51  H   UNL A   1      34.453  32.940  30.495  1.00  0.00     0.049 H 
ATOM     52  H   UNL A   1      35.683  31.678  30.592  1.00  0.00     0.049 H 
BRANCH  50  53
ATOM     53  N   UNL A   1      34.436  31.556  28.961  1.00  0.00    -0.352 N 
ATOM     54  C   UNL A   1      34.894  30.582  28.109  1.00  0.00     0.251 C 
ATOM     55  H   UNL A   1      33.472  31.746  28.899  1.00  0.00     0.163 HD
ATOM     56  O   UNL A   1      34.186  30.186  27.189  1.00  0.00    -0.269 OA
BRANCH  54  57
ATOM     57  C   UNL A   1      36.250  30.021  28.283  1.00  0.00     0.039 A 
ATOM     58  C   UNL A   1      37.181  30.166  27.251  1.00  0.00    -0.049 A 
ATOM     59  C   UNL A   1      36.598  29.341  29.453  1.00  0.00    -0.049 A 
ATOM     60  C   UNL A   1      38.487  29.703  27.426  1.00  0.00    -0.053 A 
ATOM     61  H   UNL A   1      36.904  30.613  26.363  1.00  0.00     0.063 H 
ATOM     62  C   UNL A   1      37.916  28.933  29.651  1.00  0.00    -0.053 A 
ATOM     63  H   UNL A   1      35.882  29.142  30.169  1.00  0.00     0.063 H 
ATOM     64  C   UNL A   1      38.876  29.126  28.646  1.00  0.00    -0.014 A 
ATOM     65  H   UNL A   1      39.169  29.787  26.656  1.00  0.00     0.063 H 
ATOM     66  H   UNL A   1      38.187  28.487  30.541  1.00  0.00     0.063 H 
BRANCH  64  67
ATOM     67  C   UNL A   1      40.293  28.774  28.912  1.00  0.00     0.031 A 
ATOM     68  C   UNL A   1      41.227  29.773  29.530  1.00  0.00     0.074 A 
ATOM     69  C   UNL A   1      40.755  27.574  28.511  1.00  0.00     0.049 A 
ATOM     70  N   UNL A   1      42.514  29.674  29.752  1.00  0.00    -0.248 NA
ATOM     71  C   UNL A   1      40.645  31.063  29.931  1.00  0.00    -0.034 C 
ATOM     72  C   UNL A   1      39.954  26.537  27.858  1.00  0.00    -0.036 A 
ATOM     73  N   UNL A   1      42.013  27.028  28.577  1.00  0.00    -0.354 N 
ATOM     74  C   UNL A   1      42.896  30.886  30.311  1.00  0.00     0.074 A 
ATOM     75  C   UNL A   1      41.715  31.723  30.353  1.00  0.00    -0.034 C 
ATOM     76  H   UNL A   1      39.662  31.373  29.895  1.00  0.00     0.065 H 
ATOM     77  C   UNL A   1      40.736  25.478  27.594  1.00  0.00    -0.036 A 
ATOM     78  H   UNL A   1      38.949  26.609  27.636  1.00  0.00     0.065 H 
ATOM     79  C   UNL A   1      42.099  25.776  28.020  1.00  0.00     0.049 A 
ATOM     80  H   UNL A   1      42.781  27.491  28.985  1.00  0.00     0.167 HD
ATOM     81  C   UNL A   1      44.118  31.258  30.763  1.00  0.00     0.037 A 
ATOM     82  H   UNL A   1      41.707  32.704  30.670  1.00  0.00     0.065 H 
ATOM     83  H   UNL A   1      40.423  24.596  27.161  1.00  0.00     0.065 H 
ATOM     84  C   UNL A   1      43.161  24.965  27.854  1.00  0.00     0.037 A 
ATOM     85  C   UNL A   1      45.286  30.416  30.731  1.00  0.00     0.049 A 
ATOM     86  C   UNL A   1      44.511  25.415  28.340  1.00  0.00     0.074 A 
ATOM     87  C   UNL A   1      46.551  30.677  31.230  1.00  0.00    -0.036 A 
ATOM     88  N   UNL A   1      45.336  29.154  30.160  1.00  0.00    -0.354 N 
ATOM     89  N   UNL A   1      44.845  26.534  28.935  1.00  0.00    -0.248 NA
ATOM     90  C   UNL A   1      45.633  24.489  28.130  1.00  0.00    -0.034 C 
ATOM     91  C   UNL A   1      47.378  29.594  30.915  1.00  0.00    -0.036 A 
ATOM     92  H   UNL A   1      46.835  31.524  31.747  1.00  0.00     0.065 H 
ATOM     93  C   UNL A   1      46.618  28.637  30.263  1.00  0.00     0.049 A 
ATOM     94  H   UNL A   1      44.573  28.693  29.741  1.00  0.00     0.167 HD
ATOM     95  C   UNL A   1      46.207  26.441  29.185  1.00  0.00     0.074 A 
ATOM     96  C   UNL A   1      46.634  25.146  28.698  1.00  0.00    -0.034 C 
ATOM     97  H   UNL A   1      45.639  23.569  27.662  1.00  0.00     0.065 H 
ATOM     98  H   UNL A   1      48.384  29.520  31.131  1.00  0.00     0.065 H 
ATOM     99  C   UNL A   1      47.030  27.350  29.764  1.00  0.00     0.037 A 
ATOM    100  H   UNL A   1      47.595  24.781  28.782  1.00  0.00     0.065 H 
BRANCH  81 101
ATOM    101  C   UNL A   1      44.258  32.639  31.333  1.00  0.00     0.064 A 
ATOM    102  C   UNL A   1      44.315  32.860  32.718  1.00  0.00     0.173 A 
ATOM    103  C   UNL A   1      44.391  33.751  30.487  1.00  0.00     0.173 A 
ATOM    104  F   UNL A   1      44.187  31.832  33.571  1.00  0.00    -0.203 F 
ATOM    105  C   UNL A   1      44.475  34.144  33.234  1.00  0.00     0.198 A 
ATOM    106  C   UNL A   1      44.577  35.029  31.005  1.00  0.00     0.198 A 
ATOM    107  F   UNL A   1      44.351  33.595  29.155  1.00  0.00    -0.203 F 
ATOM    108  F   UNL A   1      44.486  34.334  34.560  1.00  0.00    -0.200 F 
ATOM    109  C   UNL A   1      44.613  35.226  32.377  1.00  0.00     0.200 A 
ATOM    110  F   UNL A   1      44.725  36.072  30.176  1.00  0.00    -0.200 F 
ATOM    111  F   UNL A   1      44.778  36.459  32.875  1.00  0.00    -0.200 F 
ENDBRANCH  81 101
BRANCH  84 112
ATOM    112  C   UNL A   1      42.988  23.642  27.202  1.00  0.00     0.064 A 
ATOM    113  C   UNL A   1      42.428  22.563  27.899  1.00  0.00     0.173 A 
ATOM    114  C   UNL A   1      43.378  23.427  25.871  1.00  0.00     0.173 A 
ATOM    115  F   UNL A   1      42.060  22.714  29.179  1.00  0.00    -0.203 F 
ATOM    116  C   UNL A   1      42.281  21.315  27.298  1.00  0.00     0.198 A 
ATOM    117  C   UNL A   1      43.204  22.187  25.261  1.00  0.00     0.198 A 
ATOM    118  F   UNL A   1      43.914  24.429  25.158  1.00  0.00    -0.203 F 
ATOM    119  F   UNL A   1      41.783  20.289  28.001  1.00  0.00    -0.200 F 
ATOM    120  C   UNL A   1      42.663  21.129  25.978  1.00  0.00     0.200 A 
ATOM    121  F   UNL A   1      43.561  22.016  23.981  1.00  0.00    -0.200 F 
ATOM    122  F   UNL A   1      42.516  19.930  25.397  1.00  0.00    -0.200 F 
ENDBRANCH  84 112
BRANCH  99 123
ATOM    123  C   UNL A   1      48.474  26.968  29.909  1.00  0.00     0.064 A 
ATOM    124  C   UNL A   1      49.446  27.425  29.007  1.00  0.00     0.173 A 
ATOM    125  C   UNL A   1      48.896  26.165  30.979  1.00  0.00     0.173 A 
ATOM    126  F   UNL A   1      49.091  28.181  27.957  1.00  0.00    -0.203 F 
ATOM    127  C   UNL A   1      50.785  27.072  29.158  1.00  0.00     0.198 A 
ATOM    128  C   UNL A   1      50.239  25.839  31.143  1.00  0.00     0.198 A 
ATOM    129  F   UNL A   1      48.007  25.705  31.872  1.00  0.00    -0.203 F 
ATOM    130  F   UNL A   1      51.688  27.481  28.256  1.00  0.00    -0.200 F 
ATOM    131  C   UNL A   1      51.181  26.287  30.230  1.00  0.00     0.200 A 
ATOM    132  F   UNL A   1      50.623  25.088  32.186  1.00  0.00    -0.200 F 
ATOM    133  F   UNL A   1      52.471  25.953  30.376  1.00  0.00    -0.200 F 
ENDBRANCH  99 123
ENDBRANCH  64  67
ENDBRANCH  54  57
ENDBRANCH  50  53
ENDBRANCH  47  50
ENDBRANCH  44  47
ENDBRANCH   1  44
TORSDOF 17
ENDMDL
MODEL 7
REMARK VINA RESULT:     -11.8      0.731      7.287
REMARK SMILES C=Cc1cncc(-c2ccc([C@@H](C)C(=O)NCCCCCCNC(=O)c3ccc(-c4c5nc(c(-c6c(F)c(F)c(F)c(F)c6F)c6ccc([nH]6)c(-c6c(F)c(F)c(F)c(F)c6F)c6nc(c(-c7c(F)c(F)c(F)c(F)c7F)c7ccc4[nH]7)C=C6)C=C5)cc3)cc2)c1
REMARK SMILES IDX 19 1 18 4 17 7 16 10 14 11 15 12 12 14 11 16 8 17 9 18 90 19
REMARK SMILES IDX 10 20 89 22 7 26 3 27 4 28 91 29 5 30 6 33 2 35 1 36 13 40
REMARK SMILES IDX 20 44 21 47 22 50 23 53 24 54 25 56 26 57 27 58 88 59 28 60
REMARK SMILES IDX 87 62 29 64 30 67 31 68 81 69 32 70 86 71 80 72 82 73 33 74
REMARK SMILES IDX 85 75 79 77 78 79 34 81 66 84 46 85 65 86 47 87 50 88 64 89
REMARK SMILES IDX 83 90 48 91 49 93 63 95 84 96 51 99 35 101 36 102 44 103
REMARK SMILES IDX 37 104 38 105 42 106 45 107 39 108 40 109 43 110 41 111
REMARK SMILES IDX 67 112 68 113 76 114 69 115 70 116 74 117 77 118 71 119
REMARK SMILES IDX 72 120 75 121 73 122 52 123 53 124 61 125 54 126 55 127
REMARK SMILES IDX 59 128 62 129 56 130 57 131 60 132 58 133
REMARK H PARENT 19 2 19 3 18 5 18 6 17 8 17 9 16 13 12 15 9 21 90 23 10 24
REMARK H PARENT 89 25 4 31 91 32 6 34 1 37 1 38 2 39 13 41 13 42 13 43 20 45
REMARK H PARENT 20 46 21 48 21 49 22 51 22 52 23 55 27 61 88 63 28 65 87 66
REMARK H PARENT 86 76 80 78 82 80 85 82 79 83 47 92 50 94 83 97 48 98 84 100
REMARK Flexibility Score: inf
ROOT
ATOM      1  C   UNL A   1      31.882  26.712  26.546  1.00  0.00    -0.052 C 
ATOM      2  H   UNL A   1      31.526  25.974  27.236  1.00  0.00     0.027 H 
ATOM      3  H   UNL A   1      31.297  26.779  25.654  1.00  0.00     0.027 H 
ENDROOT
BRANCH   1   4
ATOM      4  C   UNL A   1      33.292  26.306  26.104  1.00  0.00    -0.036 C 
ATOM      5  H   UNL A   1      33.487  26.751  25.149  1.00  0.00     0.028 H 
ATOM      6  H   UNL A   1      33.966  26.649  26.861  1.00  0.00     0.028 H 
BRANCH   4   7
ATOM      7  C   UNL A   1      33.492  24.794  25.982  1.00  0.00     0.017 C 
ATOM      8  H   UNL A   1      33.897  24.422  26.900  1.00  0.00     0.049 H 
ATOM      9  H   UNL A   1      32.542  24.348  25.773  1.00  0.00     0.049 H 
BRANCH   7  10
ATOM     10  N   UNL A   1      34.395  24.459  24.902  1.00  0.00    -0.356 N 
ATOM     11  C   UNL A   1      34.178  23.906  23.678  1.00  0.00     0.227 C 
ATOM     12  O   UNL A   1      35.184  23.643  23.009  1.00  0.00    -0.274 OA
ATOM     13  H   UNL A   1      35.340  24.669  25.087  1.00  0.00     0.163 HD
BRANCH  11  14
ATOM     14  C   UNL A   1      32.782  23.624  23.103  1.00  0.00     0.060 C 
ATOM     15  H   UNL A   1      32.306  22.984  23.817  1.00  0.00     0.045 H 
BRANCH  14  16
ATOM     16  C   UNL A   1      31.869  24.842  23.075  1.00  0.00    -0.036 A 
ATOM     17  C   UNL A   1      30.124  27.109  23.139  1.00  0.00    -0.017 A 
ATOM     18  C   UNL A   1      31.386  27.165  22.529  1.00  0.00    -0.054 A 
ATOM     19  C   UNL A   1      29.748  25.883  23.706  1.00  0.00    -0.054 A 
ATOM     20  C   UNL A   1      32.227  26.047  22.470  1.00  0.00    -0.058 A 
ATOM     21  H   UNL A   1      31.705  28.055  22.113  1.00  0.00     0.063 H 
ATOM     22  C   UNL A   1      30.611  24.776  23.691  1.00  0.00    -0.058 A 
ATOM     23  H   UNL A   1      28.818  25.792  24.145  1.00  0.00     0.063 H 
ATOM     24  H   UNL A   1      33.126  26.116  21.969  1.00  0.00     0.063 H 
ATOM     25  H   UNL A   1      30.313  23.896  24.141  1.00  0.00     0.063 H 
BRANCH  17  26
ATOM     26  C   UNL A   1      29.239  28.294  23.161  1.00  0.00     0.001 A 
ATOM     27  C   UNL A   1      28.859  30.708  23.160  1.00  0.00    -0.007 A 
ATOM     28  C   UNL A   1      27.494  30.439  23.186  1.00  0.00     0.034 A 
ATOM     29  C   UNL A   1      29.731  29.611  23.152  1.00  0.00    -0.044 A 
ATOM     30  N   UNL A   1      26.965  29.197  23.195  1.00  0.00    -0.263 NA
ATOM     31  H   UNL A   1      26.844  31.239  23.199  1.00  0.00     0.085 H 
ATOM     32  H   UNL A   1      30.750  29.773  23.138  1.00  0.00     0.064 H 
ATOM     33  C   UNL A   1      27.846  28.169  23.190  1.00  0.00     0.035 A 
ATOM     34  H   UNL A   1      27.459  27.212  23.209  1.00  0.00     0.085 H 
BRANCH  27  35
ATOM     35  C   UNL A   1      29.323  32.098  23.204  1.00  0.00    -0.061 C 
ATOM     36  C   UNL A   1      28.542  33.159  22.969  1.00  0.00    -0.098 C 
ATOM     37  H   UNL A   1      28.936  34.111  23.018  1.00  0.00     0.054 H 
ATOM     38  H   UNL A   1      27.545  33.025  22.741  1.00  0.00     0.054 H 
ATOM     39  H   UNL A   1      30.315  32.269  23.430  1.00  0.00     0.062 H 
ENDBRANCH  27  35
ENDBRANCH  17  26
ENDBRANCH  14  16
BRANCH  14  40
ATOM     40  C   UNL A   1      32.791  22.769  21.835  1.00  0.00    -0.049 C 
ATOM     41  H   UNL A   1      33.004  23.388  20.989  1.00  0.00     0.024 H 
ATOM     42  H   UNL A   1      31.833  22.308  21.708  1.00  0.00     0.024 H 
ATOM     43  H   UNL A   1      33.542  22.012  21.921  1.00  0.00     0.024 H 
ENDBRANCH  14  40
ENDBRANCH  11  14
ENDBRANCH   7  10
ENDBRANCH   4   7
ENDBRANCH   1   4
BRANCH   1  44
ATOM     44  C   UNL A   1      31.783  28.085  27.226  1.00  0.00    -0.052 C 
ATOM     45  H   UNL A   1      32.676  28.237  27.794  1.00  0.00     0.027 H 
ATOM     46  H   UNL A   1      30.893  28.053  27.821  1.00  0.00     0.027 H 
BRANCH  44  47
ATOM     47  C   UNL A   1      31.613  29.280  26.282  1.00  0.00    -0.036 C 
ATOM     48  H   UNL A   1      30.894  29.945  26.713  1.00  0.00     0.028 H 
ATOM     49  H   UNL A   1      31.303  28.877  25.340  1.00  0.00     0.028 H 
BRANCH  47  50
ATOM     50  C   UNL A   1      32.892  30.070  26.013  1.00  0.00     0.018 C 
ATOM     51  H   UNL A   1      33.092  30.057  24.962  1.00  0.00     0.049 H 
ATOM     52  H   UNL A   1      33.687  29.611  26.563  1.00  0.00     0.049 H 
BRANCH  50  53
ATOM     53  N   UNL A   1      32.779  31.453  26.453  1.00  0.00    -0.352 N 
ATOM     54  C   UNL A   1      33.499  32.138  27.401  1.00  0.00     0.251 C 
ATOM     55  H   UNL A   1      32.080  31.978  26.000  1.00  0.00     0.163 HD
ATOM     56  O   UNL A   1      33.110  33.231  27.800  1.00  0.00    -0.269 OA
BRANCH  54  57
ATOM     57  C   UNL A   1      34.735  31.552  27.960  1.00  0.00     0.039 A 
ATOM     58  C   UNL A   1      35.869  32.360  28.088  1.00  0.00    -0.049 A 
ATOM     59  C   UNL A   1      34.782  30.209  28.343  1.00  0.00    -0.049 A 
ATOM     60  C   UNL A   1      37.025  31.843  28.678  1.00  0.00    -0.053 A 
ATOM     61  H   UNL A   1      35.852  33.334  27.746  1.00  0.00     0.063 H 
ATOM     62  C   UNL A   1      35.914  29.712  28.986  1.00  0.00    -0.053 A 
ATOM     63  H   UNL A   1      33.981  29.588  28.152  1.00  0.00     0.063 H 
ATOM     64  C   UNL A   1      37.040  30.529  29.174  1.00  0.00    -0.014 A 
ATOM     65  H   UNL A   1      37.871  32.430  28.750  1.00  0.00     0.063 H 
ATOM     66  H   UNL A   1      35.925  28.738  29.326  1.00  0.00     0.063 H 
BRANCH  64  67
ATOM     67  C   UNL A   1      38.198  30.013  29.945  1.00  0.00     0.031 A 
ATOM     68  C   UNL A   1      38.473  30.507  31.336  1.00  0.00     0.074 A 
ATOM     69  C   UNL A   1      39.050  29.157  29.350  1.00  0.00     0.049 A 
ATOM     70  N   UNL A   1      39.484  30.237  32.123  1.00  0.00    -0.248 NA
ATOM     71  C   UNL A   1      37.498  31.446  31.910  1.00  0.00    -0.034 C 
ATOM     72  C   UNL A   1      38.913  28.641  27.987  1.00  0.00    -0.036 A 
ATOM     73  N   UNL A   1      40.211  28.584  29.806  1.00  0.00    -0.354 N 
ATOM     74  C   UNL A   1      39.271  30.977  33.279  1.00  0.00     0.074 A 
ATOM     75  C   UNL A   1      38.059  31.741  33.074  1.00  0.00    -0.034 C 
ATOM     76  H   UNL A   1      36.609  31.786  31.510  1.00  0.00     0.065 H 
ATOM     77  C   UNL A   1      39.941  27.820  27.722  1.00  0.00    -0.036 A 
ATOM     78  H   UNL A   1      38.148  28.871  27.335  1.00  0.00     0.065 H 
ATOM     79  C   UNL A   1      40.831  27.785  28.878  1.00  0.00     0.049 A 
ATOM     80  H   UNL A   1      40.566  28.733  30.713  1.00  0.00     0.167 HD
ATOM     81  C   UNL A   1      40.012  30.999  34.413  1.00  0.00     0.037 A 
ATOM     82  H   UNL A   1      37.681  32.426  33.747  1.00  0.00     0.065 H 
ATOM     83  H   UNL A   1      40.080  27.297  26.843  1.00  0.00     0.065 H 
ATOM     84  C   UNL A   1      41.996  27.112  28.942  1.00  0.00     0.037 A 
ATOM     85  C   UNL A   1      41.210  30.226  34.616  1.00  0.00     0.049 A 
ATOM     86  C   UNL A   1      42.812  27.177  30.204  1.00  0.00     0.074 A 
ATOM     87  C   UNL A   1      41.990  30.126  35.756  1.00  0.00    -0.036 A 
ATOM     88  N   UNL A   1      41.807  29.427  33.654  1.00  0.00    -0.354 N 
ATOM     89  N   UNL A   1      42.561  27.820  31.318  1.00  0.00    -0.248 NA
ATOM     90  C   UNL A   1      44.074  26.424  30.216  1.00  0.00    -0.034 C 
ATOM     91  C   UNL A   1      43.086  29.309  35.467  1.00  0.00    -0.036 A 
ATOM     92  H   UNL A   1      41.795  30.578  36.664  1.00  0.00     0.065 H 
ATOM     93  C   UNL A   1      42.965  28.858  34.162  1.00  0.00     0.049 A 
ATOM     94  H   UNL A   1      41.462  29.284  32.743  1.00  0.00     0.167 HD
ATOM     95  C   UNL A   1      43.621  27.537  32.168  1.00  0.00     0.074 A 
ATOM     96  C   UNL A   1      44.507  26.646  31.448  1.00  0.00    -0.034 C 
ATOM     97  H   UNL A   1      44.508  25.869  29.462  1.00  0.00     0.065 H 
ATOM     98  H   UNL A   1      43.856  29.079  36.115  1.00  0.00     0.065 H 
ATOM     99  C   UNL A   1      43.842  27.980  33.431  1.00  0.00     0.037 A 
ATOM    100  H   UNL A   1      45.367  26.236  31.845  1.00  0.00     0.065 H 
BRANCH  81 101
ATOM    101  C   UNL A   1      39.549  31.891  35.529  1.00  0.00     0.064 A 
ATOM    102  C   UNL A   1      39.995  33.217  35.643  1.00  0.00     0.173 A 
ATOM    103  C   UNL A   1      38.608  31.433  36.464  1.00  0.00     0.173 A 
ATOM    104  F   UNL A   1      40.899  33.701  34.778  1.00  0.00    -0.203 F 
ATOM    105  C   UNL A   1      39.536  34.042  36.666  1.00  0.00     0.198 A 
ATOM    106  C   UNL A   1      38.131  32.269  37.470  1.00  0.00     0.198 A 
ATOM    107  F   UNL A   1      38.144  30.176  36.396  1.00  0.00    -0.203 F 
ATOM    108  F   UNL A   1      40.007  35.291  36.779  1.00  0.00    -0.200 F 
ATOM    109  C   UNL A   1      38.599  33.570  37.574  1.00  0.00     0.200 A 
ATOM    110  F   UNL A   1      37.215  31.816  38.337  1.00  0.00    -0.200 F 
ATOM    111  F   UNL A   1      38.150  34.369  38.551  1.00  0.00    -0.200 F 
ENDBRANCH  81 101
BRANCH  84 112
ATOM    112  C   UNL A   1      42.457  26.313  27.778  1.00  0.00     0.064 A 
ATOM    113  C   UNL A   1      43.357  26.850  26.847  1.00  0.00     0.173 A 
ATOM    114  C   UNL A   1      42.010  24.999  27.571  1.00  0.00     0.173 A 
ATOM    115  F   UNL A   1      43.795  28.109  26.992  1.00  0.00    -0.203 F 
ATOM    116  C   UNL A   1      43.778  26.112  25.743  1.00  0.00     0.198 A 
ATOM    117  C   UNL A   1      42.454  24.251  26.483  1.00  0.00     0.198 A 
ATOM    118  F   UNL A   1      41.153  24.437  28.435  1.00  0.00    -0.203 F 
ATOM    119  F   UNL A   1      44.604  26.665  24.845  1.00  0.00    -0.200 F 
ATOM    120  C   UNL A   1      43.331  24.811  25.565  1.00  0.00     0.200 A 
ATOM    121  F   UNL A   1      42.032  22.989  26.322  1.00  0.00    -0.200 F 
ATOM    122  F   UNL A   1      43.741  24.099  24.507  1.00  0.00    -0.200 F 
ENDBRANCH  84 112
BRANCH  99 123
ATOM    123  C   UNL A   1      45.087  27.498  34.115  1.00  0.00     0.064 A 
ATOM    124  C   UNL A   1      46.284  28.227  34.058  1.00  0.00     0.173 A 
ATOM    125  C   UNL A   1      45.076  26.312  34.865  1.00  0.00     0.173 A 
ATOM    126  F   UNL A   1      46.351  29.358  33.338  1.00  0.00    -0.203 F 
ATOM    127  C   UNL A   1      47.430  27.774  34.706  1.00  0.00     0.198 A 
ATOM    128  C   UNL A   1      46.215  25.878  35.536  1.00  0.00     0.198 A 
ATOM    129  F   UNL A   1      43.956  25.579  34.956  1.00  0.00    -0.203 F 
ATOM    130  F   UNL A   1      48.575  28.462  34.596  1.00  0.00    -0.200 F 
ATOM    131  C   UNL A   1      47.393  26.605  35.451  1.00  0.00     0.200 A 
ATOM    132  F   UNL A   1      46.175  24.753  36.265  1.00  0.00    -0.200 F 
ATOM    133  F   UNL A   1      48.496  26.173  36.079  1.00  0.00    -0.200 F 
ENDBRANCH  99 123
ENDBRANCH  64  67
ENDBRANCH  54  57
ENDBRANCH  50  53
ENDBRANCH  47  50
ENDBRANCH  44  47
ENDBRANCH   1  44
TORSDOF 17
ENDMDL
MODEL 8
REMARK VINA RESULT:     -11.8      4.518     10.086
REMARK SMILES C=Cc1cncc(-c2ccc([C@@H](C)C(=O)NCCCCCCNC(=O)c3ccc(-c4c5nc(c(-c6c(F)c(F)c(F)c(F)c6F)c6ccc([nH]6)c(-c6c(F)c(F)c(F)c(F)c6F)c6nc(c(-c7c(F)c(F)c(F)c(F)c7F)c7ccc4[nH]7)C=C6)C=C5)cc3)cc2)c1
REMARK SMILES IDX 19 1 18 4 17 7 16 10 14 11 15 12 12 14 11 16 8 17 9 18 90 19
REMARK SMILES IDX 10 20 89 22 7 26 3 27 4 28 91 29 5 30 6 33 2 35 1 36 13 40
REMARK SMILES IDX 20 44 21 47 22 50 23 53 24 54 25 56 26 57 27 58 88 59 28 60
REMARK SMILES IDX 87 62 29 64 30 67 31 68 81 69 32 70 86 71 80 72 82 73 33 74
REMARK SMILES IDX 85 75 79 77 78 79 34 81 66 84 46 85 65 86 47 87 50 88 64 89
REMARK SMILES IDX 83 90 48 91 49 93 63 95 84 96 51 99 35 101 36 102 44 103
REMARK SMILES IDX 37 104 38 105 42 106 45 107 39 108 40 109 43 110 41 111
REMARK SMILES IDX 67 112 68 113 76 114 69 115 70 116 74 117 77 118 71 119
REMARK SMILES IDX 72 120 75 121 73 122 52 123 53 124 61 125 54 126 55 127
REMARK SMILES IDX 59 128 62 129 56 130 57 131 60 132 58 133
REMARK H PARENT 19 2 19 3 18 5 18 6 17 8 17 9 16 13 12 15 9 21 90 23 10 24
REMARK H PARENT 89 25 4 31 91 32 6 34 1 37 1 38 2 39 13 41 13 42 13 43 20 45
REMARK H PARENT 20 46 21 48 21 49 22 51 22 52 23 55 27 61 88 63 28 65 87 66
REMARK H PARENT 86 76 80 78 82 80 85 82 79 83 47 92 50 94 83 97 48 98 84 100
REMARK Flexibility Score: inf
ROOT
ATOM      1  C   UNL A   1      35.017  24.409  24.009  1.00  0.00    -0.052 C 
ATOM      2  H   UNL A   1      35.946  24.919  23.858  1.00  0.00     0.027 H 
ATOM      3  H   UNL A   1      34.208  24.822  23.445  1.00  0.00     0.027 H 
ENDROOT
BRANCH   1   4
ATOM      4  C   UNL A   1      34.629  24.559  25.484  1.00  0.00    -0.036 C 
ATOM      5  H   UNL A   1      34.104  23.676  25.785  1.00  0.00     0.028 H 
ATOM      6  H   UNL A   1      35.538  24.701  26.031  1.00  0.00     0.028 H 
BRANCH   4   7
ATOM      7  C   UNL A   1      33.741  25.771  25.772  1.00  0.00     0.017 C 
ATOM      8  H   UNL A   1      32.985  25.488  26.474  1.00  0.00     0.049 H 
ATOM      9  H   UNL A   1      34.359  26.550  26.167  1.00  0.00     0.049 H 
BRANCH   7  10
ATOM     10  N   UNL A   1      33.104  26.265  24.570  1.00  0.00    -0.356 N 
ATOM     11  C   UNL A   1      31.951  25.906  23.944  1.00  0.00     0.227 C 
ATOM     12  O   UNL A   1      31.723  26.453  22.858  1.00  0.00    -0.274 OA
ATOM     13  H   UNL A   1      33.595  26.993  24.124  1.00  0.00     0.163 HD
BRANCH  11  14
ATOM     14  C   UNL A   1      30.942  24.901  24.519  1.00  0.00     0.060 C 
ATOM     15  H   UNL A   1      30.077  24.977  23.893  1.00  0.00     0.045 H 
BRANCH  14  16
ATOM     16  C   UNL A   1      31.357  23.446  24.351  1.00  0.00    -0.036 A 
ATOM     17  C   UNL A   1      32.215  20.745  23.950  1.00  0.00    -0.017 A 
ATOM     18  C   UNL A   1      31.994  21.267  25.233  1.00  0.00    -0.054 A 
ATOM     19  C   UNL A   1      31.981  21.605  22.866  1.00  0.00    -0.054 A 
ATOM     20  C   UNL A   1      31.544  22.579  25.429  1.00  0.00    -0.058 A 
ATOM     21  H   UNL A   1      32.170  20.670  26.056  1.00  0.00     0.063 H 
ATOM     22  C   UNL A   1      31.578  22.935  23.064  1.00  0.00    -0.058 A 
ATOM     23  H   UNL A   1      32.110  21.253  21.905  1.00  0.00     0.063 H 
ATOM     24  H   UNL A   1      31.346  22.909  26.386  1.00  0.00     0.063 H 
ATOM     25  H   UNL A   1      31.441  23.548  22.245  1.00  0.00     0.063 H 
BRANCH  17  26
ATOM     26  C   UNL A   1      32.660  19.346  23.766  1.00  0.00     0.001 A 
ATOM     27  C   UNL A   1      33.672  17.276  24.578  1.00  0.00    -0.007 A 
ATOM     28  C   UNL A   1      33.436  16.730  23.320  1.00  0.00     0.034 A 
ATOM     29  C   UNL A   1      33.276  18.604  24.788  1.00  0.00    -0.044 A 
ATOM     30  N   UNL A   1      32.849  17.394  22.302  1.00  0.00    -0.263 NA
ATOM     31  H   UNL A   1      33.730  15.756  23.154  1.00  0.00     0.085 H 
ATOM     32  H   UNL A   1      33.440  19.043  25.708  1.00  0.00     0.064 H 
ATOM     33  C   UNL A   1      32.487  18.675  22.551  1.00  0.00     0.035 A 
ATOM     34  H   UNL A   1      32.048  19.202  21.779  1.00  0.00     0.085 H 
BRANCH  27  35
ATOM     35  C   UNL A   1      34.364  16.478  25.595  1.00  0.00    -0.061 C 
ATOM     36  C   UNL A   1      35.504  15.810  25.379  1.00  0.00    -0.098 C 
ATOM     37  H   UNL A   1      35.938  15.268  26.141  1.00  0.00     0.054 H 
ATOM     38  H   UNL A   1      35.950  15.840  24.449  1.00  0.00     0.054 H 
ATOM     39  H   UNL A   1      33.946  16.427  26.537  1.00  0.00     0.062 H 
ENDBRANCH  27  35
ENDBRANCH  17  26
ENDBRANCH  14  16
BRANCH  14  40
ATOM     40  C   UNL A   1      30.397  25.283  25.896  1.00  0.00    -0.049 C 
ATOM     41  H   UNL A   1      31.154  25.800  26.448  1.00  0.00     0.024 H 
ATOM     42  H   UNL A   1      30.112  24.398  26.426  1.00  0.00     0.024 H 
ATOM     43  H   UNL A   1      29.545  25.918  25.779  1.00  0.00     0.024 H 
ENDBRANCH  14  40
ENDBRANCH  11  14
ENDBRANCH   7  10
ENDBRANCH   4   7
ENDBRANCH   1   4
BRANCH   1  44
ATOM     44  C   UNL A   1      35.183  22.962  23.523  1.00  0.00    -0.052 C 
ATOM     45  H   UNL A   1      35.744  22.983  22.613  1.00  0.00     0.027 H 
ATOM     46  H   UNL A   1      34.190  22.576  23.410  1.00  0.00     0.027 H 
BRANCH  44  47
ATOM     47  C   UNL A   1      35.893  22.016  24.496  1.00  0.00    -0.036 C 
ATOM     48  H   UNL A   1      35.729  21.012  24.164  1.00  0.00     0.028 H 
ATOM     49  H   UNL A   1      35.478  22.213  25.463  1.00  0.00     0.028 H 
BRANCH  47  50
ATOM     50  C   UNL A   1      37.399  22.236  24.620  1.00  0.00     0.018 C 
ATOM     51  H   UNL A   1      37.573  23.147  25.152  1.00  0.00     0.049 H 
ATOM     52  H   UNL A   1      37.809  22.281  23.632  1.00  0.00     0.049 H 
BRANCH  50  53
ATOM     53  N   UNL A   1      38.052  21.144  25.328  1.00  0.00    -0.352 N 
ATOM     54  C   UNL A   1      39.144  21.160  26.159  1.00  0.00     0.251 C 
ATOM     55  H   UNL A   1      37.646  20.257  25.190  1.00  0.00     0.163 HD
ATOM     56  O   UNL A   1      39.691  20.110  26.480  1.00  0.00    -0.269 OA
BRANCH  54  57
ATOM     57  C   UNL A   1      39.679  22.446  26.656  1.00  0.00     0.039 A 
ATOM     58  C   UNL A   1      40.683  22.430  27.628  1.00  0.00    -0.049 A 
ATOM     59  C   UNL A   1      39.184  23.661  26.175  1.00  0.00    -0.049 A 
ATOM     60  C   UNL A   1      41.249  23.633  28.058  1.00  0.00    -0.053 A 
ATOM     61  H   UNL A   1      41.004  21.534  28.027  1.00  0.00     0.063 H 
ATOM     62  C   UNL A   1      39.789  24.855  26.560  1.00  0.00    -0.053 A 
ATOM     63  H   UNL A   1      38.373  23.674  25.538  1.00  0.00     0.063 H 
ATOM     64  C   UNL A   1      40.838  24.851  27.492  1.00  0.00    -0.014 A 
ATOM     65  H   UNL A   1      41.972  23.626  28.794  1.00  0.00     0.063 H 
ATOM     66  H   UNL A   1      39.465  25.748  26.157  1.00  0.00     0.063 H 
BRANCH  64  67
ATOM     67  C   UNL A   1      41.534  26.121  27.816  1.00  0.00     0.031 A 
ATOM     68  C   UNL A   1      40.813  27.231  28.525  1.00  0.00     0.074 A 
ATOM     69  C   UNL A   1      42.798  26.301  27.387  1.00  0.00     0.049 A 
ATOM     70  N   UNL A   1      41.231  28.439  28.810  1.00  0.00    -0.248 NA
ATOM     71  C   UNL A   1      39.433  26.956  28.952  1.00  0.00    -0.034 C 
ATOM     72  C   UNL A   1      43.587  25.314  26.648  1.00  0.00    -0.036 A 
ATOM     73  N   UNL A   1      43.637  27.383  27.495  1.00  0.00    -0.354 N 
ATOM     74  C   UNL A   1      40.167  29.069  29.440  1.00  0.00     0.074 A 
ATOM     75  C   UNL A   1      39.068  28.126  29.458  1.00  0.00    -0.034 C 
ATOM     76  H   UNL A   1      38.891  26.081  28.878  1.00  0.00     0.065 H 
ATOM     77  C   UNL A   1      44.797  25.830  26.379  1.00  0.00    -0.036 A 
ATOM     78  H   UNL A   1      43.264  24.373  26.378  1.00  0.00     0.065 H 
ATOM     79  C   UNL A   1      44.855  27.196  26.888  1.00  0.00     0.049 A 
ATOM     80  H   UNL A   1      43.389  28.213  27.962  1.00  0.00     0.167 HD
ATOM     81  C   UNL A   1      40.120  30.314  29.971  1.00  0.00     0.037 A 
ATOM     82  H   UNL A   1      38.124  28.337  29.816  1.00  0.00     0.065 H 
ATOM     83  H   UNL A   1      45.562  25.339  25.892  1.00  0.00     0.065 H 
ATOM     84  C   UNL A   1      45.896  28.037  26.742  1.00  0.00     0.037 A 
ATOM     85  C   UNL A   1      41.220  31.243  29.963  1.00  0.00     0.049 A 
ATOM     86  C   UNL A   1      45.805  29.424  27.317  1.00  0.00     0.074 A 
ATOM     87  C   UNL A   1      41.293  32.500  30.539  1.00  0.00    -0.036 A 
ATOM     88  N   UNL A   1      42.439  31.019  29.340  1.00  0.00    -0.354 N 
ATOM     89  N   UNL A   1      44.820  29.982  27.977  1.00  0.00    -0.248 NA
ATOM     90  C   UNL A   1      46.972  30.297  27.125  1.00  0.00    -0.034 C 
ATOM     91  C   UNL A   1      42.535  33.057  30.220  1.00  0.00    -0.036 A 
ATOM     92  H   UNL A   1      40.557  32.949  31.106  1.00  0.00     0.065 H 
ATOM     93  C   UNL A   1      43.257  32.128  29.487  1.00  0.00     0.049 A 
ATOM     94  H   UNL A   1      42.686  30.195  28.862  1.00  0.00     0.167 HD
ATOM     95  C   UNL A   1      45.252  31.263  28.294  1.00  0.00     0.074 A 
ATOM     96  C   UNL A   1      46.597  31.391  27.773  1.00  0.00    -0.034 C 
ATOM     97  H   UNL A   1      47.851  30.109  26.619  1.00  0.00     0.065 H 
ATOM     98  H   UNL A   1      42.860  34.000  30.484  1.00  0.00     0.065 H 
ATOM     99  C   UNL A   1      44.591  32.245  28.955  1.00  0.00     0.037 A 
ATOM    100  H   UNL A   1      47.189  32.229  27.891  1.00  0.00     0.065 H 
BRANCH  81 101
ATOM    101  C   UNL A   1      38.833  30.750  30.609  1.00  0.00     0.064 A 
ATOM    102  C   UNL A   1      37.765  31.247  29.844  1.00  0.00     0.173 A 
ATOM    103  C   UNL A   1      38.643  30.621  31.993  1.00  0.00     0.173 A 
ATOM    104  F   UNL A   1      37.897  31.396  28.518  1.00  0.00    -0.203 F 
ATOM    105  C   UNL A   1      36.566  31.621  30.446  1.00  0.00     0.198 A 
ATOM    106  C   UNL A   1      37.433  30.971  32.587  1.00  0.00     0.198 A 
ATOM    107  F   UNL A   1      39.629  30.145  32.769  1.00  0.00    -0.203 F 
ATOM    108  F   UNL A   1      35.576  32.131  29.701  1.00  0.00    -0.200 F 
ATOM    109  C   UNL A   1      36.399  31.476  31.815  1.00  0.00     0.200 A 
ATOM    110  F   UNL A   1      37.268  30.816  33.909  1.00  0.00    -0.200 F 
ATOM    111  F   UNL A   1      35.240  31.826  32.390  1.00  0.00    -0.200 F 
ENDBRANCH  81 101
BRANCH  84 112
ATOM    112  C   UNL A   1      47.117  27.589  26.024  1.00  0.00     0.064 A 
ATOM    113  C   UNL A   1      47.214  27.700  24.630  1.00  0.00     0.173 A 
ATOM    114  C   UNL A   1      48.209  27.042  26.713  1.00  0.00     0.173 A 
ATOM    115  F   UNL A   1      46.187  28.198  23.926  1.00  0.00    -0.203 F 
ATOM    116  C   UNL A   1      48.349  27.264  23.950  1.00  0.00     0.198 A 
ATOM    117  C   UNL A   1      49.356  26.633  26.036  1.00  0.00     0.198 A 
ATOM    118  F   UNL A   1      48.169  26.919  28.048  1.00  0.00    -0.203 F 
ATOM    119  F   UNL A   1      48.398  27.342  22.614  1.00  0.00    -0.200 F 
ATOM    120  C   UNL A   1      49.421  26.737  24.654  1.00  0.00     0.200 A 
ATOM    121  F   UNL A   1      50.396  26.138  26.720  1.00  0.00    -0.200 F 
ATOM    122  F   UNL A   1      50.516  26.323  24.000  1.00  0.00    -0.200 F 
ENDBRANCH  84 112
BRANCH  99 123
ATOM    123  C   UNL A   1      45.318  33.542  29.157  1.00  0.00     0.064 A 
ATOM    124  C   UNL A   1      45.203  34.597  28.241  1.00  0.00     0.173 A 
ATOM    125  C   UNL A   1      46.113  33.744  30.295  1.00  0.00     0.173 A 
ATOM    126  F   UNL A   1      44.469  34.448  27.127  1.00  0.00    -0.203 F 
ATOM    127  C   UNL A   1      45.875  35.799  28.446  1.00  0.00     0.198 A 
ATOM    128  C   UNL A   1      46.760  34.957  30.512  1.00  0.00     0.198 A 
ATOM    129  F   UNL A   1      46.254  32.767  31.204  1.00  0.00    -0.203 F 
ATOM    130  F   UNL A   1      45.789  36.777  27.533  1.00  0.00    -0.200 F 
ATOM    131  C   UNL A   1      46.646  35.981  29.584  1.00  0.00     0.200 A 
ATOM    132  F   UNL A   1      47.497  35.135  31.618  1.00  0.00    -0.200 F 
ATOM    133  F   UNL A   1      47.289  37.141  29.782  1.00  0.00    -0.200 F 
ENDBRANCH  99 123
ENDBRANCH  64  67
ENDBRANCH  54  57
ENDBRANCH  50  53
ENDBRANCH  47  50
ENDBRANCH  44  47
ENDBRANCH   1  44
TORSDOF 17
ENDMDL
MODEL 9
REMARK VINA RESULT:     -11.7      4.535     10.143
REMARK SMILES C=Cc1cncc(-c2ccc([C@@H](C)C(=O)NCCCCCCNC(=O)c3ccc(-c4c5nc(c(-c6c(F)c(F)c(F)c(F)c6F)c6ccc([nH]6)c(-c6c(F)c(F)c(F)c(F)c6F)c6nc(c(-c7c(F)c(F)c(F)c(F)c7F)c7ccc4[nH]7)C=C6)C=C5)cc3)cc2)c1
REMARK SMILES IDX 19 1 18 4 17 7 16 10 14 11 15 12 12 14 11 16 8 17 9 18 90 19
REMARK SMILES IDX 10 20 89 22 7 26 3 27 4 28 91 29 5 30 6 33 2 35 1 36 13 40
REMARK SMILES IDX 20 44 21 47 22 50 23 53 24 54 25 56 26 57 27 58 88 59 28 60
REMARK SMILES IDX 87 62 29 64 30 67 31 68 81 69 32 70 86 71 80 72 82 73 33 74
REMARK SMILES IDX 85 75 79 77 78 79 34 81 66 84 46 85 65 86 47 87 50 88 64 89
REMARK SMILES IDX 83 90 48 91 49 93 63 95 84 96 51 99 35 101 36 102 44 103
REMARK SMILES IDX 37 104 38 105 42 106 45 107 39 108 40 109 43 110 41 111
REMARK SMILES IDX 67 112 68 113 76 114 69 115 70 116 74 117 77 118 71 119
REMARK SMILES IDX 72 120 75 121 73 122 52 123 53 124 61 125 54 126 55 127
REMARK SMILES IDX 59 128 62 129 56 130 57 131 60 132 58 133
REMARK H PARENT 19 2 19 3 18 5 18 6 17 8 17 9 16 13 12 15 9 21 90 23 10 24
REMARK H PARENT 89 25 4 31 91 32 6 34 1 37 1 38 2 39 13 41 13 42 13 43 20 45
REMARK H PARENT 20 46 21 48 21 49 22 51 22 52 23 55 27 61 88 63 28 65 87 66
REMARK H PARENT 86 76 80 78 82 80 85 82 79 83 47 92 50 94 83 97 48 98 84 100
REMARK Flexibility Score: inf
ROOT
ATOM      1  C   UNL A   1      35.006  23.575  24.560  1.00  0.00    -0.052 C 
ATOM      2  H   UNL A   1      34.196  23.692  23.869  1.00  0.00     0.027 H 
ATOM      3  H   UNL A   1      34.869  22.764  25.243  1.00  0.00     0.027 H 
ENDROOT
BRANCH   1   4
ATOM      4  C   UNL A   1      35.087  24.845  25.413  1.00  0.00    -0.036 C 
ATOM      5  H   UNL A   1      34.887  24.580  26.431  1.00  0.00     0.028 H 
ATOM      6  H   UNL A   1      36.070  25.247  25.280  1.00  0.00     0.028 H 
BRANCH   4   7
ATOM      7  C   UNL A   1      34.099  25.936  24.996  1.00  0.00     0.017 C 
ATOM      8  H   UNL A   1      34.628  26.861  24.888  1.00  0.00     0.049 H 
ATOM      9  H   UNL A   1      33.648  25.642  24.071  1.00  0.00     0.049 H 
BRANCH   7  10
ATOM     10  N   UNL A   1      33.048  26.110  25.976  1.00  0.00    -0.356 N 
ATOM     11  C   UNL A   1      31.705  25.900  25.910  1.00  0.00     0.227 C 
ATOM     12  O   UNL A   1      31.047  26.246  26.898  1.00  0.00    -0.274 OA
ATOM     13  H   UNL A   1      33.362  26.442  26.848  1.00  0.00     0.163 HD
BRANCH  11  14
ATOM     14  C   UNL A   1      30.999  25.252  24.710  1.00  0.00     0.060 C 
ATOM     15  H   UNL A   1      31.378  25.763  23.849  1.00  0.00     0.045 H 
BRANCH  14  16
ATOM     16  C   UNL A   1      31.410  23.808  24.458  1.00  0.00    -0.036 A 
ATOM     17  C   UNL A   1      32.270  21.134  23.909  1.00  0.00    -0.017 A 
ATOM     18  C   UNL A   1      31.953  21.556  25.209  1.00  0.00    -0.054 A 
ATOM     19  C   UNL A   1      32.133  22.082  22.883  1.00  0.00    -0.054 A 
ATOM     20  C   UNL A   1      31.501  22.855  25.473  1.00  0.00    -0.058 A 
ATOM     21  H   UNL A   1      32.055  20.892  25.992  1.00  0.00     0.063 H 
ATOM     22  C   UNL A   1      31.729  23.398  23.155  1.00  0.00    -0.058 A 
ATOM     23  H   UNL A   1      32.335  21.806  21.910  1.00  0.00     0.063 H 
ATOM     24  H   UNL A   1      31.231  23.111  26.435  1.00  0.00     0.063 H 
ATOM     25  H   UNL A   1      31.665  24.077  22.380  1.00  0.00     0.063 H 
BRANCH  17  26
ATOM     26  C   UNL A   1      32.714  19.747  23.649  1.00  0.00     0.001 A 
ATOM     27  C   UNL A   1      34.096  17.793  24.138  1.00  0.00    -0.007 A 
ATOM     28  C   UNL A   1      33.455  17.143  23.088  1.00  0.00     0.034 A 
ATOM     29  C   UNL A   1      33.712  19.113  24.408  1.00  0.00    -0.044 A 
ATOM     30  N   UNL A   1      32.489  17.700  22.326  1.00  0.00    -0.263 NA
ATOM     31  H   UNL A   1      33.735  16.173  22.878  1.00  0.00     0.085 H 
ATOM     32  H   UNL A   1      34.170  19.628  25.177  1.00  0.00     0.064 H 
ATOM     33  C   UNL A   1      32.155  18.979  22.622  1.00  0.00     0.035 A 
ATOM     34  H   UNL A   1      31.428  19.425  22.041  1.00  0.00     0.085 H 
BRANCH  27  35
ATOM     35  C   UNL A   1      35.167  17.106  24.867  1.00  0.00    -0.061 C 
ATOM     36  C   UNL A   1      35.104  15.833  25.275  1.00  0.00    -0.098 C 
ATOM     37  H   UNL A   1      35.897  15.414  25.784  1.00  0.00     0.054 H 
ATOM     38  H   UNL A   1      34.261  15.271  25.079  1.00  0.00     0.054 H 
ATOM     39  H   UNL A   1      36.025  17.640  25.080  1.00  0.00     0.062 H 
ENDBRANCH  27  35
ENDBRANCH  17  26
ENDBRANCH  14  16
BRANCH  14  40
ATOM     40  C   UNL A   1      29.499  25.539  24.640  1.00  0.00    -0.049 C 
ATOM     41  H   UNL A   1      29.062  24.963  23.850  1.00  0.00     0.024 H 
ATOM     42  H   UNL A   1      29.343  26.581  24.449  1.00  0.00     0.024 H 
ATOM     43  H   UNL A   1      29.041  25.274  25.569  1.00  0.00     0.024 H 
ENDBRANCH  14  40
ENDBRANCH  11  14
ENDBRANCH   7  10
ENDBRANCH   4   7
ENDBRANCH   1   4
BRANCH   1  44
ATOM     44  C   UNL A   1      36.272  23.248  23.757  1.00  0.00    -0.052 C 
ATOM     45  H   UNL A   1      36.970  24.045  23.903  1.00  0.00     0.027 H 
ATOM     46  H   UNL A   1      35.954  23.134  22.741  1.00  0.00     0.027 H 
BRANCH  44  47
ATOM     47  C   UNL A   1      36.969  21.935  24.127  1.00  0.00    -0.036 C 
ATOM     48  H   UNL A   1      37.912  21.904  23.622  1.00  0.00     0.028 H 
ATOM     49  H   UNL A   1      36.306  21.149  23.830  1.00  0.00     0.028 H 
BRANCH  47  50
ATOM     50  C   UNL A   1      37.223  21.743  25.620  1.00  0.00     0.018 C 
ATOM     51  H   UNL A   1      36.313  21.435  26.089  1.00  0.00     0.049 H 
ATOM     52  H   UNL A   1      37.567  22.675  26.020  1.00  0.00     0.049 H 
BRANCH  50  53
ATOM     53  N   UNL A   1      38.247  20.740  25.874  1.00  0.00    -0.352 N 
ATOM     54  C   UNL A   1      39.556  20.893  26.260  1.00  0.00     0.251 C 
ATOM     55  H   UNL A   1      37.955  19.808  25.751  1.00  0.00     0.163 HD
ATOM     56  O   UNL A   1      40.331  19.945  26.201  1.00  0.00    -0.269 OA
BRANCH  54  57
ATOM     57  C   UNL A   1      40.041  22.207  26.731  1.00  0.00     0.039 A 
ATOM     58  C   UNL A   1      41.015  22.250  27.732  1.00  0.00    -0.049 A 
ATOM     59  C   UNL A   1      39.528  23.393  26.198  1.00  0.00    -0.049 A 
ATOM     60  C   UNL A   1      41.535  23.480  28.141  1.00  0.00    -0.053 A 
ATOM     61  H   UNL A   1      41.347  21.376  28.169  1.00  0.00     0.063 H 
ATOM     62  C   UNL A   1      40.090  24.615  26.562  1.00  0.00    -0.053 A 
ATOM     63  H   UNL A   1      38.737  23.364  25.537  1.00  0.00     0.063 H 
ATOM     64  C   UNL A   1      41.110  24.668  27.525  1.00  0.00    -0.014 A 
ATOM     65  H   UNL A   1      42.236  23.516  28.898  1.00  0.00     0.063 H 
ATOM     66  H   UNL A   1      39.754  25.486  26.122  1.00  0.00     0.063 H 
BRANCH  64  67
ATOM     67  C   UNL A   1      41.762  25.967  27.828  1.00  0.00     0.031 A 
ATOM     68  C   UNL A   1      41.011  27.052  28.544  1.00  0.00     0.074 A 
ATOM     69  C   UNL A   1      43.010  26.193  27.375  1.00  0.00     0.049 A 
ATOM     70  N   UNL A   1      41.388  28.277  28.814  1.00  0.00    -0.248 NA
ATOM     71  C   UNL A   1      39.651  26.727  28.998  1.00  0.00    -0.034 C 
ATOM     72  C   UNL A   1      43.823  25.233  26.627  1.00  0.00    -0.036 A 
ATOM     73  N   UNL A   1      43.808  27.306  27.461  1.00  0.00    -0.354 N 
ATOM     74  C   UNL A   1      40.311  28.869  29.461  1.00  0.00     0.074 A 
ATOM     75  C   UNL A   1      39.250  27.885  29.504  1.00  0.00    -0.034 C 
ATOM     76  H   UNL A   1      39.142  25.831  28.939  1.00  0.00     0.065 H 
ATOM     77  C   UNL A   1      45.006  25.793  26.332  1.00  0.00    -0.036 A 
ATOM     78  H   UNL A   1      43.532  24.277  26.368  1.00  0.00     0.065 H 
ATOM     79  C   UNL A   1      45.021  27.163  26.833  1.00  0.00     0.049 A 
ATOM     80  H   UNL A   1      43.536  28.130  27.928  1.00  0.00     0.167 HD
ATOM     81  C   UNL A   1      40.225  30.115  29.985  1.00  0.00     0.037 A 
ATOM     82  H   UNL A   1      38.306  28.062  29.879  1.00  0.00     0.065 H 
ATOM     83  H   UNL A   1      45.782  25.329  25.834  1.00  0.00     0.065 H 
ATOM     84  C   UNL A   1      46.026  28.043  26.663  1.00  0.00     0.037 A 
ATOM     85  C   UNL A   1      41.289  31.086  29.952  1.00  0.00     0.049 A 
ATOM     86  C   UNL A   1      45.892  29.429  27.231  1.00  0.00     0.074 A 
ATOM     87  C   UNL A   1      41.323  32.349  30.519  1.00  0.00    -0.036 A 
ATOM     88  N   UNL A   1      42.503  30.905  29.308  1.00  0.00    -0.354 N 
ATOM     89  N   UNL A   1      44.898  29.953  27.907  1.00  0.00    -0.248 NA
ATOM     90  C   UNL A   1      47.019  30.346  27.013  1.00  0.00    -0.034 C 
ATOM     91  C   UNL A   1      42.537  32.951  30.174  1.00  0.00    -0.036 A 
ATOM     92  H   UNL A   1      40.581  32.772  31.097  1.00  0.00     0.065 H 
ATOM     93  C   UNL A   1      43.280  32.047  29.433  1.00  0.00     0.049 A 
ATOM     94  H   UNL A   1      42.774  30.088  28.830  1.00  0.00     0.167 HD
ATOM     95  C   UNL A   1      45.285  31.251  28.208  1.00  0.00     0.074 A 
ATOM     96  C   UNL A   1      46.615  31.429  27.661  1.00  0.00    -0.034 C 
ATOM     97  H   UNL A   1      47.896  30.189  26.491  1.00  0.00     0.065 H 
ATOM     98  H   UNL A   1      42.829  33.908  30.427  1.00  0.00     0.065 H 
ATOM     99  C   UNL A   1      44.598  32.212  28.875  1.00  0.00     0.037 A 
ATOM    100  H   UNL A   1      47.175  32.289  27.763  1.00  0.00     0.065 H 
BRANCH  81 101
ATOM    101  C   UNL A   1      38.934  30.506  30.644  1.00  0.00     0.064 A 
ATOM    102  C   UNL A   1      38.764  30.422  32.035  1.00  0.00     0.173 A 
ATOM    103  C   UNL A   1      37.872  31.020  29.884  1.00  0.00     0.173 A 
ATOM    104  F   UNL A   1      39.746  29.931  32.806  1.00  0.00    -0.203 F 
ATOM    105  C   UNL A   1      37.571  30.815  32.636  1.00  0.00     0.198 A 
ATOM    106  C   UNL A   1      36.691  31.437  30.491  1.00  0.00     0.198 A 
ATOM    107  F   UNL A   1      37.985  31.128  28.551  1.00  0.00    -0.203 F 
ATOM    108  F   UNL A   1      37.417  30.687  33.961  1.00  0.00    -0.200 F 
ATOM    109  C   UNL A   1      36.538  31.329  31.865  1.00  0.00     0.200 A 
ATOM    110  F   UNL A   1      35.700  31.946  29.747  1.00  0.00    -0.200 F 
ATOM    111  F   UNL A   1      35.395  31.716  32.447  1.00  0.00    -0.200 F 
ENDBRANCH  81 101
BRANCH  84 112
ATOM    112  C   UNL A   1      47.249  27.638  25.925  1.00  0.00     0.064 A 
ATOM    113  C   UNL A   1      48.384  27.180  26.609  1.00  0.00     0.173 A 
ATOM    114  C   UNL A   1      47.311  27.698  24.524  1.00  0.00     0.173 A 
ATOM    115  F   UNL A   1      48.380  27.125  27.948  1.00  0.00    -0.203 F 
ATOM    116  C   UNL A   1      49.540  26.816  25.922  1.00  0.00     0.198 A 
ATOM    117  C   UNL A   1      48.458  27.306  23.837  1.00  0.00     0.198 A 
ATOM    118  F   UNL A   1      46.250  28.124  23.823  1.00  0.00    -0.203 F 
ATOM    119  F   UNL A   1      50.626  26.424  26.603  1.00  0.00    -0.200 F 
ATOM    120  C   UNL A   1      49.574  26.874  24.537  1.00  0.00     0.200 A 
ATOM    121  F   UNL A   1      48.481  27.349  22.498  1.00  0.00    -0.200 F 
ATOM    122  F   UNL A   1      50.685  26.518  23.876  1.00  0.00    -0.200 F 
ENDBRANCH  84 112
BRANCH  99 123
ATOM    123  C   UNL A   1      45.279  33.537  29.057  1.00  0.00     0.064 A 
ATOM    124  C   UNL A   1      46.121  33.784  30.150  1.00  0.00     0.173 A 
ATOM    125  C   UNL A   1      45.114  34.559  28.111  1.00  0.00     0.173 A 
ATOM    126  F   UNL A   1      46.298  32.844  31.093  1.00  0.00    -0.203 F 
ATOM    127  C   UNL A   1      46.755  35.014  30.302  1.00  0.00     0.198 A 
ATOM    128  C   UNL A   1      45.772  35.777  28.250  1.00  0.00     0.198 A 
ATOM    129  F   UNL A   1      44.321  34.373  27.044  1.00  0.00    -0.203 F 
ATOM    130  F   UNL A   1      47.517  35.244  31.380  1.00  0.00    -0.200 F 
ATOM    131  C   UNL A   1      46.587  36.007  29.348  1.00  0.00     0.200 A 
ATOM    132  F   UNL A   1      45.617  36.732  27.321  1.00  0.00    -0.200 F 
ATOM    133  F   UNL A   1      47.202  37.189  29.494  1.00  0.00    -0.200 F 
ENDBRANCH  99 123
ENDBRANCH  64  67
ENDBRANCH  54  57
ENDBRANCH  50  53
ENDBRANCH  47  50
ENDBRANCH  44  47
ENDBRANCH   1  44
TORSDOF 17
ENDMDL
MODEL 10
REMARK VINA RESULT:     -11.7      4.611      9.991
REMARK SMILES C=Cc1cncc(-c2ccc([C@@H](C)C(=O)NCCCCCCNC(=O)c3ccc(-c4c5nc(c(-c6c(F)c(F)c(F)c(F)c6F)c6ccc([nH]6)c(-c6c(F)c(F)c(F)c(F)c6F)c6nc(c(-c7c(F)c(F)c(F)c(F)c7F)c7ccc4[nH]7)C=C6)C=C5)cc3)cc2)c1
REMARK SMILES IDX 19 1 18 4 17 7 16 10 14 11 15 12 12 14 11 16 8 17 9 18 90 19
REMARK SMILES IDX 10 20 89 22 7 26 3 27 4 28 91 29 5 30 6 33 2 35 1 36 13 40
REMARK SMILES IDX 20 44 21 47 22 50 23 53 24 54 25 56 26 57 27 58 88 59 28 60
REMARK SMILES IDX 87 62 29 64 30 67 31 68 81 69 32 70 86 71 80 72 82 73 33 74
REMARK SMILES IDX 85 75 79 77 78 79 34 81 66 84 46 85 65 86 47 87 50 88 64 89
REMARK SMILES IDX 83 90 48 91 49 93 63 95 84 96 51 99 35 101 36 102 44 103
REMARK SMILES IDX 37 104 38 105 42 106 45 107 39 108 40 109 43 110 41 111
REMARK SMILES IDX 67 112 68 113 76 114 69 115 70 116 74 117 77 118 71 119
REMARK SMILES IDX 72 120 75 121 73 122 52 123 53 124 61 125 54 126 55 127
REMARK SMILES IDX 59 128 62 129 56 130 57 131 60 132 58 133
REMARK H PARENT 19 2 19 3 18 5 18 6 17 8 17 9 16 13 12 15 9 21 90 23 10 24
REMARK H PARENT 89 25 4 31 91 32 6 34 1 37 1 38 2 39 13 41 13 42 13 43 20 45
REMARK H PARENT 20 46 21 48 21 49 22 51 22 52 23 55 27 61 88 63 28 65 87 66
REMARK H PARENT 86 76 80 78 82 80 85 82 79 83 47 92 50 94 83 97 48 98 84 100
REMARK Flexibility Score: inf
ROOT
ATOM      1  C   UNL A   1      35.383  22.906  25.353  1.00  0.00    -0.052 C 
ATOM      2  H   UNL A   1      34.426  22.483  25.582  1.00  0.00     0.027 H 
ATOM      3  H   UNL A   1      36.045  22.940  26.191  1.00  0.00     0.027 H 
ENDROOT
BRANCH   1   4
ATOM      4  C   UNL A   1      35.166  24.359  24.919  1.00  0.00    -0.036 C 
ATOM      5  H   UNL A   1      36.096  24.882  25.014  1.00  0.00     0.028 H 
ATOM      6  H   UNL A   1      34.812  24.334  23.909  1.00  0.00     0.028 H 
BRANCH   4   7
ATOM      7  C   UNL A   1      34.110  25.101  25.742  1.00  0.00     0.017 C 
ATOM      8  H   UNL A   1      33.400  24.392  26.116  1.00  0.00     0.049 H 
ATOM      9  H   UNL A   1      34.606  25.605  26.544  1.00  0.00     0.049 H 
BRANCH   7  10
ATOM     10  N   UNL A   1      33.411  26.090  24.950  1.00  0.00    -0.356 N 
ATOM     11  C   UNL A   1      32.163  26.099  24.409  1.00  0.00     0.227 C 
ATOM     12  O   UNL A   1      31.887  27.062  23.683  1.00  0.00    -0.274 OA
ATOM     13  H   UNL A   1      33.935  26.903  24.768  1.00  0.00     0.163 HD
BRANCH  11  14
ATOM     14  C   UNL A   1      31.109  25.013  24.671  1.00  0.00     0.060 C 
ATOM     15  H   UNL A   1      30.368  25.149  23.911  1.00  0.00     0.045 H 
BRANCH  14  16
ATOM     16  C   UNL A   1      31.605  23.597  24.415  1.00  0.00    -0.036 A 
ATOM     17  C   UNL A   1      32.442  20.893  23.993  1.00  0.00    -0.017 A 
ATOM     18  C   UNL A   1      32.487  21.849  22.967  1.00  0.00    -0.054 A 
ATOM     19  C   UNL A   1      31.979  21.327  25.244  1.00  0.00    -0.054 A 
ATOM     20  C   UNL A   1      32.108  23.180  23.181  1.00  0.00    -0.058 A 
ATOM     21  H   UNL A   1      32.807  21.564  22.028  1.00  0.00     0.063 H 
ATOM     22  C   UNL A   1      31.551  22.649  25.446  1.00  0.00    -0.058 A 
ATOM     23  H   UNL A   1      31.951  20.661  26.032  1.00  0.00     0.063 H 
ATOM     24  H   UNL A   1      32.203  23.863  22.414  1.00  0.00     0.063 H 
ATOM     25  H   UNL A   1      31.192  22.928  26.373  1.00  0.00     0.063 H 
BRANCH  17  26
ATOM     26  C   UNL A   1      32.877  19.500  23.752  1.00  0.00     0.001 A 
ATOM     27  C   UNL A   1      34.221  17.532  24.292  1.00  0.00    -0.007 A 
ATOM     28  C   UNL A   1      33.604  16.885  23.225  1.00  0.00     0.034 A 
ATOM     29  C   UNL A   1      33.844  18.858  24.544  1.00  0.00    -0.044 A 
ATOM     30  N   UNL A   1      32.669  17.450  22.432  1.00  0.00    -0.263 NA
ATOM     31  H   UNL A   1      33.879  15.911  23.027  1.00  0.00     0.085 H 
ATOM     32  H   UNL A   1      34.285  19.371  25.324  1.00  0.00     0.064 H 
ATOM     33  C   UNL A   1      32.341  18.734  22.712  1.00  0.00     0.035 A 
ATOM     34  H   UNL A   1      31.637  19.186  22.107  1.00  0.00     0.085 H 
BRANCH  27  35
ATOM     35  C   UNL A   1      35.261  16.837  25.055  1.00  0.00    -0.061 C 
ATOM     36  C   UNL A   1      35.309  15.510  25.227  1.00  0.00    -0.098 C 
ATOM     37  H   UNL A   1      36.072  15.088  25.778  1.00  0.00     0.054 H 
ATOM     38  H   UNL A   1      34.582  14.910  24.807  1.00  0.00     0.054 H 
ATOM     39  H   UNL A   1      36.004  17.407  25.489  1.00  0.00     0.062 H 
ENDBRANCH  27  35
ENDBRANCH  17  26
ENDBRANCH  14  16
BRANCH  14  40
ATOM     40  C   UNL A   1      30.311  25.217  25.960  1.00  0.00    -0.049 C 
ATOM     41  H   UNL A   1      30.033  26.247  26.048  1.00  0.00     0.024 H 
ATOM     42  H   UNL A   1      30.912  24.937  26.800  1.00  0.00     0.024 H 
ATOM     43  H   UNL A   1      29.430  24.611  25.934  1.00  0.00     0.024 H 
ENDBRANCH  14  40
ENDBRANCH  11  14
ENDBRANCH   7  10
ENDBRANCH   4   7
ENDBRANCH   1   4
BRANCH   1  44
ATOM     44  C   UNL A   1      36.061  22.009  24.307  1.00  0.00    -0.052 C 
ATOM     45  H   UNL A   1      36.717  22.621  23.725  1.00  0.00     0.027 H 
ATOM     46  H   UNL A   1      35.267  21.566  23.742  1.00  0.00     0.027 H 
BRANCH  44  47
ATOM     47  C   UNL A   1      36.878  20.841  24.869  1.00  0.00    -0.036 C 
ATOM     48  H   UNL A   1      37.011  20.121  24.089  1.00  0.00     0.028 H 
ATOM     49  H   UNL A   1      36.325  20.461  25.703  1.00  0.00     0.028 H 
BRANCH  47  50
ATOM     50  C   UNL A   1      38.257  21.222  25.404  1.00  0.00     0.018 C 
ATOM     51  H   UNL A   1      38.136  21.747  26.328  1.00  0.00     0.049 H 
ATOM     52  H   UNL A   1      38.738  21.835  24.671  1.00  0.00     0.049 H 
BRANCH  50  53
ATOM     53  N   UNL A   1      39.094  20.053  25.633  1.00  0.00    -0.352 N 
ATOM     54  C   UNL A   1      40.407  19.972  26.023  1.00  0.00     0.251 C 
ATOM     55  H   UNL A   1      38.648  19.188  25.486  1.00  0.00     0.163 HD
ATOM     56  O   UNL A   1      41.011  18.907  25.940  1.00  0.00    -0.269 OA
BRANCH  54  57
ATOM     57  C   UNL A   1      41.107  21.172  26.527  1.00  0.00     0.039 A 
ATOM     58  C   UNL A   1      41.719  22.033  25.612  1.00  0.00    -0.049 A 
ATOM     59  C   UNL A   1      41.174  21.439  27.897  1.00  0.00    -0.049 A 
ATOM     60  C   UNL A   1      42.324  23.208  26.064  1.00  0.00    -0.053 A 
ATOM     61  H   UNL A   1      41.723  21.802  24.606  1.00  0.00     0.063 H 
ATOM     62  C   UNL A   1      41.724  22.639  28.342  1.00  0.00    -0.053 A 
ATOM     63  H   UNL A   1      40.815  20.751  28.577  1.00  0.00     0.063 H 
ATOM     64  C   UNL A   1      42.290  23.542  27.428  1.00  0.00    -0.014 A 
ATOM     65  H   UNL A   1      42.799  23.832  25.394  1.00  0.00     0.063 H 
ATOM     66  H   UNL A   1      41.716  22.866  29.349  1.00  0.00     0.063 H 
BRANCH  64  67
ATOM     67  C   UNL A   1      42.784  24.856  27.909  1.00  0.00     0.031 A 
ATOM     68  C   UNL A   1      41.822  25.953  28.264  1.00  0.00     0.074 A 
ATOM     69  C   UNL A   1      44.111  25.084  27.943  1.00  0.00     0.049 A 
ATOM     70  N   UNL A   1      42.072  27.190  28.614  1.00  0.00    -0.248 NA
ATOM     71  C   UNL A   1      40.390  25.625  28.193  1.00  0.00    -0.034 C 
ATOM     72  C   UNL A   1      45.143  24.112  27.578  1.00  0.00    -0.036 A 
ATOM     73  N   UNL A   1      44.821  26.209  28.281  1.00  0.00    -0.354 N 
ATOM     74  C   UNL A   1      40.832  27.788  28.799  1.00  0.00     0.074 A 
ATOM     75  C   UNL A   1      39.831  26.793  28.479  1.00  0.00    -0.034 C 
ATOM     76  H   UNL A   1      39.939  24.722  27.979  1.00  0.00     0.065 H 
ATOM     77  C   UNL A   1      46.351  24.677  27.723  1.00  0.00    -0.036 A 
ATOM     78  H   UNL A   1      44.968  23.146  27.260  1.00  0.00     0.065 H 
ATOM     79  C   UNL A   1      46.179  26.061  28.150  1.00  0.00     0.049 A 
ATOM     80  H   UNL A   1      44.396  27.042  28.589  1.00  0.00     0.167 HD
ATOM     81  C   UNL A   1      40.559  29.048  29.215  1.00  0.00     0.037 A 
ATOM     82  H   UNL A   1      38.814  26.970  28.472  1.00  0.00     0.065 H 
ATOM     83  H   UNL A   1      47.256  24.208  27.561  1.00  0.00     0.065 H 
ATOM     84  C   UNL A   1      47.176  26.948  28.335  1.00  0.00     0.037 A 
ATOM     85  C   UNL A   1      41.559  30.030  29.545  1.00  0.00     0.049 A 
ATOM     86  C   UNL A   1      46.842  28.348  28.770  1.00  0.00     0.074 A 
ATOM     87  C   UNL A   1      41.382  31.309  30.045  1.00  0.00    -0.036 A 
ATOM     88  N   UNL A   1      42.926  29.845  29.401  1.00  0.00    -0.354 N 
ATOM     89  N   UNL A   1      45.669  28.880  29.014  1.00  0.00    -0.248 NA
ATOM     90  C   UNL A   1      47.970  29.272  28.954  1.00  0.00    -0.034 C 
ATOM     91  C   UNL A   1      42.637  31.915  30.153  1.00  0.00    -0.036 A 
ATOM     92  H   UNL A   1      40.478  31.741  30.295  1.00  0.00     0.065 H 
ATOM     93  C   UNL A   1      43.602  30.998  29.768  1.00  0.00     0.049 A 
ATOM     94  H   UNL A   1      43.354  29.017  29.083  1.00  0.00     0.167 HD
ATOM     95  C   UNL A   1      45.917  30.191  29.395  1.00  0.00     0.074 A 
ATOM     96  C   UNL A   1      47.355  30.368  29.372  1.00  0.00    -0.034 C 
ATOM     97  H   UNL A   1      48.977  29.109  28.798  1.00  0.00     0.065 H 
ATOM     98  H   UNL A   1      42.815  32.882  30.465  1.00  0.00     0.065 H 
ATOM     99  C   UNL A   1      45.032  31.162  29.731  1.00  0.00     0.037 A 
ATOM    100  H   UNL A   1      47.837  31.238  29.647  1.00  0.00     0.065 H 
BRANCH  81 101
ATOM    101  C   UNL A   1      39.115  29.442  29.338  1.00  0.00     0.064 A 
ATOM    102  C   UNL A   1      38.476  29.509  30.585  1.00  0.00     0.173 A 
ATOM    103  C   UNL A   1      38.377  29.809  28.202  1.00  0.00     0.173 A 
ATOM    104  F   UNL A   1      39.135  29.163  31.701  1.00  0.00    -0.203 F 
ATOM    105  C   UNL A   1      37.144  29.905  30.688  1.00  0.00     0.198 A 
ATOM    106  C   UNL A   1      37.054  30.230  28.311  1.00  0.00     0.198 A 
ATOM    107  F   UNL A   1      38.943  29.770  26.986  1.00  0.00    -0.203 F 
ATOM    108  F   UNL A   1      36.543  29.921  31.885  1.00  0.00    -0.200 F 
ATOM    109  C   UNL A   1      36.437  30.272  29.552  1.00  0.00     0.200 A 
ATOM    110  F   UNL A   1      36.377  30.598  27.215  1.00  0.00    -0.200 F 
ATOM    111  F   UNL A   1      35.159  30.662  29.654  1.00  0.00    -0.200 F 
ENDBRANCH  81 101
BRANCH  84 112
ATOM    112  C   UNL A   1      48.586  26.536  28.114  1.00  0.00     0.064 A 
ATOM    113  C   UNL A   1      49.407  26.172  29.190  1.00  0.00     0.173 A 
ATOM    114  C   UNL A   1      49.142  26.495  26.827  1.00  0.00     0.173 A 
ATOM    115  F   UNL A   1      48.927  26.215  30.441  1.00  0.00    -0.203 F 
ATOM    116  C   UNL A   1      50.735  25.802  28.990  1.00  0.00     0.198 A 
ATOM    117  C   UNL A   1      50.461  26.097  26.624  1.00  0.00     0.198 A 
ATOM    118  F   UNL A   1      48.397  26.828  25.762  1.00  0.00    -0.203 F 
ATOM    119  F   UNL A   1      51.510  25.502  30.041  1.00  0.00    -0.200 F 
ATOM    120  C   UNL A   1      51.259  25.759  27.707  1.00  0.00     0.200 A 
ATOM    121  F   UNL A   1      50.960  26.043  25.382  1.00  0.00    -0.200 F 
ATOM    122  F   UNL A   1      52.536  25.398  27.514  1.00  0.00    -0.200 F 
ENDBRANCH  84 112
BRANCH  99 123
ATOM    123  C   UNL A   1      45.597  32.500  30.109  1.00  0.00     0.064 A 
ATOM    124  C   UNL A   1      45.960  32.795  31.431  1.00  0.00     0.173 A 
ATOM    125  C   UNL A   1      45.810  33.486  29.134  1.00  0.00     0.173 A 
ATOM    126  F   UNL A   1      45.760  31.893  32.404  1.00  0.00    -0.203 F 
ATOM    127  C   UNL A   1      46.493  34.037  31.767  1.00  0.00     0.198 A 
ATOM    128  C   UNL A   1      46.371  34.716  29.468  1.00  0.00     0.198 A 
ATOM    129  F   UNL A   1      45.484  33.253  27.854  1.00  0.00    -0.203 F 
ATOM    130  F   UNL A   1      46.787  34.313  33.045  1.00  0.00    -0.200 F 
ATOM    131  C   UNL A   1      46.705  34.993  30.785  1.00  0.00     0.200 A 
ATOM    132  F   UNL A   1      46.585  35.635  28.516  1.00  0.00    -0.200 F 
ATOM    133  F   UNL A   1      47.223  36.185  31.109  1.00  0.00    -0.200 F 
ENDBRANCH  99 123
ENDBRANCH  64  67
ENDBRANCH  54  57
ENDBRANCH  50  53
ENDBRANCH  47  50
ENDBRANCH  44  47
ENDBRANCH   1  44
TORSDOF 17
ENDMDL
