MODEL 1
REMARK VINA RESULT:     -13.1      0.000      0.000
REMARK SMILES O=C1NC(=O)/C(=C/c2ccc(OCc3cn(-c4ccc(C(=O)NCCCCCCNC(=O)c5ccc(-c6c7nc(c(-c8c(F)c(F)c(F)c(F)c8F)c8ccc([nH]8)c(-c8c(F)c(F)c(F)c(F)c8F)c8nc(c(-c9c(F)c(F)c(F)c(F)c9F)c9ccc6[nH]9)C=C8)C=C7)cc5)cc4)nn3)cc2)S1
REMARK SMILES IDX 25 1 24 4 23 7 21 8 22 9 20 11 17 12 18 13 97 14 19 15 96 17
REMARK SMILES IDX 16 21 14 22 15 23 99 24 98 26 13 27 12 30 11 31 8 32 9 33
REMARK SMILES IDX 101 34 10 35 100 37 7 41 1 42 2 43 3 44 102 45 4 46 6 48
REMARK SMILES IDX 5 49 26 51 27 54 28 57 29 60 30 63 31 64 32 66 33 67 34 68
REMARK SMILES IDX 95 69 35 70 94 72 36 74 37 77 38 78 88 79 39 80 93 81 87 82
REMARK SMILES IDX 89 83 40 84 92 85 86 87 85 89 41 91 73 94 53 95 72 96 54 97
REMARK SMILES IDX 57 98 71 99 90 100 55 101 56 103 70 105 91 106 58 109 42 111
REMARK SMILES IDX 43 112 51 113 44 114 45 115 49 116 52 117 46 118 47 119
REMARK SMILES IDX 50 120 48 121 74 122 75 123 83 124 76 125 77 126 81 127
REMARK SMILES IDX 84 128 78 129 79 130 82 131 80 132 59 133 60 134 68 135
REMARK SMILES IDX 61 136 62 137 66 138 69 139 63 140 64 141 67 142 65 143
REMARK H PARENT 25 2 25 3 24 5 24 6 23 10 18 16 97 18 19 19 96 20 15 25 13 28
REMARK H PARENT 13 29 9 36 101 38 10 39 100 40 3 47 7 50 26 52 26 53 27 55
REMARK H PARENT 27 56 28 58 28 59 29 61 29 62 30 65 34 71 95 73 35 75 94 76
REMARK H PARENT 93 86 87 88 89 90 92 92 86 93 54 102 57 104 90 107 55 108
REMARK H PARENT 91 110
REMARK Flexibility Score: inf
ROOT
ATOM      1  C   UNL A   1      45.892  31.407  26.734  1.00  0.00    -0.036 C 
ATOM      2  H   UNL A   1      46.794  31.642  26.209  1.00  0.00     0.028 H 
ATOM      3  H   UNL A   1      45.967  31.654  27.773  1.00  0.00     0.028 H 
ENDROOT
BRANCH   1   4
ATOM      4  C   UNL A   1      45.643  29.901  26.632  1.00  0.00     0.018 C 
ATOM      5  H   UNL A   1      46.069  29.410  27.482  1.00  0.00     0.049 H 
ATOM      6  H   UNL A   1      44.590  29.715  26.603  1.00  0.00     0.049 H 
BRANCH   4   7
ATOM      7  N   UNL A   1      46.256  29.391  25.424  1.00  0.00    -0.352 N 
ATOM      8  C   UNL A   1      46.164  28.195  24.764  1.00  0.00     0.251 C 
ATOM      9  O   UNL A   1      46.881  28.038  23.776  1.00  0.00    -0.269 OA
ATOM     10  H   UNL A   1      46.861  30.034  24.988  1.00  0.00     0.163 HD
BRANCH   8  11
ATOM     11  C   UNL A   1      45.184  27.136  25.130  1.00  0.00     0.039 A 
ATOM     12  C   UNL A   1      43.458  24.970  25.533  1.00  0.00     0.066 A 
ATOM     13  C   UNL A   1      44.842  24.765  25.537  1.00  0.00    -0.036 A 
ATOM     14  C   UNL A   1      42.935  26.257  25.416  1.00  0.00    -0.036 A 
ATOM     15  C   UNL A   1      45.695  25.840  25.295  1.00  0.00    -0.047 A 
ATOM     16  H   UNL A   1      45.228  23.824  25.715  1.00  0.00     0.065 H 
ATOM     17  C   UNL A   1      43.810  27.338  25.296  1.00  0.00    -0.047 A 
ATOM     18  H   UNL A   1      41.915  26.407  25.418  1.00  0.00     0.065 H 
ATOM     19  H   UNL A   1      46.714  25.682  25.239  1.00  0.00     0.063 H 
ATOM     20  H   UNL A   1      43.437  28.300  25.330  1.00  0.00     0.063 H 
BRANCH  12  21
ATOM     21  N   UNL A   1      42.600  23.868  25.687  1.00  0.00    -0.220 N 
ATOM     22  C   UNL A   1      40.992  22.491  26.204  1.00  0.00     0.120 A 
ATOM     23  C   UNL A   1      41.372  23.813  26.306  1.00  0.00     0.058 A 
ATOM     24  N   UNL A   1      41.961  21.817  25.509  1.00  0.00    -0.131 NA
ATOM     25  H   UNL A   1      40.851  24.588  26.747  1.00  0.00     0.086 H 
ATOM     26  N   UNL A   1      42.910  22.665  25.167  1.00  0.00    -0.062 NA
BRANCH  22  27
ATOM     27  C   UNL A   1      39.732  21.794  26.603  1.00  0.00     0.134 C 
ATOM     28  H   UNL A   1      39.999  20.961  27.220  1.00  0.00     0.078 H 
ATOM     29  H   UNL A   1      39.136  22.529  27.101  1.00  0.00     0.078 H 
BRANCH  27  30
ATOM     30  O   UNL A   1      38.923  21.301  25.519  1.00  0.00    -0.487 OA
BRANCH  30  31
ATOM     31  C   UNL A   1      37.659  21.803  25.365  1.00  0.00     0.119 A 
ATOM     32  C   UNL A   1      35.068  22.635  24.660  1.00  0.00    -0.024 A 
ATOM     33  C   UNL A   1      35.393  21.276  24.660  1.00  0.00    -0.051 A 
ATOM     34  C   UNL A   1      36.012  23.558  25.112  1.00  0.00    -0.051 A 
ATOM     35  C   UNL A   1      36.688  20.867  25.003  1.00  0.00    -0.019 A 
ATOM     36  H   UNL A   1      34.680  20.575  24.407  1.00  0.00     0.063 H 
ATOM     37  C   UNL A   1      37.286  23.137  25.496  1.00  0.00    -0.019 A 
ATOM     38  H   UNL A   1      35.767  24.559  25.161  1.00  0.00     0.063 H 
ATOM     39  H   UNL A   1      36.926  19.862  24.988  1.00  0.00     0.066 H 
ATOM     40  H   UNL A   1      37.957  23.821  25.882  1.00  0.00     0.066 H 
BRANCH  32  41
ATOM     41  C   UNL A   1      33.749  23.094  24.217  1.00  0.00    -0.035 C 
ATOM     42  O   UNL A   1      30.021  22.965  27.609  1.00  0.00    -0.261 OA
ATOM     43  C   UNL A   1      30.759  23.075  26.631  1.00  0.00     0.290 C 
ATOM     44  N   UNL A   1      30.373  23.453  25.393  1.00  0.00    -0.282 N 
ATOM     45  S   UNL A   1      32.480  22.764  26.655  1.00  0.00    -0.022 SA
ATOM     46  C   UNL A   1      31.326  23.531  24.419  1.00  0.00     0.265 C 
ATOM     47  H   UNL A   1      29.431  23.664  25.199  1.00  0.00     0.174 HD
ATOM     48  C   UNL A   1      32.647  23.140  24.979  1.00  0.00     0.083 C 
ATOM     49  O   UNL A   1      31.116  23.860  23.266  1.00  0.00    -0.268 OA
ATOM     50  H   UNL A   1      33.661  23.409  23.237  1.00  0.00     0.064 H 
ENDBRANCH  32  41
ENDBRANCH  30  31
ENDBRANCH  27  30
ENDBRANCH  22  27
ENDBRANCH  12  21
ENDBRANCH   8  11
ENDBRANCH   4   7
ENDBRANCH   1   4
BRANCH   1  51
ATOM     51  C   UNL A   1      44.745  32.233  26.139  1.00  0.00    -0.052 C 
ATOM     52  H   UNL A   1      43.849  31.653  26.203  1.00  0.00     0.027 H 
ATOM     53  H   UNL A   1      45.032  32.463  25.134  1.00  0.00     0.027 H 
BRANCH  51  54
ATOM     54  C   UNL A   1      44.490  33.584  26.833  1.00  0.00    -0.052 C 
ATOM     55  H   UNL A   1      44.560  33.428  27.888  1.00  0.00     0.027 H 
ATOM     56  H   UNL A   1      43.523  33.900  26.499  1.00  0.00     0.027 H 
BRANCH  54  57
ATOM     57  C   UNL A   1      45.451  34.725  26.460  1.00  0.00    -0.036 C 
ATOM     58  H   UNL A   1      44.874  35.604  26.260  1.00  0.00     0.028 H 
ATOM     59  H   UNL A   1      46.006  34.407  25.603  1.00  0.00     0.028 H 
BRANCH  57  60
ATOM     60  C   UNL A   1      46.452  35.043  27.556  1.00  0.00     0.018 C 
ATOM     61  H   UNL A   1      47.438  34.828  27.198  1.00  0.00     0.049 H 
ATOM     62  H   UNL A   1      46.213  34.441  28.408  1.00  0.00     0.049 H 
BRANCH  60  63
ATOM     63  N   UNL A   1      46.391  36.454  27.963  1.00  0.00    -0.352 N 
ATOM     64  C   UNL A   1      45.317  37.203  28.410  1.00  0.00     0.251 C 
ATOM     65  H   UNL A   1      47.246  36.940  27.912  1.00  0.00     0.163 HD
ATOM     66  O   UNL A   1      45.330  38.426  28.350  1.00  0.00    -0.269 OA
BRANCH  64  67
ATOM     67  C   UNL A   1      44.162  36.500  28.986  1.00  0.00     0.039 A 
ATOM     68  C   UNL A   1      42.854  36.635  28.509  1.00  0.00    -0.049 A 
ATOM     69  C   UNL A   1      44.441  35.641  30.034  1.00  0.00    -0.049 A 
ATOM     70  C   UNL A   1      41.849  35.888  29.122  1.00  0.00    -0.053 A 
ATOM     71  H   UNL A   1      42.638  37.270  27.723  1.00  0.00     0.063 H 
ATOM     72  C   UNL A   1      43.550  34.664  30.335  1.00  0.00    -0.053 A 
ATOM     73  H   UNL A   1      45.311  35.741  30.577  1.00  0.00     0.063 H 
ATOM     74  C   UNL A   1      42.223  34.919  30.059  1.00  0.00    -0.014 A 
ATOM     75  H   UNL A   1      40.855  36.047  28.891  1.00  0.00     0.063 H 
ATOM     76  H   UNL A   1      43.852  33.770  30.753  1.00  0.00     0.063 H 
BRANCH  74  77
ATOM     77  C   UNL A   1      41.296  34.066  30.774  1.00  0.00     0.031 A 
ATOM     78  C   UNL A   1      41.730  33.766  32.152  1.00  0.00     0.074 A 
ATOM     79  C   UNL A   1      40.031  33.876  30.332  1.00  0.00     0.049 A 
ATOM     80  N   UNL A   1      42.157  32.637  32.604  1.00  0.00    -0.248 NA
ATOM     81  C   UNL A   1      41.903  34.889  33.088  1.00  0.00    -0.034 C 
ATOM     82  C   UNL A   1      39.367  34.456  29.154  1.00  0.00    -0.036 A 
ATOM     83  N   UNL A   1      39.015  33.204  30.938  1.00  0.00    -0.354 N 
ATOM     84  C   UNL A   1      42.428  32.856  33.949  1.00  0.00     0.074 A 
ATOM     85  C   UNL A   1      42.511  34.282  34.108  1.00  0.00    -0.034 C 
ATOM     86  H   UNL A   1      41.627  35.878  32.982  1.00  0.00     0.065 H 
ATOM     87  C   UNL A   1      38.027  34.300  29.263  1.00  0.00    -0.036 A 
ATOM     88  H   UNL A   1      39.850  34.912  28.365  1.00  0.00     0.065 H 
ATOM     89  C   UNL A   1      37.746  33.493  30.433  1.00  0.00     0.049 A 
ATOM     90  H   UNL A   1      39.163  32.566  31.674  1.00  0.00     0.167 HD
ATOM     91  C   UNL A   1      42.252  31.861  34.862  1.00  0.00     0.037 A 
ATOM     92  H   UNL A   1      42.975  34.765  34.893  1.00  0.00     0.065 H 
ATOM     93  H   UNL A   1      37.323  34.691  28.619  1.00  0.00     0.065 H 
ATOM     94  C   UNL A   1      36.573  33.135  31.019  1.00  0.00     0.037 A 
ATOM     95  C   UNL A   1      42.096  30.586  34.195  1.00  0.00     0.049 A 
ATOM     96  C   UNL A   1      36.890  32.035  31.978  1.00  0.00     0.074 A 
ATOM     97  C   UNL A   1      42.866  29.874  33.292  1.00  0.00    -0.036 A 
ATOM     98  N   UNL A   1      40.825  30.072  34.083  1.00  0.00    -0.354 N 
ATOM     99  N   UNL A   1      37.301  30.851  31.605  1.00  0.00    -0.248 NA
ATOM    100  C   UNL A   1      37.265  32.425  33.332  1.00  0.00    -0.034 C 
ATOM    101  C   UNL A   1      41.931  29.368  32.338  1.00  0.00    -0.036 A 
ATOM    102  H   UNL A   1      43.888  29.738  33.305  1.00  0.00     0.065 H 
ATOM    103  C   UNL A   1      40.648  29.700  32.774  1.00  0.00     0.049 A 
ATOM    104  H   UNL A   1      40.165  29.986  34.808  1.00  0.00     0.167 HD
ATOM    105  C   UNL A   1      38.331  30.542  32.482  1.00  0.00     0.074 A 
ATOM    106  C   UNL A   1      38.229  31.528  33.557  1.00  0.00    -0.034 C 
ATOM    107  H   UNL A   1      36.893  33.174  33.939  1.00  0.00     0.065 H 
ATOM    108  H   UNL A   1      42.164  28.848  31.478  1.00  0.00     0.065 H 
ATOM    109  C   UNL A   1      39.366  29.729  32.109  1.00  0.00     0.037 A 
ATOM    110  H   UNL A   1      38.833  31.531  34.394  1.00  0.00     0.065 H 
BRANCH  91 111
ATOM    111  C   UNL A   1      41.811  32.070  36.293  1.00  0.00     0.064 A 
ATOM    112  C   UNL A   1      40.627  32.796  36.527  1.00  0.00     0.173 A 
ATOM    113  C   UNL A   1      42.622  31.857  37.431  1.00  0.00     0.173 A 
ATOM    114  F   UNL A   1      39.775  33.057  35.524  1.00  0.00    -0.203 F 
ATOM    115  C   UNL A   1      40.336  33.358  37.773  1.00  0.00     0.198 A 
ATOM    116  C   UNL A   1      42.300  32.371  38.684  1.00  0.00     0.198 A 
ATOM    117  F   UNL A   1      43.808  31.244  37.371  1.00  0.00    -0.203 F 
ATOM    118  F   UNL A   1      39.271  34.158  37.907  1.00  0.00    -0.200 F 
ATOM    119  C   UNL A   1      41.180  33.154  38.848  1.00  0.00     0.200 A 
ATOM    120  F   UNL A   1      43.138  32.169  39.711  1.00  0.00    -0.200 F 
ATOM    121  F   UNL A   1      40.941  33.745  40.025  1.00  0.00    -0.200 F 
ENDBRANCH  91 111
BRANCH  94 122
ATOM    122  C   UNL A   1      35.297  33.897  31.060  1.00  0.00     0.064 A 
ATOM    123  C   UNL A   1      35.056  34.874  32.042  1.00  0.00     0.173 A 
ATOM    124  C   UNL A   1      34.395  33.873  29.978  1.00  0.00     0.173 A 
ATOM    125  F   UNL A   1      35.893  35.006  33.082  1.00  0.00    -0.203 F 
ATOM    126  C   UNL A   1      33.990  35.778  31.936  1.00  0.00     0.198 A 
ATOM    127  C   UNL A   1      33.329  34.770  29.877  1.00  0.00     0.198 A 
ATOM    128  F   UNL A   1      34.584  33.041  28.943  1.00  0.00    -0.203 F 
ATOM    129  F   UNL A   1      33.827  36.733  32.865  1.00  0.00    -0.200 F 
ATOM    130  C   UNL A   1      33.133  35.730  30.850  1.00  0.00     0.200 A 
ATOM    131  F   UNL A   1      32.535  34.736  28.797  1.00  0.00    -0.200 F 
ATOM    132  F   UNL A   1      32.149  36.631  30.718  1.00  0.00    -0.200 F 
ENDBRANCH  94 122
BRANCH 109 133
ATOM    133  C   UNL A   1      39.266  28.980  30.808  1.00  0.00     0.064 A 
ATOM    134  C   UNL A   1      39.698  29.480  29.567  1.00  0.00     0.173 A 
ATOM    135  C   UNL A   1      38.876  27.635  30.854  1.00  0.00     0.173 A 
ATOM    136  F   UNL A   1      40.191  30.719  29.455  1.00  0.00    -0.203 F 
ATOM    137  C   UNL A   1      39.694  28.683  28.422  1.00  0.00     0.198 A 
ATOM    138  C   UNL A   1      38.911  26.830  29.718  1.00  0.00     0.198 A 
ATOM    139  F   UNL A   1      38.510  27.082  32.021  1.00  0.00    -0.203 F 
ATOM    140  F   UNL A   1      40.103  29.190  27.249  1.00  0.00    -0.200 F 
ATOM    141  C   UNL A   1      39.309  27.356  28.501  1.00  0.00     0.200 A 
ATOM    142  F   UNL A   1      38.589  25.532  29.815  1.00  0.00    -0.200 F 
ATOM    143  F   UNL A   1      39.346  26.576  27.412  1.00  0.00    -0.200 F 
ENDBRANCH 109 133
ENDBRANCH  74  77
ENDBRANCH  64  67
ENDBRANCH  60  63
ENDBRANCH  57  60
ENDBRANCH  54  57
ENDBRANCH  51  54
ENDBRANCH   1  51
TORSDOF 18
ENDMDL
MODEL 2
REMARK VINA RESULT:     -12.8      2.410      5.180
REMARK SMILES O=C1NC(=O)/C(=C/c2ccc(OCc3cn(-c4ccc(C(=O)NCCCCCCNC(=O)c5ccc(-c6c7nc(c(-c8c(F)c(F)c(F)c(F)c8F)c8ccc([nH]8)c(-c8c(F)c(F)c(F)c(F)c8F)c8nc(c(-c9c(F)c(F)c(F)c(F)c9F)c9ccc6[nH]9)C=C8)C=C7)cc5)cc4)nn3)cc2)S1
REMARK SMILES IDX 25 1 24 4 23 7 21 8 22 9 20 11 17 12 18 13 97 14 19 15 96 17
REMARK SMILES IDX 16 21 14 22 15 23 99 24 98 26 13 27 12 30 11 31 8 32 9 33
REMARK SMILES IDX 101 34 10 35 100 37 7 41 1 42 2 43 3 44 102 45 4 46 6 48
REMARK SMILES IDX 5 49 26 51 27 54 28 57 29 60 30 63 31 64 32 66 33 67 34 68
REMARK SMILES IDX 95 69 35 70 94 72 36 74 37 77 38 78 88 79 39 80 93 81 87 82
REMARK SMILES IDX 89 83 40 84 92 85 86 87 85 89 41 91 73 94 53 95 72 96 54 97
REMARK SMILES IDX 57 98 71 99 90 100 55 101 56 103 70 105 91 106 58 109 42 111
REMARK SMILES IDX 43 112 51 113 44 114 45 115 49 116 52 117 46 118 47 119
REMARK SMILES IDX 50 120 48 121 74 122 75 123 83 124 76 125 77 126 81 127
REMARK SMILES IDX 84 128 78 129 79 130 82 131 80 132 59 133 60 134 68 135
REMARK SMILES IDX 61 136 62 137 66 138 69 139 63 140 64 141 67 142 65 143
REMARK H PARENT 25 2 25 3 24 5 24 6 23 10 18 16 97 18 19 19 96 20 15 25 13 28
REMARK H PARENT 13 29 9 36 101 38 10 39 100 40 3 47 7 50 26 52 26 53 27 55
REMARK H PARENT 27 56 28 58 28 59 29 61 29 62 30 65 34 71 95 73 35 75 94 76
REMARK H PARENT 93 86 87 88 89 90 92 92 86 93 54 102 57 104 90 107 55 108
REMARK H PARENT 91 110
REMARK Flexibility Score: inf
ROOT
ATOM      1  C   UNL A   1      46.880  30.522  27.192  1.00  0.00    -0.036 C 
ATOM      2  H   UNL A   1      47.832  30.336  26.741  1.00  0.00     0.028 H 
ATOM      3  H   UNL A   1      46.883  30.275  28.233  1.00  0.00     0.028 H 
ENDROOT
BRANCH   1   4
ATOM      4  C   UNL A   1      45.832  29.640  26.509  1.00  0.00     0.018 C 
ATOM      5  H   UNL A   1      45.613  28.799  27.132  1.00  0.00     0.049 H 
ATOM      6  H   UNL A   1      44.940  30.207  26.347  1.00  0.00     0.049 H 
BRANCH   4   7
ATOM      7  N   UNL A   1      46.346  29.176  25.238  1.00  0.00    -0.352 N 
ATOM      8  C   UNL A   1      46.197  28.007  24.541  1.00  0.00     0.251 C 
ATOM      9  O   UNL A   1      46.833  27.887  23.495  1.00  0.00    -0.269 OA
ATOM     10  H   UNL A   1      46.920  29.834  24.782  1.00  0.00     0.163 HD
BRANCH   8  11
ATOM     11  C   UNL A   1      45.242  26.937  24.941  1.00  0.00     0.039 A 
ATOM     12  C   UNL A   1      43.572  24.742  25.418  1.00  0.00     0.066 A 
ATOM     13  C   UNL A   1      44.961  24.577  25.445  1.00  0.00    -0.036 A 
ATOM     14  C   UNL A   1      43.015  26.008  25.240  1.00  0.00    -0.036 A 
ATOM     15  C   UNL A   1      45.787  25.664  25.167  1.00  0.00    -0.047 A 
ATOM     16  H   UNL A   1      45.371  23.656  25.667  1.00  0.00     0.065 H 
ATOM     17  C   UNL A   1      43.861  27.107  25.083  1.00  0.00    -0.047 A 
ATOM     18  H   UNL A   1      41.991  26.129  25.225  1.00  0.00     0.065 H 
ATOM     19  H   UNL A   1      46.810  25.533  25.129  1.00  0.00     0.063 H 
ATOM     20  H   UNL A   1      43.461  28.059  25.073  1.00  0.00     0.063 H 
BRANCH  12  21
ATOM     21  N   UNL A   1      42.743  23.624  25.609  1.00  0.00    -0.220 N 
ATOM     22  C   UNL A   1      41.222  22.198  26.243  1.00  0.00     0.120 A 
ATOM     23  C   UNL A   1      41.613  23.513  26.387  1.00  0.00     0.058 A 
ATOM     24  N   UNL A   1      42.084  21.585  25.372  1.00  0.00    -0.131 NA
ATOM     25  H   UNL A   1      41.160  24.249  26.952  1.00  0.00     0.086 H 
ATOM     26  N   UNL A   1      42.977  22.465  24.964  1.00  0.00    -0.062 NA
BRANCH  22  27
ATOM     27  C   UNL A   1      40.030  21.462  26.762  1.00  0.00     0.134 C 
ATOM     28  H   UNL A   1      40.380  20.597  27.286  1.00  0.00     0.078 H 
ATOM     29  H   UNL A   1      39.501  22.158  27.379  1.00  0.00     0.078 H 
BRANCH  27  30
ATOM     30  O   UNL A   1      39.086  21.025  25.766  1.00  0.00    -0.487 OA
BRANCH  30  31
ATOM     31  C   UNL A   1      38.110  21.894  25.363  1.00  0.00     0.119 A 
ATOM     32  C   UNL A   1      35.956  23.653  24.942  1.00  0.00    -0.024 A 
ATOM     33  C   UNL A   1      36.884  23.908  25.955  1.00  0.00    -0.051 A 
ATOM     34  C   UNL A   1      36.172  22.575  24.081  1.00  0.00    -0.051 A 
ATOM     35  C   UNL A   1      37.950  23.024  26.167  1.00  0.00    -0.019 A 
ATOM     36  H   UNL A   1      36.783  24.747  26.547  1.00  0.00     0.063 H 
ATOM     37  C   UNL A   1      37.263  21.725  24.270  1.00  0.00    -0.019 A 
ATOM     38  H   UNL A   1      35.520  22.405  23.300  1.00  0.00     0.063 H 
ATOM     39  H   UNL A   1      38.624  23.212  26.926  1.00  0.00     0.066 H 
ATOM     40  H   UNL A   1      37.445  20.966  23.595  1.00  0.00     0.066 H 
BRANCH  32  41
ATOM     41  C   UNL A   1      34.783  24.511  24.760  1.00  0.00    -0.035 C 
ATOM     42  O   UNL A   1      30.679  23.379  27.462  1.00  0.00    -0.261 OA
ATOM     43  C   UNL A   1      31.542  23.829  26.710  1.00  0.00     0.290 C 
ATOM     44  N   UNL A   1      31.372  24.847  25.838  1.00  0.00    -0.282 N 
ATOM     45  S   UNL A   1      33.184  23.234  26.625  1.00  0.00    -0.022 SA
ATOM     46  C   UNL A   1      32.441  25.229  25.080  1.00  0.00     0.265 C 
ATOM     47  H   UNL A   1      30.501  25.299  25.752  1.00  0.00     0.174 HD
ATOM     48  C   UNL A   1      33.612  24.369  25.397  1.00  0.00     0.083 C 
ATOM     49  O   UNL A   1      32.426  26.129  24.262  1.00  0.00    -0.268 OA
ATOM     50  H   UNL A   1      34.865  25.288  24.086  1.00  0.00     0.064 H 
ENDBRANCH  32  41
ENDBRANCH  30  31
ENDBRANCH  27  30
ENDBRANCH  22  27
ENDBRANCH  12  21
ENDBRANCH   8  11
ENDBRANCH   4   7
ENDBRANCH   1   4
BRANCH   1  51
ATOM     51  C   UNL A   1      46.559  32.017  27.067  1.00  0.00    -0.052 C 
ATOM     52  H   UNL A   1      45.496  32.129  27.048  1.00  0.00     0.027 H 
ATOM     53  H   UNL A   1      47.038  32.352  26.170  1.00  0.00     0.027 H 
BRANCH  51  54
ATOM     54  C   UNL A   1      47.112  32.897  28.203  1.00  0.00    -0.052 C 
ATOM     55  H   UNL A   1      47.901  32.356  28.682  1.00  0.00     0.027 H 
ATOM     56  H   UNL A   1      46.276  33.106  28.838  1.00  0.00     0.027 H 
BRANCH  54  57
ATOM     57  C   UNL A   1      47.668  34.268  27.784  1.00  0.00    -0.036 C 
ATOM     58  H   UNL A   1      46.938  34.760  27.176  1.00  0.00     0.028 H 
ATOM     59  H   UNL A   1      48.580  34.093  27.254  1.00  0.00     0.028 H 
BRANCH  57  60
ATOM     60  C   UNL A   1      47.996  35.163  28.966  1.00  0.00     0.018 C 
ATOM     61  H   UNL A   1      49.057  35.299  29.014  1.00  0.00     0.049 H 
ATOM     62  H   UNL A   1      47.628  34.691  29.853  1.00  0.00     0.049 H 
BRANCH  60  63
ATOM     63  N   UNL A   1      47.353  36.480  28.851  1.00  0.00    -0.352 N 
ATOM     64  C   UNL A   1      46.041  36.804  28.559  1.00  0.00     0.251 C 
ATOM     65  H   UNL A   1      47.948  37.250  29.007  1.00  0.00     0.163 HD
ATOM     66  O   UNL A   1      45.742  37.914  28.134  1.00  0.00    -0.269 OA
BRANCH  64  67
ATOM     67  C   UNL A   1      44.999  35.795  28.797  1.00  0.00     0.039 A 
ATOM     68  C   UNL A   1      44.254  35.193  27.777  1.00  0.00    -0.049 A 
ATOM     69  C   UNL A   1      44.805  35.428  30.117  1.00  0.00    -0.049 A 
ATOM     70  C   UNL A   1      43.316  34.225  28.131  1.00  0.00    -0.053 A 
ATOM     71  H   UNL A   1      44.396  35.457  26.789  1.00  0.00     0.063 H 
ATOM     72  C   UNL A   1      44.199  34.246  30.386  1.00  0.00    -0.053 A 
ATOM     73  H   UNL A   1      45.117  36.043  30.884  1.00  0.00     0.063 H 
ATOM     74  C   UNL A   1      43.290  33.782  29.458  1.00  0.00    -0.014 A 
ATOM     75  H   UNL A   1      42.657  33.845  27.432  1.00  0.00     0.063 H 
ATOM     76  H   UNL A   1      44.408  33.716  31.247  1.00  0.00     0.063 H 
BRANCH  74  77
ATOM     77  C   UNL A   1      42.377  32.783  29.973  1.00  0.00     0.031 A 
ATOM     78  C   UNL A   1      42.896  31.406  29.852  1.00  0.00     0.074 A 
ATOM     79  C   UNL A   1      41.343  33.122  30.777  1.00  0.00     0.049 A 
ATOM     80  N   UNL A   1      42.479  30.486  29.053  1.00  0.00    -0.248 NA
ATOM     81  C   UNL A   1      44.148  31.071  30.550  1.00  0.00    -0.034 C 
ATOM     82  C   UNL A   1      40.965  34.450  31.285  1.00  0.00    -0.036 A 
ATOM     83  N   UNL A   1      40.472  32.303  31.427  1.00  0.00    -0.354 N 
ATOM     84  C   UNL A   1      43.271  29.376  29.322  1.00  0.00     0.074 A 
ATOM     85  C   UNL A   1      44.419  29.873  30.030  1.00  0.00    -0.034 C 
ATOM     86  H   UNL A   1      44.673  31.616  31.252  1.00  0.00     0.065 H 
ATOM     87  C   UNL A   1      40.106  34.315  32.322  1.00  0.00    -0.036 A 
ATOM     88  H   UNL A   1      41.303  35.349  30.906  1.00  0.00     0.065 H 
ATOM     89  C   UNL A   1      39.764  32.914  32.464  1.00  0.00     0.049 A 
ATOM     90  H   UNL A   1      40.351  31.355  31.186  1.00  0.00     0.167 HD
ATOM     91  C   UNL A   1      42.762  28.118  29.210  1.00  0.00     0.037 A 
ATOM     92  H   UNL A   1      45.319  29.377  30.122  1.00  0.00     0.065 H 
ATOM     93  H   UNL A   1      39.754  35.083  32.914  1.00  0.00     0.065 H 
ATOM     94  C   UNL A   1      39.024  32.258  33.396  1.00  0.00     0.037 A 
ATOM     95  C   UNL A   1      41.505  28.144  28.495  1.00  0.00     0.049 A 
ATOM     96  C   UNL A   1      38.742  30.899  32.843  1.00  0.00     0.074 A 
ATOM     97  C   UNL A   1      41.115  28.613  27.253  1.00  0.00    -0.036 A 
ATOM     98  N   UNL A   1      40.346  28.044  29.231  1.00  0.00    -0.354 N 
ATOM     99  N   UNL A   1      37.985  30.692  31.797  1.00  0.00    -0.248 NA
ATOM    100  C   UNL A   1      39.724  29.857  33.118  1.00  0.00    -0.034 C 
ATOM    101  C   UNL A   1      39.863  29.259  27.485  1.00  0.00    -0.036 A 
ATOM    102  H   UNL A   1      41.618  28.515  26.357  1.00  0.00     0.065 H 
ATOM    103  C   UNL A   1      39.510  29.051  28.817  1.00  0.00     0.049 A 
ATOM    104  H   UNL A   1      40.153  27.374  29.926  1.00  0.00     0.167 HD
ATOM    105  C   UNL A   1      38.670  29.744  31.048  1.00  0.00     0.074 A 
ATOM    106  C   UNL A   1      39.709  29.230  31.937  1.00  0.00    -0.034 C 
ATOM    107  H   UNL A   1      40.268  29.660  33.973  1.00  0.00     0.065 H 
ATOM    108  H   UNL A   1      39.316  29.788  26.788  1.00  0.00     0.065 H 
ATOM    109  C   UNL A   1      38.548  29.687  29.687  1.00  0.00     0.037 A 
ATOM    110  H   UNL A   1      40.359  28.469  31.683  1.00  0.00     0.065 H 
BRANCH  91 111
ATOM    111  C   UNL A   1      43.162  26.944  30.075  1.00  0.00     0.064 A 
ATOM    112  C   UNL A   1      43.249  27.141  31.467  1.00  0.00     0.173 A 
ATOM    113  C   UNL A   1      43.737  25.744  29.599  1.00  0.00     0.173 A 
ATOM    114  F   UNL A   1      42.733  28.241  32.035  1.00  0.00    -0.203 F 
ATOM    115  C   UNL A   1      43.951  26.264  32.297  1.00  0.00     0.198 A 
ATOM    116  C   UNL A   1      44.389  24.844  30.438  1.00  0.00     0.198 A 
ATOM    117  F   UNL A   1      43.799  25.435  28.300  1.00  0.00    -0.203 F 
ATOM    118  F   UNL A   1      44.125  26.570  33.589  1.00  0.00    -0.200 F 
ATOM    119  C   UNL A   1      44.531  25.122  31.779  1.00  0.00     0.200 A 
ATOM    120  F   UNL A   1      44.952  23.747  29.913  1.00  0.00    -0.200 F 
ATOM    121  F   UNL A   1      45.262  24.314  32.557  1.00  0.00    -0.200 F 
ENDBRANCH  91 111
BRANCH  94 122
ATOM    122  C   UNL A   1      38.851  32.594  34.833  1.00  0.00     0.064 A 
ATOM    123  C   UNL A   1      39.953  32.864  35.663  1.00  0.00     0.173 A 
ATOM    124  C   UNL A   1      37.585  32.920  35.362  1.00  0.00     0.173 A 
ATOM    125  F   UNL A   1      41.199  32.635  35.223  1.00  0.00    -0.203 F 
ATOM    126  C   UNL A   1      39.798  33.438  36.933  1.00  0.00     0.198 A 
ATOM    127  C   UNL A   1      37.431  33.486  36.629  1.00  0.00     0.198 A 
ATOM    128  F   UNL A   1      36.476  32.787  34.621  1.00  0.00    -0.203 F 
ATOM    129  F   UNL A   1      40.878  33.733  37.671  1.00  0.00    -0.200 F 
ATOM    130  C   UNL A   1      38.538  33.756  37.410  1.00  0.00     0.200 A 
ATOM    131  F   UNL A   1      36.207  33.826  37.058  1.00  0.00    -0.200 F 
ATOM    132  F   UNL A   1      38.392  34.359  38.599  1.00  0.00    -0.200 F 
ENDBRANCH  94 122
BRANCH 109 133
ATOM    133  C   UNL A   1      37.484  30.515  29.020  1.00  0.00     0.064 A 
ATOM    134  C   UNL A   1      36.222  30.029  28.634  1.00  0.00     0.173 A 
ATOM    135  C   UNL A   1      37.690  31.899  28.928  1.00  0.00     0.173 A 
ATOM    136  F   UNL A   1      35.902  28.739  28.791  1.00  0.00    -0.203 F 
ATOM    137  C   UNL A   1      35.236  30.881  28.137  1.00  0.00     0.198 A 
ATOM    138  C   UNL A   1      36.690  32.753  28.470  1.00  0.00     0.198 A 
ATOM    139  F   UNL A   1      38.851  32.433  29.338  1.00  0.00    -0.203 F 
ATOM    140  F   UNL A   1      34.045  30.387  27.767  1.00  0.00    -0.200 F 
ATOM    141  C   UNL A   1      35.468  32.244  28.064  1.00  0.00     0.200 A 
ATOM    142  F   UNL A   1      36.903  34.076  28.455  1.00  0.00    -0.200 F 
ATOM    143  F   UNL A   1      34.507  33.070  27.629  1.00  0.00    -0.200 F 
ENDBRANCH 109 133
ENDBRANCH  74  77
ENDBRANCH  64  67
ENDBRANCH  60  63
ENDBRANCH  57  60
ENDBRANCH  54  57
ENDBRANCH  51  54
ENDBRANCH   1  51
TORSDOF 18
ENDMDL
MODEL 3
REMARK VINA RESULT:     -12.7      4.790      9.601
REMARK SMILES O=C1NC(=O)/C(=C/c2ccc(OCc3cn(-c4ccc(C(=O)NCCCCCCNC(=O)c5ccc(-c6c7nc(c(-c8c(F)c(F)c(F)c(F)c8F)c8ccc([nH]8)c(-c8c(F)c(F)c(F)c(F)c8F)c8nc(c(-c9c(F)c(F)c(F)c(F)c9F)c9ccc6[nH]9)C=C8)C=C7)cc5)cc4)nn3)cc2)S1
REMARK SMILES IDX 25 1 24 4 23 7 21 8 22 9 20 11 17 12 18 13 97 14 19 15 96 17
REMARK SMILES IDX 16 21 14 22 15 23 99 24 98 26 13 27 12 30 11 31 8 32 9 33
REMARK SMILES IDX 101 34 10 35 100 37 7 41 1 42 2 43 3 44 102 45 4 46 6 48
REMARK SMILES IDX 5 49 26 51 27 54 28 57 29 60 30 63 31 64 32 66 33 67 34 68
REMARK SMILES IDX 95 69 35 70 94 72 36 74 37 77 38 78 88 79 39 80 93 81 87 82
REMARK SMILES IDX 89 83 40 84 92 85 86 87 85 89 41 91 73 94 53 95 72 96 54 97
REMARK SMILES IDX 57 98 71 99 90 100 55 101 56 103 70 105 91 106 58 109 42 111
REMARK SMILES IDX 43 112 51 113 44 114 45 115 49 116 52 117 46 118 47 119
REMARK SMILES IDX 50 120 48 121 74 122 75 123 83 124 76 125 77 126 81 127
REMARK SMILES IDX 84 128 78 129 79 130 82 131 80 132 59 133 60 134 68 135
REMARK SMILES IDX 61 136 62 137 66 138 69 139 63 140 64 141 67 142 65 143
REMARK H PARENT 25 2 25 3 24 5 24 6 23 10 18 16 97 18 19 19 96 20 15 25 13 28
REMARK H PARENT 13 29 9 36 101 38 10 39 100 40 3 47 7 50 26 52 26 53 27 55
REMARK H PARENT 27 56 28 58 28 59 29 61 29 62 30 65 34 71 95 73 35 75 94 76
REMARK H PARENT 93 86 87 88 89 90 92 92 86 93 54 102 57 104 90 107 55 108
REMARK H PARENT 91 110
REMARK Flexibility Score: inf
ROOT
ATOM      1  C   UNL A   1      36.604  30.696  32.512  1.00  0.00    -0.036 C 
ATOM      2  H   UNL A   1      37.646  30.562  32.715  1.00  0.00     0.028 H 
ATOM      3  H   UNL A   1      36.009  29.959  33.010  1.00  0.00     0.028 H 
ENDROOT
BRANCH   1   4
ATOM      4  C   UNL A   1      36.373  30.542  31.007  1.00  0.00     0.018 C 
ATOM      5  H   UNL A   1      37.140  29.923  30.590  1.00  0.00     0.049 H 
ATOM      6  H   UNL A   1      35.418  30.091  30.838  1.00  0.00     0.049 H 
BRANCH   4   7
ATOM      7  N   UNL A   1      36.410  31.845  30.377  1.00  0.00    -0.352 N 
ATOM      8  C   UNL A   1      35.977  32.307  29.163  1.00  0.00     0.251 C 
ATOM      9  O   UNL A   1      36.221  33.480  28.884  1.00  0.00    -0.269 OA
ATOM     10  H   UNL A   1      36.830  32.539  30.934  1.00  0.00     0.163 HD
BRANCH   8  11
ATOM     11  C   UNL A   1      35.158  31.490  28.225  1.00  0.00     0.039 A 
ATOM     12  C   UNL A   1      33.376  29.943  26.721  1.00  0.00     0.066 A 
ATOM     13  C   UNL A   1      32.987  31.209  27.172  1.00  0.00    -0.036 A 
ATOM     14  C   UNL A   1      34.673  29.482  26.943  1.00  0.00    -0.036 A 
ATOM     15  C   UNL A   1      33.864  31.958  27.954  1.00  0.00    -0.047 A 
ATOM     16  H   UNL A   1      32.057  31.585  26.928  1.00  0.00     0.065 H 
ATOM     17  C   UNL A   1      35.577  30.298  27.625  1.00  0.00    -0.047 A 
ATOM     18  H   UNL A   1      34.960  28.550  26.606  1.00  0.00     0.065 H 
ATOM     19  H   UNL A   1      33.559  32.867  28.338  1.00  0.00     0.063 H 
ATOM     20  H   UNL A   1      36.569  30.017  27.688  1.00  0.00     0.063 H 
BRANCH  12  21
ATOM     21  N   UNL A   1      32.456  29.154  26.010  1.00  0.00    -0.220 N 
ATOM     22  C   UNL A   1      31.028  28.331  24.584  1.00  0.00     0.120 A 
ATOM     23  C   UNL A   1      31.873  29.402  24.788  1.00  0.00     0.058 A 
ATOM     24  N   UNL A   1      31.156  27.473  25.646  1.00  0.00    -0.131 NA
ATOM     25  H   UNL A   1      32.032  30.209  24.164  1.00  0.00     0.086 H 
ATOM     26  N   UNL A   1      32.050  27.960  26.483  1.00  0.00    -0.062 NA
BRANCH  22  27
ATOM     27  C   UNL A   1      30.171  27.959  23.418  1.00  0.00     0.134 C 
ATOM     28  H   UNL A   1      29.443  27.252  23.758  1.00  0.00     0.078 H 
ATOM     29  H   UNL A   1      29.751  28.875  23.060  1.00  0.00     0.078 H 
BRANCH  27  30
ATOM     30  O   UNL A   1      30.862  27.378  22.297  1.00  0.00    -0.487 OA
BRANCH  30  31
ATOM     31  C   UNL A   1      31.278  26.078  22.387  1.00  0.00     0.119 A 
ATOM     32  C   UNL A   1      32.034  23.438  22.993  1.00  0.00    -0.024 A 
ATOM     33  C   UNL A   1      30.748  23.887  23.298  1.00  0.00    -0.051 A 
ATOM     34  C   UNL A   1      32.899  24.282  22.293  1.00  0.00    -0.051 A 
ATOM     35  C   UNL A   1      30.378  25.206  23.003  1.00  0.00    -0.019 A 
ATOM     36  H   UNL A   1      30.070  23.248  23.741  1.00  0.00     0.063 H 
ATOM     37  C   UNL A   1      32.507  25.580  21.961  1.00  0.00    -0.019 A 
ATOM     38  H   UNL A   1      33.835  23.944  22.020  1.00  0.00     0.063 H 
ATOM     39  H   UNL A   1      29.430  25.536  23.243  1.00  0.00     0.066 H 
ATOM     40  H   UNL A   1      33.132  26.175  21.395  1.00  0.00     0.066 H 
BRANCH  32  41
ATOM     41  C   UNL A   1      32.474  22.094  23.375  1.00  0.00    -0.035 C 
ATOM     42  O   UNL A   1      34.403  21.545  28.001  1.00  0.00    -0.261 OA
ATOM     43  C   UNL A   1      33.984  21.445  26.849  1.00  0.00     0.290 C 
ATOM     44  N   UNL A   1      34.028  20.328  26.091  1.00  0.00    -0.282 N 
ATOM     45  S   UNL A   1      33.232  22.748  25.956  1.00  0.00    -0.022 SA
ATOM     46  C   UNL A   1      33.509  20.387  24.830  1.00  0.00     0.265 C 
ATOM     47  H   UNL A   1      34.425  19.496  26.437  1.00  0.00     0.174 HD
ATOM     48  C   UNL A   1      33.001  21.758  24.561  1.00  0.00     0.083 C 
ATOM     49  O   UNL A   1      33.483  19.456  24.045  1.00  0.00    -0.268 OA
ATOM     50  H   UNL A   1      32.370  21.344  22.673  1.00  0.00     0.064 H 
ENDBRANCH  32  41
ENDBRANCH  30  31
ENDBRANCH  27  30
ENDBRANCH  22  27
ENDBRANCH  12  21
ENDBRANCH   8  11
ENDBRANCH   4   7
ENDBRANCH   1   4
BRANCH   1  51
ATOM     51  C   UNL A   1      36.175  32.073  33.033  1.00  0.00    -0.052 C 
ATOM     52  H   UNL A   1      35.345  31.935  33.695  1.00  0.00     0.027 H 
ATOM     53  H   UNL A   1      35.937  32.660  32.171  1.00  0.00     0.027 H 
BRANCH  51  54
ATOM     54  C   UNL A   1      37.266  32.849  33.793  1.00  0.00    -0.052 C 
ATOM     55  H   UNL A   1      36.987  32.882  34.825  1.00  0.00     0.027 H 
ATOM     56  H   UNL A   1      37.318  33.809  33.322  1.00  0.00     0.027 H 
BRANCH  54  57
ATOM     57  C   UNL A   1      38.688  32.270  33.709  1.00  0.00    -0.036 C 
ATOM     58  H   UNL A   1      38.650  31.352  33.160  1.00  0.00     0.028 H 
ATOM     59  H   UNL A   1      39.032  32.123  34.710  1.00  0.00     0.028 H 
BRANCH  57  60
ATOM     60  C   UNL A   1      39.671  33.202  33.024  1.00  0.00     0.018 C 
ATOM     61  H   UNL A   1      40.600  32.687  32.888  1.00  0.00     0.049 H 
ATOM     62  H   UNL A   1      39.797  34.065  33.644  1.00  0.00     0.049 H 
BRANCH  60  63
ATOM     63  N   UNL A   1      39.181  33.650  31.713  1.00  0.00    -0.352 N 
ATOM     64  C   UNL A   1      39.658  33.371  30.445  1.00  0.00     0.251 C 
ATOM     65  H   UNL A   1      38.391  34.238  31.742  1.00  0.00     0.163 HD
ATOM     66  O   UNL A   1      39.392  34.097  29.494  1.00  0.00    -0.269 OA
BRANCH  64  67
ATOM     67  C   UNL A   1      40.473  32.164  30.251  1.00  0.00     0.039 A 
ATOM     68  C   UNL A   1      41.872  32.163  30.252  1.00  0.00    -0.049 A 
ATOM     69  C   UNL A   1      39.771  30.981  30.098  1.00  0.00    -0.049 A 
ATOM     70  C   UNL A   1      42.530  30.945  30.089  1.00  0.00    -0.053 A 
ATOM     71  H   UNL A   1      42.403  33.040  30.371  1.00  0.00     0.063 H 
ATOM     72  C   UNL A   1      40.406  29.807  30.336  1.00  0.00    -0.053 A 
ATOM     73  H   UNL A   1      38.782  30.992  29.808  1.00  0.00     0.063 H 
ATOM     74  C   UNL A   1      41.766  29.773  30.109  1.00  0.00    -0.014 A 
ATOM     75  H   UNL A   1      43.553  30.909  29.957  1.00  0.00     0.063 H 
ATOM     76  H   UNL A   1      39.894  28.977  30.672  1.00  0.00     0.063 H 
BRANCH  74  77
ATOM     77  C   UNL A   1      42.306  28.438  29.956  1.00  0.00     0.031 A 
ATOM     78  C   UNL A   1      42.917  27.914  31.193  1.00  0.00     0.074 A 
ATOM     79  C   UNL A   1      41.965  27.657  28.905  1.00  0.00     0.049 A 
ATOM     80  N   UNL A   1      44.171  27.729  31.423  1.00  0.00    -0.248 NA
ATOM     81  C   UNL A   1      42.063  27.768  32.384  1.00  0.00    -0.034 C 
ATOM     82  C   UNL A   1      41.037  27.948  27.801  1.00  0.00    -0.036 A 
ATOM     83  N   UNL A   1      42.291  26.356  28.675  1.00  0.00    -0.354 N 
ATOM     84  C   UNL A   1      44.239  27.217  32.712  1.00  0.00     0.074 A 
ATOM     85  C   UNL A   1      42.975  27.518  33.325  1.00  0.00    -0.034 C 
ATOM     86  H   UNL A   1      41.037  27.840  32.467  1.00  0.00     0.065 H 
ATOM     87  C   UNL A   1      40.707  26.799  27.167  1.00  0.00    -0.036 A 
ATOM     88  H   UNL A   1      40.691  28.887  27.548  1.00  0.00     0.065 H 
ATOM     89  C   UNL A   1      41.499  25.718  27.720  1.00  0.00     0.049 A 
ATOM     90  H   UNL A   1      43.027  25.901  29.146  1.00  0.00     0.167 HD
ATOM     91  C   UNL A   1      45.210  26.323  33.052  1.00  0.00     0.037 A 
ATOM     92  H   UNL A   1      42.798  27.540  34.342  1.00  0.00     0.065 H 
ATOM     93  H   UNL A   1      40.007  26.707  26.414  1.00  0.00     0.065 H 
ATOM     94  C   UNL A   1      41.477  24.378  27.492  1.00  0.00     0.037 A 
ATOM     95  C   UNL A   1      46.244  26.293  32.041  1.00  0.00     0.049 A 
ATOM     96  C   UNL A   1      42.729  23.821  28.085  1.00  0.00     0.074 A 
ATOM     97  C   UNL A   1      47.066  27.253  31.478  1.00  0.00    -0.036 A 
ATOM     98  N   UNL A   1      46.242  25.243  31.152  1.00  0.00    -0.354 N 
ATOM     99  N   UNL A   1      43.923  24.087  27.623  1.00  0.00    -0.248 NA
ATOM    100  C   UNL A   1      42.678  23.424  29.487  1.00  0.00    -0.034 C 
ATOM    101  C   UNL A   1      47.071  26.954  30.082  1.00  0.00    -0.036 A 
ATOM    102  H   UNL A   1      47.566  28.016  31.961  1.00  0.00     0.065 H 
ATOM    103  C   UNL A   1      46.353  25.773  29.891  1.00  0.00     0.049 A 
ATOM    104  H   UNL A   1      46.173  24.287  31.379  1.00  0.00     0.167 HD
ATOM    105  C   UNL A   1      44.695  24.318  28.753  1.00  0.00     0.074 A 
ATOM    106  C   UNL A   1      43.886  23.845  29.875  1.00  0.00    -0.034 C 
ATOM    107  H   UNL A   1      41.930  22.956  30.022  1.00  0.00     0.065 H 
ATOM    108  H   UNL A   1      47.526  27.513  29.343  1.00  0.00     0.065 H 
ATOM    109  C   UNL A   1      45.775  25.157  28.720  1.00  0.00     0.037 A 
ATOM    110  H   UNL A   1      44.210  23.836  30.855  1.00  0.00     0.065 H 
BRANCH  91 111
ATOM    111  C   UNL A   1      45.040  25.201  34.051  1.00  0.00     0.064 A 
ATOM    112  C   UNL A   1      45.767  25.265  35.256  1.00  0.00     0.173 A 
ATOM    113  C   UNL A   1      44.445  23.950  33.772  1.00  0.00     0.173 A 
ATOM    114  F   UNL A   1      46.372  26.403  35.630  1.00  0.00    -0.203 F 
ATOM    115  C   UNL A   1      45.974  24.140  36.057  1.00  0.00     0.198 A 
ATOM    116  C   UNL A   1      44.608  22.844  34.602  1.00  0.00     0.198 A 
ATOM    117  F   UNL A   1      43.778  23.700  32.641  1.00  0.00    -0.203 F 
ATOM    118  F   UNL A   1      46.790  24.221  37.117  1.00  0.00    -0.200 F 
ATOM    119  C   UNL A   1      45.403  22.927  35.723  1.00  0.00     0.200 A 
ATOM    120  F   UNL A   1      44.053  21.675  34.253  1.00  0.00    -0.200 F 
ATOM    121  F   UNL A   1      45.654  21.831  36.450  1.00  0.00    -0.200 F 
ENDBRANCH  91 111
BRANCH  94 122
ATOM    122  C   UNL A   1      40.314  23.529  27.121  1.00  0.00     0.064 A 
ATOM    123  C   UNL A   1      39.042  24.083  26.891  1.00  0.00     0.173 A 
ATOM    124  C   UNL A   1      40.485  22.188  26.722  1.00  0.00     0.173 A 
ATOM    125  F   UNL A   1      38.804  25.369  27.192  1.00  0.00    -0.203 F 
ATOM    126  C   UNL A   1      38.014  23.346  26.287  1.00  0.00     0.198 A 
ATOM    127  C   UNL A   1      39.458  21.453  26.125  1.00  0.00     0.198 A 
ATOM    128  F   UNL A   1      41.682  21.591  26.812  1.00  0.00    -0.203 F 
ATOM    129  F   UNL A   1      36.833  23.928  26.033  1.00  0.00    -0.200 F 
ATOM    130  C   UNL A   1      38.227  22.035  25.897  1.00  0.00     0.200 A 
ATOM    131  F   UNL A   1      39.694  20.198  25.716  1.00  0.00    -0.200 F 
ATOM    132  F   UNL A   1      37.264  21.348  25.265  1.00  0.00    -0.200 F 
ENDBRANCH  94 122
BRANCH 109 133
ATOM    133  C   UNL A   1      46.263  25.657  27.387  1.00  0.00     0.064 A 
ATOM    134  C   UNL A   1      45.648  26.683  26.648  1.00  0.00     0.173 A 
ATOM    135  C   UNL A   1      47.504  25.195  26.928  1.00  0.00     0.173 A 
ATOM    136  F   UNL A   1      44.518  27.259  27.074  1.00  0.00    -0.203 F 
ATOM    137  C   UNL A   1      46.226  27.185  25.482  1.00  0.00     0.198 A 
ATOM    138  C   UNL A   1      48.099  25.725  25.786  1.00  0.00     0.198 A 
ATOM    139  F   UNL A   1      48.170  24.259  27.622  1.00  0.00    -0.203 F 
ATOM    140  F   UNL A   1      45.612  28.157  24.791  1.00  0.00    -0.200 F 
ATOM    141  C   UNL A   1      47.456  26.711  25.057  1.00  0.00     0.200 A 
ATOM    142  F   UNL A   1      49.314  25.300  25.413  1.00  0.00    -0.200 F 
ATOM    143  F   UNL A   1      48.034  27.222  23.962  1.00  0.00    -0.200 F 
ENDBRANCH 109 133
ENDBRANCH  74  77
ENDBRANCH  64  67
ENDBRANCH  60  63
ENDBRANCH  57  60
ENDBRANCH  54  57
ENDBRANCH  51  54
ENDBRANCH   1  51
TORSDOF 18
ENDMDL
MODEL 4
REMARK VINA RESULT:     -12.6      3.652      7.639
REMARK SMILES O=C1NC(=O)/C(=C/c2ccc(OCc3cn(-c4ccc(C(=O)NCCCCCCNC(=O)c5ccc(-c6c7nc(c(-c8c(F)c(F)c(F)c(F)c8F)c8ccc([nH]8)c(-c8c(F)c(F)c(F)c(F)c8F)c8nc(c(-c9c(F)c(F)c(F)c(F)c9F)c9ccc6[nH]9)C=C8)C=C7)cc5)cc4)nn3)cc2)S1
REMARK SMILES IDX 25 1 24 4 23 7 21 8 22 9 20 11 17 12 18 13 97 14 19 15 96 17
REMARK SMILES IDX 16 21 14 22 15 23 99 24 98 26 13 27 12 30 11 31 8 32 9 33
REMARK SMILES IDX 101 34 10 35 100 37 7 41 1 42 2 43 3 44 102 45 4 46 6 48
REMARK SMILES IDX 5 49 26 51 27 54 28 57 29 60 30 63 31 64 32 66 33 67 34 68
REMARK SMILES IDX 95 69 35 70 94 72 36 74 37 77 38 78 88 79 39 80 93 81 87 82
REMARK SMILES IDX 89 83 40 84 92 85 86 87 85 89 41 91 73 94 53 95 72 96 54 97
REMARK SMILES IDX 57 98 71 99 90 100 55 101 56 103 70 105 91 106 58 109 42 111
REMARK SMILES IDX 43 112 51 113 44 114 45 115 49 116 52 117 46 118 47 119
REMARK SMILES IDX 50 120 48 121 74 122 75 123 83 124 76 125 77 126 81 127
REMARK SMILES IDX 84 128 78 129 79 130 82 131 80 132 59 133 60 134 68 135
REMARK SMILES IDX 61 136 62 137 66 138 69 139 63 140 64 141 67 142 65 143
REMARK H PARENT 25 2 25 3 24 5 24 6 23 10 18 16 97 18 19 19 96 20 15 25 13 28
REMARK H PARENT 13 29 9 36 101 38 10 39 100 40 3 47 7 50 26 52 26 53 27 55
REMARK H PARENT 27 56 28 58 28 59 29 61 29 62 30 65 34 71 95 73 35 75 94 76
REMARK H PARENT 93 86 87 88 89 90 92 92 86 93 54 102 57 104 90 107 55 108
REMARK H PARENT 91 110
REMARK Flexibility Score: inf
ROOT
ATOM      1  C   UNL A   1      44.125  24.078  24.891  1.00  0.00    -0.036 C 
ATOM      2  H   UNL A   1      44.399  24.227  23.867  1.00  0.00     0.028 H 
ATOM      3  H   UNL A   1      44.982  23.885  25.502  1.00  0.00     0.028 H 
ENDROOT
BRANCH   1   4
ATOM      4  C   UNL A   1      43.206  22.857  24.980  1.00  0.00     0.018 C 
ATOM      5  H   UNL A   1      42.228  23.121  24.636  1.00  0.00     0.049 H 
ATOM      6  H   UNL A   1      43.599  22.070  24.372  1.00  0.00     0.049 H 
BRANCH   4   7
ATOM      7  N   UNL A   1      43.129  22.412  26.355  1.00  0.00    -0.352 N 
ATOM      8  C   UNL A   1      42.087  22.262  27.231  1.00  0.00     0.251 C 
ATOM      9  O   UNL A   1      42.359  21.920  28.381  1.00  0.00    -0.269 OA
ATOM     10  H   UNL A   1      44.002  22.166  26.739  1.00  0.00     0.163 HD
BRANCH   8  11
ATOM     11  C   UNL A   1      40.660  22.402  26.829  1.00  0.00     0.039 A 
ATOM     12  C   UNL A   1      38.081  22.561  25.753  1.00  0.00     0.066 A 
ATOM     13  C   UNL A   1      38.758  21.336  25.757  1.00  0.00    -0.036 A 
ATOM     14  C   UNL A   1      38.648  23.683  26.357  1.00  0.00    -0.036 A 
ATOM     15  C   UNL A   1      40.056  21.272  26.258  1.00  0.00    -0.047 A 
ATOM     16  H   UNL A   1      38.299  20.488  25.391  1.00  0.00     0.065 H 
ATOM     17  C   UNL A   1      39.901  23.570  26.962  1.00  0.00    -0.047 A 
ATOM     18  H   UNL A   1      38.146  24.584  26.358  1.00  0.00     0.065 H 
ATOM     19  H   UNL A   1      40.580  20.384  26.209  1.00  0.00     0.063 H 
ATOM     20  H   UNL A   1      40.272  24.358  27.515  1.00  0.00     0.063 H 
BRANCH  12  21
ATOM     21  N   UNL A   1      36.808  22.642  25.165  1.00  0.00    -0.220 N 
ATOM     22  C   UNL A   1      34.675  22.602  24.716  1.00  0.00     0.120 A 
ATOM     23  C   UNL A   1      35.577  22.441  25.748  1.00  0.00     0.058 A 
ATOM     24  N   UNL A   1      35.374  22.926  23.581  1.00  0.00    -0.131 NA
ATOM     25  H   UNL A   1      35.373  22.220  26.735  1.00  0.00     0.086 H 
ATOM     26  N   UNL A   1      36.658  22.986  23.872  1.00  0.00    -0.062 NA
BRANCH  22  27
ATOM     27  C   UNL A   1      33.182  22.594  24.701  1.00  0.00     0.134 C 
ATOM     28  H   UNL A   1      32.861  21.595  24.489  1.00  0.00     0.078 H 
ATOM     29  H   UNL A   1      32.878  22.953  25.661  1.00  0.00     0.078 H 
BRANCH  27  30
ATOM     30  O   UNL A   1      32.564  23.470  23.740  1.00  0.00    -0.487 OA
BRANCH  30  31
ATOM     31  C   UNL A   1      32.304  24.763  24.106  1.00  0.00     0.119 A 
ATOM     32  C   UNL A   1      31.439  27.397  24.574  1.00  0.00    -0.024 A 
ATOM     33  C   UNL A   1      30.555  26.329  24.738  1.00  0.00    -0.051 A 
ATOM     34  C   UNL A   1      32.777  27.131  24.278  1.00  0.00    -0.051 A 
ATOM     35  C   UNL A   1      30.987  25.019  24.494  1.00  0.00    -0.019 A 
ATOM     36  H   UNL A   1      29.583  26.504  25.037  1.00  0.00     0.063 H 
ATOM     37  C   UNL A   1      33.211  25.819  24.082  1.00  0.00    -0.019 A 
ATOM     38  H   UNL A   1      33.449  27.909  24.202  1.00  0.00     0.063 H 
ATOM     39  H   UNL A   1      30.325  24.234  24.603  1.00  0.00     0.066 H 
ATOM     40  H   UNL A   1      34.213  25.629  23.920  1.00  0.00     0.066 H 
BRANCH  32  41
ATOM     41  C   UNL A   1      30.987  28.781  24.733  1.00  0.00    -0.035 C 
ATOM     42  O   UNL A   1      28.198  30.720  21.006  1.00  0.00    -0.261 OA
ATOM     43  C   UNL A   1      28.857  30.467  22.013  1.00  0.00     0.290 C 
ATOM     44  N   UNL A   1      29.161  31.343  22.995  1.00  0.00    -0.282 N 
ATOM     45  S   UNL A   1      29.535  28.896  22.378  1.00  0.00    -0.022 SA
ATOM     46  C   UNL A   1      29.899  30.893  24.052  1.00  0.00     0.265 C 
ATOM     47  H   UNL A   1      28.861  32.279  22.949  1.00  0.00     0.174 HD
ATOM     48  C   UNL A   1      30.233  29.457  23.854  1.00  0.00     0.083 C 
ATOM     49  O   UNL A   1      30.239  31.573  25.001  1.00  0.00    -0.268 OA
ATOM     50  H   UNL A   1      31.271  29.278  25.592  1.00  0.00     0.064 H 
ENDBRANCH  32  41
ENDBRANCH  30  31
ENDBRANCH  27  30
ENDBRANCH  22  27
ENDBRANCH  12  21
ENDBRANCH   8  11
ENDBRANCH   4   7
ENDBRANCH   1   4
BRANCH   1  51
ATOM     51  C   UNL A   1      43.456  25.356  25.412  1.00  0.00    -0.052 C 
ATOM     52  H   UNL A   1      42.634  25.071  26.034  1.00  0.00     0.027 H 
ATOM     53  H   UNL A   1      43.162  25.914  24.548  1.00  0.00     0.027 H 
BRANCH  51  54
ATOM     54  C   UNL A   1      44.375  26.282  26.231  1.00  0.00    -0.052 C 
ATOM     55  H   UNL A   1      43.867  26.527  27.139  1.00  0.00     0.027 H 
ATOM     56  H   UNL A   1      44.572  27.123  25.599  1.00  0.00     0.027 H 
BRANCH  54  57
ATOM     57  C   UNL A   1      45.753  25.709  26.601  1.00  0.00    -0.036 C 
ATOM     58  H   UNL A   1      46.508  26.344  26.188  1.00  0.00     0.028 H 
ATOM     59  H   UNL A   1      45.802  24.717  26.203  1.00  0.00     0.028 H 
BRANCH  57  60
ATOM     60  C   UNL A   1      45.972  25.607  28.100  1.00  0.00     0.018 C 
ATOM     61  H   UNL A   1      45.693  26.536  28.554  1.00  0.00     0.049 H 
ATOM     62  H   UNL A   1      47.006  25.391  28.270  1.00  0.00     0.049 H 
BRANCH  60  63
ATOM     63  N   UNL A   1      45.176  24.527  28.699  1.00  0.00    -0.352 N 
ATOM     64  C   UNL A   1      44.261  24.569  29.735  1.00  0.00     0.251 C 
ATOM     65  H   UNL A   1      45.314  23.637  28.301  1.00  0.00     0.163 HD
ATOM     66  O   UNL A   1      43.966  23.559  30.362  1.00  0.00    -0.269 OA
BRANCH  64  67
ATOM     67  C   UNL A   1      43.622  25.854  30.056  1.00  0.00     0.039 A 
ATOM     68  C   UNL A   1      44.022  26.678  31.113  1.00  0.00    -0.049 A 
ATOM     69  C   UNL A   1      42.594  26.242  29.214  1.00  0.00    -0.049 A 
ATOM     70  C   UNL A   1      43.355  27.889  31.293  1.00  0.00    -0.053 A 
ATOM     71  H   UNL A   1      44.792  26.398  31.742  1.00  0.00     0.063 H 
ATOM     72  C   UNL A   1      42.246  27.551  29.166  1.00  0.00    -0.053 A 
ATOM     73  H   UNL A   1      42.101  25.547  28.632  1.00  0.00     0.063 H 
ATOM     74  C   UNL A   1      42.445  28.295  30.310  1.00  0.00    -0.014 A 
ATOM     75  H   UNL A   1      43.528  28.470  32.129  1.00  0.00     0.063 H 
ATOM     76  H   UNL A   1      41.849  27.972  28.312  1.00  0.00     0.063 H 
BRANCH  74  77
ATOM     77  C   UNL A   1      41.681  29.524  30.357  1.00  0.00     0.031 A 
ATOM     78  C   UNL A   1      42.429  30.691  29.851  1.00  0.00     0.074 A 
ATOM     79  C   UNL A   1      40.337  29.512  30.516  1.00  0.00     0.049 A 
ATOM     80  N   UNL A   1      42.893  31.677  30.540  1.00  0.00    -0.248 NA
ATOM     81  C   UNL A   1      42.894  30.667  28.453  1.00  0.00    -0.034 C 
ATOM     82  C   UNL A   1      39.432  28.359  30.640  1.00  0.00    -0.036 A 
ATOM     83  N   UNL A   1      39.470  30.560  30.470  1.00  0.00    -0.354 N 
ATOM     84  C   UNL A   1      43.504  32.517  29.618  1.00  0.00     0.074 A 
ATOM     85  C   UNL A   1      43.704  31.727  28.434  1.00  0.00    -0.034 C 
ATOM     86  H   UNL A   1      42.655  30.010  27.695  1.00  0.00     0.065 H 
ATOM     87  C   UNL A   1      38.156  28.756  30.427  1.00  0.00    -0.036 A 
ATOM     88  H   UNL A   1      39.727  27.394  30.856  1.00  0.00     0.065 H 
ATOM     89  C   UNL A   1      38.133  30.199  30.295  1.00  0.00     0.049 A 
ATOM     90  H   UNL A   1      39.762  31.497  30.552  1.00  0.00     0.167 HD
ATOM     91  C   UNL A   1      43.508  33.866  29.806  1.00  0.00     0.037 A 
ATOM     92  H   UNL A   1      44.376  31.946  27.682  1.00  0.00     0.065 H 
ATOM     93  H   UNL A   1      37.335  28.133  30.369  1.00  0.00     0.065 H 
ATOM     94  C   UNL A   1      37.126  31.058  29.986  1.00  0.00     0.037 A 
ATOM     95  C   UNL A   1      43.120  34.187  31.163  1.00  0.00     0.049 A 
ATOM     96  C   UNL A   1      37.612  32.429  30.327  1.00  0.00     0.074 A 
ATOM     97  C   UNL A   1      43.597  33.825  32.410  1.00  0.00    -0.036 A 
ATOM     98  N   UNL A   1      41.834  34.631  31.374  1.00  0.00    -0.354 N 
ATOM     99  N   UNL A   1      37.850  32.824  31.550  1.00  0.00    -0.248 NA
ATOM    100  C   UNL A   1      38.336  33.152  29.288  1.00  0.00    -0.034 C 
ATOM    101  C   UNL A   1      42.426  33.569  33.187  1.00  0.00    -0.036 A 
ATOM    102  H   UNL A   1      44.581  33.756  32.712  1.00  0.00     0.065 H 
ATOM    103  C   UNL A   1      41.314  33.898  32.412  1.00  0.00     0.049 A 
ATOM    104  H   UNL A   1      41.373  35.342  30.874  1.00  0.00     0.167 HD
ATOM    105  C   UNL A   1      39.049  33.520  31.470  1.00  0.00     0.074 A 
ATOM    106  C   UNL A   1      39.274  33.732  30.042  1.00  0.00    -0.034 C 
ATOM    107  H   UNL A   1      38.171  33.201  28.270  1.00  0.00     0.065 H 
ATOM    108  H   UNL A   1      42.407  33.205  34.152  1.00  0.00     0.065 H 
ATOM    109  C   UNL A   1      39.910  33.581  32.531  1.00  0.00     0.037 A 
ATOM    110  H   UNL A   1      40.068  34.270  29.658  1.00  0.00     0.065 H 
BRANCH  91 111
ATOM    111  C   UNL A   1      43.453  34.894  28.699  1.00  0.00     0.064 A 
ATOM    112  C   UNL A   1      44.668  35.411  28.208  1.00  0.00     0.173 A 
ATOM    113  C   UNL A   1      42.294  35.600  28.304  1.00  0.00     0.173 A 
ATOM    114  F   UNL A   1      45.834  34.822  28.513  1.00  0.00    -0.203 F 
ATOM    115  C   UNL A   1      44.726  36.601  27.478  1.00  0.00     0.198 A 
ATOM    116  C   UNL A   1      42.352  36.756  27.528  1.00  0.00     0.198 A 
ATOM    117  F   UNL A   1      41.069  35.282  28.733  1.00  0.00    -0.203 F 
ATOM    118  F   UNL A   1      45.916  37.125  27.158  1.00  0.00    -0.200 F 
ATOM    119  C   UNL A   1      43.568  37.278  27.148  1.00  0.00     0.200 A 
ATOM    120  F   UNL A   1      41.216  37.401  27.228  1.00  0.00    -0.200 F 
ATOM    121  F   UNL A   1      43.622  38.452  26.508  1.00  0.00    -0.200 F 
ENDBRANCH  91 111
BRANCH  94 122
ATOM    122  C   UNL A   1      35.946  30.815  29.115  1.00  0.00     0.064 A 
ATOM    123  C   UNL A   1      34.902  31.751  29.013  1.00  0.00     0.173 A 
ATOM    124  C   UNL A   1      35.944  29.780  28.158  1.00  0.00     0.173 A 
ATOM    125  F   UNL A   1      34.853  32.800  29.849  1.00  0.00    -0.203 F 
ATOM    126  C   UNL A   1      33.929  31.664  28.008  1.00  0.00     0.198 A 
ATOM    127  C   UNL A   1      34.970  29.691  27.161  1.00  0.00     0.198 A 
ATOM    128  F   UNL A   1      36.942  28.887  28.110  1.00  0.00    -0.203 F 
ATOM    129  F   UNL A   1      32.982  32.609  27.909  1.00  0.00    -0.200 F 
ATOM    130  C   UNL A   1      33.970  30.639  27.078  1.00  0.00     0.200 A 
ATOM    131  F   UNL A   1      35.049  28.716  26.244  1.00  0.00    -0.200 F 
ATOM    132  F   UNL A   1      33.075  30.588  26.081  1.00  0.00    -0.200 F 
ENDBRANCH  94 122
BRANCH 109 133
ATOM    133  C   UNL A   1      39.445  33.080  33.871  1.00  0.00     0.064 A 
ATOM    134  C   UNL A   1      39.508  31.737  34.284  1.00  0.00     0.173 A 
ATOM    135  C   UNL A   1      39.084  34.029  34.838  1.00  0.00     0.173 A 
ATOM    136  F   UNL A   1      39.949  30.781  33.459  1.00  0.00    -0.203 F 
ATOM    137  C   UNL A   1      39.180  31.362  35.587  1.00  0.00     0.198 A 
ATOM    138  C   UNL A   1      38.796  33.657  36.148  1.00  0.00     0.198 A 
ATOM    139  F   UNL A   1      39.064  35.333  34.522  1.00  0.00    -0.203 F 
ATOM    140  F   UNL A   1      39.240  30.072  35.950  1.00  0.00    -0.200 F 
ATOM    141  C   UNL A   1      38.833  32.323  36.520  1.00  0.00     0.200 A 
ATOM    142  F   UNL A   1      38.515  34.599  37.059  1.00  0.00    -0.200 F 
ATOM    143  F   UNL A   1      38.559  31.970  37.784  1.00  0.00    -0.200 F 
ENDBRANCH 109 133
ENDBRANCH  74  77
ENDBRANCH  64  67
ENDBRANCH  60  63
ENDBRANCH  57  60
ENDBRANCH  54  57
ENDBRANCH  51  54
ENDBRANCH   1  51
TORSDOF 18
ENDMDL
MODEL 5
REMARK VINA RESULT:     -12.4      3.921      7.499
REMARK SMILES O=C1NC(=O)/C(=C/c2ccc(OCc3cn(-c4ccc(C(=O)NCCCCCCNC(=O)c5ccc(-c6c7nc(c(-c8c(F)c(F)c(F)c(F)c8F)c8ccc([nH]8)c(-c8c(F)c(F)c(F)c(F)c8F)c8nc(c(-c9c(F)c(F)c(F)c(F)c9F)c9ccc6[nH]9)C=C8)C=C7)cc5)cc4)nn3)cc2)S1
REMARK SMILES IDX 25 1 24 4 23 7 21 8 22 9 20 11 17 12 18 13 97 14 19 15 96 17
REMARK SMILES IDX 16 21 14 22 15 23 99 24 98 26 13 27 12 30 11 31 8 32 9 33
REMARK SMILES IDX 101 34 10 35 100 37 7 41 1 42 2 43 3 44 102 45 4 46 6 48
REMARK SMILES IDX 5 49 26 51 27 54 28 57 29 60 30 63 31 64 32 66 33 67 34 68
REMARK SMILES IDX 95 69 35 70 94 72 36 74 37 77 38 78 88 79 39 80 93 81 87 82
REMARK SMILES IDX 89 83 40 84 92 85 86 87 85 89 41 91 73 94 53 95 72 96 54 97
REMARK SMILES IDX 57 98 71 99 90 100 55 101 56 103 70 105 91 106 58 109 42 111
REMARK SMILES IDX 43 112 51 113 44 114 45 115 49 116 52 117 46 118 47 119
REMARK SMILES IDX 50 120 48 121 74 122 75 123 83 124 76 125 77 126 81 127
REMARK SMILES IDX 84 128 78 129 79 130 82 131 80 132 59 133 60 134 68 135
REMARK SMILES IDX 61 136 62 137 66 138 69 139 63 140 64 141 67 142 65 143
REMARK H PARENT 25 2 25 3 24 5 24 6 23 10 18 16 97 18 19 19 96 20 15 25 13 28
REMARK H PARENT 13 29 9 36 101 38 10 39 100 40 3 47 7 50 26 52 26 53 27 55
REMARK H PARENT 27 56 28 58 28 59 29 61 29 62 30 65 34 71 95 73 35 75 94 76
REMARK H PARENT 93 86 87 88 89 90 92 92 86 93 54 102 57 104 90 107 55 108
REMARK H PARENT 91 110
REMARK Flexibility Score: inf
ROOT
ATOM      1  C   UNL A   1      39.565  28.559  27.553  1.00  0.00    -0.036 C 
ATOM      2  H   UNL A   1      39.264  28.255  26.572  1.00  0.00     0.028 H 
ATOM      3  H   UNL A   1      40.570  28.926  27.559  1.00  0.00     0.028 H 
ENDROOT
BRANCH   1   4
ATOM      4  C   UNL A   1      39.507  27.345  28.482  1.00  0.00     0.018 C 
ATOM      5  H   UNL A   1      39.220  27.660  29.463  1.00  0.00     0.049 H 
ATOM      6  H   UNL A   1      38.791  26.644  28.108  1.00  0.00     0.049 H 
BRANCH   4   7
ATOM      7  N   UNL A   1      40.811  26.719  28.540  1.00  0.00    -0.352 N 
ATOM      8  C   UNL A   1      41.265  25.474  28.193  1.00  0.00     0.251 C 
ATOM      9  O   UNL A   1      42.444  25.215  28.433  1.00  0.00    -0.269 OA
ATOM     10  H   UNL A   1      41.514  27.307  28.900  1.00  0.00     0.163 HD
BRANCH   8  11
ATOM     11  C   UNL A   1      40.432  24.476  27.467  1.00  0.00     0.039 A 
ATOM     12  C   UNL A   1      38.601  22.698  26.319  1.00  0.00     0.066 A 
ATOM     13  C   UNL A   1      38.343  24.073  26.294  1.00  0.00    -0.036 A 
ATOM     14  C   UNL A   1      39.803  22.215  26.835  1.00  0.00    -0.036 A 
ATOM     15  C   UNL A   1      39.238  24.950  26.903  1.00  0.00    -0.047 A 
ATOM     16  H   UNL A   1      37.495  24.434  25.830  1.00  0.00     0.065 H 
ATOM     17  C   UNL A   1      40.742  23.120  27.332  1.00  0.00    -0.047 A 
ATOM     18  H   UNL A   1      39.995  21.201  26.848  1.00  0.00     0.065 H 
ATOM     19  H   UNL A   1      39.021  25.959  26.938  1.00  0.00     0.063 H 
ATOM     20  H   UNL A   1      41.680  22.783  27.603  1.00  0.00     0.063 H 
BRANCH  12  21
ATOM     21  N   UNL A   1      37.653  21.810  25.784  1.00  0.00    -0.220 N 
ATOM     22  C   UNL A   1      35.846  20.770  25.150  1.00  0.00     0.120 A 
ATOM     23  C   UNL A   1      36.283  21.938  25.739  1.00  0.00     0.058 A 
ATOM     24  N   UNL A   1      36.942  20.012  24.831  1.00  0.00    -0.131 NA
ATOM     25  H   UNL A   1      35.711  22.731  26.072  1.00  0.00     0.086 H 
ATOM     26  N   UNL A   1      38.031  20.667  25.183  1.00  0.00    -0.062 NA
BRANCH  22  27
ATOM     27  C   UNL A   1      34.480  20.322  24.742  1.00  0.00     0.134 C 
ATOM     28  H   UNL A   1      34.419  20.385  23.675  1.00  0.00     0.078 H 
ATOM     29  H   UNL A   1      34.371  19.330  25.126  1.00  0.00     0.078 H 
BRANCH  27  30
ATOM     30  O   UNL A   1      33.386  21.078  25.293  1.00  0.00    -0.487 OA
BRANCH  30  31
ATOM     31  C   UNL A   1      33.281  22.405  24.974  1.00  0.00     0.119 A 
ATOM     32  C   UNL A   1      33.444  25.077  24.114  1.00  0.00    -0.024 A 
ATOM     33  C   UNL A   1      33.509  24.035  23.185  1.00  0.00    -0.051 A 
ATOM     34  C   UNL A   1      33.194  24.776  25.454  1.00  0.00    -0.051 A 
ATOM     35  C   UNL A   1      33.437  22.705  23.619  1.00  0.00    -0.019 A 
ATOM     36  H   UNL A   1      33.612  24.246  22.180  1.00  0.00     0.063 H 
ATOM     37  C   UNL A   1      33.076  23.449  25.871  1.00  0.00    -0.019 A 
ATOM     38  H   UNL A   1      33.096  25.540  26.140  1.00  0.00     0.063 H 
ATOM     39  H   UNL A   1      33.499  21.940  22.929  1.00  0.00     0.066 H 
ATOM     40  H   UNL A   1      32.835  23.241  26.853  1.00  0.00     0.066 H 
BRANCH  32  41
ATOM     41  C   UNL A   1      33.610  26.471  23.696  1.00  0.00    -0.035 C 
ATOM     42  O   UNL A   1      29.495  28.870  22.041  1.00  0.00    -0.261 OA
ATOM     43  C   UNL A   1      30.612  28.491  22.391  1.00  0.00     0.290 C 
ATOM     44  N   UNL A   1      31.751  29.212  22.302  1.00  0.00    -0.282 N 
ATOM     45  S   UNL A   1      30.947  26.923  23.091  1.00  0.00    -0.022 SA
ATOM     46  C   UNL A   1      32.908  28.641  22.746  1.00  0.00     0.265 C 
ATOM     47  H   UNL A   1      31.746  30.122  21.925  1.00  0.00     0.174 HD
ATOM     48  C   UNL A   1      32.632  27.266  23.239  1.00  0.00     0.083 C 
ATOM     49  O   UNL A   1      34.000  29.179  22.726  1.00  0.00    -0.268 OA
ATOM     50  H   UNL A   1      34.558  26.875  23.758  1.00  0.00     0.064 H 
ENDBRANCH  32  41
ENDBRANCH  30  31
ENDBRANCH  27  30
ENDBRANCH  22  27
ENDBRANCH  12  21
ENDBRANCH   8  11
ENDBRANCH   4   7
ENDBRANCH   1   4
BRANCH   1  51
ATOM     51  C   UNL A   1      38.648  29.698  28.017  1.00  0.00    -0.052 C 
ATOM     52  H   UNL A   1      38.683  30.474  27.282  1.00  0.00     0.027 H 
ATOM     53  H   UNL A   1      39.013  30.003  28.976  1.00  0.00     0.027 H 
BRANCH  51  54
ATOM     54  C   UNL A   1      37.175  29.302  28.224  1.00  0.00    -0.052 C 
ATOM     55  H   UNL A   1      36.949  29.409  29.264  1.00  0.00     0.027 H 
ATOM     56  H   UNL A   1      37.092  28.300  27.858  1.00  0.00     0.027 H 
BRANCH  54  57
ATOM     57  C   UNL A   1      36.140  30.119  27.431  1.00  0.00    -0.036 C 
ATOM     58  H   UNL A   1      36.026  29.676  26.464  1.00  0.00     0.028 H 
ATOM     59  H   UNL A   1      36.505  31.122  27.372  1.00  0.00     0.028 H 
BRANCH  57  60
ATOM     60  C   UNL A   1      34.780  30.170  28.104  1.00  0.00     0.018 C 
ATOM     61  H   UNL A   1      34.845  29.681  29.054  1.00  0.00     0.049 H 
ATOM     62  H   UNL A   1      34.076  29.679  27.466  1.00  0.00     0.049 H 
BRANCH  60  63
ATOM     63  N   UNL A   1      34.322  31.551  28.311  1.00  0.00    -0.352 N 
ATOM     64  C   UNL A   1      34.612  32.438  29.332  1.00  0.00     0.251 C 
ATOM     65  H   UNL A   1      33.717  31.899  27.616  1.00  0.00     0.163 HD
ATOM     66  O   UNL A   1      33.881  33.392  29.569  1.00  0.00    -0.269 OA
BRANCH  64  67
ATOM     67  C   UNL A   1      35.838  32.229  30.116  1.00  0.00     0.039 A 
ATOM     68  C   UNL A   1      35.906  31.407  31.246  1.00  0.00    -0.049 A 
ATOM     69  C   UNL A   1      36.969  32.877  29.651  1.00  0.00    -0.049 A 
ATOM     70  C   UNL A   1      37.137  31.267  31.885  1.00  0.00    -0.053 A 
ATOM     71  H   UNL A   1      35.068  30.916  31.596  1.00  0.00     0.063 H 
ATOM     72  C   UNL A   1      38.187  32.424  30.034  1.00  0.00    -0.053 A 
ATOM     73  H   UNL A   1      36.886  33.690  29.022  1.00  0.00     0.063 H 
ATOM     74  C   UNL A   1      38.269  31.811  31.267  1.00  0.00    -0.014 A 
ATOM     75  H   UNL A   1      37.212  30.776  32.790  1.00  0.00     0.063 H 
ATOM     76  H   UNL A   1      39.017  32.533  29.430  1.00  0.00     0.063 H 
BRANCH  74  77
ATOM     77  C   UNL A   1      39.611  31.743  31.806  1.00  0.00     0.031 A 
ATOM     78  C   UNL A   1      40.008  32.967  32.528  1.00  0.00     0.074 A 
ATOM     79  C   UNL A   1      40.264  30.563  31.923  1.00  0.00     0.049 A 
ATOM     80  N   UNL A   1      40.867  33.849  32.150  1.00  0.00    -0.248 NA
ATOM     81  C   UNL A   1      39.220  33.365  33.707  1.00  0.00    -0.034 C 
ATOM     82  C   UNL A   1      39.794  29.210  31.586  1.00  0.00    -0.036 A 
ATOM     83  N   UNL A   1      41.469  30.317  32.503  1.00  0.00    -0.354 N 
ATOM     84  C   UNL A   1      40.897  34.796  33.166  1.00  0.00     0.074 A 
ATOM     85  C   UNL A   1      39.700  34.590  33.934  1.00  0.00    -0.034 C 
ATOM     86  H   UNL A   1      38.495  32.839  34.219  1.00  0.00     0.065 H 
ATOM     87  C   UNL A   1      40.594  28.290  32.173  1.00  0.00    -0.036 A 
ATOM     88  H   UNL A   1      38.978  28.996  30.993  1.00  0.00     0.065 H 
ATOM     89  C   UNL A   1      41.706  28.974  32.804  1.00  0.00     0.049 A 
ATOM     90  H   UNL A   1      42.122  31.029  32.698  1.00  0.00     0.167 HD
ATOM     91  C   UNL A   1      42.050  35.456  33.464  1.00  0.00     0.037 A 
ATOM     92  H   UNL A   1      39.273  35.285  34.566  1.00  0.00     0.065 H 
ATOM     93  H   UNL A   1      40.438  27.270  32.172  1.00  0.00     0.065 H 
ATOM     94  C   UNL A   1      42.718  28.515  33.586  1.00  0.00     0.037 A 
ATOM     95  C   UNL A   1      43.025  35.270  32.412  1.00  0.00     0.049 A 
ATOM     96  C   UNL A   1      43.735  29.607  33.657  1.00  0.00     0.074 A 
ATOM     97  C   UNL A   1      43.024  35.505  31.049  1.00  0.00    -0.036 A 
ATOM     98  N   UNL A   1      44.038  34.363  32.628  1.00  0.00    -0.354 N 
ATOM     99  N   UNL A   1      44.437  30.003  32.627  1.00  0.00    -0.248 NA
ATOM    100  C   UNL A   1      43.573  30.594  34.717  1.00  0.00    -0.034 C 
ATOM    101  C   UNL A   1      43.653  34.356  30.480  1.00  0.00    -0.036 A 
ATOM    102  H   UNL A   1      42.652  36.330  30.552  1.00  0.00     0.065 H 
ATOM    103  C   UNL A   1      44.100  33.548  31.526  1.00  0.00     0.049 A 
ATOM    104  H   UNL A   1      44.611  34.309  33.427  1.00  0.00     0.167 HD
ATOM    105  C   UNL A   1      44.427  31.389  32.706  1.00  0.00     0.074 A 
ATOM    106  C   UNL A   1      43.923  31.694  34.043  1.00  0.00    -0.034 C 
ATOM    107  H   UNL A   1      43.277  30.478  35.699  1.00  0.00     0.065 H 
ATOM    108  H   UNL A   1      43.759  34.158  29.473  1.00  0.00     0.065 H 
ATOM    109  C   UNL A   1      44.520  32.167  31.585  1.00  0.00     0.037 A 
ATOM    110  H   UNL A   1      43.845  32.651  34.425  1.00  0.00     0.065 H 
BRANCH  91 111
ATOM    111  C   UNL A   1      42.451  35.913  34.849  1.00  0.00     0.064 A 
ATOM    112  C   UNL A   1      42.921  37.232  35.006  1.00  0.00     0.173 A 
ATOM    113  C   UNL A   1      42.676  35.059  35.952  1.00  0.00     0.173 A 
ATOM    114  F   UNL A   1      42.761  38.136  34.027  1.00  0.00    -0.203 F 
ATOM    115  C   UNL A   1      43.652  37.630  36.127  1.00  0.00     0.198 A 
ATOM    116  C   UNL A   1      43.357  35.475  37.093  1.00  0.00     0.198 A 
ATOM    117  F   UNL A   1      42.353  33.762  35.942  1.00  0.00    -0.203 F 
ATOM    118  F   UNL A   1      44.197  38.853  36.164  1.00  0.00    -0.200 F 
ATOM    119  C   UNL A   1      43.879  36.747  37.165  1.00  0.00     0.200 A 
ATOM    120  F   UNL A   1      43.574  34.599  38.084  1.00  0.00    -0.200 F 
ATOM    121  F   UNL A   1      44.636  37.102  38.211  1.00  0.00    -0.200 F 
ENDBRANCH  91 111
BRANCH  94 122
ATOM    122  C   UNL A   1      42.698  27.370  34.533  1.00  0.00     0.064 A 
ATOM    123  C   UNL A   1      41.926  27.399  35.707  1.00  0.00     0.173 A 
ATOM    124  C   UNL A   1      43.228  26.114  34.173  1.00  0.00     0.173 A 
ATOM    125  F   UNL A   1      41.339  28.540  36.099  1.00  0.00    -0.203 F 
ATOM    126  C   UNL A   1      41.687  26.242  36.463  1.00  0.00     0.198 A 
ATOM    127  C   UNL A   1      42.995  24.963  34.930  1.00  0.00     0.198 A 
ATOM    128  F   UNL A   1      43.903  25.956  33.026  1.00  0.00    -0.203 F 
ATOM    129  F   UNL A   1      40.898  26.300  37.546  1.00  0.00    -0.200 F 
ATOM    130  C   UNL A   1      42.215  25.024  36.068  1.00  0.00     0.200 A 
ATOM    131  F   UNL A   1      43.478  23.785  34.510  1.00  0.00    -0.200 F 
ATOM    132  F   UNL A   1      41.938  23.908  36.756  1.00  0.00    -0.200 F 
ENDBRANCH  94 122
BRANCH 109 133
ATOM    133  C   UNL A   1      44.864  31.513  30.275  1.00  0.00     0.064 A 
ATOM    134  C   UNL A   1      43.918  31.040  29.348  1.00  0.00     0.173 A 
ATOM    135  C   UNL A   1      46.205  31.525  29.868  1.00  0.00     0.173 A 
ATOM    136  F   UNL A   1      42.607  31.096  29.611  1.00  0.00    -0.203 F 
ATOM    137  C   UNL A   1      44.304  30.561  28.096  1.00  0.00     0.198 A 
ATOM    138  C   UNL A   1      46.585  31.084  28.603  1.00  0.00     0.198 A 
ATOM    139  F   UNL A   1      47.149  32.019  30.684  1.00  0.00    -0.203 F 
ATOM    140  F   UNL A   1      43.380  30.107  27.236  1.00  0.00    -0.200 F 
ATOM    141  C   UNL A   1      45.637  30.591  27.722  1.00  0.00     0.200 A 
ATOM    142  F   UNL A   1      47.869  31.168  28.228  1.00  0.00    -0.200 F 
ATOM    143  F   UNL A   1      46.005  30.173  26.503  1.00  0.00    -0.200 F 
ENDBRANCH 109 133
ENDBRANCH  74  77
ENDBRANCH  64  67
ENDBRANCH  60  63
ENDBRANCH  57  60
ENDBRANCH  54  57
ENDBRANCH  51  54
ENDBRANCH   1  51
TORSDOF 18
ENDMDL
MODEL 6
REMARK VINA RESULT:     -12.3      3.405      7.598
REMARK SMILES O=C1NC(=O)/C(=C/c2ccc(OCc3cn(-c4ccc(C(=O)NCCCCCCNC(=O)c5ccc(-c6c7nc(c(-c8c(F)c(F)c(F)c(F)c8F)c8ccc([nH]8)c(-c8c(F)c(F)c(F)c(F)c8F)c8nc(c(-c9c(F)c(F)c(F)c(F)c9F)c9ccc6[nH]9)C=C8)C=C7)cc5)cc4)nn3)cc2)S1
REMARK SMILES IDX 25 1 24 4 23 7 21 8 22 9 20 11 17 12 18 13 97 14 19 15 96 17
REMARK SMILES IDX 16 21 14 22 15 23 99 24 98 26 13 27 12 30 11 31 8 32 9 33
REMARK SMILES IDX 101 34 10 35 100 37 7 41 1 42 2 43 3 44 102 45 4 46 6 48
REMARK SMILES IDX 5 49 26 51 27 54 28 57 29 60 30 63 31 64 32 66 33 67 34 68
REMARK SMILES IDX 95 69 35 70 94 72 36 74 37 77 38 78 88 79 39 80 93 81 87 82
REMARK SMILES IDX 89 83 40 84 92 85 86 87 85 89 41 91 73 94 53 95 72 96 54 97
REMARK SMILES IDX 57 98 71 99 90 100 55 101 56 103 70 105 91 106 58 109 42 111
REMARK SMILES IDX 43 112 51 113 44 114 45 115 49 116 52 117 46 118 47 119
REMARK SMILES IDX 50 120 48 121 74 122 75 123 83 124 76 125 77 126 81 127
REMARK SMILES IDX 84 128 78 129 79 130 82 131 80 132 59 133 60 134 68 135
REMARK SMILES IDX 61 136 62 137 66 138 69 139 63 140 64 141 67 142 65 143
REMARK H PARENT 25 2 25 3 24 5 24 6 23 10 18 16 97 18 19 19 96 20 15 25 13 28
REMARK H PARENT 13 29 9 36 101 38 10 39 100 40 3 47 7 50 26 52 26 53 27 55
REMARK H PARENT 27 56 28 58 28 59 29 61 29 62 30 65 34 71 95 73 35 75 94 76
REMARK H PARENT 93 86 87 88 89 90 92 92 86 93 54 102 57 104 90 107 55 108
REMARK H PARENT 91 110
REMARK Flexibility Score: inf
ROOT
ATOM      1  C   UNL A   1      43.950  24.585  24.995  1.00  0.00    -0.036 C 
ATOM      2  H   UNL A   1      44.080  24.540  23.934  1.00  0.00     0.028 H 
ATOM      3  H   UNL A   1      44.851  24.326  25.511  1.00  0.00     0.028 H 
ENDROOT
BRANCH   1   4
ATOM      4  C   UNL A   1      42.874  23.575  25.401  1.00  0.00     0.018 C 
ATOM      5  H   UNL A   1      42.048  23.643  24.725  1.00  0.00     0.049 H 
ATOM      6  H   UNL A   1      43.282  22.587  25.368  1.00  0.00     0.049 H 
BRANCH   4   7
ATOM      7  N   UNL A   1      42.422  23.867  26.745  1.00  0.00    -0.352 N 
ATOM      8  C   UNL A   1      41.194  23.817  27.348  1.00  0.00     0.251 C 
ATOM      9  O   UNL A   1      41.120  24.202  28.515  1.00  0.00    -0.269 OA
ATOM     10  H   UNL A   1      43.144  24.159  27.348  1.00  0.00     0.163 HD
BRANCH   8  11
ATOM     11  C   UNL A   1      39.987  23.241  26.692  1.00  0.00     0.039 A 
ATOM     12  C   UNL A   1      37.543  22.256  25.751  1.00  0.00     0.066 A 
ATOM     13  C   UNL A   1      37.675  23.617  26.047  1.00  0.00    -0.036 A 
ATOM     14  C   UNL A   1      38.643  21.404  25.839  1.00  0.00    -0.036 A 
ATOM     15  C   UNL A   1      38.882  24.094  26.554  1.00  0.00    -0.047 A 
ATOM     16  H   UNL A   1      36.884  24.262  25.894  1.00  0.00     0.065 H 
ATOM     17  C   UNL A   1      39.877  21.925  26.233  1.00  0.00    -0.047 A 
ATOM     18  H   UNL A   1      38.546  20.402  25.615  1.00  0.00     0.065 H 
ATOM     19  H   UNL A   1      38.965  25.086  26.829  1.00  0.00     0.063 H 
ATOM     20  H   UNL A   1      40.719  21.330  26.185  1.00  0.00     0.063 H 
BRANCH  12  21
ATOM     21  N   UNL A   1      36.298  21.762  25.326  1.00  0.00    -0.220 N 
ATOM     22  C   UNL A   1      34.212  21.478  24.762  1.00  0.00     0.120 A 
ATOM     23  C   UNL A   1      35.119  22.447  25.140  1.00  0.00     0.058 A 
ATOM     24  N   UNL A   1      34.869  20.277  24.696  1.00  0.00    -0.131 NA
ATOM     25  H   UNL A   1      34.950  23.459  25.255  1.00  0.00     0.086 H 
ATOM     26  N   UNL A   1      36.137  20.466  25.001  1.00  0.00    -0.062 NA
BRANCH  22  27
ATOM     27  C   UNL A   1      32.783  21.577  24.337  1.00  0.00     0.134 C 
ATOM     28  H   UNL A   1      32.368  20.590  24.352  1.00  0.00     0.078 H 
ATOM     29  H   UNL A   1      32.320  22.253  25.024  1.00  0.00     0.078 H 
BRANCH  27  30
ATOM     30  O   UNL A   1      32.559  22.131  23.028  1.00  0.00    -0.487 OA
BRANCH  30  31
ATOM     31  C   UNL A   1      31.948  23.352  22.930  1.00  0.00     0.119 A 
ATOM     32  C   UNL A   1      31.068  26.022  22.878  1.00  0.00    -0.024 A 
ATOM     33  C   UNL A   1      32.224  25.651  22.188  1.00  0.00    -0.051 A 
ATOM     34  C   UNL A   1      30.304  25.034  23.503  1.00  0.00    -0.051 A 
ATOM     35  C   UNL A   1      32.664  24.321  22.225  1.00  0.00    -0.019 A 
ATOM     36  H   UNL A   1      32.754  26.355  21.653  1.00  0.00     0.063 H 
ATOM     37  C   UNL A   1      30.725  23.703  23.496  1.00  0.00    -0.019 A 
ATOM     38  H   UNL A   1      29.423  25.290  23.975  1.00  0.00     0.063 H 
ATOM     39  H   UNL A   1      33.527  24.056  21.724  1.00  0.00     0.066 H 
ATOM     40  H   UNL A   1      30.125  22.974  23.912  1.00  0.00     0.066 H 
BRANCH  32  41
ATOM     41  C   UNL A   1      30.638  27.421  22.932  1.00  0.00    -0.035 C 
ATOM     42  O   UNL A   1      32.525  30.254  26.652  1.00  0.00    -0.261 OA
ATOM     43  C   UNL A   1      31.942  29.763  25.687  1.00  0.00     0.290 C 
ATOM     44  N   UNL A   1      31.026  30.391  24.918  1.00  0.00    -0.282 N 
ATOM     45  S   UNL A   1      32.194  28.131  25.109  1.00  0.00    -0.022 SA
ATOM     46  C   UNL A   1      30.479  29.699  23.876  1.00  0.00     0.265 C 
ATOM     47  H   UNL A   1      30.760  31.320  25.105  1.00  0.00     0.174 HD
ATOM     48  C   UNL A   1      31.040  28.322  23.840  1.00  0.00     0.083 C 
ATOM     49  O   UNL A   1      29.648  30.144  23.107  1.00  0.00    -0.268 OA
ATOM     50  H   UNL A   1      29.971  27.740  22.211  1.00  0.00     0.064 H 
ENDBRANCH  32  41
ENDBRANCH  30  31
ENDBRANCH  27  30
ENDBRANCH  22  27
ENDBRANCH  12  21
ENDBRANCH   8  11
ENDBRANCH   4   7
ENDBRANCH   1   4
BRANCH   1  51
ATOM     51  C   UNL A   1      43.584  26.022  25.386  1.00  0.00    -0.052 C 
ATOM     52  H   UNL A   1      42.857  25.979  26.169  1.00  0.00     0.027 H 
ATOM     53  H   UNL A   1      43.221  26.492  24.495  1.00  0.00     0.027 H 
BRANCH  51  54
ATOM     54  C   UNL A   1      44.763  26.882  25.876  1.00  0.00    -0.052 C 
ATOM     55  H   UNL A   1      44.429  27.446  26.721  1.00  0.00     0.027 H 
ATOM     56  H   UNL A   1      45.051  27.481  25.036  1.00  0.00     0.027 H 
BRANCH  54  57
ATOM     57  C   UNL A   1      46.029  26.116  26.292  1.00  0.00    -0.036 C 
ATOM     58  H   UNL A   1      46.883  26.634  25.908  1.00  0.00     0.028 H 
ATOM     59  H   UNL A   1      45.948  25.127  25.892  1.00  0.00     0.028 H 
BRANCH  57  60
ATOM     60  C   UNL A   1      46.179  25.985  27.797  1.00  0.00     0.018 C 
ATOM     61  H   UNL A   1      45.986  26.937  28.248  1.00  0.00     0.049 H 
ATOM     62  H   UNL A   1      47.176  25.657  28.004  1.00  0.00     0.049 H 
BRANCH  60  63
ATOM     63  N   UNL A   1      45.247  24.996  28.357  1.00  0.00    -0.352 N 
ATOM     64  C   UNL A   1      44.383  25.101  29.432  1.00  0.00     0.251 C 
ATOM     65  H   UNL A   1      45.235  24.126  27.896  1.00  0.00     0.163 HD
ATOM     66  O   UNL A   1      43.958  24.104  30.003  1.00  0.00    -0.269 OA
BRANCH  64  67
ATOM     67  C   UNL A   1      43.957  26.441  29.863  1.00  0.00     0.039 A 
ATOM     68  C   UNL A   1      44.582  27.162  30.886  1.00  0.00    -0.049 A 
ATOM     69  C   UNL A   1      42.897  26.991  29.163  1.00  0.00    -0.049 A 
ATOM     70  C   UNL A   1      44.103  28.438  31.179  1.00  0.00    -0.053 A 
ATOM     71  H   UNL A   1      45.377  26.761  31.409  1.00  0.00     0.063 H 
ATOM     72  C   UNL A   1      42.719  28.334  29.194  1.00  0.00    -0.053 A 
ATOM     73  H   UNL A   1      42.255  26.389  28.626  1.00  0.00     0.063 H 
ATOM     74  C   UNL A   1      43.145  28.997  30.326  1.00  0.00    -0.014 A 
ATOM     75  H   UNL A   1      44.445  28.956  32.004  1.00  0.00     0.063 H 
ATOM     76  H   UNL A   1      42.283  28.837  28.406  1.00  0.00     0.063 H 
BRANCH  74  77
ATOM     77  C   UNL A   1      42.557  30.309  30.498  1.00  0.00     0.031 A 
ATOM     78  C   UNL A   1      43.340  31.384  29.858  1.00  0.00     0.074 A 
ATOM     79  C   UNL A   1      41.271  30.458  30.894  1.00  0.00     0.049 A 
ATOM     80  N   UNL A   1      44.035  32.295  30.447  1.00  0.00    -0.248 NA
ATOM     81  C   UNL A   1      43.543  31.324  28.401  1.00  0.00    -0.034 C 
ATOM     82  C   UNL A   1      40.269  29.422  31.185  1.00  0.00    -0.036 A 
ATOM     83  N   UNL A   1      40.544  31.603  30.996  1.00  0.00    -0.354 N 
ATOM     84  C   UNL A   1      44.571  33.069  29.425  1.00  0.00     0.074 A 
ATOM     85  C   UNL A   1      44.460  32.278  28.230  1.00  0.00    -0.034 C 
ATOM     86  H   UNL A   1      43.095  30.711  27.702  1.00  0.00     0.065 H 
ATOM     87  C   UNL A   1      39.033  29.973  31.201  1.00  0.00    -0.036 A 
ATOM     88  H   UNL A   1      40.477  28.425  31.353  1.00  0.00     0.065 H 
ATOM     89  C   UNL A   1      39.163  31.411  31.063  1.00  0.00     0.049 A 
ATOM     90  H   UNL A   1      40.959  32.497  31.018  1.00  0.00     0.167 HD
ATOM     91  C   UNL A   1      44.773  34.404  29.600  1.00  0.00     0.037 A 
ATOM     92  H   UNL A   1      45.009  32.424  27.369  1.00  0.00     0.065 H 
ATOM     93  H   UNL A   1      38.145  29.456  31.294  1.00  0.00     0.065 H 
ATOM     94  C   UNL A   1      38.231  32.390  30.933  1.00  0.00     0.037 A 
ATOM     95  C   UNL A   1      44.674  34.750  31.001  1.00  0.00     0.049 A 
ATOM     96  C   UNL A   1      38.933  33.687  31.172  1.00  0.00     0.074 A 
ATOM     97  C   UNL A   1      45.317  34.314  32.146  1.00  0.00    -0.036 A 
ATOM     98  N   UNL A   1      43.511  35.344  31.435  1.00  0.00    -0.354 N 
ATOM     99  N   UNL A   1      39.430  34.032  32.330  1.00  0.00    -0.248 NA
ATOM    100  C   UNL A   1      39.543  34.331  30.015  1.00  0.00    -0.034 C 
ATOM    101  C   UNL A   1      44.281  34.192  33.121  1.00  0.00    -0.036 A 
ATOM    102  H   UNL A   1      46.324  34.122  32.269  1.00  0.00     0.065 H 
ATOM    103  C   UNL A   1      43.098  34.664  32.554  1.00  0.00     0.049 A 
ATOM    104  H   UNL A   1      43.058  36.113  31.020  1.00  0.00     0.167 HD
ATOM    105  C   UNL A   1      40.672  34.578  32.033  1.00  0.00     0.074 A 
ATOM    106  C   UNL A   1      40.665  34.783  30.586  1.00  0.00    -0.034 C 
ATOM    107  H   UNL A   1      39.208  34.415  29.043  1.00  0.00     0.065 H 
ATOM    108  H   UNL A   1      44.389  33.819  34.077  1.00  0.00     0.065 H 
ATOM    109  C   UNL A   1      41.709  34.519  32.923  1.00  0.00     0.037 A 
ATOM    110  H   UNL A   1      41.438  35.225  30.063  1.00  0.00     0.065 H 
BRANCH  91 111
ATOM    111  C   UNL A   1      44.648  35.447  28.512  1.00  0.00     0.064 A 
ATOM    112  C   UNL A   1      45.697  36.375  28.354  1.00  0.00     0.173 A 
ATOM    113  C   UNL A   1      43.455  35.765  27.826  1.00  0.00     0.173 A 
ATOM    114  F   UNL A   1      46.880  36.177  28.955  1.00  0.00    -0.203 F 
ATOM    115  C   UNL A   1      45.527  37.575  27.660  1.00  0.00     0.198 A 
ATOM    116  C   UNL A   1      43.307  36.937  27.087  1.00  0.00     0.198 A 
ATOM    117  F   UNL A   1      42.345  35.027  27.921  1.00  0.00    -0.203 F 
ATOM    118  F   UNL A   1      46.508  38.486  27.659  1.00  0.00    -0.200 F 
ATOM    119  C   UNL A   1      44.327  37.859  27.036  1.00  0.00     0.200 A 
ATOM    120  F   UNL A   1      42.131  37.196  26.498  1.00  0.00    -0.200 F 
ATOM    121  F   UNL A   1      44.136  39.036  26.427  1.00  0.00    -0.200 F 
ENDBRANCH  91 111
BRANCH  94 122
ATOM    122  C   UNL A   1      36.894  32.305  30.288  1.00  0.00     0.064 A 
ATOM    123  C   UNL A   1      35.813  33.088  30.729  1.00  0.00     0.173 A 
ATOM    124  C   UNL A   1      36.719  31.650  29.052  1.00  0.00     0.173 A 
ATOM    125  F   UNL A   1      35.910  33.789  31.868  1.00  0.00    -0.203 F 
ATOM    126  C   UNL A   1      34.639  33.218  29.973  1.00  0.00     0.198 A 
ATOM    127  C   UNL A   1      35.546  31.775  28.303  1.00  0.00     0.198 A 
ATOM    128  F   UNL A   1      37.719  30.951  28.496  1.00  0.00    -0.203 F 
ATOM    129  F   UNL A   1      33.653  34.020  30.401  1.00  0.00    -0.200 F 
ATOM    130  C   UNL A   1      34.511  32.569  28.757  1.00  0.00     0.200 A 
ATOM    131  F   UNL A   1      35.456  31.173  27.108  1.00  0.00    -0.200 F 
ATOM    132  F   UNL A   1      33.414  32.740  28.006  1.00  0.00    -0.200 F 
ENDBRANCH  94 122
BRANCH 109 133
ATOM    133  C   UNL A   1      41.432  34.058  34.328  1.00  0.00     0.064 A 
ATOM    134  C   UNL A   1      41.504  32.720  34.756  1.00  0.00     0.173 A 
ATOM    135  C   UNL A   1      41.257  35.036  35.317  1.00  0.00     0.173 A 
ATOM    136  F   UNL A   1      41.779  31.734  33.895  1.00  0.00    -0.203 F 
ATOM    137  C   UNL A   1      41.361  32.379  36.101  1.00  0.00     0.198 A 
ATOM    138  C   UNL A   1      41.155  34.697  36.664  1.00  0.00     0.198 A 
ATOM    139  F   UNL A   1      41.240  36.335  34.980  1.00  0.00    -0.203 F 
ATOM    140  F   UNL A   1      41.425  31.094  36.479  1.00  0.00    -0.200 F 
ATOM    141  C   UNL A   1      41.195  33.369  37.055  1.00  0.00     0.200 A 
ATOM    142  F   UNL A   1      41.050  35.665  37.585  1.00  0.00    -0.200 F 
ATOM    143  F   UNL A   1      41.101  33.048  38.352  1.00  0.00    -0.200 F 
ENDBRANCH 109 133
ENDBRANCH  74  77
ENDBRANCH  64  67
ENDBRANCH  60  63
ENDBRANCH  57  60
ENDBRANCH  54  57
ENDBRANCH  51  54
ENDBRANCH   1  51
TORSDOF 18
ENDMDL
MODEL 7
REMARK VINA RESULT:     -12.3      4.745      9.578
REMARK SMILES O=C1NC(=O)/C(=C/c2ccc(OCc3cn(-c4ccc(C(=O)NCCCCCCNC(=O)c5ccc(-c6c7nc(c(-c8c(F)c(F)c(F)c(F)c8F)c8ccc([nH]8)c(-c8c(F)c(F)c(F)c(F)c8F)c8nc(c(-c9c(F)c(F)c(F)c(F)c9F)c9ccc6[nH]9)C=C8)C=C7)cc5)cc4)nn3)cc2)S1
REMARK SMILES IDX 25 1 24 4 23 7 21 8 22 9 20 11 17 12 18 13 97 14 19 15 96 17
REMARK SMILES IDX 16 21 14 22 15 23 99 24 98 26 13 27 12 30 11 31 8 32 9 33
REMARK SMILES IDX 101 34 10 35 100 37 7 41 1 42 2 43 3 44 102 45 4 46 6 48
REMARK SMILES IDX 5 49 26 51 27 54 28 57 29 60 30 63 31 64 32 66 33 67 34 68
REMARK SMILES IDX 95 69 35 70 94 72 36 74 37 77 38 78 88 79 39 80 93 81 87 82
REMARK SMILES IDX 89 83 40 84 92 85 86 87 85 89 41 91 73 94 53 95 72 96 54 97
REMARK SMILES IDX 57 98 71 99 90 100 55 101 56 103 70 105 91 106 58 109 42 111
REMARK SMILES IDX 43 112 51 113 44 114 45 115 49 116 52 117 46 118 47 119
REMARK SMILES IDX 50 120 48 121 74 122 75 123 83 124 76 125 77 126 81 127
REMARK SMILES IDX 84 128 78 129 79 130 82 131 80 132 59 133 60 134 68 135
REMARK SMILES IDX 61 136 62 137 66 138 69 139 63 140 64 141 67 142 65 143
REMARK H PARENT 25 2 25 3 24 5 24 6 23 10 18 16 97 18 19 19 96 20 15 25 13 28
REMARK H PARENT 13 29 9 36 101 38 10 39 100 40 3 47 7 50 26 52 26 53 27 55
REMARK H PARENT 27 56 28 58 28 59 29 61 29 62 30 65 34 71 95 73 35 75 94 76
REMARK H PARENT 93 86 87 88 89 90 92 92 86 93 54 102 57 104 90 107 55 108
REMARK H PARENT 91 110
REMARK Flexibility Score: inf
ROOT
ATOM      1  C   UNL A   1      37.125  31.314  32.567  1.00  0.00    -0.036 C 
ATOM      2  H   UNL A   1      38.083  31.513  32.134  1.00  0.00     0.028 H 
ATOM      3  H   UNL A   1      36.966  30.264  32.702  1.00  0.00     0.028 H 
ENDROOT
BRANCH   1   4
ATOM      4  C   UNL A   1      36.040  31.829  31.618  1.00  0.00     0.018 C 
ATOM      5  H   UNL A   1      35.526  31.000  31.180  1.00  0.00     0.049 H 
ATOM      6  H   UNL A   1      35.346  32.432  32.164  1.00  0.00     0.049 H 
BRANCH   4   7
ATOM      7  N   UNL A   1      36.651  32.623  30.573  1.00  0.00    -0.352 N 
ATOM      8  C   UNL A   1      36.622  32.549  29.206  1.00  0.00     0.251 C 
ATOM      9  O   UNL A   1      37.318  33.348  28.581  1.00  0.00    -0.269 OA
ATOM     10  H   UNL A   1      37.198  33.368  30.914  1.00  0.00     0.163 HD
BRANCH   8  11
ATOM     11  C   UNL A   1      35.727  31.621  28.460  1.00  0.00     0.039 A 
ATOM     12  C   UNL A   1      33.815  29.924  27.323  1.00  0.00     0.066 A 
ATOM     13  C   UNL A   1      33.500  31.267  27.558  1.00  0.00    -0.036 A 
ATOM     14  C   UNL A   1      35.101  29.447  27.573  1.00  0.00    -0.036 A 
ATOM     15  C   UNL A   1      34.442  32.097  28.161  1.00  0.00    -0.047 A 
ATOM     16  H   UNL A   1      32.576  31.639  27.287  1.00  0.00     0.065 H 
ATOM     17  C   UNL A   1      36.068  30.324  28.064  1.00  0.00    -0.047 A 
ATOM     18  H   UNL A   1      35.333  28.457  27.394  1.00  0.00     0.065 H 
ATOM     19  H   UNL A   1      34.193  33.073  28.389  1.00  0.00     0.063 H 
ATOM     20  H   UNL A   1      37.050  30.011  28.137  1.00  0.00     0.063 H 
BRANCH  12  21
ATOM     21  N   UNL A   1      32.832  29.068  26.798  1.00  0.00    -0.220 N 
ATOM     22  C   UNL A   1      31.424  27.978  25.542  1.00  0.00     0.120 A 
ATOM     23  C   UNL A   1      32.448  28.899  25.487  1.00  0.00     0.058 A 
ATOM     24  N   UNL A   1      31.254  27.601  26.849  1.00  0.00    -0.131 NA
ATOM     25  H   UNL A   1      32.840  29.359  24.650  1.00  0.00     0.086 H 
ATOM     26  N   UNL A   1      32.135  28.236  27.595  1.00  0.00    -0.062 NA
BRANCH  22  27
ATOM     27  C   UNL A   1      30.638  27.310  24.461  1.00  0.00     0.134 C 
ATOM     28  H   UNL A   1      29.792  26.837  24.914  1.00  0.00     0.078 H 
ATOM     29  H   UNL A   1      30.382  28.083  23.766  1.00  0.00     0.078 H 
BRANCH  27  30
ATOM     30  O   UNL A   1      31.346  26.316  23.699  1.00  0.00    -0.487 OA
BRANCH  30  31
ATOM     31  C   UNL A   1      31.583  25.096  24.274  1.00  0.00     0.119 A 
ATOM     32  C   UNL A   1      32.144  22.452  25.049  1.00  0.00    -0.024 A 
ATOM     33  C   UNL A   1      33.077  23.179  24.307  1.00  0.00    -0.051 A 
ATOM     34  C   UNL A   1      30.981  23.089  25.486  1.00  0.00    -0.051 A 
ATOM     35  C   UNL A   1      32.790  24.493  23.915  1.00  0.00    -0.019 A 
ATOM     36  H   UNL A   1      33.978  22.748  24.046  1.00  0.00     0.063 H 
ATOM     37  C   UNL A   1      30.723  24.414  25.130  1.00  0.00    -0.019 A 
ATOM     38  H   UNL A   1      30.307  22.576  26.075  1.00  0.00     0.063 H 
ATOM     39  H   UNL A   1      33.478  25.021  23.354  1.00  0.00     0.066 H 
ATOM     40  H   UNL A   1      29.888  24.892  25.505  1.00  0.00     0.066 H 
BRANCH  32  41
ATOM     41  C   UNL A   1      32.382  21.048  25.392  1.00  0.00    -0.035 C 
ATOM     42  O   UNL A   1      32.153  17.703  21.626  1.00  0.00    -0.261 OA
ATOM     43  C   UNL A   1      32.248  18.325  22.682  1.00  0.00     0.290 C 
ATOM     44  N   UNL A   1      32.436  17.778  23.903  1.00  0.00    -0.282 N 
ATOM     45  S   UNL A   1      32.162  20.067  22.812  1.00  0.00    -0.022 SA
ATOM     46  C   UNL A   1      32.528  18.617  24.976  1.00  0.00     0.265 C 
ATOM     47  H   UNL A   1      32.504  16.802  24.016  1.00  0.00     0.174 HD
ATOM     48  C   UNL A   1      32.370  20.025  24.525  1.00  0.00     0.083 C 
ATOM     49  O   UNL A   1      32.699  18.258  26.126  1.00  0.00    -0.268 OA
ATOM     50  H   UNL A   1      32.574  20.828  26.382  1.00  0.00     0.064 H 
ENDBRANCH  32  41
ENDBRANCH  30  31
ENDBRANCH  27  30
ENDBRANCH  22  27
ENDBRANCH  12  21
ENDBRANCH   8  11
ENDBRANCH   4   7
ENDBRANCH   1   4
BRANCH   1  51
ATOM     51  C   UNL A   1      37.060  31.978  33.948  1.00  0.00    -0.052 C 
ATOM     52  H   UNL A   1      36.745  31.242  34.657  1.00  0.00     0.027 H 
ATOM     53  H   UNL A   1      36.378  32.797  33.855  1.00  0.00     0.027 H 
BRANCH  51  54
ATOM     54  C   UNL A   1      38.389  32.579  34.442  1.00  0.00    -0.052 C 
ATOM     55  H   UNL A   1      38.594  32.169  35.408  1.00  0.00     0.027 H 
ATOM     56  H   UNL A   1      38.244  33.639  34.438  1.00  0.00     0.027 H 
BRANCH  54  57
ATOM     57  C   UNL A   1      39.616  32.324  33.552  1.00  0.00    -0.036 C 
ATOM     58  H   UNL A   1      39.307  31.758  32.698  1.00  0.00     0.028 H 
ATOM     59  H   UNL A   1      40.335  31.797  34.143  1.00  0.00     0.028 H 
BRANCH  57  60
ATOM     60  C   UNL A   1      40.277  33.603  33.069  1.00  0.00     0.018 C 
ATOM     61  H   UNL A   1      41.332  33.437  32.984  1.00  0.00     0.049 H 
ATOM     62  H   UNL A   1      40.066  34.374  33.780  1.00  0.00     0.049 H 
BRANCH  60  63
ATOM     63  N   UNL A   1      39.756  34.031  31.764  1.00  0.00    -0.352 N 
ATOM     64  C   UNL A   1      40.208  33.739  30.489  1.00  0.00     0.251 C 
ATOM     65  H   UNL A   1      38.964  34.614  31.801  1.00  0.00     0.163 HD
ATOM     66  O   UNL A   1      39.918  34.451  29.535  1.00  0.00    -0.269 OA
BRANCH  64  67
ATOM     67  C   UNL A   1      41.027  32.534  30.294  1.00  0.00     0.039 A 
ATOM     68  C   UNL A   1      42.426  32.540  30.274  1.00  0.00    -0.049 A 
ATOM     69  C   UNL A   1      40.329  31.346  30.161  1.00  0.00    -0.049 A 
ATOM     70  C   UNL A   1      43.088  31.324  30.112  1.00  0.00    -0.053 A 
ATOM     71  H   UNL A   1      42.954  33.421  30.378  1.00  0.00     0.063 H 
ATOM     72  C   UNL A   1      40.973  30.178  30.400  1.00  0.00    -0.053 A 
ATOM     73  H   UNL A   1      39.336  31.350  29.885  1.00  0.00     0.063 H 
ATOM     74  C   UNL A   1      42.330  30.148  30.153  1.00  0.00    -0.014 A 
ATOM     75  H   UNL A   1      44.109  31.292  29.965  1.00  0.00     0.063 H 
ATOM     76  H   UNL A   1      40.471  29.348  30.750  1.00  0.00     0.063 H 
BRANCH  74  77
ATOM     77  C   UNL A   1      42.875  28.815  30.004  1.00  0.00     0.031 A 
ATOM     78  C   UNL A   1      43.347  28.235  31.276  1.00  0.00     0.074 A 
ATOM     79  C   UNL A   1      42.643  28.081  28.891  1.00  0.00     0.049 A 
ATOM     80  N   UNL A   1      44.568  28.028  31.630  1.00  0.00    -0.248 NA
ATOM     81  C   UNL A   1      42.369  28.051  32.362  1.00  0.00    -0.034 C 
ATOM     82  C   UNL A   1      41.842  28.426  27.707  1.00  0.00    -0.036 A 
ATOM     83  N   UNL A   1      42.984  26.787  28.644  1.00  0.00    -0.354 N 
ATOM     84  C   UNL A   1      44.494  27.463  32.898  1.00  0.00     0.074 A 
ATOM     85  C   UNL A   1      43.173  27.753  33.384  1.00  0.00    -0.034 C 
ATOM     86  H   UNL A   1      41.340  28.130  32.337  1.00  0.00     0.065 H 
ATOM     87  C   UNL A   1      41.574  27.308  26.994  1.00  0.00    -0.036 A 
ATOM     88  H   UNL A   1      41.531  29.379  27.458  1.00  0.00     0.065 H 
ATOM     89  C   UNL A   1      42.295  26.197  27.584  1.00  0.00     0.049 A 
ATOM     90  H   UNL A   1      43.663  26.305  29.171  1.00  0.00     0.167 HD
ATOM     91  C   UNL A   1      45.417  26.546  33.302  1.00  0.00     0.037 A 
ATOM     92  H   UNL A   1      42.889  27.735  34.376  1.00  0.00     0.065 H 
ATOM     93  H   UNL A   1      40.958  27.254  26.168  1.00  0.00     0.065 H 
ATOM     94  C   UNL A   1      42.289  24.868  27.300  1.00  0.00     0.037 A 
ATOM     95  C   UNL A   1      46.554  26.545  32.407  1.00  0.00     0.049 A 
ATOM     96  C   UNL A   1      43.467  24.273  27.999  1.00  0.00     0.074 A 
ATOM     97  C   UNL A   1      47.437  27.519  31.975  1.00  0.00    -0.036 A 
ATOM     98  N   UNL A   1      46.640  25.532  31.480  1.00  0.00    -0.354 N 
ATOM     99  N   UNL A   1      44.705  24.545  27.678  1.00  0.00    -0.248 NA
ATOM    100  C   UNL A   1      43.263  23.821  29.370  1.00  0.00    -0.034 C 
ATOM    101  C   UNL A   1      47.589  27.276  30.576  1.00  0.00    -0.036 A 
ATOM    102  H   UNL A   1      47.887  28.256  32.539  1.00  0.00     0.065 H 
ATOM    103  C   UNL A   1      46.889  26.112  30.261  1.00  0.00     0.049 A 
ATOM    104  H   UNL A   1      46.541  24.569  31.658  1.00  0.00     0.167 HD
ATOM    105  C   UNL A   1      45.353  24.722  28.894  1.00  0.00     0.074 A 
ATOM    106  C   UNL A   1      44.426  24.212  29.902  1.00  0.00    -0.034 C 
ATOM    107  H   UNL A   1      42.459  23.339  29.802  1.00  0.00     0.065 H 
ATOM    108  H   UNL A   1      48.125  27.859  29.914  1.00  0.00     0.065 H 
ATOM    109  C   UNL A   1      46.435  25.550  29.010  1.00  0.00     0.037 A 
ATOM    110  H   UNL A   1      44.642  24.161  30.910  1.00  0.00     0.065 H 
BRANCH  91 111
ATOM    111  C   UNL A   1      45.134  25.386  34.230  1.00  0.00     0.064 A 
ATOM    112  C   UNL A   1      45.868  25.296  35.429  1.00  0.00     0.173 A 
ATOM    113  C   UNL A   1      44.409  24.225  33.878  1.00  0.00     0.173 A 
ATOM    114  F   UNL A   1      46.591  26.338  35.867  1.00  0.00    -0.203 F 
ATOM    115  C   UNL A   1      45.959  24.106  36.155  1.00  0.00     0.198 A 
ATOM    116  C   UNL A   1      44.458  23.057  34.636  1.00  0.00     0.198 A 
ATOM    117  F   UNL A   1      43.715  24.119  32.742  1.00  0.00    -0.203 F 
ATOM    118  F   UNL A   1      46.783  24.033  37.208  1.00  0.00    -0.200 F 
ATOM    119  C   UNL A   1      45.262  22.984  35.751  1.00  0.00     0.200 A 
ATOM    120  F   UNL A   1      43.781  21.977  34.220  1.00  0.00    -0.200 F 
ATOM    121  F   UNL A   1      45.399  21.823  36.404  1.00  0.00    -0.200 F 
ENDBRANCH  91 111
BRANCH  94 122
ATOM    122  C   UNL A   1      41.167  24.047  26.772  1.00  0.00     0.064 A 
ATOM    123  C   UNL A   1      41.357  22.714  26.367  1.00  0.00     0.173 A 
ATOM    124  C   UNL A   1      39.828  24.468  26.902  1.00  0.00     0.173 A 
ATOM    125  F   UNL A   1      42.597  22.212  26.267  1.00  0.00    -0.203 F 
ATOM    126  C   UNL A   1      40.277  21.855  26.126  1.00  0.00     0.198 A 
ATOM    127  C   UNL A   1      38.752  23.612  26.655  1.00  0.00     0.198 A 
ATOM    128  F   UNL A   1      39.533  25.690  27.368  1.00  0.00    -0.203 F 
ATOM    129  F   UNL A   1      40.500  20.574  25.797  1.00  0.00    -0.200 F 
ATOM    130  C   UNL A   1      38.975  22.303  26.278  1.00  0.00     0.200 A 
ATOM    131  F   UNL A   1      37.499  24.051  26.849  1.00  0.00    -0.200 F 
ATOM    132  F   UNL A   1      37.943  21.466  26.105  1.00  0.00    -0.200 F 
ENDBRANCH  94 122
BRANCH 109 133
ATOM    133  C   UNL A   1      47.067  26.098  27.760  1.00  0.00     0.064 A 
ATOM    134  C   UNL A   1      46.631  27.254  27.088  1.00  0.00     0.173 A 
ATOM    135  C   UNL A   1      48.269  25.523  27.326  1.00  0.00     0.173 A 
ATOM    136  F   UNL A   1      45.554  27.930  27.506  1.00  0.00    -0.203 F 
ATOM    137  C   UNL A   1      47.341  27.778  26.008  1.00  0.00     0.198 A 
ATOM    138  C   UNL A   1      48.998  26.071  26.273  1.00  0.00     0.198 A 
ATOM    139  F   UNL A   1      48.770  24.454  27.964  1.00  0.00    -0.203 F 
ATOM    140  F   UNL A   1      46.895  28.877  25.381  1.00  0.00    -0.200 F 
ATOM    141  C   UNL A   1      48.529  27.191  25.608  1.00  0.00     0.200 A 
ATOM    142  F   UNL A   1      50.174  25.530  25.928  1.00  0.00    -0.200 F 
ATOM    143  F   UNL A   1      49.235  27.718  24.598  1.00  0.00    -0.200 F 
ENDBRANCH 109 133
ENDBRANCH  74  77
ENDBRANCH  64  67
ENDBRANCH  60  63
ENDBRANCH  57  60
ENDBRANCH  54  57
ENDBRANCH  51  54
ENDBRANCH   1  51
TORSDOF 18
ENDMDL
MODEL 8
REMARK VINA RESULT:     -12.3      3.495      6.948
REMARK SMILES O=C1NC(=O)/C(=C/c2ccc(OCc3cn(-c4ccc(C(=O)NCCCCCCNC(=O)c5ccc(-c6c7nc(c(-c8c(F)c(F)c(F)c(F)c8F)c8ccc([nH]8)c(-c8c(F)c(F)c(F)c(F)c8F)c8nc(c(-c9c(F)c(F)c(F)c(F)c9F)c9ccc6[nH]9)C=C8)C=C7)cc5)cc4)nn3)cc2)S1
REMARK SMILES IDX 25 1 24 4 23 7 21 8 22 9 20 11 17 12 18 13 97 14 19 15 96 17
REMARK SMILES IDX 16 21 14 22 15 23 99 24 98 26 13 27 12 30 11 31 8 32 9 33
REMARK SMILES IDX 101 34 10 35 100 37 7 41 1 42 2 43 3 44 102 45 4 46 6 48
REMARK SMILES IDX 5 49 26 51 27 54 28 57 29 60 30 63 31 64 32 66 33 67 34 68
REMARK SMILES IDX 95 69 35 70 94 72 36 74 37 77 38 78 88 79 39 80 93 81 87 82
REMARK SMILES IDX 89 83 40 84 92 85 86 87 85 89 41 91 73 94 53 95 72 96 54 97
REMARK SMILES IDX 57 98 71 99 90 100 55 101 56 103 70 105 91 106 58 109 42 111
REMARK SMILES IDX 43 112 51 113 44 114 45 115 49 116 52 117 46 118 47 119
REMARK SMILES IDX 50 120 48 121 74 122 75 123 83 124 76 125 77 126 81 127
REMARK SMILES IDX 84 128 78 129 79 130 82 131 80 132 59 133 60 134 68 135
REMARK SMILES IDX 61 136 62 137 66 138 69 139 63 140 64 141 67 142 65 143
REMARK H PARENT 25 2 25 3 24 5 24 6 23 10 18 16 97 18 19 19 96 20 15 25 13 28
REMARK H PARENT 13 29 9 36 101 38 10 39 100 40 3 47 7 50 26 52 26 53 27 55
REMARK H PARENT 27 56 28 58 28 59 29 61 29 62 30 65 34 71 95 73 35 75 94 76
REMARK H PARENT 93 86 87 88 89 90 92 92 86 93 54 102 57 104 90 107 55 108
REMARK H PARENT 91 110
REMARK Flexibility Score: inf
ROOT
ATOM      1  C   UNL A   1      44.353  25.874  29.106  1.00  0.00    -0.036 C 
ATOM      2  H   UNL A   1      45.324  25.445  29.236  1.00  0.00     0.028 H 
ATOM      3  H   UNL A   1      43.649  25.153  28.747  1.00  0.00     0.028 H 
ENDROOT
BRANCH   1   4
ATOM      4  C   UNL A   1      44.445  26.992  28.065  1.00  0.00     0.018 C 
ATOM      5  H   UNL A   1      45.432  27.405  28.071  1.00  0.00     0.049 H 
ATOM      6  H   UNL A   1      44.230  26.594  27.095  1.00  0.00     0.049 H 
BRANCH   4   7
ATOM      7  N   UNL A   1      43.487  28.029  28.384  1.00  0.00    -0.352 N 
ATOM      8  C   UNL A   1      42.144  28.163  28.153  1.00  0.00     0.251 C 
ATOM      9  O   UNL A   1      41.613  29.219  28.495  1.00  0.00    -0.269 OA
ATOM     10  H   UNL A   1      43.880  28.793  28.865  1.00  0.00     0.163 HD
BRANCH   8  11
ATOM     11  C   UNL A   1      41.300  27.066  27.603  1.00  0.00     0.039 A 
ATOM     12  C   UNL A   1      39.890  24.791  26.788  1.00  0.00     0.066 A 
ATOM     13  C   UNL A   1      39.842  25.195  28.126  1.00  0.00    -0.036 A 
ATOM     14  C   UNL A   1      40.565  25.561  25.841  1.00  0.00    -0.036 A 
ATOM     15  C   UNL A   1      40.578  26.305  28.534  1.00  0.00    -0.047 A 
ATOM     16  H   UNL A   1      39.267  24.673  28.806  1.00  0.00     0.065 H 
ATOM     17  C   UNL A   1      41.196  26.737  26.248  1.00  0.00    -0.047 A 
ATOM     18  H   UNL A   1      40.595  25.265  24.854  1.00  0.00     0.065 H 
ATOM     19  H   UNL A   1      40.592  26.571  29.532  1.00  0.00     0.063 H 
ATOM     20  H   UNL A   1      41.593  27.374  25.538  1.00  0.00     0.063 H 
BRANCH  12  21
ATOM     21  N   UNL A   1      39.220  23.619  26.398  1.00  0.00    -0.220 N 
ATOM     22  C   UNL A   1      37.785  22.124  25.722  1.00  0.00     0.120 A 
ATOM     23  C   UNL A   1      37.948  23.483  25.888  1.00  0.00     0.058 A 
ATOM     24  N   UNL A   1      38.950  21.502  26.091  1.00  0.00    -0.131 NA
ATOM     25  H   UNL A   1      37.269  24.231  25.677  1.00  0.00     0.086 H 
ATOM     26  N   UNL A   1      39.824  22.417  26.461  1.00  0.00    -0.062 NA
BRANCH  22  27
ATOM     27  C   UNL A   1      36.665  21.329  25.135  1.00  0.00     0.134 C 
ATOM     28  H   UNL A   1      36.645  21.518  24.082  1.00  0.00     0.078 H 
ATOM     29  H   UNL A   1      36.865  20.309  25.389  1.00  0.00     0.078 H 
BRANCH  27  30
ATOM     30  O   UNL A   1      35.356  21.615  25.661  1.00  0.00    -0.487 OA
BRANCH  30  31
ATOM     31  C   UNL A   1      34.736  22.774  25.281  1.00  0.00     0.119 A 
ATOM     32  C   UNL A   1      33.805  25.213  24.237  1.00  0.00    -0.024 A 
ATOM     33  C   UNL A   1      34.113  24.154  23.380  1.00  0.00    -0.051 A 
ATOM     34  C   UNL A   1      33.867  25.008  25.616  1.00  0.00    -0.051 A 
ATOM     35  C   UNL A   1      34.585  22.944  23.903  1.00  0.00    -0.019 A 
ATOM     36  H   UNL A   1      33.993  24.264  22.360  1.00  0.00     0.063 H 
ATOM     37  C   UNL A   1      34.294  23.783  26.132  1.00  0.00    -0.019 A 
ATOM     38  H   UNL A   1      33.595  25.768  26.259  1.00  0.00     0.063 H 
ATOM     39  H   UNL A   1      34.824  22.170  23.263  1.00  0.00     0.066 H 
ATOM     40  H   UNL A   1      34.283  23.625  27.152  1.00  0.00     0.066 H 
BRANCH  32  41
ATOM     41  C   UNL A   1      33.397  26.517  23.709  1.00  0.00    -0.035 C 
ATOM     42  O   UNL A   1      28.445  27.425  23.423  1.00  0.00    -0.261 OA
ATOM     43  C   UNL A   1      29.675  27.422  23.393  1.00  0.00     0.290 C 
ATOM     44  N   UNL A   1      30.451  28.400  22.879  1.00  0.00    -0.282 N 
ATOM     45  S   UNL A   1      30.674  26.132  24.024  1.00  0.00    -0.022 SA
ATOM     46  C   UNL A   1      31.806  28.241  22.933  1.00  0.00     0.265 C 
ATOM     47  H   UNL A   1      30.052  29.205  22.475  1.00  0.00     0.174 HD
ATOM     48  C   UNL A   1      32.131  26.936  23.568  1.00  0.00     0.083 C 
ATOM     49  O   UNL A   1      32.618  29.043  22.511  1.00  0.00    -0.268 OA
ATOM     50  H   UNL A   1      34.146  27.166  23.420  1.00  0.00     0.064 H 
ENDBRANCH  32  41
ENDBRANCH  30  31
ENDBRANCH  27  30
ENDBRANCH  22  27
ENDBRANCH  12  21
ENDBRANCH   8  11
ENDBRANCH   4   7
ENDBRANCH   1   4
BRANCH   1  51
ATOM     51  C   UNL A   1      43.852  26.379  30.466  1.00  0.00    -0.052 C 
ATOM     52  H   UNL A   1      42.896  25.937  30.653  1.00  0.00     0.027 H 
ATOM     53  H   UNL A   1      43.821  27.446  30.396  1.00  0.00     0.027 H 
BRANCH  51  54
ATOM     54  C   UNL A   1      44.771  26.052  31.657  1.00  0.00    -0.052 C 
ATOM     55  H   UNL A   1      44.585  26.776  32.422  1.00  0.00     0.027 H 
ATOM     56  H   UNL A   1      45.767  26.072  31.267  1.00  0.00     0.027 H 
BRANCH  54  57
ATOM     57  C   UNL A   1      44.598  24.656  32.279  1.00  0.00    -0.036 C 
ATOM     58  H   UNL A   1      44.965  23.927  31.587  1.00  0.00     0.028 H 
ATOM     59  H   UNL A   1      43.556  24.526  32.483  1.00  0.00     0.028 H 
BRANCH  57  60
ATOM     60  C   UNL A   1      45.340  24.493  33.593  1.00  0.00     0.018 C 
ATOM     61  H   UNL A   1      45.855  25.405  33.816  1.00  0.00     0.049 H 
ATOM     62  H   UNL A   1      46.028  23.680  33.487  1.00  0.00     0.049 H 
BRANCH  60  63
ATOM     63  N   UNL A   1      44.429  24.178  34.702  1.00  0.00    -0.352 N 
ATOM     64  C   UNL A   1      43.746  25.025  35.556  1.00  0.00     0.251 C 
ATOM     65  H   UNL A   1      44.282  23.218  34.861  1.00  0.00     0.163 HD
ATOM     66  O   UNL A   1      43.336  24.634  36.643  1.00  0.00    -0.269 OA
BRANCH  64  67
ATOM     67  C   UNL A   1      43.494  26.407  35.122  1.00  0.00     0.039 A 
ATOM     68  C   UNL A   1      44.478  27.401  35.085  1.00  0.00    -0.049 A 
ATOM     69  C   UNL A   1      42.204  26.682  34.704  1.00  0.00    -0.049 A 
ATOM     70  C   UNL A   1      44.119  28.666  34.622  1.00  0.00    -0.053 A 
ATOM     71  H   UNL A   1      45.444  27.202  35.390  1.00  0.00     0.063 H 
ATOM     72  C   UNL A   1      41.988  27.760  33.913  1.00  0.00    -0.053 A 
ATOM     73  H   UNL A   1      41.420  26.075  34.989  1.00  0.00     0.063 H 
ATOM     74  C   UNL A   1      42.848  28.828  34.059  1.00  0.00    -0.014 A 
ATOM     75  H   UNL A   1      44.773  29.461  34.694  1.00  0.00     0.063 H 
ATOM     76  H   UNL A   1      41.213  27.782  33.232  1.00  0.00     0.063 H 
BRANCH  74  77
ATOM     77  C   UNL A   1      42.336  30.077  33.535  1.00  0.00     0.031 A 
ATOM     78  C   UNL A   1      41.723  30.932  34.570  1.00  0.00     0.074 A 
ATOM     79  C   UNL A   1      42.702  30.531  32.314  1.00  0.00     0.049 A 
ATOM     80  N   UNL A   1      40.471  31.194  34.721  1.00  0.00    -0.248 NA
ATOM     81  C   UNL A   1      42.569  31.388  35.686  1.00  0.00    -0.034 C 
ATOM     82  C   UNL A   1      43.634  29.931  31.347  1.00  0.00    -0.036 A 
ATOM     83  N   UNL A   1      42.403  31.722  31.729  1.00  0.00    -0.354 N 
ATOM     84  C   UNL A   1      40.401  32.044  35.818  1.00  0.00     0.074 A 
ATOM     85  C   UNL A   1      41.653  31.904  36.508  1.00  0.00    -0.034 C 
ATOM     86  H   UNL A   1      43.593  31.326  35.800  1.00  0.00     0.065 H 
ATOM     87  C   UNL A   1      43.992  30.853  30.425  1.00  0.00    -0.036 A 
ATOM     88  H   UNL A   1      43.964  28.953  31.369  1.00  0.00     0.065 H 
ATOM     89  C   UNL A   1      43.217  32.058  30.646  1.00  0.00     0.049 A 
ATOM     90  H   UNL A   1      41.671  32.302  32.045  1.00  0.00     0.167 HD
ATOM     91  C   UNL A   1      39.444  33.012  35.884  1.00  0.00     0.037 A 
ATOM     92  H   UNL A   1      41.820  32.162  37.494  1.00  0.00     0.065 H 
ATOM     93  H   UNL A   1      44.701  30.722  29.686  1.00  0.00     0.065 H 
ATOM     94  C   UNL A   1      43.267  33.282  30.057  1.00  0.00     0.037 A 
ATOM     95  C   UNL A   1      38.420  32.778  34.889  1.00  0.00     0.049 A 
ATOM     96  C   UNL A   1      42.020  34.001  30.454  1.00  0.00     0.074 A 
ATOM     97  C   UNL A   1      37.586  31.713  34.601  1.00  0.00    -0.036 A 
ATOM     98  N   UNL A   1      38.451  33.541  33.744  1.00  0.00    -0.354 N 
ATOM     99  N   UNL A   1      40.826  33.637  30.066  1.00  0.00    -0.248 NA
ATOM    100  C   UNL A   1      42.066  34.770  31.692  1.00  0.00    -0.034 C 
ATOM    101  C   UNL A   1      37.600  31.614  33.177  1.00  0.00    -0.036 A 
ATOM    102  H   UNL A   1      37.067  31.121  35.269  1.00  0.00     0.065 H 
ATOM    103  C   UNL A   1      38.342  32.684  32.678  1.00  0.00     0.049 A 
ATOM    104  H   UNL A   1      38.537  34.521  33.698  1.00  0.00     0.167 HD
ATOM    105  C   UNL A   1      40.038  33.741  31.205  1.00  0.00     0.074 A 
ATOM    106  C   UNL A   1      40.846  34.493  32.164  1.00  0.00    -0.034 C 
ATOM    107  H   UNL A   1      42.818  35.356  32.087  1.00  0.00     0.065 H 
ATOM    108  H   UNL A   1      37.141  30.880  32.615  1.00  0.00     0.065 H 
ATOM    109  C   UNL A   1      38.943  32.942  31.390  1.00  0.00     0.037 A 
ATOM    110  H   UNL A   1      40.513  34.777  33.099  1.00  0.00     0.065 H 
BRANCH  91 111
ATOM    111  C   UNL A   1      39.627  34.364  36.535  1.00  0.00     0.064 A 
ATOM    112  C   UNL A   1      40.706  35.167  36.115  1.00  0.00     0.173 A 
ATOM    113  C   UNL A   1      38.994  34.782  37.727  1.00  0.00     0.173 A 
ATOM    114  F   UNL A   1      41.382  34.871  34.994  1.00  0.00    -0.203 F 
ATOM    115  C   UNL A   1      41.181  36.232  36.884  1.00  0.00     0.198 A 
ATOM    116  C   UNL A   1      39.436  35.880  38.463  1.00  0.00     0.198 A 
ATOM    117  F   UNL A   1      37.998  34.098  38.298  1.00  0.00    -0.203 F 
ATOM    118  F   UNL A   1      42.296  36.873  36.511  1.00  0.00    -0.200 F 
ATOM    119  C   UNL A   1      40.552  36.580  38.063  1.00  0.00     0.200 A 
ATOM    120  F   UNL A   1      38.816  36.194  39.609  1.00  0.00    -0.200 F 
ATOM    121  F   UNL A   1      41.043  37.556  38.837  1.00  0.00    -0.200 F 
ENDBRANCH  91 111
BRANCH  94 122
ATOM    122  C   UNL A   1      44.449  33.976  29.482  1.00  0.00     0.064 A 
ATOM    123  C   UNL A   1      45.527  34.383  30.288  1.00  0.00     0.173 A 
ATOM    124  C   UNL A   1      44.669  34.017  28.090  1.00  0.00     0.173 A 
ATOM    125  F   UNL A   1      45.427  34.327  31.625  1.00  0.00    -0.203 F 
ATOM    126  C   UNL A   1      46.750  34.788  29.735  1.00  0.00     0.198 A 
ATOM    127  C   UNL A   1      45.886  34.428  27.540  1.00  0.00     0.198 A 
ATOM    128  F   UNL A   1      43.741  33.566  27.234  1.00  0.00    -0.203 F 
ATOM    129  F   UNL A   1      47.773  35.115  30.539  1.00  0.00    -0.200 F 
ATOM    130  C   UNL A   1      46.930  34.802  28.362  1.00  0.00     0.200 A 
ATOM    131  F   UNL A   1      46.056  34.394  26.211  1.00  0.00    -0.200 F 
ATOM    132  F   UNL A   1      48.117  35.133  27.835  1.00  0.00    -0.200 F 
ENDBRANCH  94 122
BRANCH 109 133
ATOM    133  C   UNL A   1      38.458  32.101  30.241  1.00  0.00     0.064 A 
ATOM    134  C   UNL A   1      38.807  30.754  30.037  1.00  0.00     0.173 A 
ATOM    135  C   UNL A   1      37.461  32.635  29.412  1.00  0.00     0.173 A 
ATOM    136  F   UNL A   1      39.668  30.133  30.852  1.00  0.00    -0.203 F 
ATOM    137  C   UNL A   1      38.219  29.997  29.024  1.00  0.00     0.198 A 
ATOM    138  C   UNL A   1      36.847  31.866  28.428  1.00  0.00     0.198 A 
ATOM    139  F   UNL A   1      37.041  33.896  29.595  1.00  0.00    -0.203 F 
ATOM    140  F   UNL A   1      38.579  28.717  28.846  1.00  0.00    -0.200 F 
ATOM    141  C   UNL A   1      37.233  30.552  28.226  1.00  0.00     0.200 A 
ATOM    142  F   UNL A   1      35.855  32.393  27.696  1.00  0.00    -0.200 F 
ATOM    143  F   UNL A   1      36.636  29.813  27.280  1.00  0.00    -0.200 F 
ENDBRANCH 109 133
ENDBRANCH  74  77
ENDBRANCH  64  67
ENDBRANCH  60  63
ENDBRANCH  57  60
ENDBRANCH  54  57
ENDBRANCH  51  54
ENDBRANCH   1  51
TORSDOF 18
ENDMDL
MODEL 9
REMARK VINA RESULT:     -12.2      4.998      9.768
REMARK SMILES O=C1NC(=O)/C(=C/c2ccc(OCc3cn(-c4ccc(C(=O)NCCCCCCNC(=O)c5ccc(-c6c7nc(c(-c8c(F)c(F)c(F)c(F)c8F)c8ccc([nH]8)c(-c8c(F)c(F)c(F)c(F)c8F)c8nc(c(-c9c(F)c(F)c(F)c(F)c9F)c9ccc6[nH]9)C=C8)C=C7)cc5)cc4)nn3)cc2)S1
REMARK SMILES IDX 25 1 24 4 23 7 21 8 22 9 20 11 17 12 18 13 97 14 19 15 96 17
REMARK SMILES IDX 16 21 14 22 15 23 99 24 98 26 13 27 12 30 11 31 8 32 9 33
REMARK SMILES IDX 101 34 10 35 100 37 7 41 1 42 2 43 3 44 102 45 4 46 6 48
REMARK SMILES IDX 5 49 26 51 27 54 28 57 29 60 30 63 31 64 32 66 33 67 34 68
REMARK SMILES IDX 95 69 35 70 94 72 36 74 37 77 38 78 88 79 39 80 93 81 87 82
REMARK SMILES IDX 89 83 40 84 92 85 86 87 85 89 41 91 73 94 53 95 72 96 54 97
REMARK SMILES IDX 57 98 71 99 90 100 55 101 56 103 70 105 91 106 58 109 42 111
REMARK SMILES IDX 43 112 51 113 44 114 45 115 49 116 52 117 46 118 47 119
REMARK SMILES IDX 50 120 48 121 74 122 75 123 83 124 76 125 77 126 81 127
REMARK SMILES IDX 84 128 78 129 79 130 82 131 80 132 59 133 60 134 68 135
REMARK SMILES IDX 61 136 62 137 66 138 69 139 63 140 64 141 67 142 65 143
REMARK H PARENT 25 2 25 3 24 5 24 6 23 10 18 16 97 18 19 19 96 20 15 25 13 28
REMARK H PARENT 13 29 9 36 101 38 10 39 100 40 3 47 7 50 26 52 26 53 27 55
REMARK H PARENT 27 56 28 58 28 59 29 61 29 62 30 65 34 71 95 73 35 75 94 76
REMARK H PARENT 93 86 87 88 89 90 92 92 86 93 54 102 57 104 90 107 55 108
REMARK H PARENT 91 110
REMARK Flexibility Score: inf
ROOT
ATOM      1  C   UNL A   1      35.251  32.055  31.827  1.00  0.00    -0.036 C 
ATOM      2  H   UNL A   1      35.716  31.239  32.340  1.00  0.00     0.028 H 
ATOM      3  H   UNL A   1      34.190  31.931  31.775  1.00  0.00     0.028 H 
ENDROOT
BRANCH   1   4
ATOM      4  C   UNL A   1      35.785  32.101  30.393  1.00  0.00     0.018 C 
ATOM      5  H   UNL A   1      36.784  32.484  30.397  1.00  0.00     0.049 H 
ATOM      6  H   UNL A   1      35.782  31.114  29.980  1.00  0.00     0.049 H 
BRANCH   4   7
ATOM      7  N   UNL A   1      34.942  32.963  29.592  1.00  0.00    -0.352 N 
ATOM      8  C   UNL A   1      34.233  32.764  28.438  1.00  0.00     0.251 C 
ATOM      9  O   UNL A   1      33.655  33.736  27.954  1.00  0.00    -0.269 OA
ATOM     10  H   UNL A   1      34.861  33.877  29.950  1.00  0.00     0.163 HD
BRANCH   8  11
ATOM     11  C   UNL A   1      34.059  31.425  27.810  1.00  0.00     0.039 A 
ATOM     12  C   UNL A   1      33.995  29.002  26.411  1.00  0.00     0.066 A 
ATOM     13  C   UNL A   1      35.162  29.386  27.080  1.00  0.00    -0.036 A 
ATOM     14  C   UNL A   1      32.839  29.775  26.507  1.00  0.00    -0.036 A 
ATOM     15  C   UNL A   1      35.201  30.612  27.741  1.00  0.00    -0.047 A 
ATOM     16  H   UNL A   1      35.988  28.768  27.083  1.00  0.00     0.065 H 
ATOM     17  C   UNL A   1      32.861  30.940  27.274  1.00  0.00    -0.047 A 
ATOM     18  H   UNL A   1      31.978  29.487  26.017  1.00  0.00     0.065 H 
ATOM     19  H   UNL A   1      36.078  30.926  28.186  1.00  0.00     0.063 H 
ATOM     20  H   UNL A   1      31.982  31.452  27.449  1.00  0.00     0.063 H 
BRANCH  12  21
ATOM     21  N   UNL A   1      33.989  27.808  25.670  1.00  0.00    -0.220 N 
ATOM     22  C   UNL A   1      34.067  25.742  24.981  1.00  0.00     0.120 A 
ATOM     23  C   UNL A   1      34.078  26.512  26.125  1.00  0.00     0.058 A 
ATOM     24  N   UNL A   1      33.935  26.577  23.901  1.00  0.00    -0.131 NA
ATOM     25  H   UNL A   1      34.139  26.188  27.104  1.00  0.00     0.086 H 
ATOM     26  N   UNL A   1      33.850  27.820  24.331  1.00  0.00    -0.062 NA
BRANCH  22  27
ATOM     27  C   UNL A   1      34.056  24.260  24.789  1.00  0.00     0.134 C 
ATOM     28  H   UNL A   1      34.222  24.062  23.750  1.00  0.00     0.078 H 
ATOM     29  H   UNL A   1      34.820  23.876  25.431  1.00  0.00     0.078 H 
BRANCH  27  30
ATOM     30  O   UNL A   1      32.842  23.591  25.178  1.00  0.00    -0.487 OA
BRANCH  30  31
ATOM     31  C   UNL A   1      31.650  24.238  24.995  1.00  0.00     0.119 A 
ATOM     32  C   UNL A   1      29.409  25.792  24.310  1.00  0.00    -0.024 A 
ATOM     33  C   UNL A   1      30.071  25.045  23.332  1.00  0.00    -0.051 A 
ATOM     34  C   UNL A   1      29.812  25.674  25.641  1.00  0.00    -0.051 A 
ATOM     35  C   UNL A   1      31.193  24.279  23.676  1.00  0.00    -0.019 A 
ATOM     36  H   UNL A   1      29.734  25.058  22.357  1.00  0.00     0.063 H 
ATOM     37  C   UNL A   1      30.902  24.872  25.983  1.00  0.00    -0.019 A 
ATOM     38  H   UNL A   1      29.300  26.183  26.378  1.00  0.00     0.063 H 
ATOM     39  H   UNL A   1      31.685  23.740  22.946  1.00  0.00     0.066 H 
ATOM     40  H   UNL A   1      31.156  24.747  26.976  1.00  0.00     0.066 H 
BRANCH  32  41
ATOM     41  C   UNL A   1      28.292  26.671  23.959  1.00  0.00    -0.035 C 
ATOM     42  O   UNL A   1      29.413  30.923  21.491  1.00  0.00    -0.261 OA
ATOM     43  C   UNL A   1      28.913  29.969  22.084  1.00  0.00     0.290 C 
ATOM     44  N   UNL A   1      27.609  29.842  22.413  1.00  0.00    -0.282 N 
ATOM     45  S   UNL A   1      29.807  28.565  22.623  1.00  0.00    -0.022 SA
ATOM     46  C   UNL A   1      27.218  28.710  23.067  1.00  0.00     0.265 C 
ATOM     47  H   UNL A   1      26.959  30.547  22.187  1.00  0.00     0.174 HD
ATOM     48  C   UNL A   1      28.397  27.833  23.298  1.00  0.00     0.083 C 
ATOM     49  O   UNL A   1      26.078  28.469  23.418  1.00  0.00    -0.268 OA
ATOM     50  H   UNL A   1      27.345  26.372  24.244  1.00  0.00     0.064 H 
ENDBRANCH  32  41
ENDBRANCH  30  31
ENDBRANCH  27  30
ENDBRANCH  22  27
ENDBRANCH  12  21
ENDBRANCH   8  11
ENDBRANCH   4   7
ENDBRANCH   1   4
BRANCH   1  51
ATOM     51  C   UNL A   1      35.534  33.349  32.600  1.00  0.00    -0.052 C 
ATOM     52  H   UNL A   1      34.607  33.715  32.987  1.00  0.00     0.027 H 
ATOM     53  H   UNL A   1      35.999  34.017  31.906  1.00  0.00     0.027 H 
BRANCH  51  54
ATOM     54  C   UNL A   1      36.517  33.200  33.777  1.00  0.00    -0.052 C 
ATOM     55  H   UNL A   1      36.806  32.172  33.834  1.00  0.00     0.027 H 
ATOM     56  H   UNL A   1      35.990  33.556  34.638  1.00  0.00     0.027 H 
BRANCH  54  57
ATOM     57  C   UNL A   1      37.798  34.046  33.696  1.00  0.00    -0.036 C 
ATOM     58  H   UNL A   1      38.194  34.160  34.684  1.00  0.00     0.028 H 
ATOM     59  H   UNL A   1      37.532  34.986  33.260  1.00  0.00     0.028 H 
BRANCH  57  60
ATOM     60  C   UNL A   1      38.867  33.425  32.815  1.00  0.00     0.018 C 
ATOM     61  H   UNL A   1      38.743  32.362  32.817  1.00  0.00     0.049 H 
ATOM     62  H   UNL A   1      39.823  33.701  33.209  1.00  0.00     0.049 H 
BRANCH  60  63
ATOM     63  N   UNL A   1      38.787  33.911  31.431  1.00  0.00    -0.352 N 
ATOM     64  C   UNL A   1      39.469  33.491  30.303  1.00  0.00     0.251 C 
ATOM     65  H   UNL A   1      38.150  34.647  31.282  1.00  0.00     0.163 HD
ATOM     66  O   UNL A   1      39.580  34.217  29.322  1.00  0.00    -0.269 OA
BRANCH  64  67
ATOM     67  C   UNL A   1      40.040  32.136  30.291  1.00  0.00     0.039 A 
ATOM     68  C   UNL A   1      39.296  30.982  30.020  1.00  0.00    -0.049 A 
ATOM     69  C   UNL A   1      41.400  32.053  30.533  1.00  0.00    -0.049 A 
ATOM     70  C   UNL A   1      39.962  29.758  30.008  1.00  0.00    -0.053 A 
ATOM     71  H   UNL A   1      38.283  31.036  29.833  1.00  0.00     0.063 H 
ATOM     72  C   UNL A   1      42.070  30.945  30.134  1.00  0.00    -0.053 A 
ATOM     73  H   UNL A   1      41.896  32.822  31.009  1.00  0.00     0.063 H 
ATOM     74  C   UNL A   1      41.359  29.764  30.093  1.00  0.00    -0.014 A 
ATOM     75  H   UNL A   1      39.439  28.871  29.939  1.00  0.00     0.063 H 
ATOM     76  H   UNL A   1      43.067  30.983  29.873  1.00  0.00     0.063 H 
BRANCH  74  77
ATOM     77  C   UNL A   1      42.187  28.575  30.089  1.00  0.00     0.031 A 
ATOM     78  C   UNL A   1      42.588  28.144  31.442  1.00  0.00     0.074 A 
ATOM     79  C   UNL A   1      42.273  27.780  28.997  1.00  0.00     0.049 A 
ATOM     80  N   UNL A   1      43.764  28.213  31.964  1.00  0.00    -0.248 NA
ATOM     81  C   UNL A   1      41.528  27.781  32.399  1.00  0.00    -0.034 C 
ATOM     82  C   UNL A   1      41.590  27.914  27.701  1.00  0.00    -0.036 A 
ATOM     83  N   UNL A   1      42.909  26.585  28.869  1.00  0.00    -0.354 N 
ATOM     84  C   UNL A   1      43.634  27.679  33.240  1.00  0.00     0.074 A 
ATOM     85  C   UNL A   1      42.226  27.690  33.532  1.00  0.00    -0.034 C 
ATOM     86  H   UNL A   1      40.520  27.636  32.236  1.00  0.00     0.065 H 
ATOM     87  C   UNL A   1      41.665  26.746  27.022  1.00  0.00    -0.036 A 
ATOM     88  H   UNL A   1      41.124  28.771  27.362  1.00  0.00     0.065 H 
ATOM     89  C   UNL A   1      42.513  25.832  27.762  1.00  0.00     0.049 A 
ATOM     90  H   UNL A   1      43.593  26.274  29.506  1.00  0.00     0.167 HD
ATOM     91  C   UNL A   1      44.662  26.993  33.812  1.00  0.00     0.037 A 
ATOM     92  H   UNL A   1      41.817  27.637  34.478  1.00  0.00     0.065 H 
ATOM     93  H   UNL A   1      41.196  26.540  26.127  1.00  0.00     0.065 H 
ATOM     94  C   UNL A   1      42.826  24.526  27.553  1.00  0.00     0.037 A 
ATOM     95  C   UNL A   1      45.887  27.214  33.075  1.00  0.00     0.049 A 
ATOM     96  C   UNL A   1      43.993  24.218  28.432  1.00  0.00     0.074 A 
ATOM     97  C   UNL A   1      46.598  28.343  32.709  1.00  0.00    -0.036 A 
ATOM     98  N   UNL A   1      46.313  26.219  32.224  1.00  0.00    -0.354 N 
ATOM     99  N   UNL A   1      45.179  24.741  28.262  1.00  0.00    -0.248 NA
ATOM    100  C   UNL A   1      43.699  23.767  29.787  1.00  0.00    -0.034 C 
ATOM    101  C   UNL A   1      46.992  28.103  31.358  1.00  0.00    -0.036 A 
ATOM    102  H   UNL A   1      46.800  29.175  33.286  1.00  0.00     0.065 H 
ATOM    103  C   UNL A   1      46.602  26.808  31.018  1.00  0.00     0.049 A 
ATOM    104  H   UNL A   1      46.394  25.263  32.440  1.00  0.00     0.167 HD
ATOM    105  C   UNL A   1      45.599  25.085  29.540  1.00  0.00     0.074 A 
ATOM    106  C   UNL A   1      44.668  24.414  30.444  1.00  0.00    -0.034 C 
ATOM    107  H   UNL A   1      42.962  23.135  30.136  1.00  0.00     0.065 H 
ATOM    108  H   UNL A   1      47.480  28.771  30.740  1.00  0.00     0.065 H 
ATOM    109  C   UNL A   1      46.456  26.129  29.752  1.00  0.00     0.037 A 
ATOM    110  H   UNL A   1      44.748  24.436  31.473  1.00  0.00     0.065 H 
BRANCH  91 111
ATOM    111  C   UNL A   1      44.502  25.823  34.757  1.00  0.00     0.064 A 
ATOM    112  C   UNL A   1      45.082  25.917  36.037  1.00  0.00     0.173 A 
ATOM    113  C   UNL A   1      44.076  24.530  34.381  1.00  0.00     0.173 A 
ATOM    114  F   UNL A   1      45.520  27.095  36.505  1.00  0.00    -0.203 F 
ATOM    115  C   UNL A   1      45.317  24.789  36.828  1.00  0.00     0.198 A 
ATOM    116  C   UNL A   1      44.261  23.416  35.197  1.00  0.00     0.198 A 
ATOM    117  F   UNL A   1      43.566  24.255  33.177  1.00  0.00    -0.203 F 
ATOM    118  F   UNL A   1      45.999  24.914  37.974  1.00  0.00    -0.200 F 
ATOM    119  C   UNL A   1      44.916  23.538  36.402  1.00  0.00     0.200 A 
ATOM    120  F   UNL A   1      43.872  22.210  34.758  1.00  0.00    -0.200 F 
ATOM    121  F   UNL A   1      45.198  22.447  37.124  1.00  0.00    -0.200 F 
ENDBRANCH  91 111
BRANCH  94 122
ATOM    122  C   UNL A   1      41.986  23.470  26.928  1.00  0.00     0.064 A 
ATOM    123  C   UNL A   1      42.543  22.263  26.471  1.00  0.00     0.173 A 
ATOM    124  C   UNL A   1      40.579  23.510  27.009  1.00  0.00     0.173 A 
ATOM    125  F   UNL A   1      43.875  22.115  26.411  1.00  0.00    -0.203 F 
ATOM    126  C   UNL A   1      41.742  21.163  26.132  1.00  0.00     0.198 A 
ATOM    127  C   UNL A   1      39.782  22.416  26.665  1.00  0.00     0.198 A 
ATOM    128  F   UNL A   1      39.950  24.580  27.517  1.00  0.00    -0.203 F 
ATOM    129  F   UNL A   1      42.314  20.010  25.754  1.00  0.00    -0.200 F 
ATOM    130  C   UNL A   1      40.364  21.238  26.238  1.00  0.00     0.200 A 
ATOM    131  F   UNL A   1      38.452  22.493  26.814  1.00  0.00    -0.200 F 
ATOM    132  F   UNL A   1      39.601  20.169  25.972  1.00  0.00    -0.200 F 
ENDBRANCH  94 122
BRANCH 109 133
ATOM    133  C   UNL A   1      47.127  26.768  28.566  1.00  0.00     0.064 A 
ATOM    134  C   UNL A   1      48.281  26.265  27.938  1.00  0.00     0.173 A 
ATOM    135  C   UNL A   1      46.471  27.835  27.936  1.00  0.00     0.173 A 
ATOM    136  F   UNL A   1      48.906  25.180  28.409  1.00  0.00    -0.203 F 
ATOM    137  C   UNL A   1      48.776  26.835  26.765  1.00  0.00     0.198 A 
ATOM    138  C   UNL A   1      46.944  28.376  26.744  1.00  0.00     0.198 A 
ATOM    139  F   UNL A   1      45.332  28.320  28.453  1.00  0.00    -0.203 F 
ATOM    140  F   UNL A   1      49.884  26.340  26.193  1.00  0.00    -0.200 F 
ATOM    141  C   UNL A   1      48.102  27.884  26.164  1.00  0.00     0.200 A 
ATOM    142  F   UNL A   1      46.255  29.354  26.140  1.00  0.00    -0.200 F 
ATOM    143  F   UNL A   1      48.551  28.405  25.014  1.00  0.00    -0.200 F 
ENDBRANCH 109 133
ENDBRANCH  74  77
ENDBRANCH  64  67
ENDBRANCH  60  63
ENDBRANCH  57  60
ENDBRANCH  54  57
ENDBRANCH  51  54
ENDBRANCH   1  51
TORSDOF 18
ENDMDL
MODEL 10
REMARK VINA RESULT:     -12.1      5.016     11.336
REMARK SMILES O=C1NC(=O)/C(=C/c2ccc(OCc3cn(-c4ccc(C(=O)NCCCCCCNC(=O)c5ccc(-c6c7nc(c(-c8c(F)c(F)c(F)c(F)c8F)c8ccc([nH]8)c(-c8c(F)c(F)c(F)c(F)c8F)c8nc(c(-c9c(F)c(F)c(F)c(F)c9F)c9ccc6[nH]9)C=C8)C=C7)cc5)cc4)nn3)cc2)S1
REMARK SMILES IDX 25 1 24 4 23 7 21 8 22 9 20 11 17 12 18 13 97 14 19 15 96 17
REMARK SMILES IDX 16 21 14 22 15 23 99 24 98 26 13 27 12 30 11 31 8 32 9 33
REMARK SMILES IDX 101 34 10 35 100 37 7 41 1 42 2 43 3 44 102 45 4 46 6 48
REMARK SMILES IDX 5 49 26 51 27 54 28 57 29 60 30 63 31 64 32 66 33 67 34 68
REMARK SMILES IDX 95 69 35 70 94 72 36 74 37 77 38 78 88 79 39 80 93 81 87 82
REMARK SMILES IDX 89 83 40 84 92 85 86 87 85 89 41 91 73 94 53 95 72 96 54 97
REMARK SMILES IDX 57 98 71 99 90 100 55 101 56 103 70 105 91 106 58 109 42 111
REMARK SMILES IDX 43 112 51 113 44 114 45 115 49 116 52 117 46 118 47 119
REMARK SMILES IDX 50 120 48 121 74 122 75 123 83 124 76 125 77 126 81 127
REMARK SMILES IDX 84 128 78 129 79 130 82 131 80 132 59 133 60 134 68 135
REMARK SMILES IDX 61 136 62 137 66 138 69 139 63 140 64 141 67 142 65 143
REMARK H PARENT 25 2 25 3 24 5 24 6 23 10 18 16 97 18 19 19 96 20 15 25 13 28
REMARK H PARENT 13 29 9 36 101 38 10 39 100 40 3 47 7 50 26 52 26 53 27 55
REMARK H PARENT 27 56 28 58 28 59 29 61 29 62 30 65 34 71 95 73 35 75 94 76
REMARK H PARENT 93 86 87 88 89 90 92 92 86 93 54 102 57 104 90 107 55 108
REMARK H PARENT 91 110
REMARK Flexibility Score: inf
ROOT
ATOM      1  C   UNL A   1      43.492  28.633  35.419  1.00  0.00    -0.036 C 
ATOM      2  H   UNL A   1      43.006  28.894  36.336  1.00  0.00     0.028 H 
ATOM      3  H   UNL A   1      44.495  29.003  35.387  1.00  0.00     0.028 H 
ENDROOT
BRANCH   1   4
ATOM      4  C   UNL A   1      42.724  29.272  34.258  1.00  0.00     0.018 C 
ATOM      5  H   UNL A   1      42.681  28.585  33.439  1.00  0.00     0.049 H 
ATOM      6  H   UNL A   1      41.732  29.511  34.577  1.00  0.00     0.049 H 
BRANCH   4   7
ATOM      7  N   UNL A   1      43.401  30.480  33.840  1.00  0.00    -0.352 N 
ATOM      8  C   UNL A   1      43.144  31.403  32.862  1.00  0.00     0.251 C 
ATOM      9  O   UNL A   1      43.965  32.306  32.705  1.00  0.00    -0.269 OA
ATOM     10  H   UNL A   1      44.211  30.680  34.364  1.00  0.00     0.163 HD
BRANCH   8  11
ATOM     11  C   UNL A   1      41.889  31.412  32.060  1.00  0.00     0.039 A 
ATOM     12  C   UNL A   1      39.468  31.746  30.696  1.00  0.00     0.066 A 
ATOM     13  C   UNL A   1      40.512  32.656  30.492  1.00  0.00    -0.036 A 
ATOM     14  C   UNL A   1      39.655  30.628  31.507  1.00  0.00    -0.036 A 
ATOM     15  C   UNL A   1      41.700  32.507  31.204  1.00  0.00    -0.047 A 
ATOM     16  H   UNL A   1      40.401  33.432  29.821  1.00  0.00     0.065 H 
ATOM     17  C   UNL A   1      40.894  30.430  32.118  1.00  0.00    -0.047 A 
ATOM     18  H   UNL A   1      38.886  29.955  31.652  1.00  0.00     0.065 H 
ATOM     19  H   UNL A   1      42.450  33.209  31.101  1.00  0.00     0.063 H 
ATOM     20  H   UNL A   1      41.079  29.547  32.620  1.00  0.00     0.063 H 
BRANCH  12  21
ATOM     21  N   UNL A   1      38.240  31.951  30.044  1.00  0.00    -0.220 N 
ATOM     22  C   UNL A   1      36.259  31.774  29.154  1.00  0.00     0.120 A 
ATOM     23  C   UNL A   1      37.179  31.084  29.916  1.00  0.00     0.058 A 
ATOM     24  N   UNL A   1      36.768  33.019  28.887  1.00  0.00    -0.131 NA
ATOM     25  H   UNL A   1      37.090  30.132  30.304  1.00  0.00     0.086 H 
ATOM     26  N   UNL A   1      37.949  33.130  29.462  1.00  0.00    -0.062 NA
BRANCH  22  27
ATOM     27  C   UNL A   1      34.870  31.425  28.729  1.00  0.00     0.134 C 
ATOM     28  H   UNL A   1      34.575  30.545  29.262  1.00  0.00     0.078 H 
ATOM     29  H   UNL A   1      34.273  32.285  28.947  1.00  0.00     0.078 H 
BRANCH  27  30
ATOM     30  O   UNL A   1      34.694  31.171  27.323  1.00  0.00    -0.487 OA
BRANCH  30  31
ATOM     31  C   UNL A   1      33.863  30.152  26.941  1.00  0.00     0.119 A 
ATOM     32  C   UNL A   1      32.450  27.984  25.843  1.00  0.00    -0.024 A 
ATOM     33  C   UNL A   1      33.774  27.821  26.258  1.00  0.00    -0.051 A 
ATOM     34  C   UNL A   1      31.811  29.203  26.076  1.00  0.00    -0.051 A 
ATOM     35  C   UNL A   1      34.477  28.907  26.795  1.00  0.00    -0.019 A 
ATOM     36  H   UNL A   1      34.233  26.902  26.167  1.00  0.00     0.063 H 
ATOM     37  C   UNL A   1      32.505  30.267  26.656  1.00  0.00    -0.019 A 
ATOM     38  H   UNL A   1      30.819  29.319  25.818  1.00  0.00     0.063 H 
ATOM     39  H   UNL A   1      35.460  28.783  27.088  1.00  0.00     0.066 H 
ATOM     40  H   UNL A   1      32.008  31.144  26.875  1.00  0.00     0.066 H 
BRANCH  32  41
ATOM     41  C   UNL A   1      31.723  26.890  25.193  1.00  0.00    -0.035 C 
ATOM     42  O   UNL A   1      33.158  25.646  20.522  1.00  0.00    -0.261 OA
ATOM     43  C   UNL A   1      32.641  25.779  21.630  1.00  0.00     0.290 C 
ATOM     44  N   UNL A   1      31.562  25.102  22.080  1.00  0.00    -0.282 N 
ATOM     45  S   UNL A   1      33.213  26.883  22.860  1.00  0.00    -0.022 SA
ATOM     46  C   UNL A   1      31.119  25.367  23.344  1.00  0.00     0.265 C 
ATOM     47  H   UNL A   1      31.107  24.439  21.513  1.00  0.00     0.174 HD
ATOM     48  C   UNL A   1      31.970  26.418  23.962  1.00  0.00     0.083 C 
ATOM     49  O   UNL A   1      30.164  24.829  23.872  1.00  0.00    -0.268 OA
ATOM     50  H   UNL A   1      30.959  26.447  25.726  1.00  0.00     0.064 H 
ENDBRANCH  32  41
ENDBRANCH  30  31
ENDBRANCH  27  30
ENDBRANCH  22  27
ENDBRANCH  12  21
ENDBRANCH   8  11
ENDBRANCH   4   7
ENDBRANCH   1   4
BRANCH   1  51
ATOM     51  C   UNL A   1      43.553  27.104  35.311  1.00  0.00    -0.052 C 
ATOM     52  H   UNL A   1      44.574  26.804  35.411  1.00  0.00     0.027 H 
ATOM     53  H   UNL A   1      43.126  26.854  34.363  1.00  0.00     0.027 H 
BRANCH  51  54
ATOM     54  C   UNL A   1      42.728  26.346  36.367  1.00  0.00    -0.052 C 
ATOM     55  H   UNL A   1      42.281  25.500  35.889  1.00  0.00     0.027 H 
ATOM     56  H   UNL A   1      42.024  27.057  36.748  1.00  0.00     0.027 H 
BRANCH  54  57
ATOM     57  C   UNL A   1      43.506  25.837  37.592  1.00  0.00    -0.036 C 
ATOM     58  H   UNL A   1      43.285  24.799  37.729  1.00  0.00     0.028 H 
ATOM     59  H   UNL A   1      43.200  26.426  38.431  1.00  0.00     0.028 H 
BRANCH  57  60
ATOM     60  C   UNL A   1      45.009  25.997  37.451  1.00  0.00     0.018 C 
ATOM     61  H   UNL A   1      45.362  26.651  38.222  1.00  0.00     0.049 H 
ATOM     62  H   UNL A   1      45.210  26.402  36.481  1.00  0.00     0.049 H 
BRANCH  60  63
ATOM     63  N   UNL A   1      45.711  24.710  37.563  1.00  0.00    -0.352 N 
ATOM     64  C   UNL A   1      45.770  23.652  36.674  1.00  0.00     0.251 C 
ATOM     65  H   UNL A   1      46.217  24.582  38.397  1.00  0.00     0.163 HD
ATOM     66  O   UNL A   1      46.068  22.525  37.049  1.00  0.00    -0.269 OA
BRANCH  64  67
ATOM     67  C   UNL A   1      45.492  23.912  35.253  1.00  0.00     0.039 A 
ATOM     68  C   UNL A   1      44.340  23.471  34.594  1.00  0.00    -0.049 A 
ATOM     69  C   UNL A   1      46.437  24.670  34.583  1.00  0.00    -0.049 A 
ATOM     70  C   UNL A   1      44.179  23.810  33.251  1.00  0.00    -0.053 A 
ATOM     71  H   UNL A   1      43.628  22.910  35.088  1.00  0.00     0.063 H 
ATOM     72  C   UNL A   1      46.079  25.301  33.439  1.00  0.00    -0.053 A 
ATOM     73  H   UNL A   1      47.398  24.753  34.949  1.00  0.00     0.063 H 
ATOM     74  C   UNL A   1      45.084  24.715  32.685  1.00  0.00    -0.014 A 
ATOM     75  H   UNL A   1      43.413  23.405  32.691  1.00  0.00     0.063 H 
ATOM     76  H   UNL A   1      46.531  26.181  33.145  1.00  0.00     0.063 H 
BRANCH  74  77
ATOM     77  C   UNL A   1      45.043  25.164  31.309  1.00  0.00     0.031 A 
ATOM     78  C   UNL A   1      46.086  26.160  30.993  1.00  0.00     0.074 A 
ATOM     79  C   UNL A   1      44.355  24.480  30.365  1.00  0.00     0.049 A 
ATOM     80  N   UNL A   1      45.916  27.416  30.761  1.00  0.00    -0.248 NA
ATOM     81  C   UNL A   1      47.496  25.764  31.148  1.00  0.00    -0.034 C 
ATOM     82  C   UNL A   1      43.589  23.232  30.504  1.00  0.00    -0.036 A 
ATOM     83  N   UNL A   1      44.308  24.702  29.024  1.00  0.00    -0.354 N 
ATOM     84  C   UNL A   1      47.186  27.919  30.507  1.00  0.00     0.074 A 
ATOM     85  C   UNL A   1      48.108  26.942  31.018  1.00  0.00    -0.034 C 
ATOM     86  H   UNL A   1      47.899  24.829  31.312  1.00  0.00     0.065 H 
ATOM     87  C   UNL A   1      43.358  22.699  29.282  1.00  0.00    -0.036 A 
ATOM     88  H   UNL A   1      43.275  22.824  31.399  1.00  0.00     0.065 H 
ATOM     89  C   UNL A   1      43.829  23.627  28.273  1.00  0.00     0.049 A 
ATOM     90  H   UNL A   1      44.591  25.553  28.615  1.00  0.00     0.167 HD
ATOM     91  C   UNL A   1      47.362  28.943  29.627  1.00  0.00     0.037 A 
ATOM     92  H   UNL A   1      49.097  27.125  31.252  1.00  0.00     0.065 H 
ATOM     93  H   UNL A   1      42.919  21.784  29.099  1.00  0.00     0.065 H 
ATOM     94  C   UNL A   1      43.908  23.523  26.921  1.00  0.00     0.037 A 
ATOM     95  C   UNL A   1      46.094  29.569  29.320  1.00  0.00     0.049 A 
ATOM     96  C   UNL A   1      44.151  24.900  26.396  1.00  0.00     0.074 A 
ATOM     97  C   UNL A   1      45.100  30.152  30.086  1.00  0.00    -0.036 A 
ATOM     98  N   UNL A   1      45.499  29.257  28.119  1.00  0.00    -0.354 N 
ATOM     99  N   UNL A   1      43.272  25.864  26.475  1.00  0.00    -0.248 NA
ATOM    100  C   UNL A   1      45.540  25.330  26.287  1.00  0.00    -0.034 C 
ATOM    101  C   UNL A   1      43.879  29.677  29.520  1.00  0.00    -0.036 A 
ATOM    102  H   UNL A   1      45.217  30.790  30.889  1.00  0.00     0.065 H 
ATOM    103  C   UNL A   1      44.191  28.932  28.383  1.00  0.00     0.049 A 
ATOM    104  H   UNL A   1      45.930  29.265  27.235  1.00  0.00     0.167 HD
ATOM    105  C   UNL A   1      44.005  26.978  26.864  1.00  0.00     0.074 A 
ATOM    106  C   UNL A   1      45.405  26.600  26.682  1.00  0.00    -0.034 C 
ATOM    107  H   UNL A   1      46.380  24.808  25.990  1.00  0.00     0.065 H 
ATOM    108  H   UNL A   1      42.931  29.854  29.887  1.00  0.00     0.065 H 
ATOM    109  C   UNL A   1      43.437  27.985  27.595  1.00  0.00     0.037 A 
ATOM    110  H   UNL A   1      46.199  27.240  26.841  1.00  0.00     0.065 H 
BRANCH  91 111
ATOM    111  C   UNL A   1      48.572  29.120  28.738  1.00  0.00     0.064 A 
ATOM    112  C   UNL A   1      49.173  30.393  28.675  1.00  0.00     0.173 A 
ATOM    113  C   UNL A   1      48.987  28.209  27.741  1.00  0.00     0.173 A 
ATOM    114  F   UNL A   1      48.861  31.341  29.572  1.00  0.00    -0.203 F 
ATOM    115  C   UNL A   1      50.032  30.757  27.635  1.00  0.00     0.198 A 
ATOM    116  C   UNL A   1      49.887  28.559  26.737  1.00  0.00     0.198 A 
ATOM    117  F   UNL A   1      48.468  26.984  27.617  1.00  0.00    -0.203 F 
ATOM    118  F   UNL A   1      50.463  32.022  27.543  1.00  0.00    -0.200 F 
ATOM    119  C   UNL A   1      50.379  29.842  26.660  1.00  0.00     0.200 A 
ATOM    120  F   UNL A   1      50.202  27.657  25.796  1.00  0.00    -0.200 F 
ATOM    121  F   UNL A   1      51.146  30.205  25.625  1.00  0.00    -0.200 F 
ENDBRANCH  91 111
BRANCH  94 122
ATOM    122  C   UNL A   1      44.134  22.299  26.107  1.00  0.00     0.064 A 
ATOM    123  C   UNL A   1      45.419  21.933  25.670  1.00  0.00     0.173 A 
ATOM    124  C   UNL A   1      43.130  21.319  25.965  1.00  0.00     0.173 A 
ATOM    125  F   UNL A   1      46.447  22.782  25.814  1.00  0.00    -0.203 F 
ATOM    126  C   UNL A   1      45.684  20.662  25.141  1.00  0.00     0.198 A 
ATOM    127  C   UNL A   1      43.394  20.055  25.432  1.00  0.00     0.198 A 
ATOM    128  F   UNL A   1      41.891  21.532  26.431  1.00  0.00    -0.203 F 
ATOM    129  F   UNL A   1      46.935  20.330  24.789  1.00  0.00    -0.200 F 
ATOM    130  C   UNL A   1      44.673  19.722  25.031  1.00  0.00     0.200 A 
ATOM    131  F   UNL A   1      42.412  19.144  25.372  1.00  0.00    -0.200 F 
ATOM    132  F   UNL A   1      44.937  18.487  24.581  1.00  0.00    -0.200 F 
ENDBRANCH  94 122
BRANCH 109 133
ATOM    133  C   UNL A   1      41.945  27.989  27.786  1.00  0.00     0.064 A 
ATOM    134  C   UNL A   1      41.283  27.438  28.897  1.00  0.00     0.173 A 
ATOM    135  C   UNL A   1      41.171  28.738  26.889  1.00  0.00     0.173 A 
ATOM    136  F   UNL A   1      41.961  26.802  29.860  1.00  0.00    -0.203 F 
ATOM    137  C   UNL A   1      39.907  27.590  29.072  1.00  0.00     0.198 A 
ATOM    138  C   UNL A   1      39.806  28.924  27.087  1.00  0.00     0.198 A 
ATOM    139  F   UNL A   1      41.755  29.341  25.841  1.00  0.00    -0.203 F 
ATOM    140  F   UNL A   1      39.301  27.044  30.137  1.00  0.00    -0.200 F 
ATOM    141  C   UNL A   1      39.172  28.341  28.171  1.00  0.00     0.200 A 
ATOM    142  F   UNL A   1      39.112  29.698  26.241  1.00  0.00    -0.200 F 
ATOM    143  F   UNL A   1      37.858  28.526  28.361  1.00  0.00    -0.200 F 
ENDBRANCH 109 133
ENDBRANCH  74  77
ENDBRANCH  64  67
ENDBRANCH  60  63
ENDBRANCH  57  60
ENDBRANCH  54  57
ENDBRANCH  51  54
ENDBRANCH   1  51
TORSDOF 18
ENDMDL
