MODEL 1
REMARK VINA RESULT:     -12.9      0.000      0.000
REMARK SMILES COc1ccc2c(c1)c(CC(=O)NCCCCCCNC(=O)c1ccc(-c3c4nc(c(-c5c(F)c(F)c(F)c(F)c5F)c5ccc([nH]5)c(-c5c(F)c(F)c(F)c(F)c5F)c5nc(c(-c6c(F)c(F)c(F)c(F)c6F)c6ccc3[nH]6)C=C5)C=C4)cc1)c(C)n2Cc1ccn(C(F)F)c(=O)c1
REMARK SMILES IDX 15 1 14 4 13 7 11 8 12 9 10 11 9 14 3 15 4 16 8 17 5 18 7 20
REMARK SMILES IDX 6 22 88 24 86 25 2 26 1 27 89 31 90 34 91 35 99 36 92 37
REMARK SMILES IDX 97 39 93 41 98 43 94 44 95 45 96 46 87 48 16 52 17 55 18 58
REMARK SMILES IDX 19 61 20 64 21 65 22 67 23 68 24 69 85 70 25 71 84 73 26 75
REMARK SMILES IDX 27 78 28 79 78 80 29 81 83 82 77 83 79 84 30 85 82 86 76 88
REMARK SMILES IDX 75 90 31 92 63 95 43 96 62 97 44 98 47 99 61 100 80 101
REMARK SMILES IDX 45 102 46 104 60 106 81 107 48 110 32 112 33 113 41 114
REMARK SMILES IDX 34 115 35 116 39 117 42 118 36 119 37 120 40 121 38 122
REMARK SMILES IDX 64 123 65 124 73 125 66 126 67 127 71 128 74 129 68 130
REMARK SMILES IDX 69 131 72 132 70 133 49 134 50 135 58 136 51 137 52 138
REMARK SMILES IDX 56 139 59 140 53 141 54 142 57 143 55 144
REMARK H PARENT 15 2 15 3 14 5 14 6 13 10 10 12 10 13 4 19 8 21 5 23 1 28 1 29
REMARK H PARENT 1 30 89 32 89 33 91 38 99 40 92 42 94 47 87 49 87 50 87 51
REMARK H PARENT 16 53 16 54 17 56 17 57 18 59 18 60 19 62 19 63 20 66 24 72
REMARK H PARENT 85 74 25 76 84 77 83 87 77 89 79 91 82 93 76 94 44 103 47 105
REMARK H PARENT 80 108 45 109 81 111
REMARK Flexibility Score: inf
ROOT
ATOM      1  C   UNL A   1      31.932  28.545  27.270  1.00  0.00    -0.036 C 
ATOM      2  H   UNL A   1      31.580  28.346  28.261  1.00  0.00     0.028 H 
ATOM      3  H   UNL A   1      31.689  29.535  26.945  1.00  0.00     0.028 H 
ENDROOT
BRANCH   1   4
ATOM      4  C   UNL A   1      31.244  27.574  26.309  1.00  0.00     0.017 C 
ATOM      5  H   UNL A   1      30.273  27.951  26.069  1.00  0.00     0.049 H 
ATOM      6  H   UNL A   1      31.847  27.490  25.429  1.00  0.00     0.049 H 
BRANCH   4   7
ATOM      7  N   UNL A   1      31.107  26.257  26.896  1.00  0.00    -0.356 N 
ATOM      8  C   UNL A   1      31.798  25.109  26.628  1.00  0.00     0.224 C 
ATOM      9  O   UNL A   1      31.456  24.078  27.214  1.00  0.00    -0.275 OA
ATOM     10  H   UNL A   1      30.413  26.176  27.591  1.00  0.00     0.163 HD
BRANCH   8  11
ATOM     11  C   UNL A   1      33.011  25.128  25.710  1.00  0.00     0.054 C 
ATOM     12  H   UNL A   1      32.844  25.859  24.947  1.00  0.00     0.042 H 
ATOM     13  H   UNL A   1      33.859  25.358  26.320  1.00  0.00     0.042 H 
BRANCH  11  14
ATOM     14  C   UNL A   1      33.291  23.812  25.051  1.00  0.00    -0.010 A 
ATOM     15  C   UNL A   1      36.782  22.387  25.625  1.00  0.00     0.119 A 
ATOM     16  C   UNL A   1      36.573  21.194  24.942  1.00  0.00    -0.018 A 
ATOM     17  C   UNL A   1      35.743  23.307  25.757  1.00  0.00    -0.010 A 
ATOM     18  C   UNL A   1      35.327  20.903  24.359  1.00  0.00    -0.034 A 
ATOM     19  H   UNL A   1      37.344  20.512  24.861  1.00  0.00     0.066 H 
ATOM     20  C   UNL A   1      34.497  23.058  25.143  1.00  0.00     0.007 A 
ATOM     21  H   UNL A   1      35.885  24.170  26.305  1.00  0.00     0.067 H 
ATOM     22  C   UNL A   1      34.297  21.856  24.459  1.00  0.00     0.049 A 
ATOM     23  H   UNL A   1      35.172  20.008  23.869  1.00  0.00     0.065 H 
ATOM     24  N   UNL A   1      32.985  21.865  23.997  1.00  0.00    -0.340 N 
ATOM     25  C   UNL A   1      32.451  23.130  24.180  1.00  0.00     0.020 A 
BRANCH  15  26
ATOM     26  O   UNL A   1      37.947  22.713  26.265  1.00  0.00    -0.497 OA
BRANCH  26  27
ATOM     27  C   UNL A   1      38.178  24.113  26.391  1.00  0.00     0.078 C 
ATOM     28  H   UNL A   1      37.502  24.522  27.112  1.00  0.00     0.067 H 
ATOM     29  H   UNL A   1      38.020  24.587  25.445  1.00  0.00     0.067 H 
ATOM     30  H   UNL A   1      39.184  24.281  26.712  1.00  0.00     0.067 H 
ENDBRANCH  26  27
ENDBRANCH  15  26
BRANCH  24  31
ATOM     31  C   UNL A   1      32.320  20.732  23.338  1.00  0.00     0.048 C 
ATOM     32  H   UNL A   1      32.570  20.756  22.298  1.00  0.00     0.055 H 
ATOM     33  H   UNL A   1      31.272  20.847  23.519  1.00  0.00     0.055 H 
BRANCH  31  34
ATOM     34  C   UNL A   1      32.707  19.368  23.888  1.00  0.00    -0.021 A 
ATOM     35  C   UNL A   1      32.386  19.039  25.264  1.00  0.00    -0.040 A 
ATOM     36  C   UNL A   1      33.248  18.402  23.122  1.00  0.00     0.009 A 
ATOM     37  C   UNL A   1      32.721  17.856  25.792  1.00  0.00     0.013 A 
ATOM     38  H   UNL A   1      31.890  19.730  25.846  1.00  0.00     0.064 H 
ATOM     39  C   UNL A   1      33.560  17.044  23.672  1.00  0.00     0.255 A 
ATOM     40  H   UNL A   1      33.454  18.603  22.130  1.00  0.00     0.068 H 
ATOM     41  N   UNL A   1      33.332  16.879  25.032  1.00  0.00    -0.258 N 
ATOM     42  H   UNL A   1      32.519  17.670  26.787  1.00  0.00     0.082 H 
ATOM     43  O   UNL A   1      33.985  16.190  22.911  1.00  0.00    -0.269 OA
BRANCH  41  44
ATOM     44  C   UNL A   1      33.559  15.576  25.609  1.00  0.00     0.321 C 
ATOM     45  F   UNL A   1      32.714  14.663  25.073  1.00  0.00    -0.185 F 
ATOM     46  F   UNL A   1      34.822  15.132  25.419  1.00  0.00    -0.185 F 
ATOM     47  H   UNL A   1      33.387  15.687  26.658  1.00  0.00     0.131 H 
ENDBRANCH  41  44
ENDBRANCH  31  34
ENDBRANCH  24  31
BRANCH  25  48
ATOM     48  C   UNL A   1      31.176  23.624  23.586  1.00  0.00    -0.024 C 
ATOM     49  H   UNL A   1      31.242  24.681  23.430  1.00  0.00     0.030 H 
ATOM     50  H   UNL A   1      30.367  23.411  24.252  1.00  0.00     0.030 H 
ATOM     51  H   UNL A   1      31.007  23.136  22.649  1.00  0.00     0.030 H 
ENDBRANCH  25  48
ENDBRANCH  11  14
ENDBRANCH   8  11
ENDBRANCH   4   7
ENDBRANCH   1   4
BRANCH   1  52
ATOM     52  C   UNL A   1      33.462  28.431  27.265  1.00  0.00    -0.052 C 
ATOM     53  H   UNL A   1      33.741  27.732  26.503  1.00  0.00     0.027 H 
ATOM     54  H   UNL A   1      33.743  28.119  28.248  1.00  0.00     0.027 H 
BRANCH  52  55
ATOM     55  C   UNL A   1      34.206  29.747  27.001  1.00  0.00    -0.052 C 
ATOM     56  H   UNL A   1      34.377  29.827  25.948  1.00  0.00     0.027 H 
ATOM     57  H   UNL A   1      35.110  29.702  27.572  1.00  0.00     0.027 H 
BRANCH  55  58
ATOM     58  C   UNL A   1      33.465  31.007  27.462  1.00  0.00    -0.036 C 
ATOM     59  H   UNL A   1      32.779  30.734  28.236  1.00  0.00     0.028 H 
ATOM     60  H   UNL A   1      32.967  31.412  26.605  1.00  0.00     0.028 H 
BRANCH  58  61
ATOM     61  C   UNL A   1      34.393  32.093  27.998  1.00  0.00     0.018 C 
ATOM     62  H   UNL A   1      34.037  33.042  27.652  1.00  0.00     0.049 H 
ATOM     63  H   UNL A   1      35.376  31.869  27.637  1.00  0.00     0.049 H 
BRANCH  61  64
ATOM     64  N   UNL A   1      34.473  32.135  29.440  1.00  0.00    -0.352 N 
ATOM     65  C   UNL A   1      35.419  31.779  30.357  1.00  0.00     0.251 C 
ATOM     66  H   UNL A   1      33.660  32.504  29.855  1.00  0.00     0.163 HD
ATOM     67  O   UNL A   1      35.213  32.133  31.521  1.00  0.00    -0.269 OA
BRANCH  65  68
ATOM     68  C   UNL A   1      36.597  30.915  30.077  1.00  0.00     0.039 A 
ATOM     69  C   UNL A   1      36.586  29.526  29.940  1.00  0.00    -0.049 A 
ATOM     70  C   UNL A   1      37.835  31.583  30.043  1.00  0.00    -0.049 A 
ATOM     71  C   UNL A   1      37.778  28.812  29.946  1.00  0.00    -0.053 A 
ATOM     72  H   UNL A   1      35.689  29.027  29.834  1.00  0.00     0.063 H 
ATOM     73  C   UNL A   1      39.028  30.878  30.015  1.00  0.00    -0.053 A 
ATOM     74  H   UNL A   1      37.855  32.615  30.040  1.00  0.00     0.063 H 
ATOM     75  C   UNL A   1      38.992  29.489  30.050  1.00  0.00    -0.014 A 
ATOM     76  H   UNL A   1      37.764  27.782  29.872  1.00  0.00     0.063 H 
ATOM     77  H   UNL A   1      39.930  31.377  29.968  1.00  0.00     0.063 H 
BRANCH  75  78
ATOM     78  C   UNL A   1      40.217  28.703  30.122  1.00  0.00     0.031 A 
ATOM     79  C   UNL A   1      40.783  28.558  31.494  1.00  0.00     0.074 A 
ATOM     80  C   UNL A   1      40.724  28.077  29.040  1.00  0.00     0.049 A 
ATOM     81  N   UNL A   1      41.963  28.886  31.913  1.00  0.00    -0.248 NA
ATOM     82  C   UNL A   1      39.878  28.102  32.565  1.00  0.00    -0.034 C 
ATOM     83  C   UNL A   1      40.140  27.956  27.701  1.00  0.00    -0.036 A 
ATOM     84  N   UNL A   1      41.853  27.323  28.937  1.00  0.00    -0.354 N 
ATOM     85  C   UNL A   1      42.010  28.530  33.260  1.00  0.00     0.074 A 
ATOM     86  C   UNL A   1      40.668  28.172  33.637  1.00  0.00    -0.034 C 
ATOM     87  H   UNL A   1      38.893  27.806  32.501  1.00  0.00     0.065 H 
ATOM     88  C   UNL A   1      40.781  26.983  27.016  1.00  0.00    -0.036 A 
ATOM     89  H   UNL A   1      39.359  28.525  27.338  1.00  0.00     0.065 H 
ATOM     90  C   UNL A   1      41.901  26.512  27.810  1.00  0.00     0.049 A 
ATOM     91  H   UNL A   1      42.574  27.349  29.607  1.00  0.00     0.167 HD
ATOM     92  C   UNL A   1      43.189  28.374  33.921  1.00  0.00     0.037 A 
ATOM     93  H   UNL A   1      40.358  27.993  34.605  1.00  0.00     0.065 H 
ATOM     94  H   UNL A   1      40.517  26.631  26.081  1.00  0.00     0.065 H 
ATOM     95  C   UNL A   1      42.761  25.483  27.593  1.00  0.00     0.037 A 
ATOM     96  C   UNL A   1      44.269  29.031  33.239  1.00  0.00     0.049 A 
ATOM     97  C   UNL A   1      43.910  25.666  28.516  1.00  0.00     0.074 A 
ATOM     98  C   UNL A   1      44.558  30.347  32.940  1.00  0.00    -0.036 A 
ATOM     99  N   UNL A   1      45.085  28.276  32.436  1.00  0.00    -0.354 N 
ATOM    100  N   UNL A   1      44.777  26.634  28.401  1.00  0.00    -0.248 NA
ATOM    101  C   UNL A   1      43.805  25.068  29.840  1.00  0.00    -0.034 C 
ATOM    102  C   UNL A   1      45.147  30.306  31.644  1.00  0.00    -0.036 A 
ATOM    103  H   UNL A   1      44.386  31.178  33.526  1.00  0.00     0.065 H 
ATOM    104  C   UNL A   1      45.243  28.968  31.263  1.00  0.00     0.049 A 
ATOM    105  H   UNL A   1      45.482  27.402  32.659  1.00  0.00     0.167 HD
ATOM    106  C   UNL A   1      45.011  27.050  29.703  1.00  0.00     0.074 A 
ATOM    107  C   UNL A   1      44.433  26.009  30.551  1.00  0.00    -0.034 C 
ATOM    108  H   UNL A   1      43.374  24.179  30.140  1.00  0.00     0.065 H 
ATOM    109  H   UNL A   1      45.448  31.121  31.087  1.00  0.00     0.065 H 
ATOM    110  C   UNL A   1      45.388  28.332  29.977  1.00  0.00     0.037 A 
ATOM    111  H   UNL A   1      44.501  26.002  31.581  1.00  0.00     0.065 H 
BRANCH  92 112
ATOM    112  C   UNL A   1      43.428  27.353  35.002  1.00  0.00     0.064 A 
ATOM    113  C   UNL A   1      43.772  27.780  36.301  1.00  0.00     0.173 A 
ATOM    114  C   UNL A   1      43.632  25.983  34.735  1.00  0.00     0.173 A 
ATOM    115  F   UNL A   1      43.642  29.068  36.653  1.00  0.00    -0.203 F 
ATOM    116  C   UNL A   1      44.345  26.911  37.234  1.00  0.00     0.198 A 
ATOM    117  C   UNL A   1      44.155  25.109  35.685  1.00  0.00     0.198 A 
ATOM    118  F   UNL A   1      43.443  25.464  33.515  1.00  0.00    -0.203 F 
ATOM    119  F   UNL A   1      44.768  27.386  38.413  1.00  0.00    -0.200 F 
ATOM    120  C   UNL A   1      44.540  25.578  36.923  1.00  0.00     0.200 A 
ATOM    121  F   UNL A   1      44.359  23.825  35.357  1.00  0.00    -0.200 F 
ATOM    122  F   UNL A   1      45.145  24.758  37.793  1.00  0.00    -0.200 F 
ENDBRANCH  92 112
BRANCH  95 123
ATOM    123  C   UNL A   1      42.492  24.196  26.904  1.00  0.00     0.064 A 
ATOM    124  C   UNL A   1      43.340  23.716  25.893  1.00  0.00     0.173 A 
ATOM    125  C   UNL A   1      41.548  23.280  27.413  1.00  0.00     0.173 A 
ATOM    126  F   UNL A   1      44.302  24.503  25.390  1.00  0.00    -0.203 F 
ATOM    127  C   UNL A   1      43.259  22.395  25.431  1.00  0.00     0.198 A 
ATOM    128  C   UNL A   1      41.465  21.967  26.947  1.00  0.00     0.198 A 
ATOM    129  F   UNL A   1      40.752  23.613  28.440  1.00  0.00    -0.203 F 
ATOM    130  F   UNL A   1      44.124  21.957  24.505  1.00  0.00    -0.200 F 
ATOM    131  C   UNL A   1      42.328  21.520  25.965  1.00  0.00     0.200 A 
ATOM    132  F   UNL A   1      40.586  21.120  27.502  1.00  0.00    -0.200 F 
ATOM    133  F   UNL A   1      42.289  20.242  25.564  1.00  0.00    -0.200 F 
ENDBRANCH  95 123
BRANCH 110 134
ATOM    134  C   UNL A   1      45.742  29.229  28.825  1.00  0.00     0.064 A 
ATOM    135  C   UNL A   1      44.801  29.996  28.115  1.00  0.00     0.173 A 
ATOM    136  C   UNL A   1      47.097  29.467  28.563  1.00  0.00     0.173 A 
ATOM    137  F   UNL A   1      43.494  29.903  28.381  1.00  0.00    -0.203 F 
ATOM    138  C   UNL A   1      45.203  30.938  27.169  1.00  0.00     0.198 A 
ATOM    139  C   UNL A   1      47.496  30.434  27.643  1.00  0.00     0.198 A 
ATOM    140  F   UNL A   1      48.041  28.807  29.253  1.00  0.00    -0.203 F 
ATOM    141  F   UNL A   1      44.286  31.665  26.512  1.00  0.00    -0.200 F 
ATOM    142  C   UNL A   1      46.550  31.164  26.943  1.00  0.00     0.200 A 
ATOM    143  F   UNL A   1      48.800  30.688  27.471  1.00  0.00    -0.200 F 
ATOM    144  F   UNL A   1      46.938  32.111  26.078  1.00  0.00    -0.200 F 
ENDBRANCH 110 134
ENDBRANCH  75  78
ENDBRANCH  65  68
ENDBRANCH  61  64
ENDBRANCH  58  61
ENDBRANCH  55  58
ENDBRANCH  52  55
ENDBRANCH   1  52
TORSDOF 20
ENDMDL
MODEL 2
REMARK VINA RESULT:     -12.7      3.080      8.288
REMARK SMILES COc1ccc2c(c1)c(CC(=O)NCCCCCCNC(=O)c1ccc(-c3c4nc(c(-c5c(F)c(F)c(F)c(F)c5F)c5ccc([nH]5)c(-c5c(F)c(F)c(F)c(F)c5F)c5nc(c(-c6c(F)c(F)c(F)c(F)c6F)c6ccc3[nH]6)C=C5)C=C4)cc1)c(C)n2Cc1ccn(C(F)F)c(=O)c1
REMARK SMILES IDX 15 1 14 4 13 7 11 8 12 9 10 11 9 14 3 15 4 16 8 17 5 18 7 20
REMARK SMILES IDX 6 22 88 24 86 25 2 26 1 27 89 31 90 34 91 35 99 36 92 37
REMARK SMILES IDX 97 39 93 41 98 43 94 44 95 45 96 46 87 48 16 52 17 55 18 58
REMARK SMILES IDX 19 61 20 64 21 65 22 67 23 68 24 69 85 70 25 71 84 73 26 75
REMARK SMILES IDX 27 78 28 79 78 80 29 81 83 82 77 83 79 84 30 85 82 86 76 88
REMARK SMILES IDX 75 90 31 92 63 95 43 96 62 97 44 98 47 99 61 100 80 101
REMARK SMILES IDX 45 102 46 104 60 106 81 107 48 110 32 112 33 113 41 114
REMARK SMILES IDX 34 115 35 116 39 117 42 118 36 119 37 120 40 121 38 122
REMARK SMILES IDX 64 123 65 124 73 125 66 126 67 127 71 128 74 129 68 130
REMARK SMILES IDX 69 131 72 132 70 133 49 134 50 135 58 136 51 137 52 138
REMARK SMILES IDX 56 139 59 140 53 141 54 142 57 143 55 144
REMARK H PARENT 15 2 15 3 14 5 14 6 13 10 10 12 10 13 4 19 8 21 5 23 1 28 1 29
REMARK H PARENT 1 30 89 32 89 33 91 38 99 40 92 42 94 47 87 49 87 50 87 51
REMARK H PARENT 16 53 16 54 17 56 17 57 18 59 18 60 19 62 19 63 20 66 24 72
REMARK H PARENT 85 74 25 76 84 77 83 87 77 89 79 91 82 93 76 94 44 103 47 105
REMARK H PARENT 80 108 45 109 81 111
REMARK Flexibility Score: inf
ROOT
ATOM      1  C   UNL A   1      40.134  22.511  26.932  1.00  0.00    -0.036 C 
ATOM      2  H   UNL A   1      40.282  22.527  27.992  1.00  0.00     0.028 H 
ATOM      3  H   UNL A   1      40.891  23.057  26.409  1.00  0.00     0.028 H 
ENDROOT
BRANCH   1   4
ATOM      4  C   UNL A   1      38.797  23.182  26.620  1.00  0.00     0.017 C 
ATOM      5  H   UNL A   1      38.061  22.832  27.313  1.00  0.00     0.049 H 
ATOM      6  H   UNL A   1      38.924  24.241  26.705  1.00  0.00     0.049 H 
BRANCH   4   7
ATOM      7  N   UNL A   1      38.355  22.882  25.273  1.00  0.00    -0.356 N 
ATOM      8  C   UNL A   1      37.176  23.189  24.656  1.00  0.00     0.224 C 
ATOM      9  O   UNL A   1      36.995  22.766  23.511  1.00  0.00    -0.275 OA
ATOM     10  H   UNL A   1      39.001  22.383  24.720  1.00  0.00     0.163 HD
BRANCH   8  11
ATOM     11  C   UNL A   1      36.163  24.105  25.326  1.00  0.00     0.054 C 
ATOM     12  H   UNL A   1      36.319  24.063  26.384  1.00  0.00     0.042 H 
ATOM     13  H   UNL A   1      36.318  25.085  24.927  1.00  0.00     0.042 H 
BRANCH  11  14
ATOM     14  C   UNL A   1      34.737  23.739  25.044  1.00  0.00    -0.010 A 
ATOM     15  C   UNL A   1      32.991  25.834  22.378  1.00  0.00     0.119 A 
ATOM     16  C   UNL A   1      31.794  25.127  22.390  1.00  0.00    -0.018 A 
ATOM     17  C   UNL A   1      34.049  25.429  23.191  1.00  0.00    -0.010 A 
ATOM     18  C   UNL A   1      31.621  24.011  23.228  1.00  0.00    -0.034 A 
ATOM     19  H   UNL A   1      31.021  25.425  21.775  1.00  0.00     0.066 H 
ATOM     20  C   UNL A   1      33.885  24.340  24.074  1.00  0.00     0.007 A 
ATOM     21  H   UNL A   1      34.953  25.926  23.147  1.00  0.00     0.067 H 
ATOM     22  C   UNL A   1      32.678  23.636  24.077  1.00  0.00     0.049 A 
ATOM     23  H   UNL A   1      30.737  23.479  23.219  1.00  0.00     0.065 H 
ATOM     24  N   UNL A   1      32.811  22.606  25.002  1.00  0.00    -0.340 N 
ATOM     25  C   UNL A   1      33.977  22.799  25.727  1.00  0.00     0.020 A 
BRANCH  15  26
ATOM     26  O   UNL A   1      33.251  26.892  21.550  1.00  0.00    -0.497 OA
BRANCH  26  27
ATOM     27  C   UNL A   1      33.859  28.009  22.194  1.00  0.00     0.078 C 
ATOM     28  H   UNL A   1      33.118  28.756  22.385  1.00  0.00     0.067 H 
ATOM     29  H   UNL A   1      34.620  28.414  21.560  1.00  0.00     0.067 H 
ATOM     30  H   UNL A   1      34.294  27.694  23.118  1.00  0.00     0.067 H 
ENDBRANCH  26  27
ENDBRANCH  15  26
BRANCH  24  31
ATOM     31  C   UNL A   1      31.819  21.544  25.225  1.00  0.00     0.048 C 
ATOM     32  H   UNL A   1      30.925  21.805  24.699  1.00  0.00     0.055 H 
ATOM     33  H   UNL A   1      31.677  21.477  26.283  1.00  0.00     0.055 H 
BRANCH  31  34
ATOM     34  C   UNL A   1      32.259  20.165  24.760  1.00  0.00    -0.021 A 
ATOM     35  C   UNL A   1      32.692  19.188  25.741  1.00  0.00    -0.040 A 
ATOM     36  C   UNL A   1      32.167  19.767  23.477  1.00  0.00     0.009 A 
ATOM     37  C   UNL A   1      33.100  17.968  25.374  1.00  0.00     0.013 A 
ATOM     38  H   UNL A   1      32.686  19.439  26.741  1.00  0.00     0.064 H 
ATOM     39  C   UNL A   1      32.545  18.381  23.054  1.00  0.00     0.255 A 
ATOM     40  H   UNL A   1      31.830  20.436  22.766  1.00  0.00     0.068 H 
ATOM     41  N   UNL A   1      33.069  17.570  24.053  1.00  0.00    -0.258 N 
ATOM     42  H   UNL A   1      33.445  17.312  26.092  1.00  0.00     0.082 H 
ATOM     43  O   UNL A   1      32.375  18.059  21.890  1.00  0.00    -0.269 OA
BRANCH  41  44
ATOM     44  C   UNL A   1      33.398  16.204  23.720  1.00  0.00     0.321 C 
ATOM     45  F   UNL A   1      34.467  16.160  22.889  1.00  0.00    -0.185 F 
ATOM     46  F   UNL A   1      33.688  15.455  24.808  1.00  0.00    -0.185 F 
ATOM     47  H   UNL A   1      32.529  15.801  23.246  1.00  0.00     0.131 H 
ENDBRANCH  41  44
ENDBRANCH  31  34
ENDBRANCH  24  31
BRANCH  25  48
ATOM     48  C   UNL A   1      34.347  22.074  26.976  1.00  0.00    -0.024 C 
ATOM     49  H   UNL A   1      33.564  22.185  27.697  1.00  0.00     0.030 H 
ATOM     50  H   UNL A   1      35.255  22.482  27.368  1.00  0.00     0.030 H 
ATOM     51  H   UNL A   1      34.486  21.036  26.758  1.00  0.00     0.030 H 
ENDBRANCH  25  48
ENDBRANCH  11  14
ENDBRANCH   8  11
ENDBRANCH   4   7
ENDBRANCH   1   4
BRANCH   1  52
ATOM     52  C   UNL A   1      40.216  21.055  26.453  1.00  0.00    -0.052 C 
ATOM     53  H   UNL A   1      40.308  21.060  25.387  1.00  0.00     0.027 H 
ATOM     54  H   UNL A   1      39.324  20.575  26.798  1.00  0.00     0.027 H 
BRANCH  52  55
ATOM     55  C   UNL A   1      41.389  20.252  27.030  1.00  0.00    -0.052 C 
ATOM     56  H   UNL A   1      41.116  19.922  28.011  1.00  0.00     0.027 H 
ATOM     57  H   UNL A   1      42.234  20.908  27.027  1.00  0.00     0.027 H 
BRANCH  55  58
ATOM     58  C   UNL A   1      41.792  19.022  26.209  1.00  0.00    -0.036 C 
ATOM     59  H   UNL A   1      41.311  19.078  25.256  1.00  0.00     0.028 H 
ATOM     60  H   UNL A   1      41.490  18.158  26.764  1.00  0.00     0.028 H 
BRANCH  58  61
ATOM     61  C   UNL A   1      43.298  18.909  25.987  1.00  0.00     0.018 C 
ATOM     62  H   UNL A   1      43.595  17.902  26.194  1.00  0.00     0.049 H 
ATOM     63  H   UNL A   1      43.763  19.616  26.643  1.00  0.00     0.049 H 
BRANCH  61  64
ATOM     64  N   UNL A   1      43.717  19.241  24.644  1.00  0.00    -0.352 N 
ATOM     65  C   UNL A   1      44.414  20.274  24.087  1.00  0.00     0.251 C 
ATOM     66  H   UNL A   1      43.434  18.570  23.981  1.00  0.00     0.163 HD
ATOM     67  O   UNL A   1      44.750  20.133  22.908  1.00  0.00    -0.269 OA
BRANCH  65  68
ATOM     68  C   UNL A   1      44.693  21.574  24.753  1.00  0.00     0.039 A 
ATOM     69  C   UNL A   1      45.698  21.821  25.689  1.00  0.00    -0.049 A 
ATOM     70  C   UNL A   1      43.782  22.606  24.458  1.00  0.00    -0.049 A 
ATOM     71  C   UNL A   1      45.690  22.994  26.433  1.00  0.00    -0.053 A 
ATOM     72  H   UNL A   1      46.451  21.129  25.829  1.00  0.00     0.063 H 
ATOM     73  C   UNL A   1      43.789  23.792  25.173  1.00  0.00    -0.053 A 
ATOM     74  H   UNL A   1      43.097  22.476  23.697  1.00  0.00     0.063 H 
ATOM     75  C   UNL A   1      44.694  23.945  26.217  1.00  0.00    -0.014 A 
ATOM     76  H   UNL A   1      46.420  23.160  27.145  1.00  0.00     0.063 H 
ATOM     77  H   UNL A   1      43.132  24.551  24.935  1.00  0.00     0.063 H 
BRANCH  75  78
ATOM     78  C   UNL A   1      44.678  25.132  27.063  1.00  0.00     0.031 A 
ATOM     79  C   UNL A   1      45.850  26.037  26.888  1.00  0.00     0.074 A 
ATOM     80  C   UNL A   1      43.626  25.424  27.857  1.00  0.00     0.049 A 
ATOM     81  N   UNL A   1      46.694  26.436  27.785  1.00  0.00    -0.248 NA
ATOM     82  C   UNL A   1      46.198  26.452  25.518  1.00  0.00    -0.034 C 
ATOM     83  C   UNL A   1      42.332  24.741  27.941  1.00  0.00    -0.036 A 
ATOM     84  N   UNL A   1      43.460  26.474  28.708  1.00  0.00    -0.354 N 
ATOM     85  C   UNL A   1      47.586  27.283  27.128  1.00  0.00     0.074 A 
ATOM     86  C   UNL A   1      47.311  27.158  25.721  1.00  0.00    -0.034 C 
ATOM     87  H   UNL A   1      45.708  26.251  24.634  1.00  0.00     0.065 H 
ATOM     88  C   UNL A   1      41.447  25.531  28.591  1.00  0.00    -0.036 A 
ATOM     89  H   UNL A   1      42.127  23.804  27.563  1.00  0.00     0.065 H 
ATOM     90  C   UNL A   1      42.143  26.705  29.086  1.00  0.00     0.049 A 
ATOM     91  H   UNL A   1      44.211  27.025  29.027  1.00  0.00     0.167 HD
ATOM     92  C   UNL A   1      48.362  28.173  27.805  1.00  0.00     0.037 A 
ATOM     93  H   UNL A   1      47.896  27.558  24.971  1.00  0.00     0.065 H 
ATOM     94  H   UNL A   1      40.441  25.332  28.714  1.00  0.00     0.065 H 
ATOM     95  C   UNL A   1      41.663  27.819  29.696  1.00  0.00     0.037 A 
ATOM     96  C   UNL A   1      48.481  27.823  29.192  1.00  0.00     0.049 A 
ATOM     97  C   UNL A   1      42.821  28.524  30.302  1.00  0.00     0.074 A 
ATOM     98  C   UNL A   1      49.033  26.755  29.871  1.00  0.00    -0.036 A 
ATOM     99  N   UNL A   1      47.669  28.462  30.095  1.00  0.00    -0.354 N 
ATOM    100  N   UNL A   1      43.497  28.058  31.316  1.00  0.00    -0.248 NA
ATOM    101  C   UNL A   1      43.521  29.495  29.472  1.00  0.00    -0.034 C 
ATOM    102  C   UNL A   1      48.150  26.520  30.963  1.00  0.00    -0.036 A 
ATOM    103  H   UNL A   1      49.896  26.240  29.639  1.00  0.00     0.065 H 
ATOM    104  C   UNL A   1      47.155  27.498  30.923  1.00  0.00     0.049 A 
ATOM    105  H   UNL A   1      47.491  29.430  30.140  1.00  0.00     0.167 HD
ATOM    106  C   UNL A   1      44.820  28.338  31.013  1.00  0.00     0.074 A 
ATOM    107  C   UNL A   1      44.770  29.279  29.895  1.00  0.00    -0.034 C 
ATOM    108  H   UNL A   1      43.159  30.155  28.766  1.00  0.00     0.065 H 
ATOM    109  H   UNL A   1      48.230  25.762  31.659  1.00  0.00     0.065 H 
ATOM    110  C   UNL A   1      45.834  27.563  31.496  1.00  0.00     0.037 A 
ATOM    111  H   UNL A   1      45.603  29.724  29.479  1.00  0.00     0.065 H 
BRANCH  92 112
ATOM    112  C   UNL A   1      48.740  29.535  27.287  1.00  0.00     0.064 A 
ATOM    113  C   UNL A   1      50.098  29.911  27.239  1.00  0.00     0.173 A 
ATOM    114  C   UNL A   1      47.810  30.585  27.132  1.00  0.00     0.173 A 
ATOM    115  F   UNL A   1      51.066  28.997  27.401  1.00  0.00    -0.203 F 
ATOM    116  C   UNL A   1      50.488  31.248  27.116  1.00  0.00     0.198 A 
ATOM    117  C   UNL A   1      48.203  31.909  26.957  1.00  0.00     0.198 A 
ATOM    118  F   UNL A   1      46.491  30.385  27.257  1.00  0.00    -0.203 F 
ATOM    119  F   UNL A   1      51.785  31.573  27.196  1.00  0.00    -0.200 F 
ATOM    120  C   UNL A   1      49.540  32.246  26.981  1.00  0.00     0.200 A 
ATOM    121  F   UNL A   1      47.269  32.865  26.852  1.00  0.00    -0.200 F 
ATOM    122  F   UNL A   1      49.909  33.532  26.925  1.00  0.00    -0.200 F 
ENDBRANCH  92 112
BRANCH  95 123
ATOM    123  C   UNL A   1      40.348  28.477  29.494  1.00  0.00     0.064 A 
ATOM    124  C   UNL A   1      39.966  28.979  28.239  1.00  0.00     0.173 A 
ATOM    125  C   UNL A   1      39.329  28.383  30.464  1.00  0.00     0.173 A 
ATOM    126  F   UNL A   1      40.860  29.053  27.242  1.00  0.00    -0.203 F 
ATOM    127  C   UNL A   1      38.643  29.350  27.967  1.00  0.00     0.198 A 
ATOM    128  C   UNL A   1      38.012  28.759  30.193  1.00  0.00     0.198 A 
ATOM    129  F   UNL A   1      39.571  27.835  31.663  1.00  0.00    -0.203 F 
ATOM    130  F   UNL A   1      38.304  29.772  26.740  1.00  0.00    -0.200 F 
ATOM    131  C   UNL A   1      37.666  29.231  28.942  1.00  0.00     0.200 A 
ATOM    132  F   UNL A   1      37.069  28.600  31.134  1.00  0.00    -0.200 F 
ATOM    133  F   UNL A   1      36.389  29.531  28.664  1.00  0.00    -0.200 F 
ENDBRANCH  95 123
BRANCH 110 134
ATOM    134  C   UNL A   1      45.502  26.524  32.529  1.00  0.00     0.064 A 
ATOM    135  C   UNL A   1      45.400  26.796  33.905  1.00  0.00     0.173 A 
ATOM    136  C   UNL A   1      45.082  25.262  32.088  1.00  0.00     0.173 A 
ATOM    137  F   UNL A   1      45.682  28.010  34.391  1.00  0.00    -0.203 F 
ATOM    138  C   UNL A   1      44.924  25.837  34.798  1.00  0.00     0.198 A 
ATOM    139  C   UNL A   1      44.573  24.319  32.978  1.00  0.00     0.198 A 
ATOM    140  F   UNL A   1      45.100  24.967  30.779  1.00  0.00    -0.203 F 
ATOM    141  F   UNL A   1      44.827  26.124  36.105  1.00  0.00    -0.200 F 
ATOM    142  C   UNL A   1      44.500  24.604  34.332  1.00  0.00     0.200 A 
ATOM    143  F   UNL A   1      44.111  23.150  32.514  1.00  0.00    -0.200 F 
ATOM    144  F   UNL A   1      43.986  23.703  35.181  1.00  0.00    -0.200 F 
ENDBRANCH 110 134
ENDBRANCH  75  78
ENDBRANCH  65  68
ENDBRANCH  61  64
ENDBRANCH  58  61
ENDBRANCH  55  58
ENDBRANCH  52  55
ENDBRANCH   1  52
TORSDOF 20
ENDMDL
MODEL 3
REMARK VINA RESULT:     -12.2      4.080      9.511
REMARK SMILES COc1ccc2c(c1)c(CC(=O)NCCCCCCNC(=O)c1ccc(-c3c4nc(c(-c5c(F)c(F)c(F)c(F)c5F)c5ccc([nH]5)c(-c5c(F)c(F)c(F)c(F)c5F)c5nc(c(-c6c(F)c(F)c(F)c(F)c6F)c6ccc3[nH]6)C=C5)C=C4)cc1)c(C)n2Cc1ccn(C(F)F)c(=O)c1
REMARK SMILES IDX 15 1 14 4 13 7 11 8 12 9 10 11 9 14 3 15 4 16 8 17 5 18 7 20
REMARK SMILES IDX 6 22 88 24 86 25 2 26 1 27 89 31 90 34 91 35 99 36 92 37
REMARK SMILES IDX 97 39 93 41 98 43 94 44 95 45 96 46 87 48 16 52 17 55 18 58
REMARK SMILES IDX 19 61 20 64 21 65 22 67 23 68 24 69 85 70 25 71 84 73 26 75
REMARK SMILES IDX 27 78 28 79 78 80 29 81 83 82 77 83 79 84 30 85 82 86 76 88
REMARK SMILES IDX 75 90 31 92 63 95 43 96 62 97 44 98 47 99 61 100 80 101
REMARK SMILES IDX 45 102 46 104 60 106 81 107 48 110 32 112 33 113 41 114
REMARK SMILES IDX 34 115 35 116 39 117 42 118 36 119 37 120 40 121 38 122
REMARK SMILES IDX 64 123 65 124 73 125 66 126 67 127 71 128 74 129 68 130
REMARK SMILES IDX 69 131 72 132 70 133 49 134 50 135 58 136 51 137 52 138
REMARK SMILES IDX 56 139 59 140 53 141 54 142 57 143 55 144
REMARK H PARENT 15 2 15 3 14 5 14 6 13 10 10 12 10 13 4 19 8 21 5 23 1 28 1 29
REMARK H PARENT 1 30 89 32 89 33 91 38 99 40 92 42 94 47 87 49 87 50 87 51
REMARK H PARENT 16 53 16 54 17 56 17 57 18 59 18 60 19 62 19 63 20 66 24 72
REMARK H PARENT 85 74 25 76 84 77 83 87 77 89 79 91 82 93 76 94 44 103 47 105
REMARK H PARENT 80 108 45 109 81 111
REMARK Flexibility Score: inf
ROOT
ATOM      1  C   UNL A   1      37.020  22.036  24.150  1.00  0.00    -0.036 C 
ATOM      2  H   UNL A   1      37.175  23.065  23.899  1.00  0.00     0.028 H 
ATOM      3  H   UNL A   1      37.407  21.374  23.405  1.00  0.00     0.028 H 
ENDROOT
BRANCH   1   4
ATOM      4  C   UNL A   1      35.514  21.784  24.239  1.00  0.00     0.017 C 
ATOM      5  H   UNL A   1      35.018  22.373  23.498  1.00  0.00     0.049 H 
ATOM      6  H   UNL A   1      35.339  20.741  24.074  1.00  0.00     0.049 H 
BRANCH   4   7
ATOM      7  N   UNL A   1      34.995  22.133  25.546  1.00  0.00    -0.356 N 
ATOM      8  C   UNL A   1      34.657  23.357  26.048  1.00  0.00     0.224 C 
ATOM      9  O   UNL A   1      34.295  23.419  27.226  1.00  0.00    -0.275 OA
ATOM     10  H   UNL A   1      34.866  21.376  26.164  1.00  0.00     0.163 HD
BRANCH   8  11
ATOM     11  C   UNL A   1      34.636  24.587  25.152  1.00  0.00     0.054 C 
ATOM     12  H   UNL A   1      35.405  25.254  25.478  1.00  0.00     0.042 H 
ATOM     13  H   UNL A   1      34.788  24.244  24.150  1.00  0.00     0.042 H 
BRANCH  11  14
ATOM     14  C   UNL A   1      33.332  25.324  25.168  1.00  0.00    -0.010 A 
ATOM     15  C   UNL A   1      33.340  28.656  27.025  1.00  0.00     0.119 A 
ATOM     16  C   UNL A   1      32.027  29.001  26.723  1.00  0.00    -0.018 A 
ATOM     17  C   UNL A   1      33.885  27.476  26.521  1.00  0.00    -0.010 A 
ATOM     18  C   UNL A   1      31.225  28.165  25.927  1.00  0.00    -0.034 A 
ATOM     19  H   UNL A   1      31.637  29.883  27.088  1.00  0.00     0.066 H 
ATOM     20  C   UNL A   1      33.086  26.598  25.757  1.00  0.00     0.007 A 
ATOM     21  H   UNL A   1      34.874  27.243  26.706  1.00  0.00     0.067 H 
ATOM     22  C   UNL A   1      31.768  26.954  25.459  1.00  0.00     0.049 A 
ATOM     23  H   UNL A   1      30.257  28.435  25.691  1.00  0.00     0.065 H 
ATOM     24  N   UNL A   1      31.240  25.936  24.673  1.00  0.00    -0.340 N 
ATOM     25  C   UNL A   1      32.118  24.865  24.673  1.00  0.00     0.020 A 
BRANCH  15  26
ATOM     26  O   UNL A   1      34.197  29.444  27.744  1.00  0.00    -0.497 OA
BRANCH  26  27
ATOM     27  C   UNL A   1      35.569  29.304  27.385  1.00  0.00     0.078 C 
ATOM     28  H   UNL A   1      36.163  29.962  27.985  1.00  0.00     0.067 H 
ATOM     29  H   UNL A   1      35.694  29.552  26.353  1.00  0.00     0.067 H 
ATOM     30  H   UNL A   1      35.879  28.294  27.551  1.00  0.00     0.067 H 
ENDBRANCH  26  27
ENDBRANCH  15  26
BRANCH  24  31
ATOM     31  C   UNL A   1      29.919  25.972  24.029  1.00  0.00     0.048 C 
ATOM     32  H   UNL A   1      29.180  25.740  24.768  1.00  0.00     0.055 H 
ATOM     33  H   UNL A   1      29.950  25.262  23.230  1.00  0.00     0.055 H 
BRANCH  31  34
ATOM     34  C   UNL A   1      29.560  27.311  23.403  1.00  0.00    -0.021 A 
ATOM     35  C   UNL A   1      30.501  27.951  22.504  1.00  0.00    -0.040 A 
ATOM     36  C   UNL A   1      28.354  27.889  23.565  1.00  0.00     0.009 A 
ATOM     37  C   UNL A   1      30.232  29.136  21.943  1.00  0.00     0.013 A 
ATOM     38  H   UNL A   1      31.396  27.484  22.294  1.00  0.00     0.064 H 
ATOM     39  C   UNL A   1      28.002  29.176  22.884  1.00  0.00     0.255 A 
ATOM     40  H   UNL A   1      27.656  27.433  24.174  1.00  0.00     0.068 H 
ATOM     41  N   UNL A   1      29.022  29.767  22.151  1.00  0.00    -0.258 N 
ATOM     42  H   UNL A   1      30.942  29.586  21.345  1.00  0.00     0.082 H 
ATOM     43  O   UNL A   1      26.871  29.614  23.015  1.00  0.00    -0.269 OA
BRANCH  41  44
ATOM     44  C   UNL A   1      28.727  30.980  21.425  1.00  0.00     0.321 C 
ATOM     45  F   UNL A   1      27.696  30.784  20.569  1.00  0.00    -0.185 F 
ATOM     46  F   UNL A   1      28.400  32.010  22.238  1.00  0.00    -0.185 F 
ATOM     47  H   UNL A   1      29.622  31.228  20.895  1.00  0.00     0.131 H 
ENDBRANCH  41  44
ENDBRANCH  31  34
ENDBRANCH  24  31
BRANCH  25  48
ATOM     48  C   UNL A   1      31.809  23.494  24.173  1.00  0.00    -0.024 C 
ATOM     49  H   UNL A   1      30.950  23.534  23.536  1.00  0.00     0.030 H 
ATOM     50  H   UNL A   1      31.610  22.849  25.002  1.00  0.00     0.030 H 
ATOM     51  H   UNL A   1      32.645  23.119  23.621  1.00  0.00     0.030 H 
ENDBRANCH  25  48
ENDBRANCH  11  14
ENDBRANCH   8  11
ENDBRANCH   4   7
ENDBRANCH   1   4
BRANCH   1  52
ATOM     52  C   UNL A   1      37.769  21.736  25.456  1.00  0.00    -0.052 C 
ATOM     53  H   UNL A   1      38.173  20.747  25.387  1.00  0.00     0.027 H 
ATOM     54  H   UNL A   1      37.055  21.847  26.244  1.00  0.00     0.027 H 
BRANCH  52  55
ATOM     55  C   UNL A   1      38.918  22.701  25.775  1.00  0.00    -0.052 C 
ATOM     56  H   UNL A   1      38.496  23.658  26.001  1.00  0.00     0.027 H 
ATOM     57  H   UNL A   1      39.551  22.713  24.912  1.00  0.00     0.027 H 
BRANCH  55  58
ATOM     58  C   UNL A   1      39.804  22.279  26.954  1.00  0.00    -0.036 C 
ATOM     59  H   UNL A   1      39.213  21.698  27.630  1.00  0.00     0.028 H 
ATOM     60  H   UNL A   1      40.173  23.175  27.407  1.00  0.00     0.028 H 
BRANCH  58  61
ATOM     61  C   UNL A   1      41.017  21.454  26.535  1.00  0.00     0.018 C 
ATOM     62  H   UNL A   1      40.669  20.544  26.091  1.00  0.00     0.049 H 
ATOM     63  H   UNL A   1      41.597  21.283  27.419  1.00  0.00     0.049 H 
BRANCH  61  64
ATOM     64  N   UNL A   1      41.880  22.122  25.588  1.00  0.00    -0.352 N 
ATOM     65  C   UNL A   1      42.421  23.373  25.502  1.00  0.00     0.251 C 
ATOM     66  H   UNL A   1      42.135  21.544  24.833  1.00  0.00     0.163 HD
ATOM     67  O   UNL A   1      43.276  23.540  24.629  1.00  0.00    -0.269 OA
BRANCH  65  68
ATOM     68  C   UNL A   1      41.978  24.551  26.296  1.00  0.00     0.039 A 
ATOM     69  C   UNL A   1      41.157  25.585  25.846  1.00  0.00    -0.049 A 
ATOM     70  C   UNL A   1      42.531  24.645  27.587  1.00  0.00    -0.049 A 
ATOM     71  C   UNL A   1      41.033  26.754  26.587  1.00  0.00    -0.053 A 
ATOM     72  H   UNL A   1      40.640  25.482  24.959  1.00  0.00     0.063 H 
ATOM     73  C   UNL A   1      42.384  25.794  28.346  1.00  0.00    -0.053 A 
ATOM     74  H   UNL A   1      43.055  23.845  27.974  1.00  0.00     0.063 H 
ATOM     75  C   UNL A   1      41.702  26.878  27.804  1.00  0.00    -0.014 A 
ATOM     76  H   UNL A   1      40.447  27.529  26.237  1.00  0.00     0.063 H 
ATOM     77  H   UNL A   1      42.773  25.846  29.300  1.00  0.00     0.063 H 
BRANCH  75  78
ATOM     78  C   UNL A   1      41.604  28.143  28.520  1.00  0.00     0.031 A 
ATOM     79  C   UNL A   1      42.731  29.089  28.270  1.00  0.00     0.074 A 
ATOM     80  C   UNL A   1      40.521  28.459  29.261  1.00  0.00     0.049 A 
ATOM     81  N   UNL A   1      43.532  29.625  29.133  1.00  0.00    -0.248 NA
ATOM     82  C   UNL A   1      43.087  29.377  26.869  1.00  0.00    -0.034 C 
ATOM     83  C   UNL A   1      39.263  27.719  29.395  1.00  0.00    -0.036 A 
ATOM     84  N   UNL A   1      40.281  29.582  29.993  1.00  0.00    -0.354 N 
ATOM     85  C   UNL A   1      44.393  30.446  28.406  1.00  0.00     0.074 A 
ATOM     86  C   UNL A   1      44.157  30.159  27.015  1.00  0.00    -0.034 C 
ATOM     87  H   UNL A   1      42.628  29.057  26.003  1.00  0.00     0.065 H 
ATOM     88  C   UNL A   1      38.323  28.522  29.942  1.00  0.00    -0.036 A 
ATOM     89  H   UNL A   1      39.116  26.737  29.114  1.00  0.00     0.065 H 
ATOM     90  C   UNL A   1      38.945  29.778  30.322  1.00  0.00     0.049 A 
ATOM     91  H   UNL A   1      40.994  30.203  30.264  1.00  0.00     0.167 HD
ATOM     92  C   UNL A   1      45.106  31.442  28.998  1.00  0.00     0.037 A 
ATOM     93  H   UNL A   1      44.736  30.511  26.237  1.00  0.00     0.065 H 
ATOM     94  H   UNL A   1      37.327  28.283  30.069  1.00  0.00     0.065 H 
ATOM     95  C   UNL A   1      38.394  30.921  30.803  1.00  0.00     0.037 A 
ATOM     96  C   UNL A   1      45.211  31.246  30.417  1.00  0.00     0.049 A 
ATOM     97  C   UNL A   1      39.499  31.749  31.351  1.00  0.00     0.074 A 
ATOM     98  C   UNL A   1      45.804  30.287  31.213  1.00  0.00    -0.036 A 
ATOM     99  N   UNL A   1      44.347  31.931  31.233  1.00  0.00    -0.354 N 
ATOM    100  N   UNL A   1      40.175  31.429  32.420  1.00  0.00    -0.248 NA
ATOM    101  C   UNL A   1      40.166  32.664  30.435  1.00  0.00    -0.034 C 
ATOM    102  C   UNL A   1      44.910  30.120  32.309  1.00  0.00    -0.036 A 
ATOM    103  H   UNL A   1      46.698  29.798  31.051  1.00  0.00     0.065 H 
ATOM    104  C   UNL A   1      43.866  31.032  32.150  1.00  0.00     0.049 A 
ATOM    105  H   UNL A   1      44.117  32.887  31.173  1.00  0.00     0.167 HD
ATOM    106  C   UNL A   1      41.489  31.748  32.111  1.00  0.00     0.074 A 
ATOM    107  C   UNL A   1      41.414  32.562  30.899  1.00  0.00    -0.034 C 
ATOM    108  H   UNL A   1      39.785  33.226  29.657  1.00  0.00     0.065 H 
ATOM    109  H   UNL A   1      45.014  29.444  33.082  1.00  0.00     0.065 H 
ATOM    110  C   UNL A   1      42.531  31.084  32.690  1.00  0.00     0.037 A 
ATOM    111  H   UNL A   1      42.232  33.006  30.453  1.00  0.00     0.065 H 
BRANCH  92 112
ATOM    112  C   UNL A   1      45.423  32.762  28.346  1.00  0.00     0.064 A 
ATOM    113  C   UNL A   1      44.372  33.624  27.970  1.00  0.00     0.173 A 
ATOM    114  C   UNL A   1      46.688  33.068  27.802  1.00  0.00     0.173 A 
ATOM    115  F   UNL A   1      43.123  33.411  28.409  1.00  0.00    -0.203 F 
ATOM    116  C   UNL A   1      44.567  34.668  27.061  1.00  0.00     0.198 A 
ATOM    117  C   UNL A   1      46.888  34.141  26.937  1.00  0.00     0.198 A 
ATOM    118  F   UNL A   1      47.751  32.275  27.995  1.00  0.00    -0.203 F 
ATOM    119  F   UNL A   1      43.518  35.387  26.639  1.00  0.00    -0.200 F 
ATOM    120  C   UNL A   1      45.823  34.922  26.542  1.00  0.00     0.200 A 
ATOM    121  F   UNL A   1      48.109  34.356  26.426  1.00  0.00    -0.200 F 
ATOM    122  F   UNL A   1      46.000  35.882  25.625  1.00  0.00    -0.200 F 
ENDBRANCH  92 112
BRANCH  95 123
ATOM    123  C   UNL A   1      37.051  31.482  30.511  1.00  0.00     0.064 A 
ATOM    124  C   UNL A   1      36.103  31.681  31.529  1.00  0.00     0.173 A 
ATOM    125  C   UNL A   1      36.768  32.089  29.270  1.00  0.00     0.173 A 
ATOM    126  F   UNL A   1      36.318  31.185  32.756  1.00  0.00    -0.203 F 
ATOM    127  C   UNL A   1      34.951  32.451  31.321  1.00  0.00     0.198 A 
ATOM    128  C   UNL A   1      35.617  32.852  29.064  1.00  0.00     0.198 A 
ATOM    129  F   UNL A   1      37.650  32.033  28.262  1.00  0.00    -0.203 F 
ATOM    130  F   UNL A   1      34.098  32.666  32.334  1.00  0.00    -0.200 F 
ATOM    131  C   UNL A   1      34.715  33.043  30.092  1.00  0.00     0.200 A 
ATOM    132  F   UNL A   1      35.422  33.451  27.880  1.00  0.00    -0.200 F 
ATOM    133  F   UNL A   1      33.644  33.828  29.910  1.00  0.00    -0.200 F 
ENDBRANCH  95 123
BRANCH 110 134
ATOM    134  C   UNL A   1      42.231  30.142  33.821  1.00  0.00     0.064 A 
ATOM    135  C   UNL A   1      41.829  28.807  33.638  1.00  0.00     0.173 A 
ATOM    136  C   UNL A   1      42.550  30.546  35.123  1.00  0.00     0.173 A 
ATOM    137  F   UNL A   1      41.606  28.315  32.415  1.00  0.00    -0.203 F 
ATOM    138  C   UNL A   1      41.728  27.928  34.716  1.00  0.00     0.198 A 
ATOM    139  C   UNL A   1      42.484  29.657  36.193  1.00  0.00     0.198 A 
ATOM    140  F   UNL A   1      42.997  31.792  35.349  1.00  0.00    -0.203 F 
ATOM    141  F   UNL A   1      41.352  26.656  34.514  1.00  0.00    -0.200 F 
ATOM    142  C   UNL A   1      42.067  28.351  35.990  1.00  0.00     0.200 A 
ATOM    143  F   UNL A   1      42.867  30.055  37.413  1.00  0.00    -0.200 F 
ATOM    144  F   UNL A   1      42.029  27.491  37.018  1.00  0.00    -0.200 F 
ENDBRANCH 110 134
ENDBRANCH  75  78
ENDBRANCH  65  68
ENDBRANCH  61  64
ENDBRANCH  58  61
ENDBRANCH  55  58
ENDBRANCH  52  55
ENDBRANCH   1  52
TORSDOF 20
ENDMDL
MODEL 4
REMARK VINA RESULT:     -12.2      2.116      3.127
REMARK SMILES COc1ccc2c(c1)c(CC(=O)NCCCCCCNC(=O)c1ccc(-c3c4nc(c(-c5c(F)c(F)c(F)c(F)c5F)c5ccc([nH]5)c(-c5c(F)c(F)c(F)c(F)c5F)c5nc(c(-c6c(F)c(F)c(F)c(F)c6F)c6ccc3[nH]6)C=C5)C=C4)cc1)c(C)n2Cc1ccn(C(F)F)c(=O)c1
REMARK SMILES IDX 15 1 14 4 13 7 11 8 12 9 10 11 9 14 3 15 4 16 8 17 5 18 7 20
REMARK SMILES IDX 6 22 88 24 86 25 2 26 1 27 89 31 90 34 91 35 99 36 92 37
REMARK SMILES IDX 97 39 93 41 98 43 94 44 95 45 96 46 87 48 16 52 17 55 18 58
REMARK SMILES IDX 19 61 20 64 21 65 22 67 23 68 24 69 85 70 25 71 84 73 26 75
REMARK SMILES IDX 27 78 28 79 78 80 29 81 83 82 77 83 79 84 30 85 82 86 76 88
REMARK SMILES IDX 75 90 31 92 63 95 43 96 62 97 44 98 47 99 61 100 80 101
REMARK SMILES IDX 45 102 46 104 60 106 81 107 48 110 32 112 33 113 41 114
REMARK SMILES IDX 34 115 35 116 39 117 42 118 36 119 37 120 40 121 38 122
REMARK SMILES IDX 64 123 65 124 73 125 66 126 67 127 71 128 74 129 68 130
REMARK SMILES IDX 69 131 72 132 70 133 49 134 50 135 58 136 51 137 52 138
REMARK SMILES IDX 56 139 59 140 53 141 54 142 57 143 55 144
REMARK H PARENT 15 2 15 3 14 5 14 6 13 10 10 12 10 13 4 19 8 21 5 23 1 28 1 29
REMARK H PARENT 1 30 89 32 89 33 91 38 99 40 92 42 94 47 87 49 87 50 87 51
REMARK H PARENT 16 53 16 54 17 56 17 57 18 59 18 60 19 62 19 63 20 66 24 72
REMARK H PARENT 85 74 25 76 84 77 83 87 77 89 79 91 82 93 76 94 44 103 47 105
REMARK H PARENT 80 108 45 109 81 111
REMARK Flexibility Score: inf
ROOT
ATOM      1  C   UNL A   1      33.100  28.291  26.703  1.00  0.00    -0.036 C 
ATOM      2  H   UNL A   1      33.507  27.694  25.914  1.00  0.00     0.028 H 
ATOM      3  H   UNL A   1      32.763  27.699  27.527  1.00  0.00     0.028 H 
ENDROOT
BRANCH   1   4
ATOM      4  C   UNL A   1      31.884  29.043  26.161  1.00  0.00     0.017 C 
ATOM      5  H   UNL A   1      31.022  28.416  26.242  1.00  0.00     0.049 H 
ATOM      6  H   UNL A   1      31.758  29.937  26.736  1.00  0.00     0.049 H 
BRANCH   4   7
ATOM      7  N   UNL A   1      32.067  29.416  24.772  1.00  0.00    -0.356 N 
ATOM      8  C   UNL A   1      31.531  28.861  23.646  1.00  0.00     0.224 C 
ATOM      9  O   UNL A   1      31.888  29.310  22.553  1.00  0.00    -0.275 OA
ATOM     10  H   UNL A   1      32.667  30.182  24.618  1.00  0.00     0.163 HD
BRANCH   8  11
ATOM     11  C   UNL A   1      30.454  27.790  23.743  1.00  0.00     0.054 C 
ATOM     12  H   UNL A   1      29.888  27.962  24.634  1.00  0.00     0.042 H 
ATOM     13  H   UNL A   1      29.859  27.866  22.857  1.00  0.00     0.042 H 
BRANCH  11  14
ATOM     14  C   UNL A   1      30.993  26.392  23.788  1.00  0.00    -0.010 A 
ATOM     15  C   UNL A   1      32.678  25.168  20.593  1.00  0.00     0.119 A 
ATOM     16  C   UNL A   1      33.074  23.933  21.094  1.00  0.00    -0.018 A 
ATOM     17  C   UNL A   1      32.018  26.077  21.418  1.00  0.00    -0.010 A 
ATOM     18  C   UNL A   1      32.804  23.572  22.425  1.00  0.00    -0.034 A 
ATOM     19  H   UNL A   1      33.575  23.272  20.480  1.00  0.00     0.066 H 
ATOM     20  C   UNL A   1      31.694  25.721  22.745  1.00  0.00     0.007 A 
ATOM     21  H   UNL A   1      31.766  27.012  21.059  1.00  0.00     0.067 H 
ATOM     22  C   UNL A   1      32.098  24.478  23.240  1.00  0.00     0.049 A 
ATOM     23  H   UNL A   1      33.116  22.662  22.798  1.00  0.00     0.065 H 
ATOM     24  N   UNL A   1      31.684  24.414  24.566  1.00  0.00    -0.340 N 
ATOM     25  C   UNL A   1      30.842  25.483  24.827  1.00  0.00     0.020 A 
BRANCH  15  26
ATOM     26  O   UNL A   1      32.955  25.611  19.328  1.00  0.00    -0.497 OA
BRANCH  26  27
ATOM     27  C   UNL A   1      31.915  25.382  18.381  1.00  0.00     0.078 C 
ATOM     28  H   UNL A   1      31.968  26.121  17.609  1.00  0.00     0.067 H 
ATOM     29  H   UNL A   1      30.967  25.446  18.872  1.00  0.00     0.067 H 
ATOM     30  H   UNL A   1      32.031  24.410  17.952  1.00  0.00     0.067 H 
ENDBRANCH  26  27
ENDBRANCH  15  26
BRANCH  24  31
ATOM     31  C   UNL A   1      32.021  23.329  25.499  1.00  0.00     0.048 C 
ATOM     32  H   UNL A   1      31.464  22.460  25.216  1.00  0.00     0.055 H 
ATOM     33  H   UNL A   1      31.776  23.683  26.478  1.00  0.00     0.055 H 
BRANCH  31  34
ATOM     34  C   UNL A   1      33.496  22.960  25.529  1.00  0.00    -0.021 A 
ATOM     35  C   UNL A   1      34.465  23.939  25.981  1.00  0.00    -0.040 A 
ATOM     36  C   UNL A   1      33.940  21.720  25.250  1.00  0.00     0.009 A 
ATOM     37  C   UNL A   1      35.774  23.661  26.010  1.00  0.00     0.013 A 
ATOM     38  H   UNL A   1      34.140  24.869  26.286  1.00  0.00     0.064 H 
ATOM     39  C   UNL A   1      35.391  21.363  25.351  1.00  0.00     0.255 A 
ATOM     40  H   UNL A   1      33.263  20.997  24.959  1.00  0.00     0.068 H 
ATOM     41  N   UNL A   1      36.247  22.410  25.667  1.00  0.00    -0.258 N 
ATOM     42  H   UNL A   1      36.441  24.395  26.293  1.00  0.00     0.082 H 
ATOM     43  O   UNL A   1      35.723  20.206  25.152  1.00  0.00    -0.269 OA
BRANCH  41  44
ATOM     44  C   UNL A   1      37.651  22.118  25.835  1.00  0.00     0.321 C 
ATOM     45  F   UNL A   1      38.229  21.853  24.639  1.00  0.00    -0.185 F 
ATOM     46  F   UNL A   1      38.333  23.136  26.408  1.00  0.00    -0.185 F 
ATOM     47  H   UNL A   1      37.697  21.266  26.479  1.00  0.00     0.131 H 
ENDBRANCH  41  44
ENDBRANCH  31  34
ENDBRANCH  24  31
BRANCH  25  48
ATOM     48  C   UNL A   1      29.986  25.632  26.039  1.00  0.00    -0.024 C 
ATOM     49  H   UNL A   1      30.113  24.778  26.671  1.00  0.00     0.030 H 
ATOM     50  H   UNL A   1      28.961  25.709  25.743  1.00  0.00     0.030 H 
ATOM     51  H   UNL A   1      30.272  26.515  26.571  1.00  0.00     0.030 H 
ENDBRANCH  25  48
ENDBRANCH  11  14
ENDBRANCH   8  11
ENDBRANCH   4   7
ENDBRANCH   1   4
BRANCH   1  52
ATOM     52  C   UNL A   1      34.205  29.215  27.232  1.00  0.00    -0.052 C 
ATOM     53  H   UNL A   1      34.935  29.336  26.460  1.00  0.00     0.027 H 
ATOM     54  H   UNL A   1      34.592  28.746  28.112  1.00  0.00     0.027 H 
BRANCH  52  55
ATOM     55  C   UNL A   1      33.728  30.609  27.662  1.00  0.00    -0.052 C 
ATOM     56  H   UNL A   1      33.312  30.530  28.645  1.00  0.00     0.027 H 
ATOM     57  H   UNL A   1      33.016  30.924  26.927  1.00  0.00     0.027 H 
BRANCH  55  58
ATOM     58  C   UNL A   1      34.823  31.682  27.691  1.00  0.00    -0.036 C 
ATOM     59  H   UNL A   1      34.984  32.028  26.693  1.00  0.00     0.028 H 
ATOM     60  H   UNL A   1      35.698  31.229  28.109  1.00  0.00     0.028 H 
BRANCH  58  61
ATOM     61  C   UNL A   1      34.473  32.880  28.570  1.00  0.00     0.018 C 
ATOM     62  H   UNL A   1      33.522  33.261  28.258  1.00  0.00     0.049 H 
ATOM     63  H   UNL A   1      35.260  33.595  28.448  1.00  0.00     0.049 H 
BRANCH  61  64
ATOM     64  N   UNL A   1      34.400  32.570  29.979  1.00  0.00    -0.352 N 
ATOM     65  C   UNL A   1      35.232  31.955  30.869  1.00  0.00     0.251 C 
ATOM     66  H   UNL A   1      33.557  32.870  30.390  1.00  0.00     0.163 HD
ATOM     67  O   UNL A   1      34.913  32.029  32.058  1.00  0.00    -0.269 OA
BRANCH  65  68
ATOM     68  C   UNL A   1      36.411  31.124  30.502  1.00  0.00     0.039 A 
ATOM     69  C   UNL A   1      36.447  29.731  30.435  1.00  0.00    -0.049 A 
ATOM     70  C   UNL A   1      37.607  31.838  30.299  1.00  0.00    -0.049 A 
ATOM     71  C   UNL A   1      37.663  29.066  30.343  1.00  0.00    -0.053 A 
ATOM     72  H   UNL A   1      35.567  29.193  30.453  1.00  0.00     0.063 H 
ATOM     73  C   UNL A   1      38.819  31.181  30.173  1.00  0.00    -0.053 A 
ATOM     74  H   UNL A   1      37.580  32.868  30.244  1.00  0.00     0.063 H 
ATOM     75  C   UNL A   1      38.850  29.795  30.279  1.00  0.00    -0.014 A 
ATOM     76  H   UNL A   1      37.688  28.033  30.321  1.00  0.00     0.063 H 
ATOM     77  H   UNL A   1      39.688  31.711  30.002  1.00  0.00     0.063 H 
BRANCH  75  78
ATOM     78  C   UNL A   1      40.110  29.063  30.253  1.00  0.00     0.031 A 
ATOM     79  C   UNL A   1      40.776  28.923  31.580  1.00  0.00     0.074 A 
ATOM     80  C   UNL A   1      40.567  28.475  29.128  1.00  0.00     0.049 A 
ATOM     81  N   UNL A   1      41.967  29.297  31.921  1.00  0.00    -0.248 NA
ATOM     82  C   UNL A   1      39.968  28.413  32.703  1.00  0.00    -0.034 C 
ATOM     83  C   UNL A   1      39.896  28.347  27.830  1.00  0.00    -0.036 A 
ATOM     84  N   UNL A   1      41.717  27.772  28.934  1.00  0.00    -0.354 N 
ATOM     85  C   UNL A   1      42.123  28.924  33.256  1.00  0.00     0.074 A 
ATOM     86  C   UNL A   1      40.828  28.502  33.719  1.00  0.00    -0.034 C 
ATOM     87  H   UNL A   1      38.994  28.075  32.702  1.00  0.00     0.065 H 
ATOM     88  C   UNL A   1      40.529  27.412  27.086  1.00  0.00    -0.036 A 
ATOM     89  H   UNL A   1      39.069  28.886  27.532  1.00  0.00     0.065 H 
ATOM     90  C   UNL A   1      41.721  26.980  27.792  1.00  0.00     0.049 A 
ATOM     91  H   UNL A   1      42.481  27.820  29.553  1.00  0.00     0.167 HD
ATOM     92  C   UNL A   1      43.351  28.811  33.831  1.00  0.00     0.037 A 
ATOM     93  H   UNL A   1      40.594  28.297  34.703  1.00  0.00     0.065 H 
ATOM     94  H   UNL A   1      40.216  27.063  26.166  1.00  0.00     0.065 H 
ATOM     95  C   UNL A   1      42.607  25.994  27.500  1.00  0.00     0.037 A 
ATOM     96  C   UNL A   1      44.351  29.524  33.087  1.00  0.00     0.049 A 
ATOM     97  C   UNL A   1      43.808  26.213  28.344  1.00  0.00     0.074 A 
ATOM     98  C   UNL A   1      44.562  30.856  32.792  1.00  0.00    -0.036 A 
ATOM     99  N   UNL A   1      45.141  28.817  32.217  1.00  0.00    -0.354 N 
ATOM    100  N   UNL A   1      44.624  27.220  28.186  1.00  0.00    -0.248 NA
ATOM    101  C   UNL A   1      43.823  25.593  29.662  1.00  0.00    -0.034 C 
ATOM    102  C   UNL A   1      45.061  30.860  31.457  1.00  0.00    -0.036 A 
ATOM    103  H   UNL A   1      44.396  31.671  33.402  1.00  0.00     0.065 H 
ATOM    104  C   UNL A   1      45.187  29.532  31.048  1.00  0.00     0.049 A 
ATOM    105  H   UNL A   1      45.590  27.959  32.397  1.00  0.00     0.167 HD
ATOM    106  C   UNL A   1      44.930  27.628  29.476  1.00  0.00     0.074 A 
ATOM    107  C   UNL A   1      44.457  26.550  30.343  1.00  0.00    -0.034 C 
ATOM    108  H   UNL A   1      43.452  24.682  29.975  1.00  0.00     0.065 H 
ATOM    109  H   UNL A   1      45.287  31.694  30.894  1.00  0.00     0.065 H 
ATOM    110  C   UNL A   1      45.269  28.921  29.744  1.00  0.00     0.037 A 
ATOM    111  H   UNL A   1      44.597  26.532  31.366  1.00  0.00     0.065 H 
BRANCH  92 112
ATOM    112  C   UNL A   1      43.708  27.787  34.875  1.00  0.00     0.064 A 
ATOM    113  C   UNL A   1      44.225  28.209  36.117  1.00  0.00     0.173 A 
ATOM    114  C   UNL A   1      43.851  26.413  34.588  1.00  0.00     0.173 A 
ATOM    115  F   UNL A   1      44.165  29.498  36.480  1.00  0.00    -0.203 F 
ATOM    116  C   UNL A   1      44.897  27.329  36.971  1.00  0.00     0.198 A 
ATOM    117  C   UNL A   1      44.476  25.529  35.466  1.00  0.00     0.198 A 
ATOM    118  F   UNL A   1      43.496  25.897  33.404  1.00  0.00    -0.203 F 
ATOM    119  F   UNL A   1      45.478  27.797  38.085  1.00  0.00    -0.200 F 
ATOM    120  C   UNL A   1      45.026  25.992  36.642  1.00  0.00     0.200 A 
ATOM    121  F   UNL A   1      44.612  24.242  35.118  1.00  0.00    -0.200 F 
ATOM    122  F   UNL A   1      45.722  25.162  37.429  1.00  0.00    -0.200 F 
ENDBRANCH  92 112
BRANCH  95 123
ATOM    123  C   UNL A   1      42.346  24.706  26.809  1.00  0.00     0.064 A 
ATOM    124  C   UNL A   1      43.095  24.311  25.689  1.00  0.00     0.173 A 
ATOM    125  C   UNL A   1      41.538  23.712  27.400  1.00  0.00     0.173 A 
ATOM    126  F   UNL A   1      43.930  25.177  25.097  1.00  0.00    -0.203 F 
ATOM    127  C   UNL A   1      43.050  22.999  25.199  1.00  0.00     0.198 A 
ATOM    128  C   UNL A   1      41.491  22.407  26.908  1.00  0.00     0.198 A 
ATOM    129  F   UNL A   1      40.853  23.963  28.525  1.00  0.00    -0.203 F 
ATOM    130  F   UNL A   1      43.823  22.645  24.162  1.00  0.00    -0.200 F 
ATOM    131  C   UNL A   1      42.255  22.046  25.815  1.00  0.00     0.200 A 
ATOM    132  F   UNL A   1      40.748  21.486  27.539  1.00  0.00    -0.200 F 
ATOM    133  F   UNL A   1      42.257  20.778  25.383  1.00  0.00    -0.200 F 
ENDBRANCH  95 123
BRANCH 110 134
ATOM    134  C   UNL A   1      45.503  29.849  28.586  1.00  0.00     0.064 A 
ATOM    135  C   UNL A   1      44.484  30.587  27.959  1.00  0.00     0.173 A 
ATOM    136  C   UNL A   1      46.826  30.146  28.232  1.00  0.00     0.173 A 
ATOM    137  F   UNL A   1      43.204  30.437  28.316  1.00  0.00    -0.203 F 
ATOM    138  C   UNL A   1      44.778  31.559  27.003  1.00  0.00     0.198 A 
ATOM    139  C   UNL A   1      47.118  31.142  27.303  1.00  0.00     0.198 A 
ATOM    140  F   UNL A   1      47.842  29.515  28.841  1.00  0.00    -0.203 F 
ATOM    141  F   UNL A   1      43.788  32.257  26.427  1.00  0.00    -0.200 F 
ATOM    142  C   UNL A   1      46.095  31.843  26.685  1.00  0.00     0.200 A 
ATOM    143  F   UNL A   1      48.395  31.452  27.042  1.00  0.00    -0.200 F 
ATOM    144  F   UNL A   1      46.382  32.818  25.812  1.00  0.00    -0.200 F 
ENDBRANCH 110 134
ENDBRANCH  75  78
ENDBRANCH  65  68
ENDBRANCH  61  64
ENDBRANCH  58  61
ENDBRANCH  55  58
ENDBRANCH  52  55
ENDBRANCH   1  52
TORSDOF 20
ENDMDL
MODEL 5
REMARK VINA RESULT:     -12.0      2.403      3.509
REMARK SMILES COc1ccc2c(c1)c(CC(=O)NCCCCCCNC(=O)c1ccc(-c3c4nc(c(-c5c(F)c(F)c(F)c(F)c5F)c5ccc([nH]5)c(-c5c(F)c(F)c(F)c(F)c5F)c5nc(c(-c6c(F)c(F)c(F)c(F)c6F)c6ccc3[nH]6)C=C5)C=C4)cc1)c(C)n2Cc1ccn(C(F)F)c(=O)c1
REMARK SMILES IDX 15 1 14 4 13 7 11 8 12 9 10 11 9 14 3 15 4 16 8 17 5 18 7 20
REMARK SMILES IDX 6 22 88 24 86 25 2 26 1 27 89 31 90 34 91 35 99 36 92 37
REMARK SMILES IDX 97 39 93 41 98 43 94 44 95 45 96 46 87 48 16 52 17 55 18 58
REMARK SMILES IDX 19 61 20 64 21 65 22 67 23 68 24 69 85 70 25 71 84 73 26 75
REMARK SMILES IDX 27 78 28 79 78 80 29 81 83 82 77 83 79 84 30 85 82 86 76 88
REMARK SMILES IDX 75 90 31 92 63 95 43 96 62 97 44 98 47 99 61 100 80 101
REMARK SMILES IDX 45 102 46 104 60 106 81 107 48 110 32 112 33 113 41 114
REMARK SMILES IDX 34 115 35 116 39 117 42 118 36 119 37 120 40 121 38 122
REMARK SMILES IDX 64 123 65 124 73 125 66 126 67 127 71 128 74 129 68 130
REMARK SMILES IDX 69 131 72 132 70 133 49 134 50 135 58 136 51 137 52 138
REMARK SMILES IDX 56 139 59 140 53 141 54 142 57 143 55 144
REMARK H PARENT 15 2 15 3 14 5 14 6 13 10 10 12 10 13 4 19 8 21 5 23 1 28 1 29
REMARK H PARENT 1 30 89 32 89 33 91 38 99 40 92 42 94 47 87 49 87 50 87 51
REMARK H PARENT 16 53 16 54 17 56 17 57 18 59 18 60 19 62 19 63 20 66 24 72
REMARK H PARENT 85 74 25 76 84 77 83 87 77 89 79 91 82 93 76 94 44 103 47 105
REMARK H PARENT 80 108 45 109 81 111
REMARK Flexibility Score: inf
ROOT
ATOM      1  C   UNL A   1      31.469  29.153  24.129  1.00  0.00    -0.036 C 
ATOM      2  H   UNL A   1      32.501  29.312  23.892  1.00  0.00     0.028 H 
ATOM      3  H   UNL A   1      31.329  28.329  24.796  1.00  0.00     0.028 H 
ENDROOT
BRANCH   1   4
ATOM      4  C   UNL A   1      30.724  28.819  22.836  1.00  0.00     0.017 C 
ATOM      5  H   UNL A   1      30.346  29.723  22.409  1.00  0.00     0.049 H 
ATOM      6  H   UNL A   1      31.409  28.340  22.168  1.00  0.00     0.049 H 
BRANCH   4   7
ATOM      7  N   UNL A   1      29.619  27.914  23.081  1.00  0.00    -0.356 N 
ATOM      8  C   UNL A   1      29.565  26.800  23.869  1.00  0.00     0.224 C 
ATOM      9  O   UNL A   1      28.522  26.141  23.870  1.00  0.00    -0.275 OA
ATOM     10  H   UNL A   1      28.782  28.135  22.610  1.00  0.00     0.163 HD
BRANCH   8  11
ATOM     11  C   UNL A   1      30.723  26.442  24.789  1.00  0.00     0.054 C 
ATOM     12  H   UNL A   1      31.452  27.223  24.732  1.00  0.00     0.042 H 
ATOM     13  H   UNL A   1      30.316  26.331  25.772  1.00  0.00     0.042 H 
BRANCH  11  14
ATOM     14  C   UNL A   1      31.391  25.145  24.444  1.00  0.00    -0.010 A 
ATOM     15  C   UNL A   1      32.867  24.929  20.935  1.00  0.00     0.119 A 
ATOM     16  C   UNL A   1      33.422  23.663  21.081  1.00  0.00    -0.018 A 
ATOM     17  C   UNL A   1      32.209  25.531  22.006  1.00  0.00    -0.010 A 
ATOM     18  C   UNL A   1      33.315  22.962  22.295  1.00  0.00    -0.034 A 
ATOM     19  H   UNL A   1      33.921  23.231  20.288  1.00  0.00     0.066 H 
ATOM     20  C   UNL A   1      32.048  24.830  23.220  1.00  0.00     0.007 A 
ATOM     21  H   UNL A   1      31.838  26.490  21.911  1.00  0.00     0.067 H 
ATOM     22  C   UNL A   1      32.610  23.558  23.358  1.00  0.00     0.049 A 
ATOM     23  H   UNL A   1      33.745  22.031  22.405  1.00  0.00     0.065 H 
ATOM     24  N   UNL A   1      32.333  23.129  24.651  1.00  0.00    -0.340 N 
ATOM     25  C   UNL A   1      31.425  24.001  25.231  1.00  0.00     0.020 A 
BRANCH  15  26
ATOM     26  O   UNL A   1      32.980  25.693  19.804  1.00  0.00    -0.497 OA
BRANCH  26  27
ATOM     27  C   UNL A   1      31.967  25.459  18.830  1.00  0.00     0.078 C 
ATOM     28  H   UNL A   1      32.348  24.809  18.070  1.00  0.00     0.067 H 
ATOM     29  H   UNL A   1      31.675  26.389  18.391  1.00  0.00     0.067 H 
ATOM     30  H   UNL A   1      31.122  25.003  19.299  1.00  0.00     0.067 H 
ENDBRANCH  26  27
ENDBRANCH  15  26
BRANCH  24  31
ATOM     31  C   UNL A   1      32.856  21.896  25.257  1.00  0.00     0.048 C 
ATOM     32  H   UNL A   1      32.565  21.071  24.641  1.00  0.00     0.055 H 
ATOM     33  H   UNL A   1      32.449  21.845  26.244  1.00  0.00     0.055 H 
BRANCH  31  34
ATOM     34  C   UNL A   1      34.369  21.863  25.411  1.00  0.00    -0.021 A 
ATOM     35  C   UNL A   1      35.098  20.671  25.021  1.00  0.00    -0.040 A 
ATOM     36  C   UNL A   1      35.083  22.936  25.801  1.00  0.00     0.009 A 
ATOM     37  C   UNL A   1      36.427  20.594  25.154  1.00  0.00     0.013 A 
ATOM     38  H   UNL A   1      34.581  19.867  24.635  1.00  0.00     0.064 H 
ATOM     39  C   UNL A   1      36.578  22.897  25.882  1.00  0.00     0.255 A 
ATOM     40  H   UNL A   1      34.587  23.806  26.052  1.00  0.00     0.068 H 
ATOM     41  N   UNL A   1      37.164  21.668  25.610  1.00  0.00    -0.258 N 
ATOM     42  H   UNL A   1      36.910  19.716  24.910  1.00  0.00     0.082 H 
ATOM     43  O   UNL A   1      37.173  23.922  26.176  1.00  0.00    -0.269 OA
BRANCH  41  44
ATOM     44  C   UNL A   1      38.605  21.581  25.616  1.00  0.00     0.321 C 
ATOM     45  F   UNL A   1      39.119  22.258  26.672  1.00  0.00    -0.185 F 
ATOM     46  F   UNL A   1      39.053  20.307  25.683  1.00  0.00    -0.185 F 
ATOM     47  H   UNL A   1      38.927  22.013  24.693  1.00  0.00     0.131 H 
ENDBRANCH  41  44
ENDBRANCH  31  34
ENDBRANCH  24  31
BRANCH  25  48
ATOM     48  C   UNL A   1      30.679  23.755  26.498  1.00  0.00    -0.024 C 
ATOM     49  H   UNL A   1      30.297  24.682  26.871  1.00  0.00     0.030 H 
ATOM     50  H   UNL A   1      31.338  23.322  27.221  1.00  0.00     0.030 H 
ATOM     51  H   UNL A   1      29.867  23.085  26.309  1.00  0.00     0.030 H 
ENDBRANCH  25  48
ENDBRANCH  11  14
ENDBRANCH   8  11
ENDBRANCH   4   7
ENDBRANCH   1   4
BRANCH   1  52
ATOM     52  C   UNL A   1      30.934  30.405  24.837  1.00  0.00    -0.052 C 
ATOM     53  H   UNL A   1      29.884  30.275  24.993  1.00  0.00     0.027 H 
ATOM     54  H   UNL A   1      31.170  31.233  24.202  1.00  0.00     0.027 H 
BRANCH  52  55
ATOM     55  C   UNL A   1      31.585  30.704  26.194  1.00  0.00    -0.052 C 
ATOM     56  H   UNL A   1      30.832  31.096  26.846  1.00  0.00     0.027 H 
ATOM     57  H   UNL A   1      32.378  31.397  26.002  1.00  0.00     0.027 H 
BRANCH  55  58
ATOM     58  C   UNL A   1      32.228  29.493  26.881  1.00  0.00    -0.036 C 
ATOM     59  H   UNL A   1      32.119  28.644  26.240  1.00  0.00     0.028 H 
ATOM     60  H   UNL A   1      31.728  29.359  27.818  1.00  0.00     0.028 H 
BRANCH  58  61
ATOM     61  C   UNL A   1      33.710  29.685  27.186  1.00  0.00     0.018 C 
ATOM     62  H   UNL A   1      34.277  29.275  26.375  1.00  0.00     0.049 H 
ATOM     63  H   UNL A   1      33.904  29.188  28.114  1.00  0.00     0.049 H 
BRANCH  61  64
ATOM     64  N   UNL A   1      34.097  31.067  27.359  1.00  0.00    -0.352 N 
ATOM     65  C   UNL A   1      35.258  31.701  27.696  1.00  0.00     0.251 C 
ATOM     66  H   UNL A   1      33.354  31.692  27.199  1.00  0.00     0.163 HD
ATOM     67  O   UNL A   1      35.268  32.928  27.569  1.00  0.00    -0.269 OA
BRANCH  65  68
ATOM     68  C   UNL A   1      36.447  31.041  28.300  1.00  0.00     0.039 A 
ATOM     69  C   UNL A   1      37.461  31.672  29.022  1.00  0.00    -0.049 A 
ATOM     70  C   UNL A   1      36.577  29.668  28.020  1.00  0.00    -0.049 A 
ATOM     71  C   UNL A   1      38.643  31.000  29.303  1.00  0.00    -0.053 A 
ATOM     72  H   UNL A   1      37.331  32.642  29.349  1.00  0.00     0.063 H 
ATOM     73  C   UNL A   1      37.741  28.982  28.327  1.00  0.00    -0.053 A 
ATOM     74  H   UNL A   1      35.793  29.164  27.577  1.00  0.00     0.063 H 
ATOM     75  C   UNL A   1      38.803  29.676  28.895  1.00  0.00    -0.014 A 
ATOM     76  H   UNL A   1      39.402  31.479  29.814  1.00  0.00     0.063 H 
ATOM     77  H   UNL A   1      37.818  27.971  28.138  1.00  0.00     0.063 H 
BRANCH  75  78
ATOM     78  C   UNL A   1      40.082  29.026  29.146  1.00  0.00     0.031 A 
ATOM     79  C   UNL A   1      40.391  28.795  30.587  1.00  0.00     0.074 A 
ATOM     80  C   UNL A   1      40.863  28.579  28.140  1.00  0.00     0.049 A 
ATOM     81  N   UNL A   1      41.417  29.203  31.261  1.00  0.00    -0.248 NA
ATOM     82  C   UNL A   1      39.365  28.131  31.411  1.00  0.00    -0.034 C 
ATOM     83  C   UNL A   1      40.564  28.540  26.705  1.00  0.00    -0.036 A 
ATOM     84  N   UNL A   1      42.078  27.968  28.204  1.00  0.00    -0.354 N 
ATOM     85  C   UNL A   1      41.252  28.711  32.556  1.00  0.00     0.074 A 
ATOM     86  C   UNL A   1      39.920  28.170  32.623  1.00  0.00    -0.034 C 
ATOM     87  H   UNL A   1      38.456  27.738  31.124  1.00  0.00     0.065 H 
ATOM     88  C   UNL A   1      41.444  27.722  26.084  1.00  0.00    -0.036 A 
ATOM     89  H   UNL A   1      39.801  29.056  26.241  1.00  0.00     0.065 H 
ATOM     90  C   UNL A   1      42.443  27.293  27.045  1.00  0.00     0.049 A 
ATOM     91  H   UNL A   1      42.649  28.000  29.005  1.00  0.00     0.167 HD
ATOM     92  C   UNL A   1      42.294  28.614  33.425  1.00  0.00     0.037 A 
ATOM     93  H   UNL A   1      39.457  27.855  33.489  1.00  0.00     0.065 H 
ATOM     94  H   UNL A   1      41.410  27.447  25.089  1.00  0.00     0.065 H 
ATOM     95  C   UNL A   1      43.453  26.394  26.921  1.00  0.00     0.037 A 
ATOM     96  C   UNL A   1      43.390  29.455  33.033  1.00  0.00     0.049 A 
ATOM     97  C   UNL A   1      44.372  26.600  28.069  1.00  0.00     0.074 A 
ATOM     98  C   UNL A   1      43.560  30.819  32.911  1.00  0.00    -0.036 A 
ATOM     99  N   UNL A   1      44.434  28.884  32.351  1.00  0.00    -0.354 N 
ATOM    100  N   UNL A   1      45.114  27.664  28.214  1.00  0.00    -0.248 NA
ATOM    101  C   UNL A   1      44.095  25.855  29.290  1.00  0.00    -0.034 C 
ATOM    102  C   UNL A   1      44.385  30.983  31.762  1.00  0.00    -0.036 A 
ATOM    103  H   UNL A   1      43.174  31.559  33.518  1.00  0.00     0.065 H 
ATOM    104  C   UNL A   1      44.723  29.712  31.297  1.00  0.00     0.049 A 
ATOM    105  H   UNL A   1      44.890  28.040  32.576  1.00  0.00     0.167 HD
ATOM    106  C   UNL A   1      45.041  27.960  29.567  1.00  0.00     0.074 A 
ATOM    107  C   UNL A   1      44.450  26.776  30.189  1.00  0.00    -0.034 C 
ATOM    108  H   UNL A   1      43.732  24.898  29.420  1.00  0.00     0.065 H 
ATOM    109  H   UNL A   1      44.680  31.881  31.348  1.00  0.00     0.065 H 
ATOM    110  C   UNL A   1      45.190  29.238  30.018  1.00  0.00     0.037 A 
ATOM    111  H   UNL A   1      44.321  26.666  31.207  1.00  0.00     0.065 H 
BRANCH  92 112
ATOM    112  C   UNL A   1      42.451  27.515  34.442  1.00  0.00     0.064 A 
ATOM    113  C   UNL A   1      42.984  26.271  34.048  1.00  0.00     0.173 A 
ATOM    114  C   UNL A   1      41.816  27.536  35.702  1.00  0.00     0.173 A 
ATOM    115  F   UNL A   1      43.586  26.132  32.857  1.00  0.00    -0.203 F 
ATOM    116  C   UNL A   1      42.827  25.122  34.828  1.00  0.00     0.198 A 
ATOM    117  C   UNL A   1      41.708  26.400  36.501  1.00  0.00     0.198 A 
ATOM    118  F   UNL A   1      41.180  28.623  36.156  1.00  0.00    -0.203 F 
ATOM    119  F   UNL A   1      43.243  23.937  34.360  1.00  0.00    -0.200 F 
ATOM    120  C   UNL A   1      42.185  25.187  36.051  1.00  0.00     0.200 A 
ATOM    121  F   UNL A   1      41.061  26.477  37.672  1.00  0.00    -0.200 F 
ATOM    122  F   UNL A   1      41.980  24.077  36.772  1.00  0.00    -0.200 F 
ENDBRANCH  92 112
BRANCH  95 123
ATOM    123  C   UNL A   1      43.487  25.167  26.086  1.00  0.00     0.064 A 
ATOM    124  C   UNL A   1      44.545  24.916  25.197  1.00  0.00     0.173 A 
ATOM    125  C   UNL A   1      42.620  24.086  26.344  1.00  0.00     0.173 A 
ATOM    126  F   UNL A   1      45.448  25.873  24.936  1.00  0.00    -0.203 F 
ATOM    127  C   UNL A   1      44.732  23.656  24.613  1.00  0.00     0.198 A 
ATOM    128  C   UNL A   1      42.805  22.832  25.757  1.00  0.00     0.198 A 
ATOM    129  F   UNL A   1      41.633  24.196  27.244  1.00  0.00    -0.203 F 
ATOM    130  F   UNL A   1      45.787  23.439  23.814  1.00  0.00    -0.200 F 
ATOM    131  C   UNL A   1      43.868  22.614  24.901  1.00  0.00     0.200 A 
ATOM    132  F   UNL A   1      41.983  21.822  26.077  1.00  0.00    -0.200 F 
ATOM    133  F   UNL A   1      44.080  21.394  24.390  1.00  0.00    -0.200 F 
ENDBRANCH  95 123
BRANCH 110 134
ATOM    134  C   UNL A   1      45.640  30.287  29.041  1.00  0.00     0.064 A 
ATOM    135  C   UNL A   1      44.760  31.021  28.225  1.00  0.00     0.173 A 
ATOM    136  C   UNL A   1      46.979  30.697  29.077  1.00  0.00     0.173 A 
ATOM    137  F   UNL A   1      43.449  30.760  28.214  1.00  0.00    -0.203 F 
ATOM    138  C   UNL A   1      45.211  32.098  27.462  1.00  0.00     0.198 A 
ATOM    139  C   UNL A   1      47.419  31.795  28.342  1.00  0.00     0.198 A 
ATOM    140  F   UNL A   1      47.851  30.071  29.884  1.00  0.00    -0.203 F 
ATOM    141  F   UNL A   1      44.350  32.789  26.699  1.00  0.00    -0.200 F 
ATOM    142  C   UNL A   1      46.537  32.490  27.531  1.00  0.00     0.200 A 
ATOM    143  F   UNL A   1      48.689  32.205  28.457  1.00  0.00    -0.200 F 
ATOM    144  F   UNL A   1      46.959  33.562  26.845  1.00  0.00    -0.200 F 
ENDBRANCH 110 134
ENDBRANCH  75  78
ENDBRANCH  65  68
ENDBRANCH  61  64
ENDBRANCH  58  61
ENDBRANCH  55  58
ENDBRANCH  52  55
ENDBRANCH   1  52
TORSDOF 20
ENDMDL
MODEL 6
REMARK VINA RESULT:     -12.0      1.263      2.052
REMARK SMILES COc1ccc2c(c1)c(CC(=O)NCCCCCCNC(=O)c1ccc(-c3c4nc(c(-c5c(F)c(F)c(F)c(F)c5F)c5ccc([nH]5)c(-c5c(F)c(F)c(F)c(F)c5F)c5nc(c(-c6c(F)c(F)c(F)c(F)c6F)c6ccc3[nH]6)C=C5)C=C4)cc1)c(C)n2Cc1ccn(C(F)F)c(=O)c1
REMARK SMILES IDX 15 1 14 4 13 7 11 8 12 9 10 11 9 14 3 15 4 16 8 17 5 18 7 20
REMARK SMILES IDX 6 22 88 24 86 25 2 26 1 27 89 31 90 34 91 35 99 36 92 37
REMARK SMILES IDX 97 39 93 41 98 43 94 44 95 45 96 46 87 48 16 52 17 55 18 58
REMARK SMILES IDX 19 61 20 64 21 65 22 67 23 68 24 69 85 70 25 71 84 73 26 75
REMARK SMILES IDX 27 78 28 79 78 80 29 81 83 82 77 83 79 84 30 85 82 86 76 88
REMARK SMILES IDX 75 90 31 92 63 95 43 96 62 97 44 98 47 99 61 100 80 101
REMARK SMILES IDX 45 102 46 104 60 106 81 107 48 110 32 112 33 113 41 114
REMARK SMILES IDX 34 115 35 116 39 117 42 118 36 119 37 120 40 121 38 122
REMARK SMILES IDX 64 123 65 124 73 125 66 126 67 127 71 128 74 129 68 130
REMARK SMILES IDX 69 131 72 132 70 133 49 134 50 135 58 136 51 137 52 138
REMARK SMILES IDX 56 139 59 140 53 141 54 142 57 143 55 144
REMARK H PARENT 15 2 15 3 14 5 14 6 13 10 10 12 10 13 4 19 8 21 5 23 1 28 1 29
REMARK H PARENT 1 30 89 32 89 33 91 38 99 40 92 42 94 47 87 49 87 50 87 51
REMARK H PARENT 16 53 16 54 17 56 17 57 18 59 18 60 19 62 19 63 20 66 24 72
REMARK H PARENT 85 74 25 76 84 77 83 87 77 89 79 91 82 93 76 94 44 103 47 105
REMARK H PARENT 80 108 45 109 81 111
REMARK Flexibility Score: inf
ROOT
ATOM      1  C   UNL A   1      31.670  28.930  26.339  1.00  0.00    -0.036 C 
ATOM      2  H   UNL A   1      31.890  28.424  27.256  1.00  0.00     0.028 H 
ATOM      3  H   UNL A   1      30.874  29.636  26.447  1.00  0.00     0.028 H 
ENDROOT
BRANCH   1   4
ATOM      4  C   UNL A   1      31.217  27.893  25.311  1.00  0.00     0.017 C 
ATOM      5  H   UNL A   1      30.497  28.339  24.660  1.00  0.00     0.049 H 
ATOM      6  H   UNL A   1      32.076  27.568  24.761  1.00  0.00     0.049 H 
BRANCH   4   7
ATOM      7  N   UNL A   1      30.622  26.737  25.952  1.00  0.00    -0.356 N 
ATOM      8  C   UNL A   1      31.223  25.632  26.483  1.00  0.00     0.224 C 
ATOM      9  O   UNL A   1      30.498  24.734  26.921  1.00  0.00    -0.275 OA
ATOM     10  H   UNL A   1      29.639  26.751  26.014  1.00  0.00     0.163 HD
BRANCH   8  11
ATOM     11  C   UNL A   1      32.737  25.558  26.616  1.00  0.00     0.054 C 
ATOM     12  H   UNL A   1      33.146  26.505  26.335  1.00  0.00     0.042 H 
ATOM     13  H   UNL A   1      32.947  25.305  27.634  1.00  0.00     0.042 H 
BRANCH  11  14
ATOM     14  C   UNL A   1      33.368  24.498  25.764  1.00  0.00    -0.010 A 
ATOM     15  C   UNL A   1      32.769  24.821  22.012  1.00  0.00     0.119 A 
ATOM     16  C   UNL A   1      33.561  23.742  21.638  1.00  0.00    -0.018 A 
ATOM     17  C   UNL A   1      32.672  25.184  23.354  1.00  0.00    -0.010 A 
ATOM     18  C   UNL A   1      34.258  22.989  22.599  1.00  0.00    -0.034 A 
ATOM     19  H   UNL A   1      33.639  23.489  20.641  1.00  0.00     0.066 H 
ATOM     20  C   UNL A   1      33.325  24.418  24.343  1.00  0.00     0.007 A 
ATOM     21  H   UNL A   1      32.121  26.014  23.625  1.00  0.00     0.067 H 
ATOM     22  C   UNL A   1      34.119  23.334  23.957  1.00  0.00     0.049 A 
ATOM     23  H   UNL A   1      34.859  22.200  22.315  1.00  0.00     0.065 H 
ATOM     24  N   UNL A   1      34.663  22.795  25.117  1.00  0.00    -0.340 N 
ATOM     25  C   UNL A   1      34.044  23.373  26.215  1.00  0.00     0.020 A 
BRANCH  15  26
ATOM     26  O   UNL A   1      32.109  25.633  21.129  1.00  0.00    -0.497 OA
BRANCH  26  27
ATOM     27  C   UNL A   1      31.333  26.661  21.740  1.00  0.00     0.078 C 
ATOM     28  H   UNL A   1      31.826  26.998  22.627  1.00  0.00     0.067 H 
ATOM     29  H   UNL A   1      30.368  26.276  21.992  1.00  0.00     0.067 H 
ATOM     30  H   UNL A   1      31.226  27.478  21.059  1.00  0.00     0.067 H 
ENDBRANCH  26  27
ENDBRANCH  15  26
BRANCH  24  31
ATOM     31  C   UNL A   1      35.665  21.721  25.155  1.00  0.00     0.048 C 
ATOM     32  H   UNL A   1      36.160  21.757  26.103  1.00  0.00     0.055 H 
ATOM     33  H   UNL A   1      36.325  21.891  24.331  1.00  0.00     0.055 H 
BRANCH  31  34
ATOM     34  C   UNL A   1      35.096  20.323  24.970  1.00  0.00    -0.021 A 
ATOM     35  C   UNL A   1      36.002  19.203  24.800  1.00  0.00    -0.040 A 
ATOM     36  C   UNL A   1      33.779  20.056  25.060  1.00  0.00     0.009 A 
ATOM     37  C   UNL A   1      35.543  17.958  24.621  1.00  0.00     0.013 A 
ATOM     38  H   UNL A   1      37.019  19.369  24.818  1.00  0.00     0.064 H 
ATOM     39  C   UNL A   1      33.249  18.660  24.940  1.00  0.00     0.255 A 
ATOM     40  H   UNL A   1      33.118  20.835  25.214  1.00  0.00     0.068 H 
ATOM     41  N   UNL A   1      34.192  17.682  24.650  1.00  0.00    -0.258 N 
ATOM     42  H   UNL A   1      36.213  17.191  24.457  1.00  0.00     0.082 H 
ATOM     43  O   UNL A   1      32.054  18.474  25.098  1.00  0.00    -0.269 OA
BRANCH  41  44
ATOM     44  C   UNL A   1      33.751  16.310  24.578  1.00  0.00     0.321 C 
ATOM     45  F   UNL A   1      33.137  15.945  25.730  1.00  0.00    -0.185 F 
ATOM     46  F   UNL A   1      32.888  16.089  23.561  1.00  0.00    -0.185 F 
ATOM     47  H   UNL A   1      34.633  15.728  24.414  1.00  0.00     0.131 H 
ENDBRANCH  41  44
ENDBRANCH  31  34
ENDBRANCH  24  31
BRANCH  25  48
ATOM     48  C   UNL A   1      34.151  22.887  27.621  1.00  0.00    -0.024 C 
ATOM     49  H   UNL A   1      33.231  23.078  28.134  1.00  0.00     0.030 H 
ATOM     50  H   UNL A   1      34.949  23.400  28.115  1.00  0.00     0.030 H 
ATOM     51  H   UNL A   1      34.348  21.836  27.621  1.00  0.00     0.030 H 
ENDBRANCH  25  48
ENDBRANCH  11  14
ENDBRANCH   8  11
ENDBRANCH   4   7
ENDBRANCH   1   4
BRANCH   1  52
ATOM     52  C   UNL A   1      32.915  29.716  25.907  1.00  0.00    -0.052 C 
ATOM     53  H   UNL A   1      32.901  30.662  26.407  1.00  0.00     0.027 H 
ATOM     54  H   UNL A   1      32.864  29.799  24.842  1.00  0.00     0.027 H 
BRANCH  52  55
ATOM     55  C   UNL A   1      34.251  29.030  26.222  1.00  0.00    -0.052 C 
ATOM     56  H   UNL A   1      34.947  29.285  25.449  1.00  0.00     0.027 H 
ATOM     57  H   UNL A   1      34.046  27.981  26.275  1.00  0.00     0.027 H 
BRANCH  55  58
ATOM     58  C   UNL A   1      34.872  29.418  27.569  1.00  0.00    -0.036 C 
ATOM     59  H   UNL A   1      35.813  28.919  27.665  1.00  0.00     0.028 H 
ATOM     60  H   UNL A   1      34.180  29.126  28.332  1.00  0.00     0.028 H 
BRANCH  58  61
ATOM     61  C   UNL A   1      35.101  30.919  27.721  1.00  0.00     0.018 C 
ATOM     62  H   UNL A   1      34.478  31.428  27.015  1.00  0.00     0.049 H 
ATOM     63  H   UNL A   1      36.143  31.094  27.549  1.00  0.00     0.049 H 
BRANCH  61  64
ATOM     64  N   UNL A   1      34.801  31.425  29.041  1.00  0.00    -0.352 N 
ATOM     65  C   UNL A   1      35.515  31.571  30.195  1.00  0.00     0.251 C 
ATOM     66  H   UNL A   1      33.871  31.734  29.127  1.00  0.00     0.163 HD
ATOM     67  O   UNL A   1      34.976  32.223  31.093  1.00  0.00    -0.269 OA
BRANCH  65  68
ATOM     68  C   UNL A   1      36.821  30.918  30.480  1.00  0.00     0.039 A 
ATOM     69  C   UNL A   1      38.072  31.536  30.466  1.00  0.00    -0.049 A 
ATOM     70  C   UNL A   1      36.763  29.527  30.688  1.00  0.00    -0.049 A 
ATOM     71  C   UNL A   1      39.232  30.773  30.484  1.00  0.00    -0.053 A 
ATOM     72  H   UNL A   1      38.135  32.566  30.442  1.00  0.00     0.063 H 
ATOM     73  C   UNL A   1      37.916  28.762  30.741  1.00  0.00    -0.053 A 
ATOM     74  H   UNL A   1      35.845  29.069  30.803  1.00  0.00     0.063 H 
ATOM     75  C   UNL A   1      39.146  29.383  30.554  1.00  0.00    -0.014 A 
ATOM     76  H   UNL A   1      40.155  31.234  30.446  1.00  0.00     0.063 H 
ATOM     77  H   UNL A   1      37.864  27.747  30.916  1.00  0.00     0.063 H 
BRANCH  75  78
ATOM     78  C   UNL A   1      40.381  28.612  30.502  1.00  0.00     0.031 A 
ATOM     79  C   UNL A   1      41.064  28.439  31.817  1.00  0.00     0.074 A 
ATOM     80  C   UNL A   1      40.802  28.019  29.365  1.00  0.00     0.049 A 
ATOM     81  N   UNL A   1      42.272  28.772  32.142  1.00  0.00    -0.248 NA
ATOM     82  C   UNL A   1      40.259  27.946  32.948  1.00  0.00    -0.034 C 
ATOM     83  C   UNL A   1      40.107  27.924  28.077  1.00  0.00    -0.036 A 
ATOM     84  N   UNL A   1      41.926  27.283  29.147  1.00  0.00    -0.354 N 
ATOM     85  C   UNL A   1      42.437  28.384  33.471  1.00  0.00     0.074 A 
ATOM     86  C   UNL A   1      41.136  27.999  33.951  1.00  0.00    -0.034 C 
ATOM     87  H   UNL A   1      39.274  27.638  32.960  1.00  0.00     0.065 H 
ATOM     88  C   UNL A   1      40.698  26.976  27.315  1.00  0.00    -0.036 A 
ATOM     89  H   UNL A   1      39.292  28.491  27.797  1.00  0.00     0.065 H 
ATOM     90  C   UNL A   1      41.887  26.500  27.999  1.00  0.00     0.049 A 
ATOM     91  H   UNL A   1      42.701  27.301  29.753  1.00  0.00     0.167 HD
ATOM     92  C   UNL A   1      43.670  28.227  34.025  1.00  0.00     0.037 A 
ATOM     93  H   UNL A   1      40.912  27.792  34.937  1.00  0.00     0.065 H 
ATOM     94  H   UNL A   1      40.360  26.645  26.398  1.00  0.00     0.065 H 
ATOM     95  C   UNL A   1      42.736  25.489  27.684  1.00  0.00     0.037 A 
ATOM     96  C   UNL A   1      44.680  28.914  33.271  1.00  0.00     0.049 A 
ATOM     97  C   UNL A   1      43.957  25.664  28.510  1.00  0.00     0.074 A 
ATOM     98  C   UNL A   1      44.928  30.241  32.983  1.00  0.00    -0.036 A 
ATOM     99  N   UNL A   1      45.433  28.190  32.383  1.00  0.00    -0.354 N 
ATOM    100  N   UNL A   1      44.801  26.645  28.348  1.00  0.00    -0.248 NA
ATOM    101  C   UNL A   1      43.973  25.032  29.823  1.00  0.00    -0.034 C 
ATOM    102  C   UNL A   1      45.406  30.241  31.641  1.00  0.00    -0.036 A 
ATOM    103  H   UNL A   1      44.798  31.056  33.603  1.00  0.00     0.065 H 
ATOM    104  C   UNL A   1      45.484  28.913  31.219  1.00  0.00     0.049 A 
ATOM    105  H   UNL A   1      45.857  27.317  32.549  1.00  0.00     0.167 HD
ATOM    106  C   UNL A   1      45.141  27.032  29.635  1.00  0.00     0.074 A 
ATOM    107  C   UNL A   1      44.648  25.962  30.502  1.00  0.00    -0.034 C 
ATOM    108  H   UNL A   1      43.579  24.130  30.135  1.00  0.00     0.065 H 
ATOM    109  H   UNL A   1      45.649  31.072  31.082  1.00  0.00     0.065 H 
ATOM    110  C   UNL A   1      45.525  28.312  29.909  1.00  0.00     0.037 A 
ATOM    111  H   UNL A   1      44.803  25.931  31.522  1.00  0.00     0.065 H 
BRANCH  92 112
ATOM    112  C   UNL A   1      44.010  27.183  35.055  1.00  0.00     0.064 A 
ATOM    113  C   UNL A   1      44.616  27.571  36.268  1.00  0.00     0.173 A 
ATOM    114  C   UNL A   1      44.048  25.802  34.768  1.00  0.00     0.173 A 
ATOM    115  F   UNL A   1      44.660  28.862  36.627  1.00  0.00    -0.203 F 
ATOM    116  C   UNL A   1      45.271  26.650  37.091  1.00  0.00     0.198 A 
ATOM    117  C   UNL A   1      44.656  24.880  35.618  1.00  0.00     0.198 A 
ATOM    118  F   UNL A   1      43.600  25.308  33.606  1.00  0.00    -0.203 F 
ATOM    119  F   UNL A   1      45.937  27.080  38.172  1.00  0.00    -0.200 F 
ATOM    120  C   UNL A   1      45.295  25.307  36.762  1.00  0.00     0.200 A 
ATOM    121  F   UNL A   1      44.689  23.586  35.270  1.00  0.00    -0.200 F 
ATOM    122  F   UNL A   1      45.973  24.434  37.518  1.00  0.00    -0.200 F 
ENDBRANCH  92 112
BRANCH  95 123
ATOM    123  C   UNL A   1      42.424  24.216  26.987  1.00  0.00     0.064 A 
ATOM    124  C   UNL A   1      43.242  23.725  25.957  1.00  0.00     0.173 A 
ATOM    125  C   UNL A   1      41.467  23.318  27.504  1.00  0.00     0.173 A 
ATOM    126  F   UNL A   1      44.213  24.494  25.444  1.00  0.00    -0.203 F 
ATOM    127  C   UNL A   1      43.120  22.412  25.483  1.00  0.00     0.198 A 
ATOM    128  C   UNL A   1      41.344  22.012  27.027  1.00  0.00     0.198 A 
ATOM    129  F   UNL A   1      40.698  23.659  28.548  1.00  0.00    -0.203 F 
ATOM    130  F   UNL A   1      43.958  21.962  24.537  1.00  0.00    -0.200 F 
ATOM    131  C   UNL A   1      42.178  21.555  26.024  1.00  0.00     0.200 A 
ATOM    132  F   UNL A   1      40.454  21.181  27.589  1.00  0.00    -0.200 F 
ATOM    133  F   UNL A   1      42.100  20.282  25.612  1.00  0.00    -0.200 F 
ENDBRANCH  95 123
BRANCH 110 134
ATOM    134  C   UNL A   1      45.770  29.241  28.755  1.00  0.00     0.064 A 
ATOM    135  C   UNL A   1      44.765  30.016  28.149  1.00  0.00     0.173 A 
ATOM    136  C   UNL A   1      47.096  29.501  28.383  1.00  0.00     0.173 A 
ATOM    137  F   UNL A   1      43.486  29.901  28.524  1.00  0.00    -0.203 F 
ATOM    138  C   UNL A   1      45.074  30.986  27.197  1.00  0.00     0.198 A 
ATOM    139  C   UNL A   1      47.405  30.496  27.459  1.00  0.00     0.198 A 
ATOM    140  F   UNL A   1      48.102  28.835  28.972  1.00  0.00    -0.203 F 
ATOM    141  F   UNL A   1      44.097  31.718  26.641  1.00  0.00    -0.200 F 
ATOM    142  C   UNL A   1      46.395  31.232  26.861  1.00  0.00     0.200 A 
ATOM    143  F   UNL A   1      48.687  30.769  27.181  1.00  0.00    -0.200 F 
ATOM    144  F   UNL A   1      46.698  32.206  25.991  1.00  0.00    -0.200 F 
ENDBRANCH 110 134
ENDBRANCH  75  78
ENDBRANCH  65  68
ENDBRANCH  61  64
ENDBRANCH  58  61
ENDBRANCH  55  58
ENDBRANCH  52  55
ENDBRANCH   1  52
TORSDOF 20
ENDMDL
MODEL 7
REMARK VINA RESULT:     -11.8      3.583      8.723
REMARK SMILES COc1ccc2c(c1)c(CC(=O)NCCCCCCNC(=O)c1ccc(-c3c4nc(c(-c5c(F)c(F)c(F)c(F)c5F)c5ccc([nH]5)c(-c5c(F)c(F)c(F)c(F)c5F)c5nc(c(-c6c(F)c(F)c(F)c(F)c6F)c6ccc3[nH]6)C=C5)C=C4)cc1)c(C)n2Cc1ccn(C(F)F)c(=O)c1
REMARK SMILES IDX 15 1 14 4 13 7 11 8 12 9 10 11 9 14 3 15 4 16 8 17 5 18 7 20
REMARK SMILES IDX 6 22 88 24 86 25 2 26 1 27 89 31 90 34 91 35 99 36 92 37
REMARK SMILES IDX 97 39 93 41 98 43 94 44 95 45 96 46 87 48 16 52 17 55 18 58
REMARK SMILES IDX 19 61 20 64 21 65 22 67 23 68 24 69 85 70 25 71 84 73 26 75
REMARK SMILES IDX 27 78 28 79 78 80 29 81 83 82 77 83 79 84 30 85 82 86 76 88
REMARK SMILES IDX 75 90 31 92 63 95 43 96 62 97 44 98 47 99 61 100 80 101
REMARK SMILES IDX 45 102 46 104 60 106 81 107 48 110 32 112 33 113 41 114
REMARK SMILES IDX 34 115 35 116 39 117 42 118 36 119 37 120 40 121 38 122
REMARK SMILES IDX 64 123 65 124 73 125 66 126 67 127 71 128 74 129 68 130
REMARK SMILES IDX 69 131 72 132 70 133 49 134 50 135 58 136 51 137 52 138
REMARK SMILES IDX 56 139 59 140 53 141 54 142 57 143 55 144
REMARK H PARENT 15 2 15 3 14 5 14 6 13 10 10 12 10 13 4 19 8 21 5 23 1 28 1 29
REMARK H PARENT 1 30 89 32 89 33 91 38 99 40 92 42 94 47 87 49 87 50 87 51
REMARK H PARENT 16 53 16 54 17 56 17 57 18 59 18 60 19 62 19 63 20 66 24 72
REMARK H PARENT 85 74 25 76 84 77 83 87 77 89 79 91 82 93 76 94 44 103 47 105
REMARK H PARENT 80 108 45 109 81 111
REMARK Flexibility Score: inf
ROOT
ATOM      1  C   UNL A   1      39.849  24.091  26.699  1.00  0.00    -0.036 C 
ATOM      2  H   UNL A   1      40.251  24.939  27.214  1.00  0.00     0.028 H 
ATOM      3  H   UNL A   1      40.286  23.961  25.731  1.00  0.00     0.028 H 
ENDROOT
BRANCH   1   4
ATOM      4  C   UNL A   1      38.352  24.318  26.491  1.00  0.00     0.017 C 
ATOM      5  H   UNL A   1      37.813  23.816  27.266  1.00  0.00     0.049 H 
ATOM      6  H   UNL A   1      38.164  25.371  26.520  1.00  0.00     0.049 H 
BRANCH   4   7
ATOM      7  N   UNL A   1      37.912  23.811  25.206  1.00  0.00    -0.356 N 
ATOM      8  C   UNL A   1      37.106  22.746  24.922  1.00  0.00     0.224 C 
ATOM      9  O   UNL A   1      36.922  22.460  23.736  1.00  0.00    -0.275 OA
ATOM     10  H   UNL A   1      38.244  24.307  24.423  1.00  0.00     0.163 HD
BRANCH   8  11
ATOM     11  C   UNL A   1      36.382  22.000  26.033  1.00  0.00     0.054 C 
ATOM     12  H   UNL A   1      36.838  21.039  26.146  1.00  0.00     0.042 H 
ATOM     13  H   UNL A   1      36.464  22.600  26.915  1.00  0.00     0.042 H 
BRANCH  11  14
ATOM     14  C   UNL A   1      34.919  21.802  25.775  1.00  0.00    -0.010 A 
ATOM     15  C   UNL A   1      33.956  18.461  24.207  1.00  0.00     0.119 A 
ATOM     16  C   UNL A   1      32.582  18.674  24.227  1.00  0.00    -0.018 A 
ATOM     17  C   UNL A   1      34.819  19.419  24.737  1.00  0.00    -0.010 A 
ATOM     18  C   UNL A   1      32.042  19.857  24.760  1.00  0.00    -0.034 A 
ATOM     19  H   UNL A   1      31.950  17.953  23.846  1.00  0.00     0.066 H 
ATOM     20  C   UNL A   1      34.305  20.635  25.236  1.00  0.00     0.007 A 
ATOM     21  H   UNL A   1      35.835  19.240  24.763  1.00  0.00     0.067 H 
ATOM     22  C   UNL A   1      32.922  20.839  25.253  1.00  0.00     0.049 A 
ATOM     23  H   UNL A   1      31.021  20.003  24.790  1.00  0.00     0.065 H 
ATOM     24  N   UNL A   1      32.703  22.087  25.826  1.00  0.00    -0.340 N 
ATOM     25  C   UNL A   1      33.915  22.746  25.949  1.00  0.00     0.020 A 
BRANCH  15  26
ATOM     26  O   UNL A   1      34.550  17.313  23.757  1.00  0.00    -0.497 OA
BRANCH  26  27
ATOM     27  C   UNL A   1      33.736  16.148  23.859  1.00  0.00     0.078 C 
ATOM     28  H   UNL A   1      33.659  15.857  24.885  1.00  0.00     0.067 H 
ATOM     29  H   UNL A   1      34.178  15.355  23.295  1.00  0.00     0.067 H 
ATOM     30  H   UNL A   1      32.762  16.361  23.474  1.00  0.00     0.067 H 
ENDBRANCH  26  27
ENDBRANCH  15  26
BRANCH  24  31
ATOM     31  C   UNL A   1      31.380  22.638  26.155  1.00  0.00     0.048 C 
ATOM     32  H   UNL A   1      31.376  22.899  27.193  1.00  0.00     0.055 H 
ATOM     33  H   UNL A   1      30.665  21.882  25.911  1.00  0.00     0.055 H 
BRANCH  31  34
ATOM     34  C   UNL A   1      30.996  23.872  25.354  1.00  0.00    -0.021 A 
ATOM     35  C   UNL A   1      30.372  24.994  26.030  1.00  0.00    -0.040 A 
ATOM     36  C   UNL A   1      31.301  24.017  24.051  1.00  0.00     0.009 A 
ATOM     37  C   UNL A   1      30.005  26.093  25.361  1.00  0.00     0.013 A 
ATOM     38  H   UNL A   1      30.209  24.943  27.047  1.00  0.00     0.064 H 
ATOM     39  C   UNL A   1      30.969  25.270  23.300  1.00  0.00     0.255 A 
ATOM     40  H   UNL A   1      31.775  23.244  23.557  1.00  0.00     0.068 H 
ATOM     41  N   UNL A   1      30.258  26.227  24.012  1.00  0.00    -0.258 N 
ATOM     42  H   UNL A   1      29.522  26.854  25.864  1.00  0.00     0.082 H 
ATOM     43  O   UNL A   1      31.333  25.368  22.139  1.00  0.00    -0.269 OA
BRANCH  41  44
ATOM     44  C   UNL A   1      29.959  27.480  23.360  1.00  0.00     0.321 C 
ATOM     45  F   UNL A   1      28.633  27.576  23.096  1.00  0.00    -0.185 F 
ATOM     46  F   UNL A   1      30.312  28.554  24.101  1.00  0.00    -0.185 F 
ATOM     47  H   UNL A   1      30.529  27.482  22.456  1.00  0.00     0.131 H 
ENDBRANCH  41  44
ENDBRANCH  31  34
ENDBRANCH  24  31
BRANCH  25  48
ATOM     48  C   UNL A   1      34.084  24.192  26.269  1.00  0.00    -0.024 C 
ATOM     49  H   UNL A   1      33.645  24.782  25.491  1.00  0.00     0.030 H 
ATOM     50  H   UNL A   1      35.126  24.421  26.346  1.00  0.00     0.030 H 
ATOM     51  H   UNL A   1      33.600  24.411  27.198  1.00  0.00     0.030 H 
ENDBRANCH  25  48
ENDBRANCH  11  14
ENDBRANCH   8  11
ENDBRANCH   4   7
ENDBRANCH   1   4
BRANCH   1  52
ATOM     52  C   UNL A   1      40.171  22.830  27.512  1.00  0.00    -0.052 C 
ATOM     53  H   UNL A   1      39.429  22.731  28.277  1.00  0.00     0.027 H 
ATOM     54  H   UNL A   1      41.160  22.965  27.897  1.00  0.00     0.027 H 
BRANCH  52  55
ATOM     55  C   UNL A   1      40.197  21.529  26.700  1.00  0.00    -0.052 C 
ATOM     56  H   UNL A   1      40.424  21.775  25.684  1.00  0.00     0.027 H 
ATOM     57  H   UNL A   1      39.233  21.079  26.819  1.00  0.00     0.027 H 
BRANCH  55  58
ATOM     58  C   UNL A   1      41.220  20.492  27.180  1.00  0.00    -0.036 C 
ATOM     59  H   UNL A   1      41.010  19.561  26.698  1.00  0.00     0.028 H 
ATOM     60  H   UNL A   1      41.127  20.426  28.244  1.00  0.00     0.028 H 
BRANCH  58  61
ATOM     61  C   UNL A   1      42.664  20.881  26.877  1.00  0.00     0.018 C 
ATOM     62  H   UNL A   1      43.277  20.009  26.981  1.00  0.00     0.049 H 
ATOM     63  H   UNL A   1      42.930  21.653  27.569  1.00  0.00     0.049 H 
BRANCH  61  64
ATOM     64  N   UNL A   1      42.859  21.419  25.551  1.00  0.00    -0.352 N 
ATOM     65  C   UNL A   1      43.308  22.609  25.057  1.00  0.00     0.251 C 
ATOM     66  H   UNL A   1      42.611  20.782  24.842  1.00  0.00     0.163 HD
ATOM     67  O   UNL A   1      43.518  22.653  23.841  1.00  0.00    -0.269 OA
BRANCH  65  68
ATOM     68  C   UNL A   1      43.452  23.862  25.847  1.00  0.00     0.039 A 
ATOM     69  C   UNL A   1      43.970  23.966  27.138  1.00  0.00    -0.049 A 
ATOM     70  C   UNL A   1      42.920  25.016  25.241  1.00  0.00    -0.049 A 
ATOM     71  C   UNL A   1      43.807  25.137  27.866  1.00  0.00    -0.053 A 
ATOM     72  H   UNL A   1      44.478  23.169  27.553  1.00  0.00     0.063 H 
ATOM     73  C   UNL A   1      42.784  26.198  25.951  1.00  0.00    -0.053 A 
ATOM     74  H   UNL A   1      42.626  24.981  24.253  1.00  0.00     0.063 H 
ATOM     75  C   UNL A   1      43.154  26.227  27.290  1.00  0.00    -0.014 A 
ATOM     76  H   UNL A   1      44.168  25.201  28.832  1.00  0.00     0.063 H 
ATOM     77  H   UNL A   1      42.415  27.045  25.492  1.00  0.00     0.063 H 
BRANCH  75  78
ATOM     78  C   UNL A   1      42.941  27.414  28.108  1.00  0.00     0.031 A 
ATOM     79  C   UNL A   1      43.979  28.473  27.951  1.00  0.00     0.074 A 
ATOM     80  C   UNL A   1      41.831  27.569  28.860  1.00  0.00     0.049 A 
ATOM     81  N   UNL A   1      44.726  29.004  28.865  1.00  0.00    -0.248 NA
ATOM     82  C   UNL A   1      44.315  28.908  26.583  1.00  0.00    -0.034 C 
ATOM     83  C   UNL A   1      40.643  26.712  28.917  1.00  0.00    -0.036 A 
ATOM     84  N   UNL A   1      41.488  28.601  29.679  1.00  0.00    -0.354 N 
ATOM     85  C   UNL A   1      45.513  29.956  28.218  1.00  0.00     0.074 A 
ATOM     86  C   UNL A   1      45.310  29.767  26.806  1.00  0.00    -0.034 C 
ATOM     87  H   UNL A   1      43.890  28.622  25.688  1.00  0.00     0.065 H 
ATOM     88  C   UNL A   1      39.633  27.380  29.518  1.00  0.00    -0.036 A 
ATOM     89  H   UNL A   1      40.586  25.748  28.554  1.00  0.00     0.065 H 
ATOM     90  C   UNL A   1      40.139  28.650  30.008  1.00  0.00     0.049 A 
ATOM     91  H   UNL A   1      42.142  29.259  30.010  1.00  0.00     0.167 HD
ATOM     92  C   UNL A   1      46.132  30.959  28.900  1.00  0.00     0.037 A 
ATOM     93  H   UNL A   1      45.859  30.232  26.067  1.00  0.00     0.065 H 
ATOM     94  H   UNL A   1      38.662  27.044  29.613  1.00  0.00     0.065 H 
ATOM     95  C   UNL A   1      39.485  29.696  30.576  1.00  0.00     0.037 A 
ATOM     96  C   UNL A   1      46.248  30.655  30.298  1.00  0.00     0.049 A 
ATOM     97  C   UNL A   1      40.509  30.569  31.203  1.00  0.00     0.074 A 
ATOM     98  C   UNL A   1      46.920  29.688  31.019  1.00  0.00    -0.036 A 
ATOM     99  N   UNL A   1      45.323  31.189  31.158  1.00  0.00    -0.354 N 
ATOM    100  N   UNL A   1      41.207  30.222  32.250  1.00  0.00    -0.248 NA
ATOM    101  C   UNL A   1      41.096  31.613  30.375  1.00  0.00    -0.034 C 
ATOM    102  C   UNL A   1      46.040  29.351  32.087  1.00  0.00    -0.036 A 
ATOM    103  H   UNL A   1      47.855  29.296  30.828  1.00  0.00     0.065 H 
ATOM    104  C   UNL A   1      44.920  30.177  31.992  1.00  0.00     0.049 A 
ATOM    105  H   UNL A   1      45.008  32.122  31.175  1.00  0.00     0.167 HD
ATOM    106  C   UNL A   1      42.489  30.680  31.984  1.00  0.00     0.074 A 
ATOM    107  C   UNL A   1      42.346  31.584  30.843  1.00  0.00    -0.034 C 
ATOM    108  H   UNL A   1      40.670  32.203  29.642  1.00  0.00     0.065 H 
ATOM    109  H   UNL A   1      46.201  28.625  32.802  1.00  0.00     0.065 H 
ATOM    110  C   UNL A   1      43.583  30.066  32.519  1.00  0.00     0.037 A 
ATOM    111  H   UNL A   1      43.123  32.134  30.446  1.00  0.00     0.065 H 
BRANCH  92 112
ATOM    112  C   UNL A   1      46.332  32.351  28.363  1.00  0.00     0.064 A 
ATOM    113  C   UNL A   1      47.625  32.913  28.348  1.00  0.00     0.173 A 
ATOM    114  C   UNL A   1      45.270  33.257  28.156  1.00  0.00     0.173 A 
ATOM    115  F   UNL A   1      48.705  32.147  28.560  1.00  0.00    -0.203 F 
ATOM    116  C   UNL A   1      47.828  34.289  28.207  1.00  0.00     0.198 A 
ATOM    117  C   UNL A   1      45.480  34.620  27.964  1.00  0.00     0.198 A 
ATOM    118  F   UNL A   1      43.989  32.876  28.246  1.00  0.00    -0.203 F 
ATOM    119  F   UNL A   1      49.064  34.794  28.319  1.00  0.00    -0.200 F 
ATOM    120  C   UNL A   1      46.755  35.141  28.020  1.00  0.00     0.200 A 
ATOM    121  F   UNL A   1      44.426  35.433  27.808  1.00  0.00    -0.200 F 
ATOM    122  F   UNL A   1      46.943  36.465  27.946  1.00  0.00    -0.200 F 
ENDBRANCH  92 112
BRANCH  95 123
ATOM    123  C   UNL A   1      38.099  30.158  30.316  1.00  0.00     0.064 A 
ATOM    124  C   UNL A   1      37.247  30.542  31.364  1.00  0.00     0.173 A 
ATOM    125  C   UNL A   1      37.674  30.490  29.013  1.00  0.00     0.173 A 
ATOM    126  F   UNL A   1      37.598  30.313  32.637  1.00  0.00    -0.203 F 
ATOM    127  C   UNL A   1      36.050  31.231  31.124  1.00  0.00     0.198 A 
ATOM    128  C   UNL A   1      36.478  31.172  28.776  1.00  0.00     0.198 A 
ATOM    129  F   UNL A   1      38.456  30.246  27.952  1.00  0.00    -0.203 F 
ATOM    130  F   UNL A   1      35.290  31.632  32.154  1.00  0.00    -0.200 F 
ATOM    131  C   UNL A   1      35.672  31.552  29.831  1.00  0.00     0.200 A 
ATOM    132  F   UNL A   1      36.146  31.511  27.521  1.00  0.00    -0.200 F 
ATOM    133  F   UNL A   1      34.558  32.262  29.605  1.00  0.00    -0.200 F 
ENDBRANCH  95 123
BRANCH 110 134
ATOM    134  C   UNL A   1      43.363  29.009  33.564  1.00  0.00     0.064 A 
ATOM    135  C   UNL A   1      43.165  27.649  33.268  1.00  0.00     0.173 A 
ATOM    136  C   UNL A   1      43.556  29.356  34.907  1.00  0.00     0.173 A 
ATOM    137  F   UNL A   1      43.076  27.223  32.003  1.00  0.00    -0.203 F 
ATOM    138  C   UNL A   1      43.136  26.687  34.277  1.00  0.00     0.198 A 
ATOM    139  C   UNL A   1      43.563  28.388  35.909  1.00  0.00     0.198 A 
ATOM    140  F   UNL A   1      43.809  30.631  35.243  1.00  0.00    -0.203 F 
ATOM    141  F   UNL A   1      42.956  25.393  33.968  1.00  0.00    -0.200 F 
ATOM    142  C   UNL A   1      43.346  27.056  35.594  1.00  0.00     0.200 A 
ATOM    143  F   UNL A   1      43.824  28.744  37.174  1.00  0.00    -0.200 F 
ATOM    144  F   UNL A   1      43.379  26.125  36.558  1.00  0.00    -0.200 F 
ENDBRANCH 110 134
ENDBRANCH  75  78
ENDBRANCH  65  68
ENDBRANCH  61  64
ENDBRANCH  58  61
ENDBRANCH  55  58
ENDBRANCH  52  55
ENDBRANCH   1  52
TORSDOF 20
ENDMDL
MODEL 8
REMARK VINA RESULT:     -11.7      2.277      4.240
REMARK SMILES COc1ccc2c(c1)c(CC(=O)NCCCCCCNC(=O)c1ccc(-c3c4nc(c(-c5c(F)c(F)c(F)c(F)c5F)c5ccc([nH]5)c(-c5c(F)c(F)c(F)c(F)c5F)c5nc(c(-c6c(F)c(F)c(F)c(F)c6F)c6ccc3[nH]6)C=C5)C=C4)cc1)c(C)n2Cc1ccn(C(F)F)c(=O)c1
REMARK SMILES IDX 15 1 14 4 13 7 11 8 12 9 10 11 9 14 3 15 4 16 8 17 5 18 7 20
REMARK SMILES IDX 6 22 88 24 86 25 2 26 1 27 89 31 90 34 91 35 99 36 92 37
REMARK SMILES IDX 97 39 93 41 98 43 94 44 95 45 96 46 87 48 16 52 17 55 18 58
REMARK SMILES IDX 19 61 20 64 21 65 22 67 23 68 24 69 85 70 25 71 84 73 26 75
REMARK SMILES IDX 27 78 28 79 78 80 29 81 83 82 77 83 79 84 30 85 82 86 76 88
REMARK SMILES IDX 75 90 31 92 63 95 43 96 62 97 44 98 47 99 61 100 80 101
REMARK SMILES IDX 45 102 46 104 60 106 81 107 48 110 32 112 33 113 41 114
REMARK SMILES IDX 34 115 35 116 39 117 42 118 36 119 37 120 40 121 38 122
REMARK SMILES IDX 64 123 65 124 73 125 66 126 67 127 71 128 74 129 68 130
REMARK SMILES IDX 69 131 72 132 70 133 49 134 50 135 58 136 51 137 52 138
REMARK SMILES IDX 56 139 59 140 53 141 54 142 57 143 55 144
REMARK H PARENT 15 2 15 3 14 5 14 6 13 10 10 12 10 13 4 19 8 21 5 23 1 28 1 29
REMARK H PARENT 1 30 89 32 89 33 91 38 99 40 92 42 94 47 87 49 87 50 87 51
REMARK H PARENT 16 53 16 54 17 56 17 57 18 59 18 60 19 62 19 63 20 66 24 72
REMARK H PARENT 85 74 25 76 84 77 83 87 77 89 79 91 82 93 76 94 44 103 47 105
REMARK H PARENT 80 108 45 109 81 111
REMARK Flexibility Score: inf
ROOT
ATOM      1  C   UNL A   1      36.312  29.726  28.567  1.00  0.00    -0.036 C 
ATOM      2  H   UNL A   1      37.080  28.991  28.693  1.00  0.00     0.028 H 
ATOM      3  H   UNL A   1      35.642  29.758  29.399  1.00  0.00     0.028 H 
ENDROOT
BRANCH   1   4
ATOM      4  C   UNL A   1      35.485  29.353  27.336  1.00  0.00     0.017 C 
ATOM      5  H   UNL A   1      35.568  30.135  26.611  1.00  0.00     0.049 H 
ATOM      6  H   UNL A   1      35.862  28.431  26.945  1.00  0.00     0.049 H 
BRANCH   4   7
ATOM      7  N   UNL A   1      34.088  29.168  27.672  1.00  0.00    -0.356 N 
ATOM      8  C   UNL A   1      32.974  29.414  26.922  1.00  0.00     0.224 C 
ATOM      9  O   UNL A   1      31.872  29.241  27.449  1.00  0.00    -0.275 OA
ATOM     10  H   UNL A   1      33.916  28.814  28.575  1.00  0.00     0.163 HD
BRANCH   8  11
ATOM     11  C   UNL A   1      33.093  29.793  25.453  1.00  0.00     0.054 C 
ATOM     12  H   UNL A   1      32.746  30.798  25.336  1.00  0.00     0.042 H 
ATOM     13  H   UNL A   1      34.123  29.680  25.185  1.00  0.00     0.042 H 
BRANCH  11  14
ATOM     14  C   UNL A   1      32.304  28.910  24.534  1.00  0.00    -0.010 A 
ATOM     15  C   UNL A   1      28.889  30.246  23.488  1.00  0.00     0.119 A 
ATOM     16  C   UNL A   1      28.575  29.202  22.626  1.00  0.00    -0.018 A 
ATOM     17  C   UNL A   1      30.121  30.268  24.139  1.00  0.00    -0.010 A 
ATOM     18  C   UNL A   1      29.478  28.146  22.409  1.00  0.00    -0.034 A 
ATOM     19  H   UNL A   1      27.666  29.201  22.137  1.00  0.00     0.066 H 
ATOM     20  C   UNL A   1      31.026  29.198  23.974  1.00  0.00     0.007 A 
ATOM     21  H   UNL A   1      30.372  31.067  24.743  1.00  0.00     0.067 H 
ATOM     22  C   UNL A   1      30.702  28.153  23.104  1.00  0.00     0.049 A 
ATOM     23  H   UNL A   1      29.248  27.383  21.754  1.00  0.00     0.065 H 
ATOM     24  N   UNL A   1      31.777  27.272  23.108  1.00  0.00    -0.340 N 
ATOM     25  C   UNL A   1      32.649  27.628  24.125  1.00  0.00     0.020 A 
BRANCH  15  26
ATOM     26  O   UNL A   1      28.086  31.334  23.704  1.00  0.00    -0.497 OA
BRANCH  26  27
ATOM     27  C   UNL A   1      28.484  32.509  23.005  1.00  0.00     0.078 C 
ATOM     28  H   UNL A   1      28.054  32.502  22.025  1.00  0.00     0.067 H 
ATOM     29  H   UNL A   1      29.550  32.533  22.927  1.00  0.00     0.067 H 
ATOM     30  H   UNL A   1      28.144  33.372  23.536  1.00  0.00     0.067 H 
ENDBRANCH  26  27
ENDBRANCH  15  26
BRANCH  24  31
ATOM     31  C   UNL A   1      31.907  26.101  22.229  1.00  0.00     0.048 C 
ATOM     32  H   UNL A   1      32.831  26.184  21.695  1.00  0.00     0.055 H 
ATOM     33  H   UNL A   1      31.051  26.106  21.587  1.00  0.00     0.055 H 
BRANCH  31  34
ATOM     34  C   UNL A   1      31.896  24.764  22.954  1.00  0.00    -0.021 A 
ATOM     35  C   UNL A   1      32.885  23.761  22.611  1.00  0.00    -0.040 A 
ATOM     36  C   UNL A   1      31.067  24.502  23.982  1.00  0.00     0.009 A 
ATOM     37  C   UNL A   1      32.902  22.566  23.214  1.00  0.00     0.013 A 
ATOM     38  H   UNL A   1      33.589  23.972  21.887  1.00  0.00     0.064 H 
ATOM     39  C   UNL A   1      31.120  23.202  24.723  1.00  0.00     0.255 A 
ATOM     40  H   UNL A   1      30.377  25.216  24.266  1.00  0.00     0.068 H 
ATOM     41  N   UNL A   1      32.017  22.264  24.228  1.00  0.00    -0.258 N 
ATOM     42  H   UNL A   1      33.590  21.858  22.915  1.00  0.00     0.082 H 
ATOM     43  O   UNL A   1      30.390  23.051  25.690  1.00  0.00    -0.269 OA
BRANCH  41  44
ATOM     44  C   UNL A   1      32.155  21.013  24.935  1.00  0.00     0.321 C 
ATOM     45  F   UNL A   1      32.939  20.155  24.237  1.00  0.00    -0.185 F 
ATOM     46  F   UNL A   1      32.698  21.162  26.164  1.00  0.00    -0.185 F 
ATOM     47  H   UNL A   1      31.164  20.626  25.040  1.00  0.00     0.131 H 
ENDBRANCH  41  44
ENDBRANCH  31  34
ENDBRANCH  24  31
BRANCH  25  48
ATOM     48  C   UNL A   1      33.777  26.794  24.628  1.00  0.00    -0.024 C 
ATOM     49  H   UNL A   1      33.467  26.269  25.508  1.00  0.00     0.030 H 
ATOM     50  H   UNL A   1      34.609  27.424  24.863  1.00  0.00     0.030 H 
ATOM     51  H   UNL A   1      34.064  26.090  23.875  1.00  0.00     0.030 H 
ENDBRANCH  25  48
ENDBRANCH  11  14
ENDBRANCH   8  11
ENDBRANCH   4   7
ENDBRANCH   1   4
BRANCH   1  52
ATOM     52  C   UNL A   1      36.973  31.107  28.465  1.00  0.00    -0.052 C 
ATOM     53  H   UNL A   1      37.593  31.115  27.593  1.00  0.00     0.027 H 
ATOM     54  H   UNL A   1      37.519  31.247  29.374  1.00  0.00     0.027 H 
BRANCH  52  55
ATOM     55  C   UNL A   1      35.994  32.284  28.366  1.00  0.00    -0.052 C 
ATOM     56  H   UNL A   1      35.051  31.906  28.028  1.00  0.00     0.027 H 
ATOM     57  H   UNL A   1      36.433  32.986  27.687  1.00  0.00     0.027 H 
BRANCH  55  58
ATOM     58  C   UNL A   1      35.761  33.040  29.679  1.00  0.00    -0.036 C 
ATOM     59  H   UNL A   1      35.439  34.033  29.446  1.00  0.00     0.028 H 
ATOM     60  H   UNL A   1      36.687  33.030  30.217  1.00  0.00     0.028 H 
BRANCH  58  61
ATOM     61  C   UNL A   1      34.714  32.388  30.576  1.00  0.00     0.018 C 
ATOM     62  H   UNL A   1      34.547  31.389  30.229  1.00  0.00     0.049 H 
ATOM     63  H   UNL A   1      33.833  32.993  30.518  1.00  0.00     0.049 H 
BRANCH  61  64
ATOM     64  N   UNL A   1      35.092  32.329  31.970  1.00  0.00    -0.352 N 
ATOM     65  C   UNL A   1      36.193  31.886  32.645  1.00  0.00     0.251 C 
ATOM     66  H   UNL A   1      34.398  32.689  32.567  1.00  0.00     0.163 HD
ATOM     67  O   UNL A   1      36.247  32.165  33.845  1.00  0.00    -0.269 OA
BRANCH  65  68
ATOM     68  C   UNL A   1      37.253  31.014  32.071  1.00  0.00     0.039 A 
ATOM     69  C   UNL A   1      37.208  29.623  31.967  1.00  0.00    -0.049 A 
ATOM     70  C   UNL A   1      38.435  31.678  31.692  1.00  0.00    -0.049 A 
ATOM     71  C   UNL A   1      38.357  28.905  31.663  1.00  0.00    -0.053 A 
ATOM     72  H   UNL A   1      36.316  29.126  32.117  1.00  0.00     0.063 H 
ATOM     73  C   UNL A   1      39.576  30.969  31.354  1.00  0.00    -0.053 A 
ATOM     74  H   UNL A   1      38.451  32.709  31.666  1.00  0.00     0.063 H 
ATOM     75  C   UNL A   1      39.553  29.581  31.423  1.00  0.00    -0.014 A 
ATOM     76  H   UNL A   1      38.326  27.874  31.614  1.00  0.00     0.063 H 
ATOM     77  H   UNL A   1      40.431  31.464  31.056  1.00  0.00     0.063 H 
BRANCH  75  78
ATOM     78  C   UNL A   1      40.754  28.792  31.174  1.00  0.00     0.031 A 
ATOM     79  C   UNL A   1      41.572  28.505  32.388  1.00  0.00     0.074 A 
ATOM     80  C   UNL A   1      41.030  28.283  29.955  1.00  0.00     0.049 A 
ATOM     81  N   UNL A   1      42.816  28.788  32.600  1.00  0.00    -0.248 NA
ATOM     82  C   UNL A   1      40.882  27.940  33.561  1.00  0.00    -0.034 C 
ATOM     83  C   UNL A   1      40.195  28.302  28.750  1.00  0.00    -0.036 A 
ATOM     84  N   UNL A   1      42.102  27.544  29.558  1.00  0.00    -0.354 N 
ATOM     85  C   UNL A   1      43.116  28.294  33.869  1.00  0.00     0.074 A 
ATOM     86  C   UNL A   1      41.866  27.898  34.461  1.00  0.00    -0.034 C 
ATOM     87  H   UNL A   1      39.897  27.651  33.660  1.00  0.00     0.065 H 
ATOM     88  C   UNL A   1      40.672  27.405  27.858  1.00  0.00    -0.036 A 
ATOM     89  H   UNL A   1      39.370  28.904  28.606  1.00  0.00     0.065 H 
ATOM     90  C   UNL A   1      41.915  26.855  28.366  1.00  0.00     0.049 A 
ATOM     91  H   UNL A   1      42.940  27.500  30.074  1.00  0.00     0.167 HD
ATOM     92  C   UNL A   1      44.398  28.071  34.268  1.00  0.00     0.037 A 
ATOM     93  H   UNL A   1      41.746  27.619  35.447  1.00  0.00     0.065 H 
ATOM     94  H   UNL A   1      40.226  27.153  26.961  1.00  0.00     0.065 H 
ATOM     95  C   UNL A   1      42.696  25.855  27.882  1.00  0.00     0.037 A 
ATOM     96  C   UNL A   1      45.338  28.796  33.460  1.00  0.00     0.049 A 
ATOM     97  C   UNL A   1      44.005  25.941  28.578  1.00  0.00     0.074 A 
ATOM     98  C   UNL A   1      45.589  30.136  33.247  1.00  0.00    -0.036 A 
ATOM     99  N   UNL A   1      45.968  28.129  32.440  1.00  0.00    -0.354 N 
ATOM    100  N   UNL A   1      44.853  26.917  28.396  1.00  0.00    -0.248 NA
ATOM    101  C   UNL A   1      44.148  25.209  29.829  1.00  0.00    -0.034 C 
ATOM    102  C   UNL A   1      45.916  30.231  31.864  1.00  0.00    -0.036 A 
ATOM    103  H   UNL A   1      45.550  30.902  33.937  1.00  0.00     0.065 H 
ATOM    104  C   UNL A   1      45.910  28.940  31.336  1.00  0.00     0.049 A 
ATOM    105  H   UNL A   1      46.383  27.237  32.492  1.00  0.00     0.167 HD
ATOM    106  C   UNL A   1      45.343  27.195  29.664  1.00  0.00     0.074 A 
ATOM    107  C   UNL A   1      44.919  26.070  30.496  1.00  0.00    -0.034 C 
ATOM    108  H   UNL A   1      43.765  24.293  30.114  1.00  0.00     0.065 H 
ATOM    109  H   UNL A   1      46.119  31.099  31.345  1.00  0.00     0.065 H 
ATOM    110  C   UNL A   1      45.790  28.442  29.988  1.00  0.00     0.037 A 
ATOM    111  H   UNL A   1      45.185  25.956  31.487  1.00  0.00     0.065 H 
BRANCH  92 112
ATOM    112  C   UNL A   1      44.821  26.943  35.172  1.00  0.00     0.064 A 
ATOM    113  C   UNL A   1      44.515  25.613  34.817  1.00  0.00     0.173 A 
ATOM    114  C   UNL A   1      45.235  27.140  36.506  1.00  0.00     0.173 A 
ATOM    115  F   UNL A   1      44.087  25.317  33.581  1.00  0.00    -0.203 F 
ATOM    116  C   UNL A   1      44.553  24.575  35.753  1.00  0.00     0.198 A 
ATOM    117  C   UNL A   1      45.322  26.094  37.421  1.00  0.00     0.198 A 
ATOM    118  F   UNL A   1      45.459  28.363  37.004  1.00  0.00    -0.203 F 
ATOM    119  F   UNL A   1      44.138  23.350  35.404  1.00  0.00    -0.200 F 
ATOM    120  C   UNL A   1      44.951  24.818  37.054  1.00  0.00     0.200 A 
ATOM    121  F   UNL A   1      45.687  26.353  38.685  1.00  0.00    -0.200 F 
ATOM    122  F   UNL A   1      44.930  23.837  37.967  1.00  0.00    -0.200 F 
ENDBRANCH  92 112
BRANCH  95 123
ATOM    123  C   UNL A   1      42.274  24.647  27.131  1.00  0.00     0.064 A 
ATOM    124  C   UNL A   1      43.011  24.172  26.035  1.00  0.00     0.173 A 
ATOM    125  C   UNL A   1      41.289  23.777  27.643  1.00  0.00     0.173 A 
ATOM    126  F   UNL A   1      44.004  24.911  25.518  1.00  0.00    -0.203 F 
ATOM    127  C   UNL A   1      42.787  22.899  25.493  1.00  0.00     0.198 A 
ATOM    128  C   UNL A   1      41.063  22.511  27.099  1.00  0.00     0.198 A 
ATOM    129  F   UNL A   1      40.591  24.100  28.742  1.00  0.00    -0.203 F 
ATOM    130  F   UNL A   1      43.551  22.457  24.483  1.00  0.00    -0.200 F 
ATOM    131  C   UNL A   1      41.820  22.067  26.032  1.00  0.00     0.200 A 
ATOM    132  F   UNL A   1      40.151  21.702  27.657  1.00  0.00    -0.200 F 
ATOM    133  F   UNL A   1      41.645  20.828  25.552  1.00  0.00    -0.200 F 
ENDBRANCH  95 123
BRANCH 110 134
ATOM    134  C   UNL A   1      45.933  29.453  28.888  1.00  0.00     0.064 A 
ATOM    135  C   UNL A   1      44.896  30.310  28.476  1.00  0.00     0.173 A 
ATOM    136  C   UNL A   1      47.212  29.697  28.372  1.00  0.00     0.173 A 
ATOM    137  F   UNL A   1      43.669  30.209  29.000  1.00  0.00    -0.203 F 
ATOM    138  C   UNL A   1      45.129  31.343  27.569  1.00  0.00     0.198 A 
ATOM    139  C   UNL A   1      47.449  30.752  27.495  1.00  0.00     0.198 A 
ATOM    140  F   UNL A   1      48.252  28.950  28.776  1.00  0.00    -0.203 F 
ATOM    141  F   UNL A   1      44.124  32.153  27.200  1.00  0.00    -0.200 F 
ATOM    142  C   UNL A   1      46.407  31.570  27.089  1.00  0.00     0.200 A 
ATOM    143  F   UNL A   1      48.698  31.003  27.079  1.00  0.00    -0.200 F 
ATOM    144  F   UNL A   1      46.644  32.601  26.266  1.00  0.00    -0.200 F 
ENDBRANCH 110 134
ENDBRANCH  75  78
ENDBRANCH  65  68
ENDBRANCH  61  64
ENDBRANCH  58  61
ENDBRANCH  55  58
ENDBRANCH  52  55
ENDBRANCH   1  52
TORSDOF 20
ENDMDL
MODEL 9
REMARK VINA RESULT:     -11.6      2.541      3.979
REMARK SMILES COc1ccc2c(c1)c(CC(=O)NCCCCCCNC(=O)c1ccc(-c3c4nc(c(-c5c(F)c(F)c(F)c(F)c5F)c5ccc([nH]5)c(-c5c(F)c(F)c(F)c(F)c5F)c5nc(c(-c6c(F)c(F)c(F)c(F)c6F)c6ccc3[nH]6)C=C5)C=C4)cc1)c(C)n2Cc1ccn(C(F)F)c(=O)c1
REMARK SMILES IDX 15 1 14 4 13 7 11 8 12 9 10 11 9 14 3 15 4 16 8 17 5 18 7 20
REMARK SMILES IDX 6 22 88 24 86 25 2 26 1 27 89 31 90 34 91 35 99 36 92 37
REMARK SMILES IDX 97 39 93 41 98 43 94 44 95 45 96 46 87 48 16 52 17 55 18 58
REMARK SMILES IDX 19 61 20 64 21 65 22 67 23 68 24 69 85 70 25 71 84 73 26 75
REMARK SMILES IDX 27 78 28 79 78 80 29 81 83 82 77 83 79 84 30 85 82 86 76 88
REMARK SMILES IDX 75 90 31 92 63 95 43 96 62 97 44 98 47 99 61 100 80 101
REMARK SMILES IDX 45 102 46 104 60 106 81 107 48 110 32 112 33 113 41 114
REMARK SMILES IDX 34 115 35 116 39 117 42 118 36 119 37 120 40 121 38 122
REMARK SMILES IDX 64 123 65 124 73 125 66 126 67 127 71 128 74 129 68 130
REMARK SMILES IDX 69 131 72 132 70 133 49 134 50 135 58 136 51 137 52 138
REMARK SMILES IDX 56 139 59 140 53 141 54 142 57 143 55 144
REMARK H PARENT 15 2 15 3 14 5 14 6 13 10 10 12 10 13 4 19 8 21 5 23 1 28 1 29
REMARK H PARENT 1 30 89 32 89 33 91 38 99 40 92 42 94 47 87 49 87 50 87 51
REMARK H PARENT 16 53 16 54 17 56 17 57 18 59 18 60 19 62 19 63 20 66 24 72
REMARK H PARENT 85 74 25 76 84 77 83 87 77 89 79 91 82 93 76 94 44 103 47 105
REMARK H PARENT 80 108 45 109 81 111
REMARK Flexibility Score: inf
ROOT
ATOM      1  C   UNL A   1      31.139  26.319  25.876  1.00  0.00    -0.036 C 
ATOM      2  H   UNL A   1      31.834  26.590  26.644  1.00  0.00     0.028 H 
ATOM      3  H   UNL A   1      30.173  26.083  26.268  1.00  0.00     0.028 H 
ENDROOT
BRANCH   1   4
ATOM      4  C   UNL A   1      31.660  25.064  25.175  1.00  0.00     0.017 C 
ATOM      5  H   UNL A   1      31.770  25.268  24.131  1.00  0.00     0.049 H 
ATOM      6  H   UNL A   1      32.601  24.801  25.612  1.00  0.00     0.049 H 
BRANCH   4   7
ATOM      7  N   UNL A   1      30.751  23.948  25.343  1.00  0.00    -0.356 N 
ATOM      8  C   UNL A   1      30.931  22.776  26.022  1.00  0.00     0.224 C 
ATOM      9  O   UNL A   1      30.030  21.934  25.970  1.00  0.00    -0.275 OA
ATOM     10  H   UNL A   1      29.875  24.048  24.904  1.00  0.00     0.163 HD
BRANCH   8  11
ATOM     11  C   UNL A   1      32.161  22.561  26.892  1.00  0.00     0.054 C 
ATOM     12  H   UNL A   1      32.482  23.512  27.260  1.00  0.00     0.042 H 
ATOM     13  H   UNL A   1      31.874  21.892  27.676  1.00  0.00     0.042 H 
BRANCH  11  14
ATOM     14  C   UNL A   1      33.308  21.921  26.169  1.00  0.00    -0.010 A 
ATOM     15  C   UNL A   1      32.878  18.226  25.329  1.00  0.00     0.119 A 
ATOM     16  C   UNL A   1      34.073  18.089  24.633  1.00  0.00    -0.018 A 
ATOM     17  C   UNL A   1      32.508  19.468  25.843  1.00  0.00    -0.010 A 
ATOM     18  C   UNL A   1      34.934  19.185  24.451  1.00  0.00    -0.034 A 
ATOM     19  H   UNL A   1      34.332  17.169  24.243  1.00  0.00     0.066 H 
ATOM     20  C   UNL A   1      33.376  20.574  25.713  1.00  0.00     0.007 A 
ATOM     21  H   UNL A   1      31.599  19.580  26.319  1.00  0.00     0.067 H 
ATOM     22  C   UNL A   1      34.575  20.425  25.011  1.00  0.00     0.049 A 
ATOM     23  H   UNL A   1      35.811  19.082  23.917  1.00  0.00     0.065 H 
ATOM     24  N   UNL A   1      35.200  21.667  25.008  1.00  0.00    -0.340 N 
ATOM     25  C   UNL A   1      34.532  22.511  25.881  1.00  0.00     0.020 A 
BRANCH  15  26
ATOM     26  O   UNL A   1      31.965  17.221  25.497  1.00  0.00    -0.497 OA
BRANCH  26  27
ATOM     27  C   UNL A   1      32.535  15.923  25.637  1.00  0.00     0.078 C 
ATOM     28  H   UNL A   1      33.240  15.929  26.442  1.00  0.00     0.067 H 
ATOM     29  H   UNL A   1      33.033  15.653  24.730  1.00  0.00     0.067 H 
ATOM     30  H   UNL A   1      31.762  15.214  25.846  1.00  0.00     0.067 H 
ENDBRANCH  26  27
ENDBRANCH  15  26
BRANCH  24  31
ATOM     31  C   UNL A   1      36.427  21.988  24.264  1.00  0.00     0.048 C 
ATOM     32  H   UNL A   1      36.438  23.041  24.074  1.00  0.00     0.055 H 
ATOM     33  H   UNL A   1      36.403  21.401  23.370  1.00  0.00     0.055 H 
BRANCH  31  34
ATOM     34  C   UNL A   1      37.715  21.623  24.986  1.00  0.00    -0.021 A 
ATOM     35  C   UNL A   1      38.325  22.585  25.883  1.00  0.00    -0.040 A 
ATOM     36  C   UNL A   1      38.267  20.397  24.911  1.00  0.00     0.009 A 
ATOM     37  C   UNL A   1      39.465  22.311  26.527  1.00  0.00     0.013 A 
ATOM     38  H   UNL A   1      37.871  23.500  26.026  1.00  0.00     0.064 H 
ATOM     39  C   UNL A   1      39.500  20.042  25.685  1.00  0.00     0.255 A 
ATOM     40  H   UNL A   1      37.831  19.685  24.305  1.00  0.00     0.068 H 
ATOM     41  N   UNL A   1      40.074  21.078  26.410  1.00  0.00    -0.258 N 
ATOM     42  H   UNL A   1      39.897  23.035  27.122  1.00  0.00     0.082 H 
ATOM     43  O   UNL A   1      39.914  18.895  25.629  1.00  0.00    -0.269 OA
BRANCH  41  44
ATOM     44  C   UNL A   1      41.232  20.784  27.221  1.00  0.00     0.321 C 
ATOM     45  F   UNL A   1      42.363  20.846  26.479  1.00  0.00    -0.185 F 
ATOM     46  F   UNL A   1      41.372  21.637  28.262  1.00  0.00    -0.185 F 
ATOM     47  H   UNL A   1      41.078  19.797  27.602  1.00  0.00     0.131 H 
ENDBRANCH  41  44
ENDBRANCH  31  34
ENDBRANCH  24  31
BRANCH  25  48
ATOM     48  C   UNL A   1      35.033  23.831  26.360  1.00  0.00    -0.024 C 
ATOM     49  H   UNL A   1      34.590  24.056  27.308  1.00  0.00     0.030 H 
ATOM     50  H   UNL A   1      34.770  24.589  25.654  1.00  0.00     0.030 H 
ATOM     51  H   UNL A   1      36.097  23.792  26.464  1.00  0.00     0.030 H 
ENDBRANCH  25  48
ENDBRANCH  11  14
ENDBRANCH   8  11
ENDBRANCH   4   7
ENDBRANCH   1   4
BRANCH   1  52
ATOM     52  C   UNL A   1      30.965  27.518  24.934  1.00  0.00    -0.052 C 
ATOM     53  H   UNL A   1      29.930  27.792  24.933  1.00  0.00     0.027 H 
ATOM     54  H   UNL A   1      31.320  27.202  23.976  1.00  0.00     0.027 H 
BRANCH  52  55
ATOM     55  C   UNL A   1      31.787  28.758  25.311  1.00  0.00    -0.052 C 
ATOM     56  H   UNL A   1      31.268  29.277  26.089  1.00  0.00     0.027 H 
ATOM     57  H   UNL A   1      31.889  29.335  24.415  1.00  0.00     0.027 H 
BRANCH  55  58
ATOM     58  C   UNL A   1      33.209  28.462  25.800  1.00  0.00    -0.036 C 
ATOM     59  H   UNL A   1      33.879  29.152  25.332  1.00  0.00     0.028 H 
ATOM     60  H   UNL A   1      33.428  27.447  25.539  1.00  0.00     0.028 H 
BRANCH  58  61
ATOM     61  C   UNL A   1      33.367  28.582  27.312  1.00  0.00     0.018 C 
ATOM     62  H   UNL A   1      34.271  28.083  27.598  1.00  0.00     0.049 H 
ATOM     63  H   UNL A   1      32.498  28.138  27.752  1.00  0.00     0.049 H 
BRANCH  61  64
ATOM     64  N   UNL A   1      33.430  29.945  27.787  1.00  0.00    -0.352 N 
ATOM     65  C   UNL A   1      34.436  30.850  27.972  1.00  0.00     0.251 C 
ATOM     66  H   UNL A   1      32.547  30.303  28.034  1.00  0.00     0.163 HD
ATOM     67  O   UNL A   1      34.092  32.007  28.227  1.00  0.00    -0.269 OA
BRANCH  65  68
ATOM     68  C   UNL A   1      35.887  30.520  27.997  1.00  0.00     0.039 A 
ATOM     69  C   UNL A   1      36.452  29.274  27.725  1.00  0.00    -0.049 A 
ATOM     70  C   UNL A   1      36.730  31.560  28.429  1.00  0.00    -0.049 A 
ATOM     71  C   UNL A   1      37.782  29.024  28.039  1.00  0.00    -0.053 A 
ATOM     72  H   UNL A   1      35.880  28.534  27.288  1.00  0.00     0.063 H 
ATOM     73  C   UNL A   1      38.066  31.327  28.712  1.00  0.00    -0.053 A 
ATOM     74  H   UNL A   1      36.347  32.512  28.537  1.00  0.00     0.063 H 
ATOM     75  C   UNL A   1      38.565  30.035  28.594  1.00  0.00    -0.014 A 
ATOM     76  H   UNL A   1      38.190  28.092  27.861  1.00  0.00     0.063 H 
ATOM     77  H   UNL A   1      38.682  32.101  29.007  1.00  0.00     0.063 H 
BRANCH  75  78
ATOM     78  C   UNL A   1      39.936  29.717  28.974  1.00  0.00     0.031 A 
ATOM     79  C   UNL A   1      40.254  29.958  30.411  1.00  0.00     0.074 A 
ATOM     80  C   UNL A   1      40.801  29.152  28.106  1.00  0.00     0.049 A 
ATOM     81  N   UNL A   1      41.180  30.712  30.911  1.00  0.00    -0.248 NA
ATOM     82  C   UNL A   1      39.349  29.380  31.420  1.00  0.00    -0.034 C 
ATOM     83  C   UNL A   1      40.540  28.662  26.750  1.00  0.00    -0.036 A 
ATOM     84  N   UNL A   1      42.104  28.808  28.298  1.00  0.00    -0.354 N 
ATOM     85  C   UNL A   1      41.082  30.581  32.296  1.00  0.00     0.074 A 
ATOM     86  C   UNL A   1      39.867  29.854  32.554  1.00  0.00    -0.034 C 
ATOM     87  H   UNL A   1      38.530  28.768  31.285  1.00  0.00     0.065 H 
ATOM     88  C   UNL A   1      41.563  27.871  26.352  1.00  0.00    -0.036 A 
ATOM     89  H   UNL A   1      39.705  28.884  26.186  1.00  0.00     0.065 H 
ATOM     90  C   UNL A   1      42.605  27.911  27.361  1.00  0.00     0.049 A 
ATOM     91  H   UNL A   1      42.646  29.163  29.039  1.00  0.00     0.167 HD
ATOM     92  C   UNL A   1      42.109  30.917  33.123  1.00  0.00     0.037 A 
ATOM     93  H   UNL A   1      39.452  29.718  33.490  1.00  0.00     0.065 H 
ATOM     94  H   UNL A   1      41.596  27.327  25.475  1.00  0.00     0.065 H 
ATOM     95  C   UNL A   1      43.762  27.207  27.459  1.00  0.00     0.037 A 
ATOM     96  C   UNL A   1      43.044  31.793  32.476  1.00  0.00     0.049 A 
ATOM     97  C   UNL A   1      44.608  27.884  28.473  1.00  0.00     0.074 A 
ATOM     98  C   UNL A   1      42.969  33.077  31.974  1.00  0.00    -0.036 A 
ATOM     99  N   UNL A   1      44.185  31.249  31.946  1.00  0.00    -0.354 N 
ATOM    100  N   UNL A   1      45.146  29.060  28.291  1.00  0.00    -0.248 NA
ATOM    101  C   UNL A   1      44.447  27.474  29.861  1.00  0.00    -0.034 C 
ATOM    102  C   UNL A   1      43.772  33.056  30.798  1.00  0.00    -0.036 A 
ATOM    103  H   UNL A   1      42.447  33.877  32.364  1.00  0.00     0.065 H 
ATOM    104  C   UNL A   1      44.340  31.786  30.694  1.00  0.00     0.049 A 
ATOM    105  H   UNL A   1      44.780  30.596  32.381  1.00  0.00     0.167 HD
ATOM    106  C   UNL A   1      44.996  29.704  29.510  1.00  0.00     0.074 A 
ATOM    107  C   UNL A   1      44.615  28.657  30.457  1.00  0.00    -0.034 C 
ATOM    108  H   UNL A   1      44.259  26.543  30.265  1.00  0.00     0.065 H 
ATOM    109  H   UNL A   1      43.909  33.839  30.140  1.00  0.00     0.065 H 
ATOM    110  C   UNL A   1      44.907  31.064  29.582  1.00  0.00     0.037 A 
ATOM    111  H   UNL A   1      44.490  28.815  31.469  1.00  0.00     0.065 H 
BRANCH  92 112
ATOM    112  C   UNL A   1      42.441  30.191  34.400  1.00  0.00     0.064 A 
ATOM    113  C   UNL A   1      42.572  30.918  35.601  1.00  0.00     0.173 A 
ATOM    114  C   UNL A   1      42.936  28.870  34.428  1.00  0.00     0.173 A 
ATOM    115  F   UNL A   1      42.159  32.192  35.677  1.00  0.00    -0.203 F 
ATOM    116  C   UNL A   1      43.216  30.381  36.720  1.00  0.00     0.198 A 
ATOM    117  C   UNL A   1      43.529  28.321  35.562  1.00  0.00     0.198 A 
ATOM    118  F   UNL A   1      42.967  28.103  33.331  1.00  0.00    -0.203 F 
ATOM    119  F   UNL A   1      43.425  31.147  37.799  1.00  0.00    -0.200 F 
ATOM    120  C   UNL A   1      43.698  29.085  36.697  1.00  0.00     0.200 A 
ATOM    121  F   UNL A   1      44.012  27.071  35.513  1.00  0.00    -0.200 F 
ATOM    122  F   UNL A   1      44.368  28.590  37.746  1.00  0.00    -0.200 F 
ENDBRANCH  92 112
BRANCH  95 123
ATOM    123  C   UNL A   1      44.029  25.821  26.998  1.00  0.00     0.064 A 
ATOM    124  C   UNL A   1      44.796  25.568  25.849  1.00  0.00     0.173 A 
ATOM    125  C   UNL A   1      43.767  24.713  27.828  1.00  0.00     0.173 A 
ATOM    126  F   UNL A   1      45.138  26.574  25.031  1.00  0.00    -0.203 F 
ATOM    127  C   UNL A   1      45.283  24.286  25.557  1.00  0.00     0.198 A 
ATOM    128  C   UNL A   1      44.248  23.436  27.534  1.00  0.00     0.198 A 
ATOM    129  F   UNL A   1      43.120  24.865  28.993  1.00  0.00    -0.203 F 
ATOM    130  F   UNL A   1      46.060  24.095  24.481  1.00  0.00    -0.200 F 
ATOM    131  C   UNL A   1      45.016  23.224  26.405  1.00  0.00     0.200 A 
ATOM    132  F   UNL A   1      44.015  22.426  28.385  1.00  0.00    -0.200 F 
ATOM    133  F   UNL A   1      45.530  22.012  26.158  1.00  0.00    -0.200 F 
ENDBRANCH  95 123
BRANCH 110 134
ATOM    134  C   UNL A   1      45.179  31.860  28.338  1.00  0.00     0.064 A 
ATOM    135  C   UNL A   1      44.260  31.997  27.283  1.00  0.00     0.173 A 
ATOM    136  C   UNL A   1      46.324  32.666  28.303  1.00  0.00     0.173 A 
ATOM    137  F   UNL A   1      43.095  31.340  27.293  1.00  0.00    -0.203 F 
ATOM    138  C   UNL A   1      44.493  32.882  26.231  1.00  0.00     0.198 A 
ATOM    139  C   UNL A   1      46.537  33.575  27.270  1.00  0.00     0.198 A 
ATOM    140  F   UNL A   1      47.208  32.621  29.314  1.00  0.00    -0.203 F 
ATOM    141  F   UNL A   1      43.595  33.001  25.241  1.00  0.00    -0.200 F 
ATOM    142  C   UNL A   1      45.626  33.678  26.232  1.00  0.00     0.200 A 
ATOM    143  F   UNL A   1      47.605  34.383  27.306  1.00  0.00    -0.200 F 
ATOM    144  F   UNL A   1      45.821  34.572  25.253  1.00  0.00    -0.200 F 
ENDBRANCH 110 134
ENDBRANCH  75  78
ENDBRANCH  65  68
ENDBRANCH  61  64
ENDBRANCH  58  61
ENDBRANCH  55  58
ENDBRANCH  52  55
ENDBRANCH   1  52
TORSDOF 20
ENDMDL
MODEL 10
REMARK VINA RESULT:     -11.6      4.182      9.189
REMARK SMILES COc1ccc2c(c1)c(CC(=O)NCCCCCCNC(=O)c1ccc(-c3c4nc(c(-c5c(F)c(F)c(F)c(F)c5F)c5ccc([nH]5)c(-c5c(F)c(F)c(F)c(F)c5F)c5nc(c(-c6c(F)c(F)c(F)c(F)c6F)c6ccc3[nH]6)C=C5)C=C4)cc1)c(C)n2Cc1ccn(C(F)F)c(=O)c1
REMARK SMILES IDX 15 1 14 4 13 7 11 8 12 9 10 11 9 14 3 15 4 16 8 17 5 18 7 20
REMARK SMILES IDX 6 22 88 24 86 25 2 26 1 27 89 31 90 34 91 35 99 36 92 37
REMARK SMILES IDX 97 39 93 41 98 43 94 44 95 45 96 46 87 48 16 52 17 55 18 58
REMARK SMILES IDX 19 61 20 64 21 65 22 67 23 68 24 69 85 70 25 71 84 73 26 75
REMARK SMILES IDX 27 78 28 79 78 80 29 81 83 82 77 83 79 84 30 85 82 86 76 88
REMARK SMILES IDX 75 90 31 92 63 95 43 96 62 97 44 98 47 99 61 100 80 101
REMARK SMILES IDX 45 102 46 104 60 106 81 107 48 110 32 112 33 113 41 114
REMARK SMILES IDX 34 115 35 116 39 117 42 118 36 119 37 120 40 121 38 122
REMARK SMILES IDX 64 123 65 124 73 125 66 126 67 127 71 128 74 129 68 130
REMARK SMILES IDX 69 131 72 132 70 133 49 134 50 135 58 136 51 137 52 138
REMARK SMILES IDX 56 139 59 140 53 141 54 142 57 143 55 144
REMARK H PARENT 15 2 15 3 14 5 14 6 13 10 10 12 10 13 4 19 8 21 5 23 1 28 1 29
REMARK H PARENT 1 30 89 32 89 33 91 38 99 40 92 42 94 47 87 49 87 50 87 51
REMARK H PARENT 16 53 16 54 17 56 17 57 18 59 18 60 19 62 19 63 20 66 24 72
REMARK H PARENT 85 74 25 76 84 77 83 87 77 89 79 91 82 93 76 94 44 103 47 105
REMARK H PARENT 80 108 45 109 81 111
REMARK Flexibility Score: inf
ROOT
ATOM      1  C   UNL A   1      39.804  23.254  26.590  1.00  0.00    -0.036 C 
ATOM      2  H   UNL A   1      39.395  23.957  27.287  1.00  0.00     0.028 H 
ATOM      3  H   UNL A   1      40.085  23.715  25.667  1.00  0.00     0.028 H 
ENDROOT
BRANCH   1   4
ATOM      4  C   UNL A   1      38.729  22.215  26.267  1.00  0.00     0.017 C 
ATOM      5  H   UNL A   1      39.172  21.242  26.274  1.00  0.00     0.049 H 
ATOM      6  H   UNL A   1      37.959  22.287  27.007  1.00  0.00     0.049 H 
BRANCH   4   7
ATOM      7  N   UNL A   1      38.136  22.454  24.967  1.00  0.00    -0.356 N 
ATOM      8  C   UNL A   1      37.102  23.277  24.621  1.00  0.00     0.224 C 
ATOM      9  O   UNL A   1      36.721  23.266  23.448  1.00  0.00    -0.275 OA
ATOM     10  H   UNL A   1      38.537  21.949  24.222  1.00  0.00     0.163 HD
BRANCH   8  11
ATOM     11  C   UNL A   1      36.507  24.246  25.633  1.00  0.00     0.054 C 
ATOM     12  H   UNL A   1      36.995  24.092  26.572  1.00  0.00     0.042 H 
ATOM     13  H   UNL A   1      36.661  25.232  25.247  1.00  0.00     0.042 H 
BRANCH  11  14
ATOM     14  C   UNL A   1      35.031  24.080  25.833  1.00  0.00    -0.010 A 
ATOM     15  C   UNL A   1      32.943  27.244  25.421  1.00  0.00     0.119 A 
ATOM     16  C   UNL A   1      31.706  26.635  25.601  1.00  0.00    -0.018 A 
ATOM     17  C   UNL A   1      34.107  26.479  25.436  1.00  0.00    -0.010 A 
ATOM     18  C   UNL A   1      31.608  25.249  25.819  1.00  0.00    -0.034 A 
ATOM     19  H   UNL A   1      30.848  27.207  25.574  1.00  0.00     0.066 H 
ATOM     20  C   UNL A   1      34.039  25.094  25.698  1.00  0.00     0.007 A 
ATOM     21  H   UNL A   1      35.021  26.925  25.255  1.00  0.00     0.067 H 
ATOM     22  C   UNL A   1      32.791  24.490  25.877  1.00  0.00     0.049 A 
ATOM     23  H   UNL A   1      30.687  24.799  25.934  1.00  0.00     0.065 H 
ATOM     24  N   UNL A   1      33.021  23.133  26.077  1.00  0.00    -0.340 N 
ATOM     25  C   UNL A   1      34.380  22.927  26.253  1.00  0.00     0.020 A 
BRANCH  15  26
ATOM     26  O   UNL A   1      33.112  28.575  25.148  1.00  0.00    -0.497 OA
BRANCH  26  27
ATOM     27  C   UNL A   1      32.078  29.151  24.356  1.00  0.00     0.078 C 
ATOM     28  H   UNL A   1      31.769  30.078  24.792  1.00  0.00     0.067 H 
ATOM     29  H   UNL A   1      31.245  28.481  24.315  1.00  0.00     0.067 H 
ATOM     30  H   UNL A   1      32.443  29.328  23.367  1.00  0.00     0.067 H 
ENDBRANCH  26  27
ENDBRANCH  15  26
BRANCH  24  31
ATOM     31  C   UNL A   1      31.971  22.110  26.176  1.00  0.00     0.048 C 
ATOM     32  H   UNL A   1      31.024  22.586  26.027  1.00  0.00     0.055 H 
ATOM     33  H   UNL A   1      32.069  21.665  27.144  1.00  0.00     0.055 H 
BRANCH  31  34
ATOM     34  C   UNL A   1      32.097  20.979  25.166  1.00  0.00    -0.021 A 
ATOM     35  C   UNL A   1      32.114  21.290  23.750  1.00  0.00    -0.040 A 
ATOM     36  C   UNL A   1      32.298  19.699  25.530  1.00  0.00     0.009 A 
ATOM     37  C   UNL A   1      32.209  20.325  22.827  1.00  0.00     0.013 A 
ATOM     38  H   UNL A   1      32.052  22.274  23.447  1.00  0.00     0.064 H 
ATOM     39  C   UNL A   1      32.485  18.613  24.516  1.00  0.00     0.255 A 
ATOM     40  H   UNL A   1      32.323  19.460  26.535  1.00  0.00     0.068 H 
ATOM     41  N   UNL A   1      32.355  19.001  23.189  1.00  0.00    -0.258 N 
ATOM     42  H   UNL A   1      32.173  20.576  21.827  1.00  0.00     0.082 H 
ATOM     43  O   UNL A   1      32.732  17.484  24.908  1.00  0.00    -0.269 OA
BRANCH  41  44
ATOM     44  C   UNL A   1      32.580  18.011  22.162  1.00  0.00     0.321 C 
ATOM     45  F   UNL A   1      32.472  18.567  20.932  1.00  0.00    -0.185 F 
ATOM     46  F   UNL A   1      33.800  17.435  22.250  1.00  0.00    -0.185 F 
ATOM     47  H   UNL A   1      31.833  17.262  22.311  1.00  0.00     0.131 H 
ENDBRANCH  41  44
ENDBRANCH  31  34
ENDBRANCH  24  31
BRANCH  25  48
ATOM     48  C   UNL A   1      35.006  21.668  26.749  1.00  0.00    -0.024 C 
ATOM     49  H   UNL A   1      34.855  21.588  27.806  1.00  0.00     0.030 H 
ATOM     50  H   UNL A   1      36.055  21.685  26.539  1.00  0.00     0.030 H 
ATOM     51  H   UNL A   1      34.557  20.830  26.260  1.00  0.00     0.030 H 
ENDBRANCH  25  48
ENDBRANCH  11  14
ENDBRANCH   8  11
ENDBRANCH   4   7
ENDBRANCH   1   4
BRANCH   1  52
ATOM     52  C   UNL A   1      41.076  22.649  27.199  1.00  0.00    -0.052 C 
ATOM     53  H   UNL A   1      40.914  21.600  27.332  1.00  0.00     0.027 H 
ATOM     54  H   UNL A   1      41.247  23.171  28.117  1.00  0.00     0.027 H 
BRANCH  52  55
ATOM     55  C   UNL A   1      42.344  22.834  26.356  1.00  0.00    -0.052 C 
ATOM     56  H   UNL A   1      42.247  22.239  25.472  1.00  0.00     0.027 H 
ATOM     57  H   UNL A   1      43.164  22.536  26.976  1.00  0.00     0.027 H 
BRANCH  55  58
ATOM     58  C   UNL A   1      42.628  24.279  25.929  1.00  0.00    -0.036 C 
ATOM     59  H   UNL A   1      41.795  24.886  26.215  1.00  0.00     0.028 H 
ATOM     60  H   UNL A   1      42.779  24.272  24.870  1.00  0.00     0.028 H 
BRANCH  58  61
ATOM     61  C   UNL A   1      43.891  24.860  26.559  1.00  0.00     0.018 C 
ATOM     62  H   UNL A   1      43.797  25.926  26.580  1.00  0.00     0.049 H 
ATOM     63  H   UNL A   1      44.716  24.534  25.959  1.00  0.00     0.049 H 
BRANCH  61  64
ATOM     64  N   UNL A   1      44.139  24.397  27.905  1.00  0.00    -0.352 N 
ATOM     65  C   UNL A   1      43.652  24.729  29.137  1.00  0.00     0.251 C 
ATOM     66  H   UNL A   1      44.813  23.680  27.942  1.00  0.00     0.163 HD
ATOM     67  O   UNL A   1      43.967  23.983  30.068  1.00  0.00    -0.269 OA
BRANCH  65  68
ATOM     68  C   UNL A   1      42.880  25.963  29.445  1.00  0.00     0.039 A 
ATOM     69  C   UNL A   1      41.729  26.399  28.790  1.00  0.00    -0.049 A 
ATOM     70  C   UNL A   1      43.444  26.790  30.435  1.00  0.00    -0.049 A 
ATOM     71  C   UNL A   1      41.255  27.689  28.989  1.00  0.00    -0.053 A 
ATOM     72  H   UNL A   1      41.226  25.760  28.154  1.00  0.00     0.063 H 
ATOM     73  C   UNL A   1      42.956  28.066  30.663  1.00  0.00    -0.053 A 
ATOM     74  H   UNL A   1      44.233  26.440  31.000  1.00  0.00     0.063 H 
ATOM     75  C   UNL A   1      41.912  28.540  29.877  1.00  0.00    -0.014 A 
ATOM     76  H   UNL A   1      40.418  28.018  28.480  1.00  0.00     0.063 H 
ATOM     77  H   UNL A   1      43.361  28.657  31.406  1.00  0.00     0.063 H 
BRANCH  75  78
ATOM     78  C   UNL A   1      41.428  29.908  30.008  1.00  0.00     0.031 A 
ATOM     79  C   UNL A   1      42.390  30.955  29.556  1.00  0.00     0.074 A 
ATOM     80  C   UNL A   1      40.169  30.181  30.410  1.00  0.00     0.049 A 
ATOM     81  N   UNL A   1      42.868  31.949  30.233  1.00  0.00    -0.248 NA
ATOM     82  C   UNL A   1      42.990  30.803  28.219  1.00  0.00    -0.034 C 
ATOM     83  C   UNL A   1      39.069  29.244  30.658  1.00  0.00    -0.036 A 
ATOM     84  N   UNL A   1      39.572  31.391  30.594  1.00  0.00    -0.354 N 
ATOM     85  C   UNL A   1      43.704  32.646  29.361  1.00  0.00     0.074 A 
ATOM     86  C   UNL A   1      43.839  31.831  28.182  1.00  0.00    -0.034 C 
ATOM     87  H   UNL A   1      42.800  30.090  27.499  1.00  0.00     0.065 H 
ATOM     88  C   UNL A   1      37.901  29.923  30.708  1.00  0.00    -0.036 A 
ATOM     89  H   UNL A   1      39.171  28.224  30.775  1.00  0.00     0.065 H 
ATOM     90  C   UNL A   1      38.183  31.345  30.635  1.00  0.00     0.049 A 
ATOM     91  H   UNL A   1      40.081  32.228  30.688  1.00  0.00     0.167 HD
ATOM     92  C   UNL A   1      44.073  33.934  29.597  1.00  0.00     0.037 A 
ATOM     93  H   UNL A   1      44.502  32.016  27.414  1.00  0.00     0.065 H 
ATOM     94  H   UNL A   1      36.962  29.500  30.785  1.00  0.00     0.065 H 
ATOM     95  C   UNL A   1      37.339  32.405  30.542  1.00  0.00     0.037 A 
ATOM     96  C   UNL A   1      43.895  34.292  30.976  1.00  0.00     0.049 A 
ATOM     97  C   UNL A   1      38.125  33.625  30.856  1.00  0.00     0.074 A 
ATOM     98  C   UNL A   1      44.461  33.865  32.160  1.00  0.00    -0.036 A 
ATOM     99  N   UNL A   1      42.762  34.979  31.328  1.00  0.00    -0.354 N 
ATOM    100  N   UNL A   1      38.594  33.891  32.045  1.00  0.00    -0.248 NA
ATOM    101  C   UNL A   1      38.800  34.290  29.750  1.00  0.00    -0.034 C 
ATOM    102  C   UNL A   1      43.392  33.879  33.102  1.00  0.00    -0.036 A 
ATOM    103  H   UNL A   1      45.443  33.595  32.329  1.00  0.00     0.065 H 
ATOM    104  C   UNL A   1      42.262  34.376  32.453  1.00  0.00     0.049 A 
ATOM    105  H   UNL A   1      42.380  35.758  30.861  1.00  0.00     0.167 HD
ATOM    106  C   UNL A   1      39.863  34.402  31.813  1.00  0.00     0.074 A 
ATOM    107  C   UNL A   1      39.911  34.681  30.379  1.00  0.00    -0.034 C 
ATOM    108  H   UNL A   1      38.505  34.420  28.769  1.00  0.00     0.065 H 
ATOM    109  H   UNL A   1      43.444  33.575  34.086  1.00  0.00     0.065 H 
ATOM    110  C   UNL A   1      40.853  34.277  32.743  1.00  0.00     0.037 A 
ATOM    111  H   UNL A   1      40.712  35.129  29.907  1.00  0.00     0.065 H 
BRANCH  92 112
ATOM    112  C   UNL A   1      44.281  34.967  28.521  1.00  0.00     0.064 A 
ATOM    113  C   UNL A   1      45.536  35.595  28.390  1.00  0.00     0.173 A 
ATOM    114  C   UNL A   1      43.216  35.580  27.827  1.00  0.00     0.173 A 
ATOM    115  F   UNL A   1      46.612  35.112  29.029  1.00  0.00    -0.203 F 
ATOM    116  C   UNL A   1      45.693  36.786  27.675  1.00  0.00     0.198 A 
ATOM    117  C   UNL A   1      43.387  36.737  27.071  1.00  0.00     0.198 A 
ATOM    118  F   UNL A   1      41.954  35.148  27.944  1.00  0.00    -0.203 F 
ATOM    119  F   UNL A   1      46.877  37.412  27.676  1.00  0.00    -0.200 F 
ATOM    120  C   UNL A   1      44.617  37.358  27.021  1.00  0.00     0.200 A 
ATOM    121  F   UNL A   1      42.327  37.290  26.465  1.00  0.00    -0.200 F 
ATOM    122  F   UNL A   1      44.751  38.530  26.386  1.00  0.00    -0.200 F 
ENDBRANCH  92 112
BRANCH  95 123
ATOM    123  C   UNL A   1      36.015  32.463  29.873  1.00  0.00     0.064 A 
ATOM    124  C   UNL A   1      35.072  33.450  30.201  1.00  0.00     0.173 A 
ATOM    125  C   UNL A   1      35.755  31.717  28.705  1.00  0.00     0.173 A 
ATOM    126  F   UNL A   1      35.268  34.243  31.265  1.00  0.00    -0.203 F 
ATOM    127  C   UNL A   1      33.946  33.687  29.402  1.00  0.00     0.198 A 
ATOM    128  C   UNL A   1      34.629  31.950  27.913  1.00  0.00     0.198 A 
ATOM    129  F   UNL A   1      36.637  30.812  28.257  1.00  0.00    -0.203 F 
ATOM    130  F   UNL A   1      33.098  34.677  29.717  1.00  0.00    -0.200 F 
ATOM    131  C   UNL A   1      33.731  32.942  28.254  1.00  0.00     0.200 A 
ATOM    132  F   UNL A   1      34.456  31.248  26.783  1.00  0.00    -0.200 F 
ATOM    133  F   UNL A   1      32.685  33.207  27.459  1.00  0.00    -0.200 F 
ENDBRANCH  95 123
BRANCH 110 134
ATOM    134  C   UNL A   1      40.487  33.758  34.104  1.00  0.00     0.064 A 
ATOM    135  C   UNL A   1      39.964  34.564  35.132  1.00  0.00     0.173 A 
ATOM    136  C   UNL A   1      40.481  32.372  34.306  1.00  0.00     0.173 A 
ATOM    137  F   UNL A   1      39.838  35.886  34.975  1.00  0.00    -0.203 F 
ATOM    138  C   UNL A   1      39.483  34.005  36.315  1.00  0.00     0.198 A 
ATOM    139  C   UNL A   1      39.967  31.814  35.474  1.00  0.00     0.198 A 
ATOM    140  F   UNL A   1      40.913  31.550  33.336  1.00  0.00    -0.203 F 
ATOM    141  F   UNL A   1      38.979  34.794  37.276  1.00  0.00    -0.200 F 
ATOM    142  C   UNL A   1      39.475  32.630  36.480  1.00  0.00     0.200 A 
ATOM    143  F   UNL A   1      39.909  30.482  35.604  1.00  0.00    -0.200 F 
ATOM    144  F   UNL A   1      38.957  32.088  37.591  1.00  0.00    -0.200 F 
ENDBRANCH 110 134
ENDBRANCH  75  78
ENDBRANCH  65  68
ENDBRANCH  61  64
ENDBRANCH  58  61
ENDBRANCH  55  58
ENDBRANCH  52  55
ENDBRANCH   1  52
TORSDOF 20
ENDMDL
