MODEL 1
REMARK VINA RESULT:     -12.1      0.000      0.000
REMARK SMILES [NH3+]Cc1c(-c2ccccc2)c(C(=O)NCCCCCCNC(=O)c2ccc(-c3c4nc(c(-c5c(F)c(F)c(F)c(F)c5F)c5ccc([nH]5)c(-c5c(F)c(F)c(F)c(F)c5F)c5nc(c(-c6c(F)c(F)c(F)c(F)c6F)c6ccc3[nH]6)C=C5)C=C4)cc2)c2ccccn12
REMARK SMILES IDX 17 1 16 4 15 7 14 10 12 11 13 12 11 14 3 15 4 16 92 17 87 18
REMARK SMILES IDX 91 19 88 20 90 21 89 23 2 27 1 30 5 34 6 35 10 36 7 37 9 39
REMARK SMILES IDX 8 41 18 45 19 48 20 51 21 54 22 55 23 57 24 58 25 59 86 60
REMARK SMILES IDX 26 61 85 63 27 65 28 68 29 69 79 70 30 71 84 72 78 73 80 74
REMARK SMILES IDX 31 75 83 76 77 78 76 80 32 82 64 85 44 86 63 87 45 88 48 89
REMARK SMILES IDX 62 90 81 91 46 92 47 94 61 96 82 97 49 100 33 102 34 103
REMARK SMILES IDX 42 104 35 105 36 106 40 107 43 108 37 109 38 110 41 111
REMARK SMILES IDX 39 112 65 113 66 114 74 115 67 116 68 117 72 118 75 119
REMARK SMILES IDX 69 120 70 121 73 122 71 123 50 124 51 125 59 126 52 127
REMARK SMILES IDX 53 128 57 129 60 130 54 131 55 132 58 133 56 134
REMARK H PARENT 17 2 17 3 16 5 16 6 15 8 15 9 14 13 91 22 88 24 90 25 89 26
REMARK H PARENT 2 28 2 29 1 31 1 32 1 33 6 38 10 40 7 42 9 43 8 44 18 46 18 47
REMARK H PARENT 19 49 19 50 20 52 20 53 21 56 25 62 86 64 26 66 85 67 84 77
REMARK H PARENT 78 79 80 81 83 83 77 84 45 93 48 95 81 98 46 99 82 101
REMARK Flexibility Score: inf
ROOT
ATOM      1  C   UNL A   1      31.774  29.669  26.854  1.00  0.00    -0.052 C 
ATOM      2  H   UNL A   1      31.278  29.832  27.788  1.00  0.00     0.027 H 
ATOM      3  H   UNL A   1      31.476  28.788  26.326  1.00  0.00     0.027 H 
ENDROOT
BRANCH   1   4
ATOM      4  C   UNL A   1      33.262  29.462  27.154  1.00  0.00    -0.036 C 
ATOM      5  H   UNL A   1      33.772  30.366  26.896  1.00  0.00     0.028 H 
ATOM      6  H   UNL A   1      33.300  29.200  28.192  1.00  0.00     0.028 H 
BRANCH   4   7
ATOM      7  C   UNL A   1      33.965  28.316  26.433  1.00  0.00     0.018 C 
ATOM      8  H   UNL A   1      34.822  28.039  27.011  1.00  0.00     0.049 H 
ATOM      9  H   UNL A   1      33.238  27.536  26.340  1.00  0.00     0.049 H 
BRANCH   7  10
ATOM     10  N   UNL A   1      34.408  28.607  25.091  1.00  0.00    -0.352 N 
ATOM     11  C   UNL A   1      33.803  28.383  23.871  1.00  0.00     0.254 C 
ATOM     12  O   UNL A   1      34.396  28.830  22.889  1.00  0.00    -0.269 OA
ATOM     13  H   UNL A   1      35.291  29.040  25.036  1.00  0.00     0.163 HD
BRANCH  11  14
ATOM     14  C   UNL A   1      32.575  27.582  23.735  1.00  0.00     0.073 A 
ATOM     15  C   UNL A   1      31.155  25.753  23.848  1.00  0.00     0.086 A 
ATOM     16  C   UNL A   1      32.490  26.159  23.938  1.00  0.00     0.022 A 
ATOM     17  N   UNL A   1      30.420  26.897  23.575  1.00  0.00    -0.314 N 
ATOM     18  C   UNL A   1      31.309  27.942  23.288  1.00  0.00     0.059 A 
ATOM     19  C   UNL A   1      29.032  27.095  23.548  1.00  0.00     0.009 A 
ATOM     20  C   UNL A   1      30.750  29.109  22.678  1.00  0.00    -0.037 A 
ATOM     21  C   UNL A   1      28.516  28.260  23.127  1.00  0.00    -0.045 A 
ATOM     22  H   UNL A   1      28.400  26.338  23.854  1.00  0.00     0.082 H 
ATOM     23  C   UNL A   1      29.416  29.278  22.630  1.00  0.00    -0.059 A 
ATOM     24  H   UNL A   1      31.372  29.824  22.273  1.00  0.00     0.065 H 
ATOM     25  H   UNL A   1      27.499  28.428  23.158  1.00  0.00     0.064 H 
ATOM     26  H   UNL A   1      29.029  30.147  22.231  1.00  0.00     0.062 H 
BRANCH  15  27
ATOM     27  C   UNL A   1      30.620  24.364  24.068  1.00  0.00     0.116 C 
ATOM     28  H   UNL A   1      29.732  24.260  23.480  1.00  0.00     0.099 H 
ATOM     29  H   UNL A   1      31.415  23.704  23.789  1.00  0.00     0.099 H 
BRANCH  27  30
ATOM     30  N   UNL A   1      30.286  24.012  25.438  1.00  0.00    -0.353 N 
ATOM     31  H   UNL A   1      29.272  23.970  25.540  1.00  0.00     0.344 HD
ATOM     32  H   UNL A   1      30.664  24.716  26.071  1.00  0.00     0.344 HD
ATOM     33  H   UNL A   1      30.689  23.102  25.663  1.00  0.00     0.344 HD
ENDBRANCH  27  30
ENDBRANCH  15  27
BRANCH  16  34
ATOM     34  C   UNL A   1      33.567  25.215  24.207  1.00  0.00    -0.016 A 
ATOM     35  C   UNL A   1      34.017  24.987  25.510  1.00  0.00    -0.054 A 
ATOM     36  C   UNL A   1      34.161  24.525  23.141  1.00  0.00    -0.054 A 
ATOM     37  C   UNL A   1      35.045  24.069  25.742  1.00  0.00    -0.062 A 
ATOM     38  H   UNL A   1      33.590  25.494  26.300  1.00  0.00     0.063 H 
ATOM     39  C   UNL A   1      35.181  23.603  23.376  1.00  0.00    -0.062 A 
ATOM     40  H   UNL A   1      33.840  24.701  22.175  1.00  0.00     0.063 H 
ATOM     41  C   UNL A   1      35.622  23.376  24.676  1.00  0.00    -0.062 A 
ATOM     42  H   UNL A   1      35.379  23.902  26.704  1.00  0.00     0.062 H 
ATOM     43  H   UNL A   1      35.607  23.090  22.588  1.00  0.00     0.062 H 
ATOM     44  H   UNL A   1      36.377  22.694  24.853  1.00  0.00     0.062 H 
ENDBRANCH  16  34
ENDBRANCH  11  14
ENDBRANCH   7  10
ENDBRANCH   4   7
ENDBRANCH   1   4
BRANCH   1  45
ATOM     45  C   UNL A   1      31.398  30.828  25.926  1.00  0.00    -0.052 C 
ATOM     46  H   UNL A   1      30.448  30.598  25.491  1.00  0.00     0.027 H 
ATOM     47  H   UNL A   1      32.208  30.902  25.231  1.00  0.00     0.027 H 
BRANCH  45  48
ATOM     48  C   UNL A   1      31.292  32.218  26.559  1.00  0.00    -0.036 C 
ATOM     49  H   UNL A   1      30.742  32.120  27.470  1.00  0.00     0.028 H 
ATOM     50  H   UNL A   1      30.818  32.832  25.821  1.00  0.00     0.028 H 
BRANCH  48  51
ATOM     51  C   UNL A   1      32.609  32.912  26.882  1.00  0.00     0.018 C 
ATOM     52  H   UNL A   1      33.147  33.063  25.969  1.00  0.00     0.049 H 
ATOM     53  H   UNL A   1      33.143  32.283  27.563  1.00  0.00     0.049 H 
BRANCH  51  54
ATOM     54  N   UNL A   1      32.432  34.198  27.531  1.00  0.00    -0.352 N 
ATOM     55  C   UNL A   1      33.070  34.729  28.623  1.00  0.00     0.251 C 
ATOM     56  H   UNL A   1      31.749  34.779  27.125  1.00  0.00     0.163 HD
ATOM     57  O   UNL A   1      32.680  35.788  29.102  1.00  0.00    -0.269 OA
BRANCH  55  58
ATOM     58  C   UNL A   1      34.216  34.025  29.245  1.00  0.00     0.039 A 
ATOM     59  C   UNL A   1      35.510  34.464  28.945  1.00  0.00    -0.049 A 
ATOM     60  C   UNL A   1      34.034  32.917  30.077  1.00  0.00    -0.049 A 
ATOM     61  C   UNL A   1      36.614  33.817  29.507  1.00  0.00    -0.053 A 
ATOM     62  H   UNL A   1      35.650  35.265  28.311  1.00  0.00     0.063 H 
ATOM     63  C   UNL A   1      35.130  32.325  30.701  1.00  0.00    -0.053 A 
ATOM     64  H   UNL A   1      33.087  32.538  30.229  1.00  0.00     0.063 H 
ATOM     65  C   UNL A   1      36.433  32.752  30.405  1.00  0.00    -0.014 A 
ATOM     66  H   UNL A   1      37.567  34.122  29.259  1.00  0.00     0.063 H 
ATOM     67  H   UNL A   1      34.983  31.566  31.384  1.00  0.00     0.063 H 
BRANCH  65  68
ATOM     68  C   UNL A   1      37.600  32.056  31.006  1.00  0.00     0.031 A 
ATOM     69  C   UNL A   1      38.057  32.408  32.397  1.00  0.00     0.074 A 
ATOM     70  C   UNL A   1      38.270  31.130  30.291  1.00  0.00     0.049 A 
ATOM     71  N   UNL A   1      39.064  31.932  33.085  1.00  0.00    -0.248 NA
ATOM     72  C   UNL A   1      37.297  33.455  33.096  1.00  0.00    -0.034 C 
ATOM     73  C   UNL A   1      37.956  30.734  28.918  1.00  0.00    -0.036 A 
ATOM     74  N   UNL A   1      39.353  30.357  30.622  1.00  0.00    -0.354 N 
ATOM     75  C   UNL A   1      39.062  32.627  34.288  1.00  0.00     0.074 A 
ATOM     76  C   UNL A   1      37.998  33.603  34.210  1.00  0.00    -0.034 C 
ATOM     77  H   UNL A   1      36.440  33.947  32.798  1.00  0.00     0.065 H 
ATOM     78  C   UNL A   1      38.808  29.770  28.534  1.00  0.00    -0.036 A 
ATOM     79  H   UNL A   1      37.201  31.131  28.338  1.00  0.00     0.065 H 
ATOM     80  C   UNL A   1      39.748  29.505  29.618  1.00  0.00     0.049 A 
ATOM     81  H   UNL A   1      39.806  30.406  31.495  1.00  0.00     0.167 HD
ATOM     82  C   UNL A   1      39.857  32.450  35.371  1.00  0.00     0.037 A 
ATOM     83  H   UNL A   1      37.809  34.319  34.929  1.00  0.00     0.065 H 
ATOM     84  H   UNL A   1      38.799  29.292  27.619  1.00  0.00     0.065 H 
ATOM     85  C   UNL A   1      40.756  28.612  29.580  1.00  0.00     0.037 A 
ATOM     86  C   UNL A   1      40.903  31.463  35.453  1.00  0.00     0.049 A 
ATOM     87  C   UNL A   1      41.625  28.435  30.797  1.00  0.00     0.074 A 
ATOM     88  C   UNL A   1      41.732  31.170  36.522  1.00  0.00    -0.036 A 
ATOM     89  N   UNL A   1      41.263  30.607  34.422  1.00  0.00    -0.354 N 
ATOM     90  N   UNL A   1      41.570  29.051  31.953  1.00  0.00    -0.248 NA
ATOM     91  C   UNL A   1      42.687  27.425  30.706  1.00  0.00    -0.034 C 
ATOM     92  C   UNL A   1      42.629  30.173  36.120  1.00  0.00    -0.036 A 
ATOM     93  H   UNL A   1      41.696  31.610  37.455  1.00  0.00     0.065 H 
ATOM     94  C   UNL A   1      42.316  29.800  34.822  1.00  0.00     0.049 A 
ATOM     95  H   UNL A   1      40.834  30.578  33.536  1.00  0.00     0.167 HD
ATOM     96  C   UNL A   1      42.566  28.482  32.736  1.00  0.00     0.074 A 
ATOM     97  C   UNL A   1      43.193  27.456  31.930  1.00  0.00    -0.034 C 
ATOM     98  H   UNL A   1      42.965  26.842  29.900  1.00  0.00     0.065 H 
ATOM     99  H   UNL A   1      43.393  29.782  36.693  1.00  0.00     0.065 H 
ATOM    100  C   UNL A   1      42.928  28.779  34.009  1.00  0.00     0.037 A 
ATOM    101  H   UNL A   1      43.941  26.828  32.265  1.00  0.00     0.065 H 
BRANCH  82 102
ATOM    102  C   UNL A   1      39.625  33.345  36.556  1.00  0.00     0.064 A 
ATOM    103  C   UNL A   1      38.750  32.984  37.594  1.00  0.00     0.173 A 
ATOM    104  C   UNL A   1      40.304  34.567  36.671  1.00  0.00     0.173 A 
ATOM    105  F   UNL A   1      38.066  31.831  37.531  1.00  0.00    -0.203 F 
ATOM    106  C   UNL A   1      38.537  33.828  38.681  1.00  0.00     0.198 A 
ATOM    107  C   UNL A   1      40.115  35.393  37.778  1.00  0.00     0.198 A 
ATOM    108  F   UNL A   1      41.155  34.962  35.713  1.00  0.00    -0.203 F 
ATOM    109  F   UNL A   1      37.654  33.486  39.628  1.00  0.00    -0.200 F 
ATOM    110  C   UNL A   1      39.226  35.028  38.776  1.00  0.00     0.200 A 
ATOM    111  F   UNL A   1      40.792  36.546  37.875  1.00  0.00    -0.200 F 
ATOM    112  F   UNL A   1      39.025  35.836  39.826  1.00  0.00    -0.200 F 
ENDBRANCH  82 102
BRANCH  85 113
ATOM    113  C   UNL A   1      40.979  27.792  28.359  1.00  0.00     0.064 A 
ATOM    114  C   UNL A   1      40.356  26.545  28.204  1.00  0.00     0.173 A 
ATOM    115  C   UNL A   1      41.830  28.226  27.334  1.00  0.00     0.173 A 
ATOM    116  F   UNL A   1      39.548  26.076  29.167  1.00  0.00    -0.203 F 
ATOM    117  C   UNL A   1      40.598  25.752  27.084  1.00  0.00     0.198 A 
ATOM    118  C   UNL A   1      42.046  27.448  26.198  1.00  0.00     0.198 A 
ATOM    119  F   UNL A   1      42.446  29.414  27.428  1.00  0.00    -0.203 F 
ATOM    120  F   UNL A   1      40.033  24.541  26.989  1.00  0.00    -0.200 F 
ATOM    121  C   UNL A   1      41.439  26.206  26.079  1.00  0.00     0.200 A 
ATOM    122  F   UNL A   1      42.847  27.898  25.222  1.00  0.00    -0.200 F 
ATOM    123  F   UNL A   1      41.671  25.445  25.002  1.00  0.00    -0.200 F 
ENDBRANCH  85 113
BRANCH 100 124
ATOM    124  C   UNL A   1      44.024  27.952  34.622  1.00  0.00     0.064 A 
ATOM    125  C   UNL A   1      43.760  26.743  35.282  1.00  0.00     0.173 A 
ATOM    126  C   UNL A   1      45.359  28.374  34.535  1.00  0.00     0.173 A 
ATOM    127  F   UNL A   1      42.500  26.300  35.404  1.00  0.00    -0.203 F 
ATOM    128  C   UNL A   1      44.788  26.010  35.871  1.00  0.00     0.198 A 
ATOM    129  C   UNL A   1      46.388  27.620  35.093  1.00  0.00     0.198 A 
ATOM    130  F   UNL A   1      45.670  29.517  33.906  1.00  0.00    -0.203 F 
ATOM    131  F   UNL A   1      44.503  24.894  36.557  1.00  0.00    -0.200 F 
ATOM    132  C   UNL A   1      46.100  26.445  35.773  1.00  0.00     0.200 A 
ATOM    133  F   UNL A   1      47.658  28.034  34.981  1.00  0.00    -0.200 F 
ATOM    134  F   UNL A   1      47.087  25.739  36.341  1.00  0.00    -0.200 F 
ENDBRANCH 100 124
ENDBRANCH  65  68
ENDBRANCH  55  58
ENDBRANCH  51  54
ENDBRANCH  48  51
ENDBRANCH  45  48
ENDBRANCH   1  45
TORSDOF 16
ENDMDL
MODEL 2
REMARK VINA RESULT:     -12.1      0.200      1.331
REMARK SMILES [NH3+]Cc1c(-c2ccccc2)c(C(=O)NCCCCCCNC(=O)c2ccc(-c3c4nc(c(-c5c(F)c(F)c(F)c(F)c5F)c5ccc([nH]5)c(-c5c(F)c(F)c(F)c(F)c5F)c5nc(c(-c6c(F)c(F)c(F)c(F)c6F)c6ccc3[nH]6)C=C5)C=C4)cc2)c2ccccn12
REMARK SMILES IDX 17 1 16 4 15 7 14 10 12 11 13 12 11 14 3 15 4 16 92 17 87 18
REMARK SMILES IDX 91 19 88 20 90 21 89 23 2 27 1 30 5 34 6 35 10 36 7 37 9 39
REMARK SMILES IDX 8 41 18 45 19 48 20 51 21 54 22 55 23 57 24 58 25 59 86 60
REMARK SMILES IDX 26 61 85 63 27 65 28 68 29 69 79 70 30 71 84 72 78 73 80 74
REMARK SMILES IDX 31 75 83 76 77 78 76 80 32 82 64 85 44 86 63 87 45 88 48 89
REMARK SMILES IDX 62 90 81 91 46 92 47 94 61 96 82 97 49 100 33 102 34 103
REMARK SMILES IDX 42 104 35 105 36 106 40 107 43 108 37 109 38 110 41 111
REMARK SMILES IDX 39 112 65 113 66 114 74 115 67 116 68 117 72 118 75 119
REMARK SMILES IDX 69 120 70 121 73 122 71 123 50 124 51 125 59 126 52 127
REMARK SMILES IDX 53 128 57 129 60 130 54 131 55 132 58 133 56 134
REMARK H PARENT 17 2 17 3 16 5 16 6 15 8 15 9 14 13 91 22 88 24 90 25 89 26
REMARK H PARENT 2 28 2 29 1 31 1 32 1 33 6 38 10 40 7 42 9 43 8 44 18 46 18 47
REMARK H PARENT 19 49 19 50 20 52 20 53 21 56 25 62 86 64 26 66 85 67 84 77
REMARK H PARENT 78 79 80 81 83 83 77 84 45 93 48 95 81 98 46 99 82 101
REMARK Flexibility Score: inf
ROOT
ATOM      1  C   UNL A   1      31.778  29.725  26.876  1.00  0.00    -0.052 C 
ATOM      2  H   UNL A   1      31.289  29.913  27.810  1.00  0.00     0.027 H 
ATOM      3  H   UNL A   1      31.470  28.834  26.371  1.00  0.00     0.027 H 
ENDROOT
BRANCH   1   4
ATOM      4  C   UNL A   1      33.266  29.514  27.171  1.00  0.00    -0.036 C 
ATOM      5  H   UNL A   1      33.784  30.398  26.863  1.00  0.00     0.028 H 
ATOM      6  H   UNL A   1      33.313  29.302  28.219  1.00  0.00     0.028 H 
BRANCH   4   7
ATOM      7  C   UNL A   1      33.947  28.325  26.498  1.00  0.00     0.018 C 
ATOM      8  H   UNL A   1      34.811  28.070  27.077  1.00  0.00     0.049 H 
ATOM      9  H   UNL A   1      33.212  27.549  26.456  1.00  0.00     0.049 H 
BRANCH   7  10
ATOM     10  N   UNL A   1      34.372  28.543  25.137  1.00  0.00    -0.352 N 
ATOM     11  C   UNL A   1      33.775  28.208  23.939  1.00  0.00     0.254 C 
ATOM     12  O   UNL A   1      34.344  28.612  22.925  1.00  0.00    -0.269 OA
ATOM     13  H   UNL A   1      35.235  29.011  25.047  1.00  0.00     0.163 HD
BRANCH  11  14
ATOM     14  C   UNL A   1      32.586  27.344  23.866  1.00  0.00     0.073 A 
ATOM     15  C   UNL A   1      31.272  25.442  24.043  1.00  0.00     0.086 A 
ATOM     16  C   UNL A   1      32.586  25.918  24.061  1.00  0.00     0.022 A 
ATOM     17  N   UNL A   1      30.463  26.548  23.822  1.00  0.00    -0.314 N 
ATOM     18  C   UNL A   1      31.279  27.640  23.495  1.00  0.00     0.059 A 
ATOM     19  C   UNL A   1      29.067  26.672  23.876  1.00  0.00     0.009 A 
ATOM     20  C   UNL A   1      30.625  28.779  22.928  1.00  0.00    -0.037 A 
ATOM     21  C   UNL A   1      28.468  27.811  23.496  1.00  0.00    -0.045 A 
ATOM     22  H   UNL A   1      28.495  25.881  24.211  1.00  0.00     0.082 H 
ATOM     23  C   UNL A   1      29.284  28.878  22.957  1.00  0.00    -0.059 A 
ATOM     24  H   UNL A   1      31.185  29.529  22.495  1.00  0.00     0.065 H 
ATOM     25  H   UNL A   1      27.447  27.925  23.586  1.00  0.00     0.064 H 
ATOM     26  H   UNL A   1      28.830  29.728  22.589  1.00  0.00     0.062 H 
BRANCH  15  27
ATOM     27  C   UNL A   1      30.823  24.025  24.280  1.00  0.00     0.116 C 
ATOM     28  H   UNL A   1      30.054  23.804  23.570  1.00  0.00     0.099 H 
ATOM     29  H   UNL A   1      31.705  23.427  24.178  1.00  0.00     0.099 H 
BRANCH  27  30
ATOM     30  N   UNL A   1      30.303  23.728  25.603  1.00  0.00    -0.353 N 
ATOM     31  H   UNL A   1      31.057  23.377  26.193  1.00  0.00     0.344 HD
ATOM     32  H   UNL A   1      29.570  23.023  25.530  1.00  0.00     0.344 HD
ATOM     33  H   UNL A   1      29.917  24.577  26.015  1.00  0.00     0.344 HD
ENDBRANCH  27  30
ENDBRANCH  15  27
BRANCH  16  34
ATOM     34  C   UNL A   1      33.725  25.030  24.259  1.00  0.00    -0.016 A 
ATOM     35  C   UNL A   1      34.275  24.313  23.193  1.00  0.00    -0.054 A 
ATOM     36  C   UNL A   1      34.277  24.893  25.541  1.00  0.00    -0.054 A 
ATOM     37  C   UNL A   1      35.372  23.476  23.408  1.00  0.00    -0.062 A 
ATOM     38  H   UNL A   1      33.871  24.403  22.248  1.00  0.00     0.063 H 
ATOM     39  C   UNL A   1      35.378  24.064  25.751  1.00  0.00    -0.062 A 
ATOM     40  H   UNL A   1      33.865  25.411  26.334  1.00  0.00     0.063 H 
ATOM     41  C   UNL A   1      35.925  23.355  24.685  1.00  0.00    -0.062 A 
ATOM     42  H   UNL A   1      35.777  22.945  22.621  1.00  0.00     0.062 H 
ATOM     43  H   UNL A   1      35.787  23.976  26.695  1.00  0.00     0.062 H 
ATOM     44  H   UNL A   1      36.741  22.740  24.837  1.00  0.00     0.062 H 
ENDBRANCH  16  34
ENDBRANCH  11  14
ENDBRANCH   7  10
ENDBRANCH   4   7
ENDBRANCH   1   4
BRANCH   1  45
ATOM     45  C   UNL A   1      31.403  30.865  25.925  1.00  0.00    -0.052 C 
ATOM     46  H   UNL A   1      30.459  30.621  25.485  1.00  0.00     0.027 H 
ATOM     47  H   UNL A   1      32.219  30.931  25.235  1.00  0.00     0.027 H 
BRANCH  45  48
ATOM     48  C   UNL A   1      31.283  32.265  26.531  1.00  0.00    -0.036 C 
ATOM     49  H   UNL A   1      30.654  32.194  27.393  1.00  0.00     0.028 H 
ATOM     50  H   UNL A   1      30.891  32.882  25.749  1.00  0.00     0.028 H 
BRANCH  48  51
ATOM     51  C   UNL A   1      32.586  32.927  26.959  1.00  0.00     0.018 C 
ATOM     52  H   UNL A   1      33.189  33.085  26.090  1.00  0.00     0.049 H 
ATOM     53  H   UNL A   1      33.059  32.274  27.663  1.00  0.00     0.049 H 
BRANCH  51  54
ATOM     54  N   UNL A   1      32.387  34.203  27.622  1.00  0.00    -0.352 N 
ATOM     55  C   UNL A   1      33.042  34.749  28.697  1.00  0.00     0.251 C 
ATOM     56  H   UNL A   1      31.673  34.763  27.241  1.00  0.00     0.163 HD
ATOM     57  O   UNL A   1      32.632  35.792  29.195  1.00  0.00    -0.269 OA
BRANCH  55  58
ATOM     58  C   UNL A   1      34.229  34.080  29.278  1.00  0.00     0.039 A 
ATOM     59  C   UNL A   1      34.028  33.014  30.161  1.00  0.00    -0.049 A 
ATOM     60  C   UNL A   1      35.527  34.515  29.000  1.00  0.00    -0.049 A 
ATOM     61  C   UNL A   1      35.125  32.367  30.735  1.00  0.00    -0.053 A 
ATOM     62  H   UNL A   1      33.070  32.706  30.389  1.00  0.00     0.063 H 
ATOM     63  C   UNL A   1      36.622  33.818  29.507  1.00  0.00    -0.053 A 
ATOM     64  H   UNL A   1      35.675  35.355  28.418  1.00  0.00     0.063 H 
ATOM     65  C   UNL A   1      36.433  32.751  30.398  1.00  0.00    -0.014 A 
ATOM     66  H   UNL A   1      34.973  31.603  31.411  1.00  0.00     0.063 H 
ATOM     67  H   UNL A   1      37.577  34.089  29.226  1.00  0.00     0.063 H 
BRANCH  65  68
ATOM     68  C   UNL A   1      37.607  32.072  31.005  1.00  0.00     0.031 A 
ATOM     69  C   UNL A   1      38.073  32.453  32.384  1.00  0.00     0.074 A 
ATOM     70  C   UNL A   1      38.275  31.133  30.305  1.00  0.00     0.049 A 
ATOM     71  N   UNL A   1      39.087  31.995  33.076  1.00  0.00    -0.248 NA
ATOM     72  C   UNL A   1      37.314  33.512  33.068  1.00  0.00    -0.034 C 
ATOM     73  C   UNL A   1      37.953  30.708  28.942  1.00  0.00    -0.036 A 
ATOM     74  N   UNL A   1      39.364  30.371  30.643  1.00  0.00    -0.354 N 
ATOM     75  C   UNL A   1      39.091  32.716  34.264  1.00  0.00     0.074 A 
ATOM     76  C   UNL A   1      38.023  33.686  34.173  1.00  0.00    -0.034 C 
ATOM     77  H   UNL A   1      36.453  33.995  32.766  1.00  0.00     0.065 H 
ATOM     78  C   UNL A   1      38.806  29.739  28.572  1.00  0.00    -0.036 A 
ATOM     79  H   UNL A   1      37.192  31.090  28.360  1.00  0.00     0.065 H 
ATOM     80  C   UNL A   1      39.755  29.501  29.654  1.00  0.00     0.049 A 
ATOM     81  H   UNL A   1      39.823  30.440  31.511  1.00  0.00     0.167 HD
ATOM     82  C   UNL A   1      39.895  32.564  35.344  1.00  0.00     0.037 A 
ATOM     83  H   UNL A   1      37.836  34.416  34.879  1.00  0.00     0.065 H 
ATOM     84  H   UNL A   1      38.792  29.243  27.667  1.00  0.00     0.065 H 
ATOM     85  C   UNL A   1      40.765  28.610  29.627  1.00  0.00     0.037 A 
ATOM     86  C   UNL A   1      40.945  31.583  35.439  1.00  0.00     0.049 A 
ATOM     87  C   UNL A   1      41.644  28.461  30.841  1.00  0.00     0.074 A 
ATOM     88  C   UNL A   1      41.783  31.314  36.507  1.00  0.00    -0.036 A 
ATOM     89  N   UNL A   1      41.300  30.707  34.423  1.00  0.00    -0.354 N 
ATOM     90  N   UNL A   1      41.596  29.101  31.984  1.00  0.00    -0.248 NA
ATOM     91  C   UNL A   1      42.709  27.453  30.763  1.00  0.00    -0.034 C 
ATOM     92  C   UNL A   1      42.680  30.312  36.120  1.00  0.00    -0.036 A 
ATOM     93  H   UNL A   1      41.751  31.773  37.431  1.00  0.00     0.065 H 
ATOM     94  C   UNL A   1      42.359  29.911  34.832  1.00  0.00     0.049 A 
ATOM     95  H   UNL A   1      40.865  30.658  33.541  1.00  0.00     0.167 HD
ATOM     96  C   UNL A   1      42.599  28.551  32.772  1.00  0.00     0.074 A 
ATOM     97  C   UNL A   1      43.224  27.511  31.982  1.00  0.00    -0.034 C 
ATOM     98  H   UNL A   1      42.984  26.855  29.968  1.00  0.00     0.065 H 
ATOM     99  H   UNL A   1      43.450  29.936  36.695  1.00  0.00     0.065 H 
ATOM    100  C   UNL A   1      42.969  28.876  34.036  1.00  0.00     0.037 A 
ATOM    101  H   UNL A   1      43.976  26.893  32.325  1.00  0.00     0.065 H 
BRANCH  82 102
ATOM    102  C   UNL A   1      39.667  33.482  36.512  1.00  0.00     0.064 A 
ATOM    103  C   UNL A   1      38.829  33.124  37.581  1.00  0.00     0.173 A 
ATOM    104  C   UNL A   1      40.315  34.724  36.580  1.00  0.00     0.173 A 
ATOM    105  F   UNL A   1      38.176  31.953  37.564  1.00  0.00    -0.203 F 
ATOM    106  C   UNL A   1      38.621  33.989  38.652  1.00  0.00     0.198 A 
ATOM    107  C   UNL A   1      40.132  35.573  37.670  1.00  0.00     0.198 A 
ATOM    108  F   UNL A   1      41.132  35.117  35.590  1.00  0.00    -0.203 F 
ATOM    109  F   UNL A   1      37.770  33.649  39.630  1.00  0.00    -0.200 F 
ATOM    110  C   UNL A   1      39.278  35.210  38.699  1.00  0.00     0.200 A 
ATOM    111  F   UNL A   1      40.779  36.745  37.720  1.00  0.00    -0.200 F 
ATOM    112  F   UNL A   1      39.081  36.039  39.734  1.00  0.00    -0.200 F 
ENDBRANCH  82 102
BRANCH  85 113
ATOM    113  C   UNL A   1      40.983  27.766  28.422  1.00  0.00     0.064 A 
ATOM    114  C   UNL A   1      41.862  28.171  27.407  1.00  0.00     0.173 A 
ATOM    115  C   UNL A   1      40.305  26.552  28.248  1.00  0.00     0.173 A 
ATOM    116  F   UNL A   1      42.519  29.336  27.516  1.00  0.00    -0.203 F 
ATOM    117  C   UNL A   1      42.034  27.408  26.254  1.00  0.00     0.198 A 
ATOM    118  C   UNL A   1      40.502  25.772  27.111  1.00  0.00     0.198 A 
ATOM    119  F   UNL A   1      39.457  26.114  29.191  1.00  0.00    -0.203 F 
ATOM    120  F   UNL A   1      42.838  27.847  25.276  1.00  0.00    -0.200 F 
ATOM    121  C   UNL A   1      41.358  26.206  26.109  1.00  0.00     0.200 A 
ATOM    122  F   UNL A   1      39.859  24.603  26.981  1.00  0.00    -0.200 F 
ATOM    123  F   UNL A   1      41.524  25.471  25.001  1.00  0.00    -0.200 F 
ENDBRANCH  85 113
BRANCH 100 124
ATOM    124  C   UNL A   1      44.072  28.066  34.657  1.00  0.00     0.064 A 
ATOM    125  C   UNL A   1      43.816  26.878  35.357  1.00  0.00     0.173 A 
ATOM    126  C   UNL A   1      45.407  28.483  34.539  1.00  0.00     0.173 A 
ATOM    127  F   UNL A   1      42.558  26.441  35.510  1.00  0.00    -0.203 F 
ATOM    128  C   UNL A   1      44.851  26.161  35.954  1.00  0.00     0.198 A 
ATOM    129  C   UNL A   1      46.443  27.743  35.105  1.00  0.00     0.198 A 
ATOM    130  F   UNL A   1      45.710  29.606  33.871  1.00  0.00    -0.203 F 
ATOM    131  F   UNL A   1      44.575  25.067  36.677  1.00  0.00    -0.200 F 
ATOM    132  C   UNL A   1      46.163  26.591  35.823  1.00  0.00     0.200 A 
ATOM    133  F   UNL A   1      47.711  28.151  34.962  1.00  0.00    -0.200 F 
ATOM    134  F   UNL A   1      47.157  25.900  36.399  1.00  0.00    -0.200 F 
ENDBRANCH 100 124
ENDBRANCH  65  68
ENDBRANCH  55  58
ENDBRANCH  51  54
ENDBRANCH  48  51
ENDBRANCH  45  48
ENDBRANCH   1  45
TORSDOF 16
ENDMDL
MODEL 3
REMARK VINA RESULT:     -12.1      0.080      1.722
REMARK SMILES [NH3+]Cc1c(-c2ccccc2)c(C(=O)NCCCCCCNC(=O)c2ccc(-c3c4nc(c(-c5c(F)c(F)c(F)c(F)c5F)c5ccc([nH]5)c(-c5c(F)c(F)c(F)c(F)c5F)c5nc(c(-c6c(F)c(F)c(F)c(F)c6F)c6ccc3[nH]6)C=C5)C=C4)cc2)c2ccccn12
REMARK SMILES IDX 17 1 16 4 15 7 14 10 12 11 13 12 11 14 3 15 4 16 92 17 87 18
REMARK SMILES IDX 91 19 88 20 90 21 89 23 2 27 1 30 5 34 6 35 10 36 7 37 9 39
REMARK SMILES IDX 8 41 18 45 19 48 20 51 21 54 22 55 23 57 24 58 25 59 86 60
REMARK SMILES IDX 26 61 85 63 27 65 28 68 29 69 79 70 30 71 84 72 78 73 80 74
REMARK SMILES IDX 31 75 83 76 77 78 76 80 32 82 64 85 44 86 63 87 45 88 48 89
REMARK SMILES IDX 62 90 81 91 46 92 47 94 61 96 82 97 49 100 33 102 34 103
REMARK SMILES IDX 42 104 35 105 36 106 40 107 43 108 37 109 38 110 41 111
REMARK SMILES IDX 39 112 65 113 66 114 74 115 67 116 68 117 72 118 75 119
REMARK SMILES IDX 69 120 70 121 73 122 71 123 50 124 51 125 59 126 52 127
REMARK SMILES IDX 53 128 57 129 60 130 54 131 55 132 58 133 56 134
REMARK H PARENT 17 2 17 3 16 5 16 6 15 8 15 9 14 13 91 22 88 24 90 25 89 26
REMARK H PARENT 2 28 2 29 1 31 1 32 1 33 6 38 10 40 7 42 9 43 8 44 18 46 18 47
REMARK H PARENT 19 49 19 50 20 52 20 53 21 56 25 62 86 64 26 66 85 67 84 77
REMARK H PARENT 78 79 80 81 83 83 77 84 45 93 48 95 81 98 46 99 82 101
REMARK Flexibility Score: inf
ROOT
ATOM      1  C   UNL A   1      31.780  29.736  26.841  1.00  0.00    -0.052 C 
ATOM      2  H   UNL A   1      31.314  29.922  27.787  1.00  0.00     0.027 H 
ATOM      3  H   UNL A   1      31.449  28.853  26.335  1.00  0.00     0.027 H 
ENDROOT
BRANCH   1   4
ATOM      4  C   UNL A   1      33.271  29.502  27.103  1.00  0.00    -0.036 C 
ATOM      5  H   UNL A   1      33.794  30.384  26.797  1.00  0.00     0.028 H 
ATOM      6  H   UNL A   1      33.336  29.275  28.147  1.00  0.00     0.028 H 
BRANCH   4   7
ATOM      7  C   UNL A   1      33.923  28.314  26.400  1.00  0.00     0.018 C 
ATOM      8  H   UNL A   1      34.754  27.996  26.994  1.00  0.00     0.049 H 
ATOM      9  H   UNL A   1      33.156  27.574  26.300  1.00  0.00     0.049 H 
BRANCH   7  10
ATOM     10  N   UNL A   1      34.404  28.572  25.064  1.00  0.00    -0.352 N 
ATOM     11  C   UNL A   1      33.828  28.328  23.834  1.00  0.00     0.254 C 
ATOM     12  O   UNL A   1      34.451  28.747  22.859  1.00  0.00    -0.269 OA
ATOM     13  H   UNL A   1      35.293  28.993  25.023  1.00  0.00     0.163 HD
BRANCH  11  14
ATOM     14  C   UNL A   1      32.595  27.539  23.684  1.00  0.00     0.073 A 
ATOM     15  C   UNL A   1      31.164  25.716  23.752  1.00  0.00     0.086 A 
ATOM     16  C   UNL A   1      32.502  26.111  23.845  1.00  0.00     0.022 A 
ATOM     17  N   UNL A   1      30.434  26.871  23.519  1.00  0.00    -0.314 N 
ATOM     18  C   UNL A   1      31.327  27.920  23.257  1.00  0.00     0.059 A 
ATOM     19  C   UNL A   1      29.046  27.078  23.508  1.00  0.00     0.009 A 
ATOM     20  C   UNL A   1      30.770  29.108  22.687  1.00  0.00    -0.037 A 
ATOM     21  C   UNL A   1      28.535  28.258  23.127  1.00  0.00    -0.045 A 
ATOM     22  H   UNL A   1      28.413  26.316  23.797  1.00  0.00     0.082 H 
ATOM     23  C   UNL A   1      29.437  29.285  22.653  1.00  0.00    -0.059 A 
ATOM     24  H   UNL A   1      31.394  29.831  22.299  1.00  0.00     0.065 H 
ATOM     25  H   UNL A   1      27.519  28.431  23.170  1.00  0.00     0.064 H 
ATOM     26  H   UNL A   1      29.053  30.169  22.284  1.00  0.00     0.062 H 
BRANCH  15  27
ATOM     27  C   UNL A   1      30.622  24.323  23.934  1.00  0.00     0.116 C 
ATOM     28  H   UNL A   1      29.683  24.270  23.424  1.00  0.00     0.099 H 
ATOM     29  H   UNL A   1      31.376  23.671  23.544  1.00  0.00     0.099 H 
BRANCH  27  30
ATOM     30  N   UNL A   1      30.407  23.890  25.304  1.00  0.00    -0.353 N 
ATOM     31  H   UNL A   1      29.830  23.049  25.308  1.00  0.00     0.344 HD
ATOM     32  H   UNL A   1      29.934  24.630  25.823  1.00  0.00     0.344 HD
ATOM     33  H   UNL A   1      31.305  23.688  25.742  1.00  0.00     0.344 HD
ENDBRANCH  27  30
ENDBRANCH  15  27
BRANCH  16  34
ATOM     34  C   UNL A   1      33.576  25.153  24.077  1.00  0.00    -0.016 A 
ATOM     35  C   UNL A   1      34.118  24.410  23.026  1.00  0.00    -0.054 A 
ATOM     36  C   UNL A   1      34.071  24.975  25.376  1.00  0.00    -0.054 A 
ATOM     37  C   UNL A   1      35.153  23.504  23.274  1.00  0.00    -0.062 A 
ATOM     38  H   UNL A   1      33.755  24.530  22.067  1.00  0.00     0.063 H 
ATOM     39  C   UNL A   1      35.110  24.078  25.619  1.00  0.00    -0.062 A 
ATOM     40  H   UNL A   1      33.664  25.513  26.158  1.00  0.00     0.063 H 
ATOM     41  C   UNL A   1      35.651  23.342  24.568  1.00  0.00    -0.062 A 
ATOM     42  H   UNL A   1      35.552  22.953  22.497  1.00  0.00     0.062 H 
ATOM     43  H   UNL A   1      35.479  23.959  26.577  1.00  0.00     0.062 H 
ATOM     44  H   UNL A   1      36.420  22.677  24.745  1.00  0.00     0.062 H 
ENDBRANCH  16  34
ENDBRANCH  11  14
ENDBRANCH   7  10
ENDBRANCH   4   7
ENDBRANCH   1   4
BRANCH   1  45
ATOM     45  C   UNL A   1      31.401  30.889  25.908  1.00  0.00    -0.052 C 
ATOM     46  H   UNL A   1      30.456  30.651  25.467  1.00  0.00     0.027 H 
ATOM     47  H   UNL A   1      32.215  30.967  25.218  1.00  0.00     0.027 H 
BRANCH  45  48
ATOM     48  C   UNL A   1      31.280  32.280  26.536  1.00  0.00    -0.036 C 
ATOM     49  H   UNL A   1      30.672  32.190  27.411  1.00  0.00     0.028 H 
ATOM     50  H   UNL A   1      30.864  32.903  25.772  1.00  0.00     0.028 H 
BRANCH  48  51
ATOM     51  C   UNL A   1      32.586  32.951  26.943  1.00  0.00     0.018 C 
ATOM     52  H   UNL A   1      33.168  33.125  26.063  1.00  0.00     0.049 H 
ATOM     53  H   UNL A   1      33.082  32.294  27.628  1.00  0.00     0.049 H 
BRANCH  51  54
ATOM     54  N   UNL A   1      32.389  34.216  27.625  1.00  0.00    -0.352 N 
ATOM     55  C   UNL A   1      33.044  34.744  28.709  1.00  0.00     0.251 C 
ATOM     56  H   UNL A   1      31.676  34.783  27.253  1.00  0.00     0.163 HD
ATOM     57  O   UNL A   1      32.636  35.780  29.223  1.00  0.00    -0.269 OA
BRANCH  55  58
ATOM     58  C   UNL A   1      34.230  34.064  29.280  1.00  0.00     0.039 A 
ATOM     59  C   UNL A   1      34.028  33.070  30.244  1.00  0.00    -0.049 A 
ATOM     60  C   UNL A   1      35.530  34.422  28.914  1.00  0.00    -0.049 A 
ATOM     61  C   UNL A   1      35.124  32.415  30.810  1.00  0.00    -0.053 A 
ATOM     62  H   UNL A   1      33.071  32.820  30.535  1.00  0.00     0.063 H 
ATOM     63  C   UNL A   1      36.618  33.713  29.418  1.00  0.00    -0.053 A 
ATOM     64  H   UNL A   1      35.683  35.213  28.270  1.00  0.00     0.063 H 
ATOM     65  C   UNL A   1      36.429  32.717  30.389  1.00  0.00    -0.014 A 
ATOM     66  H   UNL A   1      34.974  31.705  31.544  1.00  0.00     0.063 H 
ATOM     67  H   UNL A   1      37.569  33.921  29.076  1.00  0.00     0.063 H 
BRANCH  65  68
ATOM     68  C   UNL A   1      37.602  32.028  30.987  1.00  0.00     0.031 A 
ATOM     69  C   UNL A   1      38.066  32.390  32.372  1.00  0.00     0.074 A 
ATOM     70  C   UNL A   1      38.271  31.100  30.274  1.00  0.00     0.049 A 
ATOM     71  N   UNL A   1      39.079  31.922  33.058  1.00  0.00    -0.248 NA
ATOM     72  C   UNL A   1      37.307  33.439  33.070  1.00  0.00    -0.034 C 
ATOM     73  C   UNL A   1      37.950  30.694  28.905  1.00  0.00    -0.036 A 
ATOM     74  N   UNL A   1      39.359  30.333  30.603  1.00  0.00    -0.354 N 
ATOM     75  C   UNL A   1      39.082  32.625  34.257  1.00  0.00     0.074 A 
ATOM     76  C   UNL A   1      38.014  33.596  34.179  1.00  0.00    -0.034 C 
ATOM     77  H   UNL A   1      36.446  33.927  32.774  1.00  0.00     0.065 H 
ATOM     78  C   UNL A   1      38.803  29.731  28.522  1.00  0.00    -0.036 A 
ATOM     79  H   UNL A   1      37.190  31.086  28.327  1.00  0.00     0.065 H 
ATOM     80  C   UNL A   1      39.751  29.477  29.602  1.00  0.00     0.049 A 
ATOM     81  H   UNL A   1      39.816  30.389  31.472  1.00  0.00     0.167 HD
ATOM     82  C   UNL A   1      39.884  32.457  35.336  1.00  0.00     0.037 A 
ATOM     83  H   UNL A   1      37.827  34.316  34.894  1.00  0.00     0.065 H 
ATOM     84  H   UNL A   1      38.791  29.248  27.610  1.00  0.00     0.065 H 
ATOM     85  C   UNL A   1      40.761  28.587  29.564  1.00  0.00     0.037 A 
ATOM     86  C   UNL A   1      40.934  31.474  35.418  1.00  0.00     0.049 A 
ATOM     87  C   UNL A   1      41.638  28.420  30.776  1.00  0.00     0.074 A 
ATOM     88  C   UNL A   1      41.770  31.190  36.483  1.00  0.00    -0.036 A 
ATOM     89  N   UNL A   1      41.290  30.613  34.390  1.00  0.00    -0.354 N 
ATOM     90  N   UNL A   1      41.589  29.043  31.929  1.00  0.00    -0.248 NA
ATOM     91  C   UNL A   1      42.704  27.413  30.685  1.00  0.00    -0.034 C 
ATOM     92  C   UNL A   1      42.668  30.194  36.082  1.00  0.00    -0.036 A 
ATOM     93  H   UNL A   1      41.738  31.636  37.413  1.00  0.00     0.065 H 
ATOM     94  C   UNL A   1      42.349  29.812  34.789  1.00  0.00     0.049 A 
ATOM     95  H   UNL A   1      40.856  30.578  33.507  1.00  0.00     0.167 HD
ATOM     96  C   UNL A   1      42.590  28.482  32.710  1.00  0.00     0.074 A 
ATOM     97  C   UNL A   1      43.216  27.453  31.906  1.00  0.00    -0.034 C 
ATOM     98  H   UNL A   1      42.979  26.826  29.881  1.00  0.00     0.065 H 
ATOM     99  H   UNL A   1      43.437  29.810  36.653  1.00  0.00     0.065 H 
ATOM    100  C   UNL A   1      42.959  28.788  33.979  1.00  0.00     0.037 A 
ATOM    101  H   UNL A   1      43.968  26.830  32.240  1.00  0.00     0.065 H 
BRANCH  82 102
ATOM    102  C   UNL A   1      39.655  33.358  36.517  1.00  0.00     0.064 A 
ATOM    103  C   UNL A   1      40.299  34.601  36.634  1.00  0.00     0.173 A 
ATOM    104  C   UNL A   1      38.762  32.988  37.534  1.00  0.00     0.173 A 
ATOM    105  F   UNL A   1      41.171  35.001  35.697  1.00  0.00    -0.203 F 
ATOM    106  C   UNL A   1      40.084  35.421  37.739  1.00  0.00     0.198 A 
ATOM    107  C   UNL A   1      38.523  33.826  38.621  1.00  0.00     0.198 A 
ATOM    108  F   UNL A   1      38.116  31.814  37.473  1.00  0.00    -0.203 F 
ATOM    109  F   UNL A   1      40.755  36.574  37.855  1.00  0.00    -0.200 F 
ATOM    110  C   UNL A   1      39.191  35.036  38.728  1.00  0.00     0.200 A 
ATOM    111  F   UNL A   1      37.649  33.459  39.568  1.00  0.00    -0.200 F 
ATOM    112  F   UNL A   1      38.981  35.828  39.788  1.00  0.00    -0.200 F 
ENDBRANCH  82 102
BRANCH  85 113
ATOM    113  C   UNL A   1      40.980  27.760  28.346  1.00  0.00     0.064 A 
ATOM    114  C   UNL A   1      40.328  26.529  28.183  1.00  0.00     0.173 A 
ATOM    115  C   UNL A   1      41.856  28.171  27.332  1.00  0.00     0.173 A 
ATOM    116  F   UNL A   1      39.495  26.082  29.135  1.00  0.00    -0.203 F 
ATOM    117  C   UNL A   1      40.565  25.729  27.067  1.00  0.00     0.198 A 
ATOM    118  C   UNL A   1      42.067  27.386  26.200  1.00  0.00     0.198 A 
ATOM    119  F   UNL A   1      42.501  29.343  27.434  1.00  0.00    -0.203 F 
ATOM    120  F   UNL A   1      39.970  24.533  26.965  1.00  0.00    -0.200 F 
ATOM    121  C   UNL A   1      41.431  26.160  26.074  1.00  0.00     0.200 A 
ATOM    122  F   UNL A   1      42.893  27.814  25.235  1.00  0.00    -0.200 F 
ATOM    123  F   UNL A   1      41.658  25.392  25.000  1.00  0.00    -0.200 F 
ENDBRANCH  85 113
BRANCH 100 124
ATOM    124  C   UNL A   1      44.062  27.969  34.589  1.00  0.00     0.064 A 
ATOM    125  C   UNL A   1      45.406  28.363  34.516  1.00  0.00     0.173 A 
ATOM    126  C   UNL A   1      43.764  26.776  35.265  1.00  0.00     0.173 A 
ATOM    127  F   UNL A   1      45.747  29.488  33.871  1.00  0.00    -0.203 F 
ATOM    128  C   UNL A   1      46.415  27.570  35.060  1.00  0.00     0.198 A 
ATOM    129  C   UNL A   1      44.772  26.005  35.840  1.00  0.00     0.198 A 
ATOM    130  F   UNL A   1      42.494  26.357  35.374  1.00  0.00    -0.203 F 
ATOM    131  F   UNL A   1      47.698  27.932  34.917  1.00  0.00    -0.200 F 
ATOM    132  C   UNL A   1      46.097  26.396  35.725  1.00  0.00     0.200 A 
ATOM    133  F   UNL A   1      44.460  24.880  36.497  1.00  0.00    -0.200 F 
ATOM    134  F   UNL A   1      47.069  25.635  36.246  1.00  0.00    -0.200 F 
ENDBRANCH 100 124
ENDBRANCH  65  68
ENDBRANCH  55  58
ENDBRANCH  51  54
ENDBRANCH  48  51
ENDBRANCH  45  48
ENDBRANCH   1  45
TORSDOF 16
ENDMDL
MODEL 4
REMARK VINA RESULT:     -12.0      1.173      3.145
REMARK SMILES [NH3+]Cc1c(-c2ccccc2)c(C(=O)NCCCCCCNC(=O)c2ccc(-c3c4nc(c(-c5c(F)c(F)c(F)c(F)c5F)c5ccc([nH]5)c(-c5c(F)c(F)c(F)c(F)c5F)c5nc(c(-c6c(F)c(F)c(F)c(F)c6F)c6ccc3[nH]6)C=C5)C=C4)cc2)c2ccccn12
REMARK SMILES IDX 17 1 16 4 15 7 14 10 12 11 13 12 11 14 3 15 4 16 92 17 87 18
REMARK SMILES IDX 91 19 88 20 90 21 89 23 2 27 1 30 5 34 6 35 10 36 7 37 9 39
REMARK SMILES IDX 8 41 18 45 19 48 20 51 21 54 22 55 23 57 24 58 25 59 86 60
REMARK SMILES IDX 26 61 85 63 27 65 28 68 29 69 79 70 30 71 84 72 78 73 80 74
REMARK SMILES IDX 31 75 83 76 77 78 76 80 32 82 64 85 44 86 63 87 45 88 48 89
REMARK SMILES IDX 62 90 81 91 46 92 47 94 61 96 82 97 49 100 33 102 34 103
REMARK SMILES IDX 42 104 35 105 36 106 40 107 43 108 37 109 38 110 41 111
REMARK SMILES IDX 39 112 65 113 66 114 74 115 67 116 68 117 72 118 75 119
REMARK SMILES IDX 69 120 70 121 73 122 71 123 50 124 51 125 59 126 52 127
REMARK SMILES IDX 53 128 57 129 60 130 54 131 55 132 58 133 56 134
REMARK H PARENT 17 2 17 3 16 5 16 6 15 8 15 9 14 13 91 22 88 24 90 25 89 26
REMARK H PARENT 2 28 2 29 1 31 1 32 1 33 6 38 10 40 7 42 9 43 8 44 18 46 18 47
REMARK H PARENT 19 49 19 50 20 52 20 53 21 56 25 62 86 64 26 66 85 67 84 77
REMARK H PARENT 78 79 80 81 83 83 77 84 45 93 48 95 81 98 46 99 82 101
REMARK Flexibility Score: inf
ROOT
ATOM      1  C   UNL A   1      32.400  30.059  26.120  1.00  0.00    -0.052 C 
ATOM      2  H   UNL A   1      32.644  29.509  25.234  1.00  0.00     0.027 H 
ATOM      3  H   UNL A   1      33.164  30.721  26.471  1.00  0.00     0.027 H 
ENDROOT
BRANCH   1   4
ATOM      4  C   UNL A   1      32.211  29.044  27.252  1.00  0.00    -0.036 C 
ATOM      5  H   UNL A   1      32.900  29.298  28.031  1.00  0.00     0.028 H 
ATOM      6  H   UNL A   1      31.177  29.118  27.519  1.00  0.00     0.028 H 
BRANCH   4   7
ATOM      7  C   UNL A   1      32.425  27.572  26.911  1.00  0.00     0.018 C 
ATOM      8  H   UNL A   1      32.853  27.520  25.931  1.00  0.00     0.049 H 
ATOM      9  H   UNL A   1      33.059  27.181  27.679  1.00  0.00     0.049 H 
BRANCH   7  10
ATOM     10  N   UNL A   1      31.237  26.754  26.922  1.00  0.00    -0.352 N 
ATOM     11  C   UNL A   1      30.852  25.709  26.107  1.00  0.00     0.254 C 
ATOM     12  O   UNL A   1      29.808  25.140  26.425  1.00  0.00    -0.269 OA
ATOM     13  H   UNL A   1      30.591  26.979  27.631  1.00  0.00     0.163 HD
BRANCH  11  14
ATOM     14  C   UNL A   1      31.588  25.351  24.884  1.00  0.00     0.073 A 
ATOM     15  C   UNL A   1      32.466  25.540  22.747  1.00  0.00     0.086 A 
ATOM     16  C   UNL A   1      31.558  26.096  23.653  1.00  0.00     0.022 A 
ATOM     17  N   UNL A   1      33.041  24.455  23.392  1.00  0.00    -0.314 N 
ATOM     18  C   UNL A   1      32.341  24.221  24.584  1.00  0.00     0.059 A 
ATOM     19  C   UNL A   1      34.123  23.647  23.013  1.00  0.00     0.009 A 
ATOM     20  C   UNL A   1      32.576  22.965  25.227  1.00  0.00    -0.037 A 
ATOM     21  C   UNL A   1      34.440  22.554  23.723  1.00  0.00    -0.045 A 
ATOM     22  H   UNL A   1      34.681  23.896  22.180  1.00  0.00     0.082 H 
ATOM     23  C   UNL A   1      33.598  22.183  24.839  1.00  0.00    -0.059 A 
ATOM     24  H   UNL A   1      31.957  22.658  25.993  1.00  0.00     0.065 H 
ATOM     25  H   UNL A   1      35.268  21.989  23.479  1.00  0.00     0.064 H 
ATOM     26  H   UNL A   1      33.784  21.303  25.345  1.00  0.00     0.062 H 
BRANCH  15  27
ATOM     27  C   UNL A   1      32.798  26.058  21.373  1.00  0.00     0.116 C 
ATOM     28  H   UNL A   1      32.753  27.126  21.408  1.00  0.00     0.099 H 
ATOM     29  H   UNL A   1      33.765  25.662  21.145  1.00  0.00     0.099 H 
BRANCH  27  30
ATOM     30  N   UNL A   1      31.933  25.614  20.292  1.00  0.00    -0.353 N 
ATOM     31  H   UNL A   1      31.255  24.944  20.654  1.00  0.00     0.344 HD
ATOM     32  H   UNL A   1      32.496  25.172  19.566  1.00  0.00     0.344 HD
ATOM     33  H   UNL A   1      31.442  26.417  19.899  1.00  0.00     0.344 HD
ENDBRANCH  27  30
ENDBRANCH  15  27
BRANCH  16  34
ATOM     34  C   UNL A   1      30.748  27.262  23.317  1.00  0.00    -0.016 A 
ATOM     35  C   UNL A   1      31.341  28.449  22.881  1.00  0.00    -0.054 A 
ATOM     36  C   UNL A   1      29.353  27.188  23.436  1.00  0.00    -0.054 A 
ATOM     37  C   UNL A   1      30.541  29.548  22.557  1.00  0.00    -0.062 A 
ATOM     38  H   UNL A   1      32.367  28.514  22.796  1.00  0.00     0.063 H 
ATOM     39  C   UNL A   1      28.558  28.284  23.103  1.00  0.00    -0.062 A 
ATOM     40  H   UNL A   1      28.913  26.316  23.772  1.00  0.00     0.063 H 
ATOM     41  C   UNL A   1      29.152  29.464  22.664  1.00  0.00    -0.062 A 
ATOM     42  H   UNL A   1      30.979  30.426  22.236  1.00  0.00     0.062 H 
ATOM     43  H   UNL A   1      27.530  28.221  23.182  1.00  0.00     0.062 H 
ATOM     44  H   UNL A   1      28.565  30.277  22.417  1.00  0.00     0.062 H 
ENDBRANCH  16  34
ENDBRANCH  11  14
ENDBRANCH   7  10
ENDBRANCH   4   7
ENDBRANCH   1   4
BRANCH   1  45
ATOM     45  C   UNL A   1      31.215  30.968  25.784  1.00  0.00    -0.052 C 
ATOM     46  H   UNL A   1      30.321  30.441  26.038  1.00  0.00     0.027 H 
ATOM     47  H   UNL A   1      31.326  31.196  24.744  1.00  0.00     0.027 H 
BRANCH  45  48
ATOM     48  C   UNL A   1      31.164  32.329  26.483  1.00  0.00    -0.036 C 
ATOM     49  H   UNL A   1      30.462  32.256  27.286  1.00  0.00     0.028 H 
ATOM     50  H   UNL A   1      30.893  33.031  25.722  1.00  0.00     0.028 H 
BRANCH  48  51
ATOM     51  C   UNL A   1      32.478  32.840  27.059  1.00  0.00     0.018 C 
ATOM     52  H   UNL A   1      33.215  32.833  26.283  1.00  0.00     0.049 H 
ATOM     53  H   UNL A   1      32.744  32.194  27.869  1.00  0.00     0.049 H 
BRANCH  51  54
ATOM     54  N   UNL A   1      32.383  34.186  27.593  1.00  0.00    -0.352 N 
ATOM     55  C   UNL A   1      33.095  34.786  28.601  1.00  0.00     0.251 C 
ATOM     56  H   UNL A   1      31.702  34.755  27.168  1.00  0.00     0.163 HD
ATOM     57  O   UNL A   1      32.769  35.900  28.998  1.00  0.00    -0.269 OA
BRANCH  55  58
ATOM     58  C   UNL A   1      34.244  34.094  29.231  1.00  0.00     0.039 A 
ATOM     59  C   UNL A   1      35.537  34.471  28.854  1.00  0.00    -0.049 A 
ATOM     60  C   UNL A   1      34.063  33.055  30.147  1.00  0.00    -0.049 A 
ATOM     61  C   UNL A   1      36.642  33.833  29.421  1.00  0.00    -0.053 A 
ATOM     62  H   UNL A   1      35.674  35.221  28.159  1.00  0.00     0.063 H 
ATOM     63  C   UNL A   1      35.165  32.476  30.773  1.00  0.00    -0.053 A 
ATOM     64  H   UNL A   1      33.111  32.717  30.360  1.00  0.00     0.063 H 
ATOM     65  C   UNL A   1      36.467  32.842  30.400  1.00  0.00    -0.014 A 
ATOM     66  H   UNL A   1      37.594  34.091  29.118  1.00  0.00     0.063 H 
ATOM     67  H   UNL A   1      35.022  31.772  31.514  1.00  0.00     0.063 H 
BRANCH  65  68
ATOM     68  C   UNL A   1      37.636  32.155  31.008  1.00  0.00     0.031 A 
ATOM     69  C   UNL A   1      38.096  32.527  32.392  1.00  0.00     0.074 A 
ATOM     70  C   UNL A   1      38.305  31.219  30.305  1.00  0.00     0.049 A 
ATOM     71  N   UNL A   1      39.106  32.062  33.085  1.00  0.00    -0.248 NA
ATOM     72  C   UNL A   1      37.337  33.584  33.079  1.00  0.00    -0.034 C 
ATOM     73  C   UNL A   1      37.987  30.803  28.939  1.00  0.00    -0.036 A 
ATOM     74  N   UNL A   1      39.390  30.452  30.644  1.00  0.00    -0.354 N 
ATOM     75  C   UNL A   1      39.106  32.775  34.278  1.00  0.00     0.074 A 
ATOM     76  C   UNL A   1      38.041  33.748  34.189  1.00  0.00    -0.034 C 
ATOM     77  H   UNL A   1      36.479  34.071  32.776  1.00  0.00     0.065 H 
ATOM     78  C   UNL A   1      38.840  29.835  28.566  1.00  0.00    -0.036 A 
ATOM     79  H   UNL A   1      37.231  31.191  28.355  1.00  0.00     0.065 H 
ATOM     80  C   UNL A   1      39.783  29.587  29.652  1.00  0.00     0.049 A 
ATOM     81  H   UNL A   1      39.845  30.514  31.514  1.00  0.00     0.167 HD
ATOM     82  C   UNL A   1      39.904  32.614  35.361  1.00  0.00     0.037 A 
ATOM     83  H   UNL A   1      37.853  34.474  34.897  1.00  0.00     0.065 H 
ATOM     84  H   UNL A   1      38.829  29.344  27.658  1.00  0.00     0.065 H 
ATOM     85  C   UNL A   1      40.791  28.694  29.624  1.00  0.00     0.037 A 
ATOM     86  C   UNL A   1      40.951  31.629  35.455  1.00  0.00     0.049 A 
ATOM     87  C   UNL A   1      41.664  28.535  30.840  1.00  0.00     0.074 A 
ATOM     88  C   UNL A   1      41.784  31.352  36.525  1.00  0.00    -0.036 A 
ATOM     89  N   UNL A   1      41.309  30.759  34.435  1.00  0.00    -0.354 N 
ATOM     90  N   UNL A   1      41.612  29.168  31.988  1.00  0.00    -0.248 NA
ATOM     91  C   UNL A   1      42.727  27.525  30.761  1.00  0.00    -0.034 C 
ATOM     92  C   UNL A   1      42.680  30.351  36.135  1.00  0.00    -0.036 A 
ATOM     93  H   UNL A   1      41.749  31.805  37.452  1.00  0.00     0.065 H 
ATOM     94  C   UNL A   1      42.364  29.959  34.844  1.00  0.00     0.049 A 
ATOM     95  H   UNL A   1      40.878  30.717  33.551  1.00  0.00     0.167 HD
ATOM     96  C   UNL A   1      42.610  28.611  32.777  1.00  0.00     0.074 A 
ATOM     97  C   UNL A   1      43.236  27.574  31.983  1.00  0.00    -0.034 C 
ATOM     98  H   UNL A   1      43.004  26.931  29.963  1.00  0.00     0.065 H 
ATOM     99  H   UNL A   1      43.446  29.969  36.712  1.00  0.00     0.065 H 
ATOM    100  C   UNL A   1      42.975  28.927  34.044  1.00  0.00     0.037 A 
ATOM    101  H   UNL A   1      43.985  26.952  32.325  1.00  0.00     0.065 H 
BRANCH  82 102
ATOM    102  C   UNL A   1      39.674  33.525  36.534  1.00  0.00     0.064 A 
ATOM    103  C   UNL A   1      38.829  33.164  37.596  1.00  0.00     0.173 A 
ATOM    104  C   UNL A   1      40.325  34.765  36.613  1.00  0.00     0.173 A 
ATOM    105  F   UNL A   1      38.172  31.995  37.568  1.00  0.00    -0.203 F 
ATOM    106  C   UNL A   1      38.618  34.023  38.671  1.00  0.00     0.198 A 
ATOM    107  C   UNL A   1      40.139  35.607  37.707  1.00  0.00     0.198 A 
ATOM    108  F   UNL A   1      41.148  35.162  35.630  1.00  0.00    -0.203 F 
ATOM    109  F   UNL A   1      37.761  33.679  39.642  1.00  0.00    -0.200 F 
ATOM    110  C   UNL A   1      39.279  35.241  38.730  1.00  0.00     0.200 A 
ATOM    111  F   UNL A   1      40.790  36.777  37.768  1.00  0.00    -0.200 F 
ATOM    112  F   UNL A   1      39.079  36.064  39.769  1.00  0.00    -0.200 F 
ENDBRANCH  82 102
BRANCH  85 113
ATOM    113  C   UNL A   1      41.012  27.857  28.414  1.00  0.00     0.064 A 
ATOM    114  C   UNL A   1      41.841  28.299  27.373  1.00  0.00     0.173 A 
ATOM    115  C   UNL A   1      40.387  26.612  28.263  1.00  0.00     0.173 A 
ATOM    116  F   UNL A   1      42.446  29.494  27.460  1.00  0.00    -0.203 F 
ATOM    117  C   UNL A   1      42.015  27.541  26.216  1.00  0.00     0.198 A 
ATOM    118  C   UNL A   1      40.587  25.838  27.122  1.00  0.00     0.198 A 
ATOM    119  F   UNL A   1      39.589  26.138  29.232  1.00  0.00    -0.203 F 
ATOM    120  F   UNL A   1      42.768  28.013  25.215  1.00  0.00    -0.200 F 
ATOM    121  C   UNL A   1      41.391  26.308  26.094  1.00  0.00     0.200 A 
ATOM    122  F   UNL A   1      39.996  24.640  27.014  1.00  0.00    -0.200 F 
ATOM    123  F   UNL A   1      41.558  25.578  24.983  1.00  0.00    -0.200 F 
ENDBRANCH  85 113
BRANCH 100 124
ATOM    124  C   UNL A   1      44.073  28.110  34.665  1.00  0.00     0.064 A 
ATOM    125  C   UNL A   1      45.420  28.495  34.585  1.00  0.00     0.173 A 
ATOM    126  C   UNL A   1      43.770  26.928  35.359  1.00  0.00     0.173 A 
ATOM    127  F   UNL A   1      45.767  29.609  33.924  1.00  0.00    -0.203 F 
ATOM    128  C   UNL A   1      46.425  27.704  35.139  1.00  0.00     0.198 A 
ATOM    129  C   UNL A   1      44.774  26.160  35.943  1.00  0.00     0.198 A 
ATOM    130  F   UNL A   1      42.498  26.518  35.475  1.00  0.00    -0.203 F 
ATOM    131  F   UNL A   1      47.710  28.057  34.990  1.00  0.00    -0.200 F 
ATOM    132  C   UNL A   1      46.101  26.542  35.821  1.00  0.00     0.200 A 
ATOM    133  F   UNL A   1      44.457  25.046  36.617  1.00  0.00    -0.200 F 
ATOM    134  F   UNL A   1      47.070  25.782  36.352  1.00  0.00    -0.200 F 
ENDBRANCH 100 124
ENDBRANCH  65  68
ENDBRANCH  55  58
ENDBRANCH  51  54
ENDBRANCH  48  51
ENDBRANCH  45  48
ENDBRANCH   1  45
TORSDOF 16
ENDMDL
MODEL 5
REMARK VINA RESULT:     -12.0      0.745      7.308
REMARK SMILES [NH3+]Cc1c(-c2ccccc2)c(C(=O)NCCCCCCNC(=O)c2ccc(-c3c4nc(c(-c5c(F)c(F)c(F)c(F)c5F)c5ccc([nH]5)c(-c5c(F)c(F)c(F)c(F)c5F)c5nc(c(-c6c(F)c(F)c(F)c(F)c6F)c6ccc3[nH]6)C=C5)C=C4)cc2)c2ccccn12
REMARK SMILES IDX 17 1 16 4 15 7 14 10 12 11 13 12 11 14 3 15 4 16 92 17 87 18
REMARK SMILES IDX 91 19 88 20 90 21 89 23 2 27 1 30 5 34 6 35 10 36 7 37 9 39
REMARK SMILES IDX 8 41 18 45 19 48 20 51 21 54 22 55 23 57 24 58 25 59 86 60
REMARK SMILES IDX 26 61 85 63 27 65 28 68 29 69 79 70 30 71 84 72 78 73 80 74
REMARK SMILES IDX 31 75 83 76 77 78 76 80 32 82 64 85 44 86 63 87 45 88 48 89
REMARK SMILES IDX 62 90 81 91 46 92 47 94 61 96 82 97 49 100 33 102 34 103
REMARK SMILES IDX 42 104 35 105 36 106 40 107 43 108 37 109 38 110 41 111
REMARK SMILES IDX 39 112 65 113 66 114 74 115 67 116 68 117 72 118 75 119
REMARK SMILES IDX 69 120 70 121 73 122 71 123 50 124 51 125 59 126 52 127
REMARK SMILES IDX 53 128 57 129 60 130 54 131 55 132 58 133 56 134
REMARK H PARENT 17 2 17 3 16 5 16 6 15 8 15 9 14 13 91 22 88 24 90 25 89 26
REMARK H PARENT 2 28 2 29 1 31 1 32 1 33 6 38 10 40 7 42 9 43 8 44 18 46 18 47
REMARK H PARENT 19 49 19 50 20 52 20 53 21 56 25 62 86 64 26 66 85 67 84 77
REMARK H PARENT 78 79 80 81 83 83 77 84 45 93 48 95 81 98 46 99 82 101
REMARK Flexibility Score: inf
ROOT
ATOM      1  C   UNL A   1      31.777  29.788  26.940  1.00  0.00    -0.052 C 
ATOM      2  H   UNL A   1      31.330  30.008  27.888  1.00  0.00     0.027 H 
ATOM      3  H   UNL A   1      31.422  28.897  26.465  1.00  0.00     0.027 H 
ENDROOT
BRANCH   1   4
ATOM      4  C   UNL A   1      33.268  29.535  27.183  1.00  0.00    -0.036 C 
ATOM      5  H   UNL A   1      33.799  30.407  26.860  1.00  0.00     0.028 H 
ATOM      6  H   UNL A   1      33.345  29.319  28.228  1.00  0.00     0.028 H 
BRANCH   4   7
ATOM      7  C   UNL A   1      33.893  28.332  26.483  1.00  0.00     0.018 C 
ATOM      8  H   UNL A   1      34.743  28.022  27.056  1.00  0.00     0.049 H 
ATOM      9  H   UNL A   1      33.122  27.593  26.424  1.00  0.00     0.049 H 
BRANCH   7  10
ATOM     10  N   UNL A   1      34.330  28.561  25.127  1.00  0.00    -0.352 N 
ATOM     11  C   UNL A   1      33.753  28.217  23.922  1.00  0.00     0.254 C 
ATOM     12  O   UNL A   1      34.326  28.635  22.916  1.00  0.00    -0.269 OA
ATOM     13  H   UNL A   1      35.185  29.043  25.048  1.00  0.00     0.163 HD
BRANCH  11  14
ATOM     14  C   UNL A   1      32.579  27.333  23.833  1.00  0.00     0.073 A 
ATOM     15  C   UNL A   1      31.297  25.408  23.991  1.00  0.00     0.086 A 
ATOM     16  C   UNL A   1      32.602  25.907  24.025  1.00  0.00     0.022 A 
ATOM     17  N   UNL A   1      30.472  26.500  23.764  1.00  0.00    -0.314 N 
ATOM     18  C   UNL A   1      31.272  27.607  23.448  1.00  0.00     0.059 A 
ATOM     19  C   UNL A   1      29.073  26.600  23.801  1.00  0.00     0.009 A 
ATOM     20  C   UNL A   1      30.604  28.736  22.876  1.00  0.00    -0.037 A 
ATOM     21  C   UNL A   1      28.459  27.729  23.417  1.00  0.00    -0.045 A 
ATOM     22  H   UNL A   1      28.511  25.798  24.128  1.00  0.00     0.082 H 
ATOM     23  C   UNL A   1      29.262  28.811  22.890  1.00  0.00    -0.059 A 
ATOM     24  H   UNL A   1      31.156  29.496  22.451  1.00  0.00     0.065 H 
ATOM     25  H   UNL A   1      27.435  27.824  23.495  1.00  0.00     0.064 H 
ATOM     26  H   UNL A   1      28.797  29.654  22.519  1.00  0.00     0.062 H 
BRANCH  15  27
ATOM     27  C   UNL A   1      30.871  23.983  24.220  1.00  0.00     0.116 C 
ATOM     28  H   UNL A   1      30.008  23.800  23.614  1.00  0.00     0.099 H 
ATOM     29  H   UNL A   1      31.723  23.387  23.968  1.00  0.00     0.099 H 
BRANCH  27  30
ATOM     30  N   UNL A   1      30.536  23.623  25.587  1.00  0.00    -0.353 N 
ATOM     31  H   UNL A   1      29.524  23.647  25.706  1.00  0.00     0.344 HD
ATOM     32  H   UNL A   1      30.971  24.285  26.229  1.00  0.00     0.344 HD
ATOM     33  H   UNL A   1      30.880  22.683  25.785  1.00  0.00     0.344 HD
ENDBRANCH  27  30
ENDBRANCH  15  27
BRANCH  16  34
ATOM     34  C   UNL A   1      33.755  25.038  24.235  1.00  0.00    -0.016 A 
ATOM     35  C   UNL A   1      34.342  24.912  25.496  1.00  0.00    -0.054 A 
ATOM     36  C   UNL A   1      34.281  24.319  23.152  1.00  0.00    -0.054 A 
ATOM     37  C   UNL A   1      35.440  24.066  25.672  1.00  0.00    -0.062 A 
ATOM     38  H   UNL A   1      33.964  25.442  26.296  1.00  0.00     0.063 H 
ATOM     39  C   UNL A   1      35.371  23.468  23.333  1.00  0.00    -0.062 A 
ATOM     40  H   UNL A   1      33.858  24.420  22.215  1.00  0.00     0.063 H 
ATOM     41  C   UNL A   1      35.950  23.342  24.593  1.00  0.00    -0.062 A 
ATOM     42  H   UNL A   1      35.875  23.974  26.604  1.00  0.00     0.062 H 
ATOM     43  H   UNL A   1      35.748  22.933  22.535  1.00  0.00     0.062 H 
ATOM     44  H   UNL A   1      36.758  22.713  24.730  1.00  0.00     0.062 H 
ENDBRANCH  16  34
ENDBRANCH  11  14
ENDBRANCH   7  10
ENDBRANCH   4   7
ENDBRANCH   1   4
BRANCH   1  45
ATOM     45  C   UNL A   1      31.400  30.920  25.981  1.00  0.00    -0.052 C 
ATOM     46  H   UNL A   1      30.458  30.671  25.540  1.00  0.00     0.027 H 
ATOM     47  H   UNL A   1      32.218  30.986  25.294  1.00  0.00     0.027 H 
BRANCH  45  48
ATOM     48  C   UNL A   1      31.273  32.324  26.579  1.00  0.00    -0.036 C 
ATOM     49  H   UNL A   1      30.589  32.268  27.399  1.00  0.00     0.028 H 
ATOM     50  H   UNL A   1      30.947  32.948  25.774  1.00  0.00     0.028 H 
BRANCH  48  51
ATOM     51  C   UNL A   1      32.561  32.957  27.090  1.00  0.00     0.018 C 
ATOM     52  H   UNL A   1      33.262  33.003  26.283  1.00  0.00     0.049 H 
ATOM     53  H   UNL A   1      32.917  32.349  27.896  1.00  0.00     0.049 H 
BRANCH  51  54
ATOM     54  N   UNL A   1      32.370  34.297  27.613  1.00  0.00    -0.352 N 
ATOM     55  C   UNL A   1      32.982  34.927  28.666  1.00  0.00     0.251 C 
ATOM     56  H   UNL A   1      31.698  34.837  27.138  1.00  0.00     0.163 HD
ATOM     57  O   UNL A   1      32.582  36.026  29.036  1.00  0.00    -0.269 OA
BRANCH  55  58
ATOM     58  C   UNL A   1      34.111  34.284  29.379  1.00  0.00     0.039 A 
ATOM     59  C   UNL A   1      35.408  34.501  28.904  1.00  0.00    -0.049 A 
ATOM     60  C   UNL A   1      33.904  33.441  30.474  1.00  0.00    -0.049 A 
ATOM     61  C   UNL A   1      36.495  33.903  29.547  1.00  0.00    -0.053 A 
ATOM     62  H   UNL A   1      35.563  35.103  28.081  1.00  0.00     0.063 H 
ATOM     63  C   UNL A   1      34.993  32.912  31.163  1.00  0.00    -0.053 A 
ATOM     64  H   UNL A   1      32.943  33.211  30.772  1.00  0.00     0.063 H 
ATOM     65  C   UNL A   1      36.299  33.118  30.694  1.00  0.00    -0.014 A 
ATOM     66  H   UNL A   1      37.448  34.038  29.175  1.00  0.00     0.063 H 
ATOM     67  H   UNL A   1      34.838  32.364  32.024  1.00  0.00     0.063 H 
BRANCH  65  68
ATOM     68  C   UNL A   1      37.447  32.475  31.384  1.00  0.00     0.031 A 
ATOM     69  C   UNL A   1      38.185  31.340  30.725  1.00  0.00     0.074 A 
ATOM     70  C   UNL A   1      37.809  32.889  32.614  1.00  0.00     0.049 A 
ATOM     71  N   UNL A   1      39.195  30.635  31.172  1.00  0.00    -0.248 NA
ATOM     72  C   UNL A   1      37.706  30.921  29.399  1.00  0.00    -0.034 C 
ATOM     73  C   UNL A   1      37.146  33.946  33.378  1.00  0.00    -0.036 A 
ATOM     74  N   UNL A   1      38.822  32.468  33.438  1.00  0.00    -0.354 N 
ATOM     75  C   UNL A   1      39.461  29.689  30.190  1.00  0.00     0.074 A 
ATOM     76  C   UNL A   1      38.467  29.865  29.155  1.00  0.00    -0.034 C 
ATOM     77  H   UNL A   1      36.969  31.341  28.811  1.00  0.00     0.065 H 
ATOM     78  C   UNL A   1      37.787  34.112  34.546  1.00  0.00    -0.036 A 
ATOM     79  H   UNL A   1      36.318  34.479  33.069  1.00  0.00     0.065 H 
ATOM     80  C   UNL A   1      38.883  33.151  34.628  1.00  0.00     0.049 A 
ATOM     81  H   UNL A   1      39.445  31.745  33.201  1.00  0.00     0.167 HD
ATOM     82  C   UNL A   1      40.460  28.775  30.141  1.00  0.00     0.037 A 
ATOM     83  H   UNL A   1      38.365  29.249  28.332  1.00  0.00     0.065 H 
ATOM     84  H   UNL A   1      37.545  34.808  35.269  1.00  0.00     0.065 H 
ATOM     85  C   UNL A   1      39.729  33.017  35.668  1.00  0.00     0.037 A 
ATOM     86  C   UNL A   1      41.461  28.616  31.164  1.00  0.00     0.049 A 
ATOM     87  C   UNL A   1      40.831  31.994  35.588  1.00  0.00     0.074 A 
ATOM     88  C   UNL A   1      42.544  27.755  31.188  1.00  0.00    -0.036 A 
ATOM     89  N   UNL A   1      41.500  29.339  32.349  1.00  0.00    -0.354 N 
ATOM     90  N   UNL A   1      41.113  31.151  34.624  1.00  0.00    -0.248 NA
ATOM     91  C   UNL A   1      41.740  31.915  36.739  1.00  0.00    -0.034 C 
ATOM     92  C   UNL A   1      43.207  27.918  32.409  1.00  0.00    -0.036 A 
ATOM     93  H   UNL A   1      42.815  27.104  30.435  1.00  0.00     0.065 H 
ATOM     94  C   UNL A   1      42.576  28.928  33.119  1.00  0.00     0.049 A 
ATOM     95  H   UNL A   1      40.857  30.040  32.604  1.00  0.00     0.167 HD
ATOM     96  C   UNL A   1      42.250  30.467  35.036  1.00  0.00     0.074 A 
ATOM     97  C   UNL A   1      42.616  31.010  36.327  1.00  0.00    -0.034 C 
ATOM     98  H   UNL A   1      41.707  32.430  37.632  1.00  0.00     0.065 H 
ATOM     99  H   UNL A   1      44.027  27.379  32.727  1.00  0.00     0.065 H 
ATOM    100  C   UNL A   1      42.931  29.480  34.402  1.00  0.00     0.037 A 
ATOM    101  H   UNL A   1      43.453  30.727  36.861  1.00  0.00     0.065 H 
BRANCH  82 102
ATOM    102  C   UNL A   1      40.519  27.876  28.938  1.00  0.00     0.064 A 
ATOM    103  C   UNL A   1      39.789  26.677  28.875  1.00  0.00     0.173 A 
ATOM    104  C   UNL A   1      41.295  28.226  27.823  1.00  0.00     0.173 A 
ATOM    105  F   UNL A   1      39.040  26.288  29.917  1.00  0.00    -0.203 F 
ATOM    106  C   UNL A   1      39.862  25.849  27.758  1.00  0.00     0.198 A 
ATOM    107  C   UNL A   1      41.338  27.413  26.693  1.00  0.00     0.198 A 
ATOM    108  F   UNL A   1      42.010  29.361  27.825  1.00  0.00    -0.203 F 
ATOM    109  F   UNL A   1      39.202  24.684  27.746  1.00  0.00    -0.200 F 
ATOM    110  C   UNL A   1      40.631  26.221  26.664  1.00  0.00     0.200 A 
ATOM    111  F   UNL A   1      42.070  27.781  25.632  1.00  0.00    -0.200 F 
ATOM    112  F   UNL A   1      40.695  25.426  25.587  1.00  0.00    -0.200 F 
ENDBRANCH  82 102
BRANCH  85 113
ATOM    113  C   UNL A   1      39.590  33.895  36.860  1.00  0.00     0.064 A 
ATOM    114  C   UNL A   1      40.219  35.147  36.912  1.00  0.00     0.173 A 
ATOM    115  C   UNL A   1      38.844  33.496  37.978  1.00  0.00     0.173 A 
ATOM    116  F   UNL A   1      40.961  35.567  35.875  1.00  0.00    -0.203 F 
ATOM    117  C   UNL A   1      40.131  35.954  38.045  1.00  0.00     0.198 A 
ATOM    118  C   UNL A   1      38.728  34.316  39.098  1.00  0.00     0.198 A 
ATOM    119  F   UNL A   1      38.217  32.310  37.980  1.00  0.00    -0.203 F 
ATOM    120  F   UNL A   1      40.788  37.120  38.087  1.00  0.00    -0.200 F 
ATOM    121  C   UNL A   1      39.381  35.540  39.136  1.00  0.00     0.200 A 
ATOM    122  F   UNL A   1      37.990  33.920  40.144  1.00  0.00    -0.200 F 
ATOM    123  F   UNL A   1      39.295  36.315  40.225  1.00  0.00    -0.200 F 
ENDBRANCH  85 113
BRANCH 100 124
ATOM    124  C   UNL A   1      44.168  28.957  35.078  1.00  0.00     0.064 A 
ATOM    125  C   UNL A   1      45.434  29.514  34.843  1.00  0.00     0.173 A 
ATOM    126  C   UNL A   1      44.079  27.888  35.982  1.00  0.00     0.173 A 
ATOM    127  F   UNL A   1      45.576  30.529  33.979  1.00  0.00    -0.203 F 
ATOM    128  C   UNL A   1      46.570  28.991  35.455  1.00  0.00     0.198 A 
ATOM    129  C   UNL A   1      45.213  27.392  36.621  1.00  0.00     0.198 A 
ATOM    130  F   UNL A   1      42.892  27.324  36.252  1.00  0.00    -0.203 F 
ATOM    131  F   UNL A   1      47.778  29.494  35.162  1.00  0.00    -0.200 F 
ATOM    132  C   UNL A   1      46.459  27.935  36.346  1.00  0.00     0.200 A 
ATOM    133  F   UNL A   1      45.101  26.383  37.495  1.00  0.00    -0.200 F 
ATOM    134  F   UNL A   1      47.555  27.433  36.933  1.00  0.00    -0.200 F 
ENDBRANCH 100 124
ENDBRANCH  65  68
ENDBRANCH  55  58
ENDBRANCH  51  54
ENDBRANCH  48  51
ENDBRANCH  45  48
ENDBRANCH   1  45
TORSDOF 16
ENDMDL
MODEL 6
REMARK VINA RESULT:     -12.0      5.281     10.783
REMARK SMILES [NH3+]Cc1c(-c2ccccc2)c(C(=O)NCCCCCCNC(=O)c2ccc(-c3c4nc(c(-c5c(F)c(F)c(F)c(F)c5F)c5ccc([nH]5)c(-c5c(F)c(F)c(F)c(F)c5F)c5nc(c(-c6c(F)c(F)c(F)c(F)c6F)c6ccc3[nH]6)C=C5)C=C4)cc2)c2ccccn12
REMARK SMILES IDX 17 1 16 4 15 7 14 10 12 11 13 12 11 14 3 15 4 16 92 17 87 18
REMARK SMILES IDX 91 19 88 20 90 21 89 23 2 27 1 30 5 34 6 35 10 36 7 37 9 39
REMARK SMILES IDX 8 41 18 45 19 48 20 51 21 54 22 55 23 57 24 58 25 59 86 60
REMARK SMILES IDX 26 61 85 63 27 65 28 68 29 69 79 70 30 71 84 72 78 73 80 74
REMARK SMILES IDX 31 75 83 76 77 78 76 80 32 82 64 85 44 86 63 87 45 88 48 89
REMARK SMILES IDX 62 90 81 91 46 92 47 94 61 96 82 97 49 100 33 102 34 103
REMARK SMILES IDX 42 104 35 105 36 106 40 107 43 108 37 109 38 110 41 111
REMARK SMILES IDX 39 112 65 113 66 114 74 115 67 116 68 117 72 118 75 119
REMARK SMILES IDX 69 120 70 121 73 122 71 123 50 124 51 125 59 126 52 127
REMARK SMILES IDX 53 128 57 129 60 130 54 131 55 132 58 133 56 134
REMARK H PARENT 17 2 17 3 16 5 16 6 15 8 15 9 14 13 91 22 88 24 90 25 89 26
REMARK H PARENT 2 28 2 29 1 31 1 32 1 33 6 38 10 40 7 42 9 43 8 44 18 46 18 47
REMARK H PARENT 19 49 19 50 20 52 20 53 21 56 25 62 86 64 26 66 85 67 84 77
REMARK H PARENT 78 79 80 81 83 83 77 84 45 93 48 95 81 98 46 99 82 101
REMARK Flexibility Score: inf
ROOT
ATOM      1  C   UNL A   1      36.949  21.575  24.335  1.00  0.00    -0.052 C 
ATOM      2  H   UNL A   1      37.562  21.483  23.462  1.00  0.00     0.027 H 
ATOM      3  H   UNL A   1      35.930  21.845  24.151  1.00  0.00     0.027 H 
ENDROOT
BRANCH   1   4
ATOM      4  C   UNL A   1      37.514  22.727  25.173  1.00  0.00    -0.036 C 
ATOM      5  H   UNL A   1      38.002  22.298  26.023  1.00  0.00     0.028 H 
ATOM      6  H   UNL A   1      38.155  23.265  24.505  1.00  0.00     0.028 H 
BRANCH   4   7
ATOM      7  C   UNL A   1      36.521  23.765  25.688  1.00  0.00     0.018 C 
ATOM      8  H   UNL A   1      37.070  24.648  25.942  1.00  0.00     0.049 H 
ATOM      9  H   UNL A   1      35.812  23.910  24.901  1.00  0.00     0.049 H 
BRANCH   7  10
ATOM     10  N   UNL A   1      35.755  23.369  26.845  1.00  0.00    -0.352 N 
ATOM     11  C   UNL A   1      34.484  22.842  26.950  1.00  0.00     0.254 C 
ATOM     12  O   UNL A   1      34.132  22.517  28.084  1.00  0.00    -0.269 OA
ATOM     13  H   UNL A   1      36.218  23.496  27.706  1.00  0.00     0.163 HD
BRANCH  11  14
ATOM     14  C   UNL A   1      33.569  22.756  25.801  1.00  0.00     0.073 A 
ATOM     15  C   UNL A   1      32.185  23.447  24.074  1.00  0.00     0.086 A 
ATOM     16  C   UNL A   1      32.864  23.869  25.220  1.00  0.00     0.022 A 
ATOM     17  N   UNL A   1      32.444  22.090  23.948  1.00  0.00    -0.314 N 
ATOM     18  C   UNL A   1      33.087  21.648  25.113  1.00  0.00     0.059 A 
ATOM     19  C   UNL A   1      32.153  21.207  22.898  1.00  0.00     0.009 A 
ATOM     20  C   UNL A   1      33.153  20.233  25.310  1.00  0.00    -0.037 A 
ATOM     21  C   UNL A   1      32.373  19.890  23.033  1.00  0.00    -0.045 A 
ATOM     22  H   UNL A   1      31.765  21.572  22.014  1.00  0.00     0.082 H 
ATOM     23  C   UNL A   1      32.843  19.392  24.307  1.00  0.00    -0.059 A 
ATOM     24  H   UNL A   1      33.438  19.855  26.226  1.00  0.00     0.065 H 
ATOM     25  H   UNL A   1      32.211  19.246  22.244  1.00  0.00     0.064 H 
ATOM     26  H   UNL A   1      32.942  18.375  24.449  1.00  0.00     0.062 H 
BRANCH  15  27
ATOM     27  C   UNL A   1      31.388  24.308  23.131  1.00  0.00     0.116 C 
ATOM     28  H   UNL A   1      31.565  25.330  23.394  1.00  0.00     0.099 H 
ATOM     29  H   UNL A   1      31.720  24.040  22.150  1.00  0.00     0.099 H 
BRANCH  27  30
ATOM     30  N   UNL A   1      29.950  24.095  23.125  1.00  0.00    -0.353 N 
ATOM     31  H   UNL A   1      29.651  23.780  24.048  1.00  0.00     0.344 HD
ATOM     32  H   UNL A   1      29.714  23.388  22.430  1.00  0.00     0.344 HD
ATOM     33  H   UNL A   1      29.479  24.969  22.895  1.00  0.00     0.344 HD
ENDBRANCH  27  30
ENDBRANCH  15  27
BRANCH  16  34
ATOM     34  C   UNL A   1      32.815  25.252  25.681  1.00  0.00    -0.016 A 
ATOM     35  C   UNL A   1      31.737  25.722  26.435  1.00  0.00    -0.054 A 
ATOM     36  C   UNL A   1      33.867  26.122  25.361  1.00  0.00    -0.054 A 
ATOM     37  C   UNL A   1      31.718  27.049  26.872  1.00  0.00    -0.062 A 
ATOM     38  H   UNL A   1      30.956  25.089  26.670  1.00  0.00     0.063 H 
ATOM     39  C   UNL A   1      33.850  27.444  25.807  1.00  0.00    -0.062 A 
ATOM     40  H   UNL A   1      34.658  25.782  24.792  1.00  0.00     0.063 H 
ATOM     41  C   UNL A   1      32.775  27.906  26.562  1.00  0.00    -0.062 A 
ATOM     42  H   UNL A   1      30.921  27.396  27.428  1.00  0.00     0.062 H 
ATOM     43  H   UNL A   1      34.632  28.078  25.577  1.00  0.00     0.062 H 
ATOM     44  H   UNL A   1      32.760  28.885  26.893  1.00  0.00     0.062 H 
ENDBRANCH  16  34
ENDBRANCH  11  14
ENDBRANCH   7  10
ENDBRANCH   4   7
ENDBRANCH   1   4
BRANCH   1  45
ATOM     45  C   UNL A   1      36.877  20.195  24.993  1.00  0.00    -0.052 C 
ATOM     46  H   UNL A   1      36.130  19.629  24.476  1.00  0.00     0.027 H 
ATOM     47  H   UNL A   1      36.665  20.389  26.024  1.00  0.00     0.027 H 
BRANCH  45  48
ATOM     48  C   UNL A   1      38.162  19.362  25.004  1.00  0.00    -0.036 C 
ATOM     49  H   UNL A   1      38.610  19.444  24.037  1.00  0.00     0.028 H 
ATOM     50  H   UNL A   1      37.857  18.371  25.267  1.00  0.00     0.028 H 
BRANCH  48  51
ATOM     51  C   UNL A   1      39.209  19.755  26.037  1.00  0.00     0.018 C 
ATOM     52  H   UNL A   1      38.782  19.649  27.012  1.00  0.00     0.049 H 
ATOM     53  H   UNL A   1      39.496  20.766  25.833  1.00  0.00     0.049 H 
BRANCH  51  54
ATOM     54  N   UNL A   1      40.411  18.943  25.969  1.00  0.00    -0.352 N 
ATOM     55  C   UNL A   1      41.729  19.312  26.060  1.00  0.00     0.251 C 
ATOM     56  H   UNL A   1      40.255  17.980  25.838  1.00  0.00     0.163 HD
ATOM     57  O   UNL A   1      42.609  18.486  25.842  1.00  0.00    -0.269 OA
BRANCH  55  58
ATOM     58  C   UNL A   1      42.102  20.705  26.400  1.00  0.00     0.039 A 
ATOM     59  C   UNL A   1      42.258  21.626  25.359  1.00  0.00    -0.049 A 
ATOM     60  C   UNL A   1      42.344  21.100  27.718  1.00  0.00    -0.049 A 
ATOM     61  C   UNL A   1      42.619  22.945  25.642  1.00  0.00    -0.053 A 
ATOM     62  H   UNL A   1      42.104  21.332  24.382  1.00  0.00     0.063 H 
ATOM     63  C   UNL A   1      42.624  22.434  28.007  1.00  0.00    -0.053 A 
ATOM     64  H   UNL A   1      42.316  20.403  28.478  1.00  0.00     0.063 H 
ATOM     65  C   UNL A   1      42.787  23.366  26.971  1.00  0.00    -0.014 A 
ATOM     66  H   UNL A   1      42.764  23.614  24.870  1.00  0.00     0.063 H 
ATOM     67  H   UNL A   1      42.712  22.739  28.989  1.00  0.00     0.063 H 
BRANCH  65  68
ATOM     68  C   UNL A   1      43.173  24.767  27.284  1.00  0.00     0.031 A 
ATOM     69  C   UNL A   1      44.573  25.245  27.003  1.00  0.00     0.074 A 
ATOM     70  C   UNL A   1      42.278  25.600  27.849  1.00  0.00     0.049 A 
ATOM     71  N   UNL A   1      45.110  26.419  27.226  1.00  0.00    -0.248 NA
ATOM     72  C   UNL A   1      45.502  24.264  26.421  1.00  0.00    -0.034 C 
ATOM     73  C   UNL A   1      40.906  25.244  28.213  1.00  0.00    -0.036 A 
ATOM     74  N   UNL A   1      42.389  26.917  28.217  1.00  0.00    -0.354 N 
ATOM     75  C   UNL A   1      46.435  26.312  26.821  1.00  0.00     0.074 A 
ATOM     76  C   UNL A   1      46.639  24.943  26.403  1.00  0.00    -0.034 C 
ATOM     77  H   UNL A   1      45.317  23.299  26.107  1.00  0.00     0.065 H 
ATOM     78  C   UNL A   1      40.293  26.324  28.724  1.00  0.00    -0.036 A 
ATOM     79  H   UNL A   1      40.478  24.313  28.095  1.00  0.00     0.065 H 
ATOM     80  C   UNL A   1      41.237  27.436  28.757  1.00  0.00     0.049 A 
ATOM     81  H   UNL A   1      43.215  27.440  28.106  1.00  0.00     0.167 HD
ATOM     82  C   UNL A   1      47.388  27.274  26.775  1.00  0.00     0.037 A 
ATOM     83  H   UNL A   1      47.551  24.548  26.126  1.00  0.00     0.065 H 
ATOM     84  H   UNL A   1      39.313  26.362  29.043  1.00  0.00     0.065 H 
ATOM     85  C   UNL A   1      40.975  28.672  29.224  1.00  0.00     0.037 A 
ATOM     86  C   UNL A   1      47.175  28.642  27.173  1.00  0.00     0.049 A 
ATOM     87  C   UNL A   1      42.051  29.724  29.162  1.00  0.00     0.074 A 
ATOM     88  C   UNL A   1      48.059  29.706  27.119  1.00  0.00    -0.036 A 
ATOM     89  N   UNL A   1      45.989  29.135  27.699  1.00  0.00    -0.354 N 
ATOM     90  N   UNL A   1      43.280  29.628  28.715  1.00  0.00    -0.248 NA
ATOM     91  C   UNL A   1      41.696  31.060  29.658  1.00  0.00    -0.034 C 
ATOM     92  C   UNL A   1      47.426  30.830  27.662  1.00  0.00    -0.036 A 
ATOM     93  H   UNL A   1      49.019  29.675  26.743  1.00  0.00     0.065 H 
ATOM     94  C   UNL A   1      46.126  30.483  27.994  1.00  0.00     0.049 A 
ATOM     95  H   UNL A   1      45.172  28.606  27.843  1.00  0.00     0.167 HD
ATOM     96  C   UNL A   1      43.832  30.896  28.843  1.00  0.00     0.074 A 
ATOM     97  C   UNL A   1      42.797  31.747  29.390  1.00  0.00    -0.034 C 
ATOM     98  H   UNL A   1      40.819  31.380  30.098  1.00  0.00     0.065 H 
ATOM     99  H   UNL A   1      47.855  31.759  27.793  1.00  0.00     0.065 H 
ATOM    100  C   UNL A   1      45.084  31.319  28.535  1.00  0.00     0.037 A 
ATOM    101  H   UNL A   1      42.902  32.760  29.552  1.00  0.00     0.065 H 
BRANCH  82 102
ATOM    102  C   UNL A   1      48.749  26.880  26.276  1.00  0.00     0.064 A 
ATOM    103  C   UNL A   1      49.108  27.011  24.924  1.00  0.00     0.173 A 
ATOM    104  C   UNL A   1      49.719  26.388  27.163  1.00  0.00     0.173 A 
ATOM    105  F   UNL A   1      48.216  27.465  24.031  1.00  0.00    -0.203 F 
ATOM    106  C   UNL A   1      50.370  26.632  24.475  1.00  0.00     0.198 A 
ATOM    107  C   UNL A   1      50.993  26.042  26.716  1.00  0.00     0.198 A 
ATOM    108  F   UNL A   1      49.435  26.245  28.466  1.00  0.00    -0.203 F 
ATOM    109  F   UNL A   1      50.666  26.712  23.171  1.00  0.00    -0.200 F 
ATOM    110  C   UNL A   1      51.314  26.155  25.372  1.00  0.00     0.200 A 
ATOM    111  F   UNL A   1      51.908  25.595  27.586  1.00  0.00    -0.200 F 
ATOM    112  F   UNL A   1      52.530  25.796  24.939  1.00  0.00    -0.200 F 
ENDBRANCH  82 102
BRANCH  85 113
ATOM    113  C   UNL A   1      39.626  28.994  29.762  1.00  0.00     0.064 A 
ATOM    114  C   UNL A   1      39.314  28.766  31.110  1.00  0.00     0.173 A 
ATOM    115  C   UNL A   1      38.617  29.517  28.941  1.00  0.00     0.173 A 
ATOM    116  F   UNL A   1      40.239  28.248  31.933  1.00  0.00    -0.203 F 
ATOM    117  C   UNL A   1      38.038  29.022  31.610  1.00  0.00     0.198 A 
ATOM    118  C   UNL A   1      37.352  29.804  29.448  1.00  0.00     0.198 A 
ATOM    119  F   UNL A   1      38.864  29.760  27.645  1.00  0.00    -0.203 F 
ATOM    120  F   UNL A   1      37.753  28.742  32.888  1.00  0.00    -0.200 F 
ATOM    121  C   UNL A   1      37.059  29.545  30.779  1.00  0.00     0.200 A 
ATOM    122  F   UNL A   1      36.413  30.325  28.646  1.00  0.00    -0.200 F 
ATOM    123  F   UNL A   1      35.833  29.792  31.258  1.00  0.00    -0.200 F 
ENDBRANCH  85 113
BRANCH 100 124
ATOM    124  C   UNL A   1      45.385  32.777  28.740  1.00  0.00     0.064 A 
ATOM    125  C   UNL A   1      45.934  33.260  29.938  1.00  0.00     0.173 A 
ATOM    126  C   UNL A   1      45.127  33.703  27.718  1.00  0.00     0.173 A 
ATOM    127  F   UNL A   1      46.188  32.420  30.952  1.00  0.00    -0.203 F 
ATOM    128  C   UNL A   1      46.173  34.620  30.119  1.00  0.00     0.198 A 
ATOM    129  C   UNL A   1      45.402  35.057  27.889  1.00  0.00     0.198 A 
ATOM    130  F   UNL A   1      44.612  33.295  26.548  1.00  0.00    -0.203 F 
ATOM    131  F   UNL A   1      46.632  35.066  31.297  1.00  0.00    -0.200 F 
ATOM    132  C   UNL A   1      45.912  35.516  29.095  1.00  0.00     0.200 A 
ATOM    133  F   UNL A   1      45.165  35.919  26.891  1.00  0.00    -0.200 F 
ATOM    134  F   UNL A   1      46.141  36.825  29.272  1.00  0.00    -0.200 F 
ENDBRANCH 100 124
ENDBRANCH  65  68
ENDBRANCH  55  58
ENDBRANCH  51  54
ENDBRANCH  48  51
ENDBRANCH  45  48
ENDBRANCH   1  45
TORSDOF 16
ENDMDL
MODEL 7
REMARK VINA RESULT:     -11.9      1.296      7.805
REMARK SMILES [NH3+]Cc1c(-c2ccccc2)c(C(=O)NCCCCCCNC(=O)c2ccc(-c3c4nc(c(-c5c(F)c(F)c(F)c(F)c5F)c5ccc([nH]5)c(-c5c(F)c(F)c(F)c(F)c5F)c5nc(c(-c6c(F)c(F)c(F)c(F)c6F)c6ccc3[nH]6)C=C5)C=C4)cc2)c2ccccn12
REMARK SMILES IDX 17 1 16 4 15 7 14 10 12 11 13 12 11 14 3 15 4 16 92 17 87 18
REMARK SMILES IDX 91 19 88 20 90 21 89 23 2 27 1 30 5 34 6 35 10 36 7 37 9 39
REMARK SMILES IDX 8 41 18 45 19 48 20 51 21 54 22 55 23 57 24 58 25 59 86 60
REMARK SMILES IDX 26 61 85 63 27 65 28 68 29 69 79 70 30 71 84 72 78 73 80 74
REMARK SMILES IDX 31 75 83 76 77 78 76 80 32 82 64 85 44 86 63 87 45 88 48 89
REMARK SMILES IDX 62 90 81 91 46 92 47 94 61 96 82 97 49 100 33 102 34 103
REMARK SMILES IDX 42 104 35 105 36 106 40 107 43 108 37 109 38 110 41 111
REMARK SMILES IDX 39 112 65 113 66 114 74 115 67 116 68 117 72 118 75 119
REMARK SMILES IDX 69 120 70 121 73 122 71 123 50 124 51 125 59 126 52 127
REMARK SMILES IDX 53 128 57 129 60 130 54 131 55 132 58 133 56 134
REMARK H PARENT 17 2 17 3 16 5 16 6 15 8 15 9 14 13 91 22 88 24 90 25 89 26
REMARK H PARENT 2 28 2 29 1 31 1 32 1 33 6 38 10 40 7 42 9 43 8 44 18 46 18 47
REMARK H PARENT 19 49 19 50 20 52 20 53 21 56 25 62 86 64 26 66 85 67 84 77
REMARK H PARENT 78 79 80 81 83 83 77 84 45 93 48 95 81 98 46 99 82 101
REMARK Flexibility Score: inf
ROOT
ATOM      1  C   UNL A   1      32.352  30.117  26.180  1.00  0.00    -0.052 C 
ATOM      2  H   UNL A   1      32.664  29.608  25.292  1.00  0.00     0.027 H 
ATOM      3  H   UNL A   1      33.060  30.811  26.581  1.00  0.00     0.027 H 
ENDROOT
BRANCH   1   4
ATOM      4  C   UNL A   1      32.176  29.061  27.276  1.00  0.00    -0.036 C 
ATOM      5  H   UNL A   1      32.859  29.299  28.065  1.00  0.00     0.028 H 
ATOM      6  H   UNL A   1      31.141  29.109  27.542  1.00  0.00     0.028 H 
BRANCH   4   7
ATOM      7  C   UNL A   1      32.415  27.605  26.885  1.00  0.00     0.018 C 
ATOM      8  H   UNL A   1      32.804  27.592  25.888  1.00  0.00     0.049 H 
ATOM      9  H   UNL A   1      33.090  27.211  27.616  1.00  0.00     0.049 H 
BRANCH   7  10
ATOM     10  N   UNL A   1      31.250  26.755  26.921  1.00  0.00    -0.352 N 
ATOM     11  C   UNL A   1      30.887  25.687  26.126  1.00  0.00     0.254 C 
ATOM     12  O   UNL A   1      29.862  25.094  26.462  1.00  0.00    -0.269 OA
ATOM     13  H   UNL A   1      30.605  26.974  27.632  1.00  0.00     0.163 HD
BRANCH  11  14
ATOM     14  C   UNL A   1      31.622  25.329  24.902  1.00  0.00     0.073 A 
ATOM     15  C   UNL A   1      32.499  25.520  22.765  1.00  0.00     0.086 A 
ATOM     16  C   UNL A   1      31.592  26.076  23.672  1.00  0.00     0.022 A 
ATOM     17  N   UNL A   1      33.073  24.433  23.408  1.00  0.00    -0.314 N 
ATOM     18  C   UNL A   1      32.374  24.199  24.600  1.00  0.00     0.059 A 
ATOM     19  C   UNL A   1      34.154  23.625  23.027  1.00  0.00     0.009 A 
ATOM     20  C   UNL A   1      32.608  22.942  25.242  1.00  0.00    -0.037 A 
ATOM     21  C   UNL A   1      34.470  22.530  23.736  1.00  0.00    -0.045 A 
ATOM     22  H   UNL A   1      34.712  23.873  22.195  1.00  0.00     0.082 H 
ATOM     23  C   UNL A   1      33.629  22.159  24.852  1.00  0.00    -0.059 A 
ATOM     24  H   UNL A   1      31.989  22.635  26.008  1.00  0.00     0.065 H 
ATOM     25  H   UNL A   1      35.298  21.965  23.491  1.00  0.00     0.064 H 
ATOM     26  H   UNL A   1      33.814  21.278  25.357  1.00  0.00     0.062 H 
BRANCH  15  27
ATOM     27  C   UNL A   1      32.830  26.038  21.391  1.00  0.00     0.116 C 
ATOM     28  H   UNL A   1      32.829  27.107  21.437  1.00  0.00     0.099 H 
ATOM     29  H   UNL A   1      33.777  25.606  21.145  1.00  0.00     0.099 H 
BRANCH  27  30
ATOM     30  N   UNL A   1      31.932  25.641  20.320  1.00  0.00    -0.353 N 
ATOM     31  H   UNL A   1      31.443  26.463  19.965  1.00  0.00     0.344 HD
ATOM     32  H   UNL A   1      31.255  24.968  20.676  1.00  0.00     0.344 HD
ATOM     33  H   UNL A   1      32.470  25.215  19.566  1.00  0.00     0.344 HD
ENDBRANCH  27  30
ENDBRANCH  15  27
BRANCH  16  34
ATOM     34  C   UNL A   1      30.783  27.242  23.338  1.00  0.00    -0.016 A 
ATOM     35  C   UNL A   1      31.378  28.435  22.920  1.00  0.00    -0.054 A 
ATOM     36  C   UNL A   1      29.387  27.164  23.439  1.00  0.00    -0.054 A 
ATOM     37  C   UNL A   1      30.579  29.536  22.598  1.00  0.00    -0.062 A 
ATOM     38  H   UNL A   1      32.405  28.503  22.849  1.00  0.00     0.063 H 
ATOM     39  C   UNL A   1      28.592  28.261  23.107  1.00  0.00    -0.062 A 
ATOM     40  H   UNL A   1      28.945  26.288  23.761  1.00  0.00     0.063 H 
ATOM     41  C   UNL A   1      29.189  29.446  22.687  1.00  0.00    -0.062 A 
ATOM     42  H   UNL A   1      31.019  30.418  22.291  1.00  0.00     0.062 H 
ATOM     43  H   UNL A   1      27.564  28.194  23.173  1.00  0.00     0.062 H 
ATOM     44  H   UNL A   1      28.603  30.260  22.441  1.00  0.00     0.062 H 
ENDBRANCH  16  34
ENDBRANCH  11  14
ENDBRANCH   7  10
ENDBRANCH   4   7
ENDBRANCH   1   4
BRANCH   1  45
ATOM     45  C   UNL A   1      31.131  30.966  25.818  1.00  0.00    -0.052 C 
ATOM     46  H   UNL A   1      30.275  30.512  26.272  1.00  0.00     0.027 H 
ATOM     47  H   UNL A   1      31.117  30.991  24.748  1.00  0.00     0.027 H 
BRANCH  45  48
ATOM     48  C   UNL A   1      31.155  32.436  26.247  1.00  0.00    -0.036 C 
ATOM     49  H   UNL A   1      30.226  32.649  26.732  1.00  0.00     0.028 H 
ATOM     50  H   UNL A   1      31.321  32.992  25.349  1.00  0.00     0.028 H 
BRANCH  48  51
ATOM     51  C   UNL A   1      32.277  32.843  27.193  1.00  0.00     0.018 C 
ATOM     52  H   UNL A   1      33.213  32.676  26.702  1.00  0.00     0.049 H 
ATOM     53  H   UNL A   1      32.178  32.250  28.079  1.00  0.00     0.049 H 
BRANCH  51  54
ATOM     54  N   UNL A   1      32.207  34.235  27.596  1.00  0.00    -0.352 N 
ATOM     55  C   UNL A   1      32.958  34.925  28.513  1.00  0.00     0.251 C 
ATOM     56  H   UNL A   1      31.515  34.766  27.141  1.00  0.00     0.163 HD
ATOM     57  O   UNL A   1      32.653  36.075  28.810  1.00  0.00    -0.269 OA
BRANCH  55  58
ATOM     58  C   UNL A   1      34.126  34.288  29.167  1.00  0.00     0.039 A 
ATOM     59  C   UNL A   1      33.896  33.409  30.231  1.00  0.00    -0.049 A 
ATOM     60  C   UNL A   1      35.435  34.579  28.778  1.00  0.00    -0.049 A 
ATOM     61  C   UNL A   1      34.974  32.799  30.876  1.00  0.00    -0.053 A 
ATOM     62  H   UNL A   1      32.931  33.211  30.538  1.00  0.00     0.063 H 
ATOM     63  C   UNL A   1      36.505  33.908  29.367  1.00  0.00    -0.053 A 
ATOM     64  H   UNL A   1      35.610  35.292  28.053  1.00  0.00     0.063 H 
ATOM     65  C   UNL A   1      36.288  33.028  30.438  1.00  0.00    -0.014 A 
ATOM     66  H   UNL A   1      34.803  32.176  31.682  1.00  0.00     0.063 H 
ATOM     67  H   UNL A   1      37.462  34.059  29.014  1.00  0.00     0.063 H 
BRANCH  65  68
ATOM     68  C   UNL A   1      37.442  32.386  31.119  1.00  0.00     0.031 A 
ATOM     69  C   UNL A   1      38.202  31.279  30.438  1.00  0.00     0.074 A 
ATOM     70  C   UNL A   1      37.788  32.773  32.362  1.00  0.00     0.049 A 
ATOM     71  N   UNL A   1      39.219  30.578  30.874  1.00  0.00    -0.248 NA
ATOM     72  C   UNL A   1      37.738  30.887  29.097  1.00  0.00    -0.034 C 
ATOM     73  C   UNL A   1      37.103  33.801  33.147  1.00  0.00    -0.036 A 
ATOM     74  N   UNL A   1      38.802  32.347  33.183  1.00  0.00    -0.354 N 
ATOM     75  C   UNL A   1      39.507  29.663  29.870  1.00  0.00     0.074 A 
ATOM     76  C   UNL A   1      38.517  29.849  28.832  1.00  0.00    -0.034 C 
ATOM     77  H   UNL A   1      36.999  31.310  28.515  1.00  0.00     0.065 H 
ATOM     78  C   UNL A   1      37.734  33.947  34.324  1.00  0.00    -0.036 A 
ATOM     79  H   UNL A   1      36.270  34.328  32.846  1.00  0.00     0.065 H 
ATOM     80  C   UNL A   1      38.844  33.001  34.390  1.00  0.00     0.049 A 
ATOM     81  H   UNL A   1      39.438  31.640  32.931  1.00  0.00     0.167 HD
ATOM     82  C   UNL A   1      40.520  28.766  29.805  1.00  0.00     0.037 A 
ATOM     83  H   UNL A   1      38.431  29.254  27.993  1.00  0.00     0.065 H 
ATOM     84  H   UNL A   1      37.476  34.620  35.062  1.00  0.00     0.065 H 
ATOM     85  C   UNL A   1      39.685  32.853  35.432  1.00  0.00     0.037 A 
ATOM     86  C   UNL A   1      41.517  28.596  30.831  1.00  0.00     0.049 A 
ATOM     87  C   UNL A   1      40.803  31.849  35.335  1.00  0.00     0.074 A 
ATOM     88  C   UNL A   1      42.612  27.751  30.841  1.00  0.00    -0.036 A 
ATOM     89  N   UNL A   1      41.536  29.289  32.034  1.00  0.00    -0.354 N 
ATOM     90  N   UNL A   1      41.105  31.036  34.352  1.00  0.00    -0.248 NA
ATOM     91  C   UNL A   1      41.706  31.755  36.490  1.00  0.00    -0.034 C 
ATOM     92  C   UNL A   1      43.265  27.894  32.071  1.00  0.00    -0.036 A 
ATOM     93  H   UNL A   1      42.899  27.124  30.073  1.00  0.00     0.065 H 
ATOM     94  C   UNL A   1      42.613  28.875  32.801  1.00  0.00     0.049 A 
ATOM     95  H   UNL A   1      40.881  29.973  32.302  1.00  0.00     0.167 HD
ATOM     96  C   UNL A   1      42.249  30.360  34.754  1.00  0.00     0.074 A 
ATOM     97  C   UNL A   1      42.598  30.875  36.062  1.00  0.00    -0.034 C 
ATOM     98  H   UNL A   1      41.658  32.247  37.396  1.00  0.00     0.065 H 
ATOM     99  H   UNL A   1      44.091  27.359  32.381  1.00  0.00     0.065 H 
ATOM    100  C   UNL A   1      42.950  29.400  34.100  1.00  0.00     0.037 A 
ATOM    101  H   UNL A   1      43.435  30.591  36.594  1.00  0.00     0.065 H 
BRANCH  82 102
ATOM    102  C   UNL A   1      40.602  27.898  28.580  1.00  0.00     0.064 A 
ATOM    103  C   UNL A   1      41.358  28.274  27.457  1.00  0.00     0.173 A 
ATOM    104  C   UNL A   1      39.939  26.662  28.536  1.00  0.00     0.173 A 
ATOM    105  F   UNL A   1      42.002  29.450  27.440  1.00  0.00    -0.203 F 
ATOM    106  C   UNL A   1      41.416  27.464  26.326  1.00  0.00     0.198 A 
ATOM    107  C   UNL A   1      40.028  25.838  27.416  1.00  0.00     0.198 A 
ATOM    108  F   UNL A   1      39.207  26.249  29.581  1.00  0.00    -0.203 F 
ATOM    109  F   UNL A   1      42.095  27.873  25.246  1.00  0.00    -0.200 F 
ATOM    110  C   UNL A   1      40.757  26.243  26.309  1.00  0.00     0.200 A 
ATOM    111  F   UNL A   1      39.403  24.653  27.407  1.00  0.00    -0.200 F 
ATOM    112  F   UNL A   1      40.819  25.462  25.222  1.00  0.00    -0.200 F 
ENDBRANCH  82 102
BRANCH  85 113
ATOM    113  C   UNL A   1      39.523  33.698  36.645  1.00  0.00     0.064 A 
ATOM    114  C   UNL A   1      38.768  33.252  37.740  1.00  0.00     0.173 A 
ATOM    115  C   UNL A   1      40.101  34.972  36.731  1.00  0.00     0.173 A 
ATOM    116  F   UNL A   1      38.177  32.047  37.699  1.00  0.00    -0.203 F 
ATOM    117  C   UNL A   1      38.574  34.058  38.860  1.00  0.00     0.198 A 
ATOM    118  C   UNL A   1      39.935  35.765  37.865  1.00  0.00     0.198 A 
ATOM    119  F   UNL A   1      40.839  35.446  35.715  1.00  0.00    -0.203 F 
ATOM    120  F   UNL A   1      37.802  33.628  39.867  1.00  0.00    -0.200 F 
ATOM    121  C   UNL A   1      39.162  35.312  38.924  1.00  0.00     0.200 A 
ATOM    122  F   UNL A   1      40.518  36.970  37.929  1.00  0.00    -0.200 F 
ATOM    123  F   UNL A   1      38.977  36.087  40.001  1.00  0.00    -0.200 F 
ENDBRANCH  85 113
BRANCH 100 124
ATOM    124  C   UNL A   1      44.190  28.879  34.772  1.00  0.00     0.064 A 
ATOM    125  C   UNL A   1      45.444  29.479  34.583  1.00  0.00     0.173 A 
ATOM    126  C   UNL A   1      44.117  27.767  35.626  1.00  0.00     0.173 A 
ATOM    127  F   UNL A   1      45.572  30.536  33.768  1.00  0.00    -0.203 F 
ATOM    128  C   UNL A   1      46.585  28.958  35.189  1.00  0.00     0.198 A 
ATOM    129  C   UNL A   1      45.254  27.273  36.259  1.00  0.00     0.198 A 
ATOM    130  F   UNL A   1      42.941  27.162  35.850  1.00  0.00    -0.203 F 
ATOM    131  F   UNL A   1      47.783  29.505  34.938  1.00  0.00    -0.200 F 
ATOM    132  C   UNL A   1      46.489  27.860  36.030  1.00  0.00     0.200 A 
ATOM    133  F   UNL A   1      45.155  26.222  37.085  1.00  0.00    -0.200 F 
ATOM    134  F   UNL A   1      47.589  27.360  36.611  1.00  0.00    -0.200 F 
ENDBRANCH 100 124
ENDBRANCH  65  68
ENDBRANCH  55  58
ENDBRANCH  51  54
ENDBRANCH  48  51
ENDBRANCH  45  48
ENDBRANCH   1  45
TORSDOF 16
ENDMDL
MODEL 8
REMARK VINA RESULT:     -11.9      1.185      2.954
REMARK SMILES [NH3+]Cc1c(-c2ccccc2)c(C(=O)NCCCCCCNC(=O)c2ccc(-c3c4nc(c(-c5c(F)c(F)c(F)c(F)c5F)c5ccc([nH]5)c(-c5c(F)c(F)c(F)c(F)c5F)c5nc(c(-c6c(F)c(F)c(F)c(F)c6F)c6ccc3[nH]6)C=C5)C=C4)cc2)c2ccccn12
REMARK SMILES IDX 17 1 16 4 15 7 14 10 12 11 13 12 11 14 3 15 4 16 92 17 87 18
REMARK SMILES IDX 91 19 88 20 90 21 89 23 2 27 1 30 5 34 6 35 10 36 7 37 9 39
REMARK SMILES IDX 8 41 18 45 19 48 20 51 21 54 22 55 23 57 24 58 25 59 86 60
REMARK SMILES IDX 26 61 85 63 27 65 28 68 29 69 79 70 30 71 84 72 78 73 80 74
REMARK SMILES IDX 31 75 83 76 77 78 76 80 32 82 64 85 44 86 63 87 45 88 48 89
REMARK SMILES IDX 62 90 81 91 46 92 47 94 61 96 82 97 49 100 33 102 34 103
REMARK SMILES IDX 42 104 35 105 36 106 40 107 43 108 37 109 38 110 41 111
REMARK SMILES IDX 39 112 65 113 66 114 74 115 67 116 68 117 72 118 75 119
REMARK SMILES IDX 69 120 70 121 73 122 71 123 50 124 51 125 59 126 52 127
REMARK SMILES IDX 53 128 57 129 60 130 54 131 55 132 58 133 56 134
REMARK H PARENT 17 2 17 3 16 5 16 6 15 8 15 9 14 13 91 22 88 24 90 25 89 26
REMARK H PARENT 2 28 2 29 1 31 1 32 1 33 6 38 10 40 7 42 9 43 8 44 18 46 18 47
REMARK H PARENT 19 49 19 50 20 52 20 53 21 56 25 62 86 64 26 66 85 67 84 77
REMARK H PARENT 78 79 80 81 83 83 77 84 45 93 48 95 81 98 46 99 82 101
REMARK Flexibility Score: inf
ROOT
ATOM      1  C   UNL A   1      32.295  30.088  26.357  1.00  0.00    -0.052 C 
ATOM      2  H   UNL A   1      32.742  29.649  25.489  1.00  0.00     0.027 H 
ATOM      3  H   UNL A   1      32.954  30.671  26.965  1.00  0.00     0.027 H 
ENDROOT
BRANCH   1   4
ATOM      4  C   UNL A   1      31.834  28.943  27.265  1.00  0.00    -0.036 C 
ATOM      5  H   UNL A   1      32.239  29.122  28.240  1.00  0.00     0.028 H 
ATOM      6  H   UNL A   1      30.765  28.959  27.208  1.00  0.00     0.028 H 
BRANCH   4   7
ATOM      7  C   UNL A   1      32.230  27.527  26.856  1.00  0.00     0.018 C 
ATOM      8  H   UNL A   1      32.584  27.563  25.846  1.00  0.00     0.049 H 
ATOM      9  H   UNL A   1      32.971  27.214  27.561  1.00  0.00     0.049 H 
BRANCH   7  10
ATOM     10  N   UNL A   1      31.175  26.545  26.923  1.00  0.00    -0.352 N 
ATOM     11  C   UNL A   1      30.926  25.433  26.145  1.00  0.00     0.254 C 
ATOM     12  O   UNL A   1      29.985  24.726  26.508  1.00  0.00    -0.269 OA
ATOM     13  H   UNL A   1      30.523  26.693  27.647  1.00  0.00     0.163 HD
BRANCH  11  14
ATOM     14  C   UNL A   1      31.672  25.153  24.908  1.00  0.00     0.073 A 
ATOM     15  C   UNL A   1      32.536  25.461  22.779  1.00  0.00     0.086 A 
ATOM     16  C   UNL A   1      31.610  25.944  23.707  1.00  0.00     0.022 A 
ATOM     17  N   UNL A   1      33.156  24.375  23.380  1.00  0.00    -0.314 N 
ATOM     18  C   UNL A   1      32.469  24.067  24.563  1.00  0.00     0.059 A 
ATOM     19  C   UNL A   1      34.268  23.627  22.969  1.00  0.00     0.009 A 
ATOM     20  C   UNL A   1      32.755  22.797  25.157  1.00  0.00    -0.037 A 
ATOM     21  C   UNL A   1      34.631  22.520  23.635  1.00  0.00    -0.045 A 
ATOM     22  H   UNL A   1      34.814  23.930  22.146  1.00  0.00     0.082 H 
ATOM     23  C   UNL A   1      33.807  22.072  24.736  1.00  0.00    -0.059 A 
ATOM     24  H   UNL A   1      32.152  22.436  25.910  1.00  0.00     0.065 H 
ATOM     25  H   UNL A   1      35.480  21.998  23.368  1.00  0.00     0.064 H 
ATOM     26  H   UNL A   1      34.029  21.181  25.208  1.00  0.00     0.062 H 
BRANCH  15  27
ATOM     27  C   UNL A   1      32.844  26.045  21.426  1.00  0.00     0.116 C 
ATOM     28  H   UNL A   1      32.737  27.107  21.498  1.00  0.00     0.099 H 
ATOM     29  H   UNL A   1      33.834  25.714  21.192  1.00  0.00     0.099 H 
BRANCH  27  30
ATOM     30  N   UNL A   1      32.012  25.590  20.325  1.00  0.00    -0.353 N 
ATOM     31  H   UNL A   1      31.030  25.740  20.557  1.00  0.00     0.344 HD
ATOM     32  H   UNL A   1      32.176  24.597  20.163  1.00  0.00     0.344 HD
ATOM     33  H   UNL A   1      32.246  26.115  19.483  1.00  0.00     0.344 HD
ENDBRANCH  27  30
ENDBRANCH  15  27
BRANCH  16  34
ATOM     34  C   UNL A   1      30.753  27.089  23.419  1.00  0.00    -0.016 A 
ATOM     35  C   UNL A   1      29.362  26.979  23.474  1.00  0.00    -0.054 A 
ATOM     36  C   UNL A   1      31.337  28.318  23.081  1.00  0.00    -0.054 A 
ATOM     37  C   UNL A   1      28.564  28.093  23.202  1.00  0.00    -0.062 A 
ATOM     38  H   UNL A   1      28.924  26.077  23.716  1.00  0.00     0.063 H 
ATOM     39  C   UNL A   1      30.538  29.430  22.818  1.00  0.00    -0.062 A 
ATOM     40  H   UNL A   1      32.365  28.399  23.025  1.00  0.00     0.063 H 
ATOM     41  C   UNL A   1      29.152  29.318  22.879  1.00  0.00    -0.062 A 
ATOM     42  H   UNL A   1      27.536  28.012  23.240  1.00  0.00     0.062 H 
ATOM     43  H   UNL A   1      30.974  30.336  22.580  1.00  0.00     0.062 H 
ATOM     44  H   UNL A   1      28.558  30.140  22.685  1.00  0.00     0.062 H 
ENDBRANCH  16  34
ENDBRANCH  11  14
ENDBRANCH   7  10
ENDBRANCH   4   7
ENDBRANCH   1   4
BRANCH   1  45
ATOM     45  C   UNL A   1      31.230  31.076  25.874  1.00  0.00    -0.052 C 
ATOM     46  H   UNL A   1      30.273  30.644  26.077  1.00  0.00     0.027 H 
ATOM     47  H   UNL A   1      31.445  31.233  24.838  1.00  0.00     0.027 H 
BRANCH  45  48
ATOM     48  C   UNL A   1      31.247  32.475  26.497  1.00  0.00    -0.036 C 
ATOM     49  H   UNL A   1      30.442  32.528  27.199  1.00  0.00     0.028 H 
ATOM     50  H   UNL A   1      31.161  33.154  25.675  1.00  0.00     0.028 H 
BRANCH  48  51
ATOM     51  C   UNL A   1      32.525  32.873  27.223  1.00  0.00     0.018 C 
ATOM     52  H   UNL A   1      33.347  32.771  26.545  1.00  0.00     0.049 H 
ATOM     53  H   UNL A   1      32.624  32.229  28.072  1.00  0.00     0.049 H 
BRANCH  51  54
ATOM     54  N   UNL A   1      32.500  34.237  27.717  1.00  0.00    -0.352 N 
ATOM     55  C   UNL A   1      33.267  34.838  28.682  1.00  0.00     0.251 C 
ATOM     56  H   UNL A   1      31.829  34.820  27.295  1.00  0.00     0.163 HD
ATOM     57  O   UNL A   1      32.999  35.976  29.054  1.00  0.00    -0.269 OA
BRANCH  55  58
ATOM     58  C   UNL A   1      34.407  34.120  29.298  1.00  0.00     0.039 A 
ATOM     59  C   UNL A   1      35.703  34.450  28.888  1.00  0.00    -0.049 A 
ATOM     60  C   UNL A   1      34.215  33.102  30.235  1.00  0.00    -0.049 A 
ATOM     61  C   UNL A   1      36.801  33.786  29.441  1.00  0.00    -0.053 A 
ATOM     62  H   UNL A   1      35.848  35.184  28.178  1.00  0.00     0.063 H 
ATOM     63  C   UNL A   1      35.312  32.497  30.846  1.00  0.00    -0.053 A 
ATOM     64  H   UNL A   1      33.258  32.797  30.474  1.00  0.00     0.063 H 
ATOM     65  C   UNL A   1      36.616  32.816  30.439  1.00  0.00    -0.014 A 
ATOM     66  H   UNL A   1      37.753  34.009  29.113  1.00  0.00     0.063 H 
ATOM     67  H   UNL A   1      35.164  31.810  31.601  1.00  0.00     0.063 H 
BRANCH  65  68
ATOM     68  C   UNL A   1      37.776  32.102  31.032  1.00  0.00     0.031 A 
ATOM     69  C   UNL A   1      38.243  32.443  32.422  1.00  0.00     0.074 A 
ATOM     70  C   UNL A   1      38.430  31.170  30.311  1.00  0.00     0.049 A 
ATOM     71  N   UNL A   1      39.248  31.951  33.105  1.00  0.00    -0.248 NA
ATOM     72  C   UNL A   1      37.500  33.497  33.129  1.00  0.00    -0.034 C 
ATOM     73  C   UNL A   1      38.105  30.783  28.938  1.00  0.00    -0.036 A 
ATOM     74  N   UNL A   1      39.505  30.381  30.634  1.00  0.00    -0.354 N 
ATOM     75  C   UNL A   1      39.260  32.642  34.310  1.00  0.00     0.074 A 
ATOM     76  C   UNL A   1      38.209  33.632  34.240  1.00  0.00    -0.034 C 
ATOM     77  H   UNL A   1      36.649  34.002  32.836  1.00  0.00     0.065 H 
ATOM     78  C   UNL A   1      38.943  29.810  28.547  1.00  0.00    -0.036 A 
ATOM     79  H   UNL A   1      37.353  31.192  28.363  1.00  0.00     0.065 H 
ATOM     80  C   UNL A   1      39.885  29.529  29.626  1.00  0.00     0.049 A 
ATOM     81  H   UNL A   1      39.962  30.422  31.505  1.00  0.00     0.167 HD
ATOM     82  C   UNL A   1      40.058  32.451  35.389  1.00  0.00     0.037 A 
ATOM     83  H   UNL A   1      38.032  34.348  34.963  1.00  0.00     0.065 H 
ATOM     84  H   UNL A   1      38.924  29.336  27.630  1.00  0.00     0.065 H 
ATOM     85  C   UNL A   1      40.880  28.622  29.580  1.00  0.00     0.037 A 
ATOM     86  C   UNL A   1      41.091  31.450  35.463  1.00  0.00     0.049 A 
ATOM     87  C   UNL A   1      41.752  28.429  30.792  1.00  0.00     0.074 A 
ATOM     88  C   UNL A   1      41.921  31.141  36.526  1.00  0.00    -0.036 A 
ATOM     89  N   UNL A   1      41.435  30.593  34.426  1.00  0.00    -0.354 N 
ATOM     90  N   UNL A   1      41.711  29.042  31.950  1.00  0.00    -0.248 NA
ATOM     91  C   UNL A   1      42.801  27.406  30.692  1.00  0.00    -0.034 C 
ATOM     92  C   UNL A   1      42.802  30.134  36.117  1.00  0.00    -0.036 A 
ATOM     93  H   UNL A   1      41.894  31.578  37.461  1.00  0.00     0.065 H 
ATOM     94  C   UNL A   1      42.479  29.770  34.819  1.00  0.00     0.049 A 
ATOM     95  H   UNL A   1      41.002  30.573  33.543  1.00  0.00     0.167 HD
ATOM     96  C   UNL A   1      42.702  28.457  32.727  1.00  0.00     0.074 A 
ATOM     97  C   UNL A   1      43.312  27.426  31.914  1.00  0.00    -0.034 C 
ATOM     98  H   UNL A   1      43.068  26.823  29.884  1.00  0.00     0.065 H 
ATOM     99  H   UNL A   1      43.564  29.732  36.685  1.00  0.00     0.065 H 
ATOM    100  C   UNL A   1      43.074  28.745  34.000  1.00  0.00     0.037 A 
ATOM    101  H   UNL A   1      44.053  26.787  32.244  1.00  0.00     0.065 H 
BRANCH  82 102
ATOM    102  C   UNL A   1      39.842  33.344  36.578  1.00  0.00     0.064 A 
ATOM    103  C   UNL A   1      40.563  34.537  36.747  1.00  0.00     0.173 A 
ATOM    104  C   UNL A   1      38.885  33.017  37.551  1.00  0.00     0.173 A 
ATOM    105  F   UNL A   1      41.498  34.892  35.854  1.00  0.00    -0.203 F 
ATOM    106  C   UNL A   1      40.359  35.349  37.860  1.00  0.00     0.198 A 
ATOM    107  C   UNL A   1      38.658  33.850  38.644  1.00  0.00     0.198 A 
ATOM    108  F   UNL A   1      38.163  31.892  37.440  1.00  0.00    -0.203 F 
ATOM    109  F   UNL A   1      41.101  36.452  38.026  1.00  0.00    -0.200 F 
ATOM    110  C   UNL A   1      39.402  35.009  38.804  1.00  0.00     0.200 A 
ATOM    111  F   UNL A   1      37.723  33.527  39.548  1.00  0.00    -0.200 F 
ATOM    112  F   UNL A   1      39.202  35.795  39.871  1.00  0.00    -0.200 F 
ENDBRANCH  82 102
BRANCH  85 113
ATOM    113  C   UNL A   1      41.087  27.805  28.355  1.00  0.00     0.064 A 
ATOM    114  C   UNL A   1      40.449  26.566  28.198  1.00  0.00     0.173 A 
ATOM    115  C   UNL A   1      41.939  28.232  27.327  1.00  0.00     0.173 A 
ATOM    116  F   UNL A   1      39.639  26.103  29.164  1.00  0.00    -0.203 F 
ATOM    117  C   UNL A   1      40.675  25.774  27.074  1.00  0.00     0.198 A 
ATOM    118  C   UNL A   1      42.139  27.455  26.187  1.00  0.00     0.198 A 
ATOM    119  F   UNL A   1      42.569  29.412  27.422  1.00  0.00    -0.203 F 
ATOM    120  F   UNL A   1      40.095  24.570  26.978  1.00  0.00    -0.200 F 
ATOM    121  C   UNL A   1      41.517  26.221  26.067  1.00  0.00     0.200 A 
ATOM    122  F   UNL A   1      42.940  27.898  25.209  1.00  0.00    -0.200 F 
ATOM    123  F   UNL A   1      41.734  25.461  24.986  1.00  0.00    -0.200 F 
ENDBRANCH  85 113
BRANCH 100 124
ATOM    124  C   UNL A   1      44.162  27.901  34.604  1.00  0.00     0.064 A 
ATOM    125  C   UNL A   1      43.885  26.691  35.258  1.00  0.00     0.173 A 
ATOM    126  C   UNL A   1      45.502  28.308  34.517  1.00  0.00     0.173 A 
ATOM    127  F   UNL A   1      42.621  26.262  35.381  1.00  0.00    -0.203 F 
ATOM    128  C   UNL A   1      44.906  25.943  35.840  1.00  0.00     0.198 A 
ATOM    129  C   UNL A   1      46.523  27.538  35.067  1.00  0.00     0.198 A 
ATOM    130  F   UNL A   1      45.824  29.451  33.893  1.00  0.00    -0.203 F 
ATOM    131  F   UNL A   1      44.610  24.826  36.520  1.00  0.00    -0.200 F 
ATOM    132  C   UNL A   1      46.223  26.363  35.740  1.00  0.00     0.200 A 
ATOM    133  F   UNL A   1      47.797  27.937  34.954  1.00  0.00    -0.200 F 
ATOM    134  F   UNL A   1      47.203  25.642  36.302  1.00  0.00    -0.200 F 
ENDBRANCH 100 124
ENDBRANCH  65  68
ENDBRANCH  55  58
ENDBRANCH  51  54
ENDBRANCH  48  51
ENDBRANCH  45  48
ENDBRANCH   1  45
TORSDOF 16
ENDMDL
MODEL 9
REMARK VINA RESULT:     -11.9      5.235     10.689
REMARK SMILES [NH3+]Cc1c(-c2ccccc2)c(C(=O)NCCCCCCNC(=O)c2ccc(-c3c4nc(c(-c5c(F)c(F)c(F)c(F)c5F)c5ccc([nH]5)c(-c5c(F)c(F)c(F)c(F)c5F)c5nc(c(-c6c(F)c(F)c(F)c(F)c6F)c6ccc3[nH]6)C=C5)C=C4)cc2)c2ccccn12
REMARK SMILES IDX 17 1 16 4 15 7 14 10 12 11 13 12 11 14 3 15 4 16 92 17 87 18
REMARK SMILES IDX 91 19 88 20 90 21 89 23 2 27 1 30 5 34 6 35 10 36 7 37 9 39
REMARK SMILES IDX 8 41 18 45 19 48 20 51 21 54 22 55 23 57 24 58 25 59 86 60
REMARK SMILES IDX 26 61 85 63 27 65 28 68 29 69 79 70 30 71 84 72 78 73 80 74
REMARK SMILES IDX 31 75 83 76 77 78 76 80 32 82 64 85 44 86 63 87 45 88 48 89
REMARK SMILES IDX 62 90 81 91 46 92 47 94 61 96 82 97 49 100 33 102 34 103
REMARK SMILES IDX 42 104 35 105 36 106 40 107 43 108 37 109 38 110 41 111
REMARK SMILES IDX 39 112 65 113 66 114 74 115 67 116 68 117 72 118 75 119
REMARK SMILES IDX 69 120 70 121 73 122 71 123 50 124 51 125 59 126 52 127
REMARK SMILES IDX 53 128 57 129 60 130 54 131 55 132 58 133 56 134
REMARK H PARENT 17 2 17 3 16 5 16 6 15 8 15 9 14 13 91 22 88 24 90 25 89 26
REMARK H PARENT 2 28 2 29 1 31 1 32 1 33 6 38 10 40 7 42 9 43 8 44 18 46 18 47
REMARK H PARENT 19 49 19 50 20 52 20 53 21 56 25 62 86 64 26 66 85 67 84 77
REMARK H PARENT 78 79 80 81 83 83 77 84 45 93 48 95 81 98 46 99 82 101
REMARK Flexibility Score: inf
ROOT
ATOM      1  C   UNL A   1      37.348  21.799  24.373  1.00  0.00    -0.052 C 
ATOM      2  H   UNL A   1      38.251  21.747  23.801  1.00  0.00     0.027 H 
ATOM      3  H   UNL A   1      36.483  22.119  23.831  1.00  0.00     0.027 H 
ENDROOT
BRANCH   1   4
ATOM      4  C   UNL A   1      37.550  22.866  25.453  1.00  0.00    -0.036 C 
ATOM      5  H   UNL A   1      37.816  22.362  26.358  1.00  0.00     0.028 H 
ATOM      6  H   UNL A   1      38.301  23.519  25.059  1.00  0.00     0.028 H 
BRANCH   4   7
ATOM      7  C   UNL A   1      36.363  23.773  25.765  1.00  0.00     0.018 C 
ATOM      8  H   UNL A   1      36.745  24.743  26.009  1.00  0.00     0.049 H 
ATOM      9  H   UNL A   1      35.745  23.761  24.892  1.00  0.00     0.049 H 
BRANCH   7  10
ATOM     10  N   UNL A   1      35.521  23.340  26.854  1.00  0.00    -0.352 N 
ATOM     11  C   UNL A   1      34.230  22.855  26.860  1.00  0.00     0.254 C 
ATOM     12  O   UNL A   1      33.804  22.478  27.951  1.00  0.00    -0.269 OA
ATOM     13  H   UNL A   1      35.939  23.401  27.744  1.00  0.00     0.163 HD
BRANCH  11  14
ATOM     14  C   UNL A   1      33.377  22.868  25.660  1.00  0.00     0.073 A 
ATOM     15  C   UNL A   1      32.129  23.706  23.895  1.00  0.00     0.086 A 
ATOM     16  C   UNL A   1      32.762  24.041  25.096  1.00  0.00     0.022 A 
ATOM     17  N   UNL A   1      32.328  22.345  23.719  1.00  0.00    -0.314 N 
ATOM     18  C   UNL A   1      32.882  21.818  24.894  1.00  0.00     0.059 A 
ATOM     19  C   UNL A   1      32.053  21.526  22.614  1.00  0.00     0.009 A 
ATOM     20  C   UNL A   1      32.867  20.394  25.027  1.00  0.00    -0.037 A 
ATOM     21  C   UNL A   1      32.201  20.195  22.697  1.00  0.00    -0.045 A 
ATOM     22  H   UNL A   1      31.735  21.950  21.729  1.00  0.00     0.082 H 
ATOM     23  C   UNL A   1      32.574  19.616  23.969  1.00  0.00    -0.059 A 
ATOM     24  H   UNL A   1      33.082  19.961  25.938  1.00  0.00     0.065 H 
ATOM     25  H   UNL A   1      32.053  19.596  21.871  1.00  0.00     0.064 H 
ATOM     26  H   UNL A   1      32.615  18.590  24.068  1.00  0.00     0.062 H 
BRANCH  15  27
ATOM     27  C   UNL A   1      31.429  24.648  22.953  1.00  0.00     0.116 C 
ATOM     28  H   UNL A   1      30.565  24.145  22.571  1.00  0.00     0.099 H 
ATOM     29  H   UNL A   1      31.211  25.521  23.532  1.00  0.00     0.099 H 
BRANCH  27  30
ATOM     30  N   UNL A   1      32.205  25.119  21.819  1.00  0.00    -0.353 N 
ATOM     31  H   UNL A   1      31.780  25.967  21.445  1.00  0.00     0.344 HD
ATOM     32  H   UNL A   1      32.221  24.399  21.096  1.00  0.00     0.344 HD
ATOM     33  H   UNL A   1      33.158  25.320  22.119  1.00  0.00     0.344 HD
ENDBRANCH  27  30
ENDBRANCH  15  27
BRANCH  16  34
ATOM     34  C   UNL A   1      32.754  25.402  25.619  1.00  0.00    -0.016 A 
ATOM     35  C   UNL A   1      33.816  26.275  25.370  1.00  0.00    -0.054 A 
ATOM     36  C   UNL A   1      31.663  25.840  26.383  1.00  0.00    -0.054 A 
ATOM     37  C   UNL A   1      33.779  27.578  25.876  1.00  0.00    -0.062 A 
ATOM     38  H   UNL A   1      34.625  25.960  24.814  1.00  0.00     0.063 H 
ATOM     39  C   UNL A   1      31.626  27.143  26.879  1.00  0.00    -0.062 A 
ATOM     40  H   UNL A   1      30.883  25.192  26.580  1.00  0.00     0.063 H 
ATOM     41  C   UNL A   1      32.684  28.011  26.624  1.00  0.00    -0.062 A 
ATOM     42  H   UNL A   1      34.565  28.222  25.694  1.00  0.00     0.062 H 
ATOM     43  H   UNL A   1      30.815  27.463  27.432  1.00  0.00     0.062 H 
ATOM     44  H   UNL A   1      32.659  28.977  26.990  1.00  0.00     0.062 H 
ENDBRANCH  16  34
ENDBRANCH  11  14
ENDBRANCH   7  10
ENDBRANCH   4   7
ENDBRANCH   1   4
BRANCH   1  45
ATOM     45  C   UNL A   1      37.017  20.378  24.839  1.00  0.00    -0.052 C 
ATOM     46  H   UNL A   1      36.332  19.959  24.133  1.00  0.00     0.027 H 
ATOM     47  H   UNL A   1      36.631  20.494  25.830  1.00  0.00     0.027 H 
BRANCH  45  48
ATOM     48  C   UNL A   1      38.188  19.403  24.982  1.00  0.00    -0.036 C 
ATOM     49  H   UNL A   1      38.674  19.337  24.032  1.00  0.00     0.028 H 
ATOM     50  H   UNL A   1      37.755  18.486  25.322  1.00  0.00     0.028 H 
BRANCH  48  51
ATOM     51  C   UNL A   1      39.243  19.766  26.020  1.00  0.00     0.018 C 
ATOM     52  H   UNL A   1      38.827  19.616  26.994  1.00  0.00     0.049 H 
ATOM     53  H   UNL A   1      39.516  20.787  25.853  1.00  0.00     0.049 H 
BRANCH  51  54
ATOM     54  N   UNL A   1      40.452  18.972  25.907  1.00  0.00    -0.352 N 
ATOM     55  C   UNL A   1      41.767  19.352  25.991  1.00  0.00     0.251 C 
ATOM     56  H   UNL A   1      40.305  18.012  25.745  1.00  0.00     0.163 HD
ATOM     57  O   UNL A   1      42.653  18.545  25.733  1.00  0.00    -0.269 OA
BRANCH  55  58
ATOM     58  C   UNL A   1      42.130  20.738  26.372  1.00  0.00     0.039 A 
ATOM     59  C   UNL A   1      42.270  21.692  25.360  1.00  0.00    -0.049 A 
ATOM     60  C   UNL A   1      42.376  21.093  27.701  1.00  0.00    -0.049 A 
ATOM     61  C   UNL A   1      42.620  23.005  25.683  1.00  0.00    -0.053 A 
ATOM     62  H   UNL A   1      42.113  21.428  24.375  1.00  0.00     0.063 H 
ATOM     63  C   UNL A   1      42.645  22.420  28.030  1.00  0.00    -0.053 A 
ATOM     64  H   UNL A   1      42.359  20.372  28.438  1.00  0.00     0.063 H 
ATOM     65  C   UNL A   1      42.793  23.386  27.024  1.00  0.00    -0.014 A 
ATOM     66  H   UNL A   1      42.755  23.700  24.932  1.00  0.00     0.063 H 
ATOM     67  H   UNL A   1      42.737  22.694  29.021  1.00  0.00     0.063 H 
BRANCH  65  68
ATOM     68  C   UNL A   1      43.168  24.779  27.378  1.00  0.00     0.031 A 
ATOM     69  C   UNL A   1      44.577  25.262  27.158  1.00  0.00     0.074 A 
ATOM     70  C   UNL A   1      42.253  25.602  27.927  1.00  0.00     0.049 A 
ATOM     71  N   UNL A   1      45.106  26.430  27.423  1.00  0.00    -0.248 NA
ATOM     72  C   UNL A   1      45.527  24.292  26.590  1.00  0.00    -0.034 C 
ATOM     73  C   UNL A   1      40.869  25.241  28.233  1.00  0.00    -0.036 A 
ATOM     74  N   UNL A   1      42.352  26.911  28.325  1.00  0.00    -0.354 N 
ATOM     75  C   UNL A   1      46.445  26.330  27.065  1.00  0.00     0.074 A 
ATOM     76  C   UNL A   1      46.664  24.970  26.628  1.00  0.00    -0.034 C 
ATOM     77  H   UNL A   1      45.353  23.333  26.251  1.00  0.00     0.065 H 
ATOM     78  C   UNL A   1      40.239  26.311  28.744  1.00  0.00    -0.036 A 
ATOM     79  H   UNL A   1      40.445  24.312  28.082  1.00  0.00     0.065 H 
ATOM     80  C   UNL A   1      41.181  27.421  28.833  1.00  0.00     0.049 A 
ATOM     81  H   UNL A   1      43.181  27.436  28.254  1.00  0.00     0.167 HD
ATOM     82  C   UNL A   1      47.399  27.292  27.073  1.00  0.00     0.037 A 
ATOM     83  H   UNL A   1      47.586  24.579  26.376  1.00  0.00     0.065 H 
ATOM     84  H   UNL A   1      39.247  26.343  29.027  1.00  0.00     0.065 H 
ATOM     85  C   UNL A   1      40.903  28.648  29.315  1.00  0.00     0.037 A 
ATOM     86  C   UNL A   1      47.173  28.652  27.490  1.00  0.00     0.049 A 
ATOM     87  C   UNL A   1      41.981  29.699  29.313  1.00  0.00     0.074 A 
ATOM     88  C   UNL A   1      48.059  29.715  27.490  1.00  0.00    -0.036 A 
ATOM     89  N   UNL A   1      45.969  29.136  27.983  1.00  0.00    -0.354 N 
ATOM     90  N   UNL A   1      43.225  29.611  28.909  1.00  0.00    -0.248 NA
ATOM     91  C   UNL A   1      41.608  31.025  29.823  1.00  0.00    -0.034 C 
ATOM     92  C   UNL A   1      47.407  30.829  28.031  1.00  0.00    -0.036 A 
ATOM     93  H   UNL A   1      49.032  29.691  27.148  1.00  0.00     0.065 H 
ATOM     94  C   UNL A   1      46.095  30.477  28.309  1.00  0.00     0.049 A 
ATOM     95  H   UNL A   1      45.146  28.604  28.086  1.00  0.00     0.167 HD
ATOM     96  C   UNL A   1      43.773  30.875  29.082  1.00  0.00     0.074 A 
ATOM     97  C   UNL A   1      42.718  31.716  29.609  1.00  0.00    -0.034 C 
ATOM     98  H   UNL A   1      40.716  31.337  30.236  1.00  0.00     0.065 H 
ATOM     99  H   UNL A   1      47.831  31.755  28.196  1.00  0.00     0.065 H 
ATOM    100  C   UNL A   1      45.035  31.303  28.828  1.00  0.00     0.037 A 
ATOM    101  H   UNL A   1      42.818  32.726  29.795  1.00  0.00     0.065 H 
BRANCH  82 102
ATOM    102  C   UNL A   1      48.778  26.906  26.616  1.00  0.00     0.064 A 
ATOM    103  C   UNL A   1      49.731  26.379  27.503  1.00  0.00     0.173 A 
ATOM    104  C   UNL A   1      49.145  27.039  25.268  1.00  0.00     0.173 A 
ATOM    105  F   UNL A   1      49.437  26.241  28.804  1.00  0.00    -0.203 F 
ATOM    106  C   UNL A   1      51.007  26.035  27.066  1.00  0.00     0.198 A 
ATOM    107  C   UNL A   1      50.412  26.661  24.827  1.00  0.00     0.198 A 
ATOM    108  F   UNL A   1      48.275  27.532  24.374  1.00  0.00    -0.203 F 
ATOM    109  F   UNL A   1      51.916  25.590  27.944  1.00  0.00    -0.200 F 
ATOM    110  C   UNL A   1      51.345  26.169  25.727  1.00  0.00     0.200 A 
ATOM    111  F   UNL A   1      50.731  26.777  23.531  1.00  0.00    -0.200 F 
ATOM    112  F   UNL A   1      52.572  25.832  25.307  1.00  0.00    -0.200 F 
ENDBRANCH  82 102
BRANCH  85 113
ATOM    113  C   UNL A   1      39.535  28.961  29.810  1.00  0.00     0.064 A 
ATOM    114  C   UNL A   1      38.573  29.528  28.963  1.00  0.00     0.173 A 
ATOM    115  C   UNL A   1      39.167  28.718  31.141  1.00  0.00     0.173 A 
ATOM    116  F   UNL A   1      38.883  29.799  27.685  1.00  0.00    -0.203 F 
ATOM    117  C   UNL A   1      37.306  29.867  29.433  1.00  0.00     0.198 A 
ATOM    118  C   UNL A   1      37.889  29.026  31.603  1.00  0.00     0.198 A 
ATOM    119  F   UNL A   1      40.047  28.170  31.993  1.00  0.00    -0.203 F 
ATOM    120  F   UNL A   1      36.426  30.460  28.615  1.00  0.00    -0.200 F 
ATOM    121  C   UNL A   1      36.963  29.611  30.752  1.00  0.00     0.200 A 
ATOM    122  F   UNL A   1      37.556  28.761  32.874  1.00  0.00    -0.200 F 
ATOM    123  F   UNL A   1      35.745  29.935  31.205  1.00  0.00    -0.200 F 
ENDBRANCH  85 113
BRANCH 100 124
ATOM    124  C   UNL A   1      45.328  32.757  29.074  1.00  0.00     0.064 A 
ATOM    125  C   UNL A   1      45.137  33.730  28.082  1.00  0.00     0.173 A 
ATOM    126  C   UNL A   1      45.800  33.181  30.326  1.00  0.00     0.173 A 
ATOM    127  F   UNL A   1      44.700  33.378  26.865  1.00  0.00    -0.203 F 
ATOM    128  C   UNL A   1      45.447  35.067  28.322  1.00  0.00     0.198 A 
ATOM    129  C   UNL A   1      46.074  34.523  30.573  1.00  0.00     0.198 A 
ATOM    130  F   UNL A   1      45.991  32.293  31.314  1.00  0.00    -0.203 F 
ATOM    131  F   UNL A   1      45.322  35.968  27.337  1.00  0.00    -0.200 F 
ATOM    132  C   UNL A   1      45.911  35.463  29.566  1.00  0.00     0.200 A 
ATOM    133  F   UNL A   1      46.505  34.906  31.783  1.00  0.00    -0.200 F 
ATOM    134  F   UNL A   1      46.210  36.749  29.794  1.00  0.00    -0.200 F 
ENDBRANCH 100 124
ENDBRANCH  65  68
ENDBRANCH  55  58
ENDBRANCH  51  54
ENDBRANCH  48  51
ENDBRANCH  45  48
ENDBRANCH   1  45
TORSDOF 16
ENDMDL
MODEL 10
REMARK VINA RESULT:     -11.8      5.265      9.422
REMARK SMILES [NH3+]Cc1c(-c2ccccc2)c(C(=O)NCCCCCCNC(=O)c2ccc(-c3c4nc(c(-c5c(F)c(F)c(F)c(F)c5F)c5ccc([nH]5)c(-c5c(F)c(F)c(F)c(F)c5F)c5nc(c(-c6c(F)c(F)c(F)c(F)c6F)c6ccc3[nH]6)C=C5)C=C4)cc2)c2ccccn12
REMARK SMILES IDX 17 1 16 4 15 7 14 10 12 11 13 12 11 14 3 15 4 16 92 17 87 18
REMARK SMILES IDX 91 19 88 20 90 21 89 23 2 27 1 30 5 34 6 35 10 36 7 37 9 39
REMARK SMILES IDX 8 41 18 45 19 48 20 51 21 54 22 55 23 57 24 58 25 59 86 60
REMARK SMILES IDX 26 61 85 63 27 65 28 68 29 69 79 70 30 71 84 72 78 73 80 74
REMARK SMILES IDX 31 75 83 76 77 78 76 80 32 82 64 85 44 86 63 87 45 88 48 89
REMARK SMILES IDX 62 90 81 91 46 92 47 94 61 96 82 97 49 100 33 102 34 103
REMARK SMILES IDX 42 104 35 105 36 106 40 107 43 108 37 109 38 110 41 111
REMARK SMILES IDX 39 112 65 113 66 114 74 115 67 116 68 117 72 118 75 119
REMARK SMILES IDX 69 120 70 121 73 122 71 123 50 124 51 125 59 126 52 127
REMARK SMILES IDX 53 128 57 129 60 130 54 131 55 132 58 133 56 134
REMARK H PARENT 17 2 17 3 16 5 16 6 15 8 15 9 14 13 91 22 88 24 90 25 89 26
REMARK H PARENT 2 28 2 29 1 31 1 32 1 33 6 38 10 40 7 42 9 43 8 44 18 46 18 47
REMARK H PARENT 19 49 19 50 20 52 20 53 21 56 25 62 86 64 26 66 85 67 84 77
REMARK H PARENT 78 79 80 81 83 83 77 84 45 93 48 95 81 98 46 99 82 101
REMARK Flexibility Score: inf
ROOT
ATOM      1  C   UNL A   1      37.385  21.689  24.262  1.00  0.00    -0.052 C 
ATOM      2  H   UNL A   1      38.249  21.971  24.827  1.00  0.00     0.027 H 
ATOM      3  H   UNL A   1      37.543  21.585  23.209  1.00  0.00     0.027 H 
ENDROOT
BRANCH   1   4
ATOM      4  C   UNL A   1      36.360  22.821  24.394  1.00  0.00    -0.036 C 
ATOM      5  H   UNL A   1      36.440  23.431  23.519  1.00  0.00     0.028 H 
ATOM      6  H   UNL A   1      35.419  22.327  24.518  1.00  0.00     0.028 H 
BRANCH   4   7
ATOM      7  C   UNL A   1      36.488  23.737  25.607  1.00  0.00     0.018 C 
ATOM      8  H   UNL A   1      37.516  23.750  25.903  1.00  0.00     0.049 H 
ATOM      9  H   UNL A   1      36.117  24.691  25.296  1.00  0.00     0.049 H 
BRANCH   7  10
ATOM     10  N   UNL A   1      35.699  23.360  26.755  1.00  0.00    -0.352 N 
ATOM     11  C   UNL A   1      34.396  22.914  26.849  1.00  0.00     0.254 C 
ATOM     12  O   UNL A   1      34.025  22.581  27.974  1.00  0.00    -0.269 OA
ATOM     13  H   UNL A   1      36.169  23.434  27.617  1.00  0.00     0.163 HD
BRANCH  11  14
ATOM     14  C   UNL A   1      33.476  22.919  25.700  1.00  0.00     0.073 A 
ATOM     15  C   UNL A   1      32.110  23.745  24.020  1.00  0.00     0.086 A 
ATOM     16  C   UNL A   1      32.803  24.083  25.185  1.00  0.00     0.022 A 
ATOM     17  N   UNL A   1      32.329  22.390  23.817  1.00  0.00    -0.314 N 
ATOM     18  C   UNL A   1      32.962  21.866  24.953  1.00  0.00     0.059 A 
ATOM     19  C   UNL A   1      32.010  21.576  22.720  1.00  0.00     0.009 A 
ATOM     20  C   UNL A   1      32.987  20.440  25.069  1.00  0.00    -0.037 A 
ATOM     21  C   UNL A   1      32.193  20.249  22.780  1.00  0.00    -0.045 A 
ATOM     22  H   UNL A   1      31.631  22.002  21.859  1.00  0.00     0.082 H 
ATOM     23  C   UNL A   1      32.651  19.666  24.022  1.00  0.00    -0.059 A 
ATOM     24  H   UNL A   1      33.264  20.003  25.962  1.00  0.00     0.065 H 
ATOM     25  H   UNL A   1      32.011  19.654  21.956  1.00  0.00     0.064 H 
ATOM     26  H   UNL A   1      32.722  18.640  24.106  1.00  0.00     0.062 H 
BRANCH  15  27
ATOM     27  C   UNL A   1      31.335  24.680  23.130  1.00  0.00     0.116 C 
ATOM     28  H   UNL A   1      31.822  25.632  23.156  1.00  0.00     0.099 H 
ATOM     29  H   UNL A   1      31.325  24.214  22.167  1.00  0.00     0.099 H 
BRANCH  27  30
ATOM     30  N   UNL A   1      29.939  24.887  23.474  1.00  0.00    -0.353 N 
ATOM     31  H   UNL A   1      29.378  24.902  22.623  1.00  0.00     0.344 HD
ATOM     32  H   UNL A   1      29.838  25.775  23.965  1.00  0.00     0.344 HD
ATOM     33  H   UNL A   1      29.621  24.128  24.077  1.00  0.00     0.344 HD
ENDBRANCH  27  30
ENDBRANCH  15  27
BRANCH  16  34
ATOM     34  C   UNL A   1      32.794  25.438  25.724  1.00  0.00    -0.016 A 
ATOM     35  C   UNL A   1      33.859  26.312  25.492  1.00  0.00    -0.054 A 
ATOM     36  C   UNL A   1      31.699  25.869  26.485  1.00  0.00    -0.054 A 
ATOM     37  C   UNL A   1      33.821  27.609  26.011  1.00  0.00    -0.062 A 
ATOM     38  H   UNL A   1      34.671  26.001  24.937  1.00  0.00     0.063 H 
ATOM     39  C   UNL A   1      31.660  27.167  26.995  1.00  0.00    -0.062 A 
ATOM     40  H   UNL A   1      30.916  25.221  26.670  1.00  0.00     0.063 H 
ATOM     41  C   UNL A   1      32.722  28.036  26.757  1.00  0.00    -0.062 A 
ATOM     42  H   UNL A   1      34.609  28.254  25.842  1.00  0.00     0.062 H 
ATOM     43  H   UNL A   1      30.846  27.482  27.546  1.00  0.00     0.062 H 
ATOM     44  H   UNL A   1      32.696  28.997  27.134  1.00  0.00     0.062 H 
ENDBRANCH  16  34
ENDBRANCH  11  14
ENDBRANCH   7  10
ENDBRANCH   4   7
ENDBRANCH   1   4
BRANCH   1  45
ATOM     45  C   UNL A   1      36.961  20.296  24.735  1.00  0.00    -0.052 C 
ATOM     46  H   UNL A   1      36.357  19.864  23.966  1.00  0.00     0.027 H 
ATOM     47  H   UNL A   1      36.460  20.460  25.666  1.00  0.00     0.027 H 
BRANCH  45  48
ATOM     48  C   UNL A   1      38.080  19.302  25.057  1.00  0.00    -0.036 C 
ATOM     49  H   UNL A   1      38.480  18.950  24.130  1.00  0.00     0.028 H 
ATOM     50  H   UNL A   1      37.622  18.543  25.657  1.00  0.00     0.028 H 
BRANCH  48  51
ATOM     51  C   UNL A   1      39.237  19.838  25.891  1.00  0.00     0.018 C 
ATOM     52  H   UNL A   1      38.897  19.977  26.896  1.00  0.00     0.049 H 
ATOM     53  H   UNL A   1      39.553  20.758  25.444  1.00  0.00     0.049 H 
BRANCH  51  54
ATOM     54  N   UNL A   1      40.385  18.951  25.910  1.00  0.00    -0.352 N 
ATOM     55  C   UNL A   1      41.711  19.231  26.124  1.00  0.00     0.251 C 
ATOM     56  H   UNL A   1      40.181  18.002  25.743  1.00  0.00     0.163 HD
ATOM     57  O   UNL A   1      42.553  18.353  25.966  1.00  0.00    -0.269 OA
BRANCH  55  58
ATOM     58  C   UNL A   1      42.141  20.590  26.527  1.00  0.00     0.039 A 
ATOM     59  C   UNL A   1      42.506  21.497  25.527  1.00  0.00    -0.049 A 
ATOM     60  C   UNL A   1      42.230  20.965  27.870  1.00  0.00    -0.049 A 
ATOM     61  C   UNL A   1      42.926  22.784  25.872  1.00  0.00    -0.053 A 
ATOM     62  H   UNL A   1      42.465  21.216  24.535  1.00  0.00     0.063 H 
ATOM     63  C   UNL A   1      42.570  22.273  28.209  1.00  0.00    -0.053 A 
ATOM     64  H   UNL A   1      42.045  20.271  28.611  1.00  0.00     0.063 H 
ATOM     65  C   UNL A   1      42.943  23.190  27.216  1.00  0.00    -0.014 A 
ATOM     66  H   UNL A   1      43.226  23.440  25.134  1.00  0.00     0.063 H 
ATOM     67  H   UNL A   1      42.546  22.569  29.197  1.00  0.00     0.063 H 
BRANCH  65  68
ATOM     68  C   UNL A   1      43.390  24.556  27.593  1.00  0.00     0.031 A 
ATOM     69  C   UNL A   1      42.377  25.614  27.942  1.00  0.00     0.074 A 
ATOM     70  C   UNL A   1      44.704  24.857  27.593  1.00  0.00     0.049 A 
ATOM     71  N   UNL A   1      42.565  26.867  28.273  1.00  0.00    -0.248 NA
ATOM     72  C   UNL A   1      40.961  25.218  27.883  1.00  0.00    -0.034 C 
ATOM     73  C   UNL A   1      45.780  23.935  27.229  1.00  0.00    -0.036 A 
ATOM     74  N   UNL A   1      45.355  26.023  27.906  1.00  0.00    -0.354 N 
ATOM     75  C   UNL A   1      41.297  27.406  28.450  1.00  0.00     0.074 A 
ATOM     76  C   UNL A   1      40.347  26.366  28.125  1.00  0.00    -0.034 C 
ATOM     77  H   UNL A   1      40.553  24.288  27.700  1.00  0.00     0.065 H 
ATOM     78  C   UNL A   1      46.960  24.561  27.370  1.00  0.00    -0.036 A 
ATOM     79  H   UNL A   1      45.654  22.960  26.915  1.00  0.00     0.065 H 
ATOM     80  C   UNL A   1      46.722  25.935  27.798  1.00  0.00     0.049 A 
ATOM     81  H   UNL A   1      44.889  26.844  28.183  1.00  0.00     0.167 HD
ATOM     82  C   UNL A   1      40.954  28.647  28.873  1.00  0.00     0.037 A 
ATOM     83  H   UNL A   1      39.324  26.499  28.088  1.00  0.00     0.065 H 
ATOM     84  H   UNL A   1      47.886  24.138  27.202  1.00  0.00     0.065 H 
ATOM     85  C   UNL A   1      47.674  26.862  28.021  1.00  0.00     0.037 A 
ATOM     86  C   UNL A   1      41.903  29.675  29.216  1.00  0.00     0.049 A 
ATOM     87  C   UNL A   1      47.267  28.234  28.489  1.00  0.00     0.074 A 
ATOM     88  C   UNL A   1      41.660  30.948  29.701  1.00  0.00    -0.036 A 
ATOM     89  N   UNL A   1      43.281  29.544  29.109  1.00  0.00    -0.354 N 
ATOM     90  N   UNL A   1      46.067  28.711  28.718  1.00  0.00    -0.248 NA
ATOM     91  C   UNL A   1      48.351  29.191  28.745  1.00  0.00    -0.034 C 
ATOM     92  C   UNL A   1      42.888  31.606  29.837  1.00  0.00    -0.036 A 
ATOM     93  H   UNL A   1      40.734  31.344  29.924  1.00  0.00     0.065 H 
ATOM     94  C   UNL A   1      43.900  30.721  29.499  1.00  0.00     0.049 A 
ATOM     95  H   UNL A   1      43.749  28.734  28.801  1.00  0.00     0.167 HD
ATOM     96  C   UNL A   1      46.253  30.009  29.175  1.00  0.00     0.074 A 
ATOM     97  C   UNL A   1      47.683  30.235  29.212  1.00  0.00    -0.034 C 
ATOM     98  H   UNL A   1      49.367  29.079  28.600  1.00  0.00     0.065 H 
ATOM     99  H   UNL A   1      43.018  32.584  30.138  1.00  0.00     0.065 H 
ATOM    100  C   UNL A   1      45.325  30.930  29.534  1.00  0.00     0.037 A 
ATOM    101  H   UNL A   1      48.126  31.101  29.556  1.00  0.00     0.065 H 
BRANCH  82 102
ATOM    102  C   UNL A   1      39.489  28.961  28.988  1.00  0.00     0.064 A 
ATOM    103  C   UNL A   1      38.806  28.865  30.212  1.00  0.00     0.173 A 
ATOM    104  C   UNL A   1      38.761  29.389  27.867  1.00  0.00     0.173 A 
ATOM    105  F   UNL A   1      39.450  28.450  31.313  1.00  0.00    -0.203 F 
ATOM    106  C   UNL A   1      37.446  29.150  30.300  1.00  0.00     0.198 A 
ATOM    107  C   UNL A   1      37.408  29.707  27.967  1.00  0.00     0.198 A 
ATOM    108  F   UNL A   1      39.361  29.504  26.673  1.00  0.00    -0.203 F 
ATOM    109  F   UNL A   1      36.806  28.993  31.467  1.00  0.00    -0.200 F 
ATOM    110  C   UNL A   1      36.750  29.578  29.180  1.00  0.00     0.200 A 
ATOM    111  F   UNL A   1      36.740  30.135  26.887  1.00  0.00    -0.200 F 
ATOM    112  F   UNL A   1      35.442  29.858  29.269  1.00  0.00    -0.200 F 
ENDBRANCH  82 102
BRANCH  85 113
ATOM    113  C   UNL A   1      49.109  26.516  27.835  1.00  0.00     0.064 A 
ATOM    114  C   UNL A   1      49.934  26.248  28.937  1.00  0.00     0.173 A 
ATOM    115  C   UNL A   1      49.688  26.464  26.560  1.00  0.00     0.173 A 
ATOM    116  F   UNL A   1      49.432  26.305  30.180  1.00  0.00    -0.203 F 
ATOM    117  C   UNL A   1      51.290  25.969  28.772  1.00  0.00     0.198 A 
ATOM    118  C   UNL A   1      51.036  26.152  26.393  1.00  0.00     0.198 A 
ATOM    119  F   UNL A   1      48.943  26.705  25.471  1.00  0.00    -0.203 F 
ATOM    120  F   UNL A   1      52.066  25.772  29.846  1.00  0.00    -0.200 F 
ATOM    121  C   UNL A   1      51.839  25.916  27.500  1.00  0.00     0.200 A 
ATOM    122  F   UNL A   1      51.559  26.086  25.161  1.00  0.00    -0.200 F 
ATOM    123  F   UNL A   1      53.141  25.647  27.341  1.00  0.00    -0.200 F 
ENDBRANCH  85 113
BRANCH 100 124
ATOM    124  C   UNL A   1      45.832  32.252  30.041  1.00  0.00     0.064 A 
ATOM    125  C   UNL A   1      46.114  32.467  31.398  1.00  0.00     0.173 A 
ATOM    126  C   UNL A   1      46.046  33.315  29.150  1.00  0.00     0.173 A 
ATOM    127  F   UNL A   1      45.916  31.489  32.293  1.00  0.00    -0.203 F 
ATOM    128  C   UNL A   1      46.551  33.711  31.850  1.00  0.00     0.198 A 
ATOM    129  C   UNL A   1      46.518  34.545  29.601  1.00  0.00     0.198 A 
ATOM    130  F   UNL A   1      45.802  33.161  27.840  1.00  0.00    -0.203 F 
ATOM    131  F   UNL A   1      46.748  33.913  33.161  1.00  0.00    -0.200 F 
ATOM    132  C   UNL A   1      46.757  34.746  30.952  1.00  0.00     0.200 A 
ATOM    133  F   UNL A   1      46.733  35.539  28.728  1.00  0.00    -0.200 F 
ATOM    134  F   UNL A   1      47.176  35.942  31.389  1.00  0.00    -0.200 F 
ENDBRANCH 100 124
ENDBRANCH  65  68
ENDBRANCH  55  58
ENDBRANCH  51  54
ENDBRANCH  48  51
ENDBRANCH  45  48
ENDBRANCH   1  45
TORSDOF 16
ENDMDL
