MODEL 1
REMARK VINA RESULT:     -12.4      0.000      0.000
REMARK SMILES NS(=O)(=O)c1ccc(/N=C/c2ccc(O)c(C(=O)NCCCCCCNC(=O)c3ccc(-c4c5nc(c(-c6c(F)c(F)c(F)c(F)c6F)c6ccc([nH]6)c(-c6c(F)c(F)c(F)c(F)c6F)c6nc(c(-c7c(F)c(F)c(F)c(F)c7F)c7ccc4[nH]7)C=C6)C=C5)cc3)c2)cc1
REMARK SMILES IDX 21 1 20 4 19 7 17 8 18 9 16 11 11 12 12 13 92 14 13 15 14 18
REMARK SMILES IDX 10 20 9 21 8 23 5 24 6 25 94 26 7 27 93 29 2 33 3 34 4 35
REMARK SMILES IDX 1 36 15 39 22 41 23 44 24 47 25 50 26 53 27 54 28 56 29 57
REMARK SMILES IDX 30 58 91 59 31 60 90 62 32 64 33 67 34 68 84 69 35 70 89 71
REMARK SMILES IDX 83 72 85 73 36 74 88 75 82 77 81 79 37 81 69 84 49 85 68 86
REMARK SMILES IDX 50 87 53 88 67 89 86 90 51 91 52 93 66 95 87 96 54 99 38 101
REMARK SMILES IDX 39 102 47 103 40 104 41 105 45 106 48 107 42 108 43 109
REMARK SMILES IDX 46 110 44 111 70 112 71 113 79 114 72 115 73 116 77 117
REMARK SMILES IDX 80 118 74 119 75 120 78 121 76 122 55 123 56 124 64 125
REMARK SMILES IDX 57 126 58 127 62 128 65 129 59 130 60 131 63 132 61 133
REMARK H PARENT 21 2 21 3 20 5 20 6 19 10 12 16 92 17 13 19 10 22 6 28 94 30
REMARK H PARENT 7 31 93 32 1 37 1 38 15 40 22 42 22 43 23 45 23 46 24 48 24 49
REMARK H PARENT 25 51 25 52 26 55 30 61 91 63 31 65 90 66 89 76 83 78 85 80
REMARK H PARENT 88 82 82 83 50 92 53 94 86 97 51 98 87 100
REMARK Flexibility Score: inf
ROOT
ATOM      1  C   UNL A   1      34.581  24.662  24.464  1.00  0.00    -0.036 C 
ATOM      2  H   UNL A   1      35.636  24.732  24.628  1.00  0.00     0.028 H 
ATOM      3  H   UNL A   1      34.057  24.043  25.162  1.00  0.00     0.028 H 
ENDROOT
BRANCH   1   4
ATOM      4  C   UNL A   1      34.369  24.000  23.108  1.00  0.00     0.018 C 
ATOM      5  H   UNL A   1      33.556  24.494  22.617  1.00  0.00     0.049 H 
ATOM      6  H   UNL A   1      35.294  24.088  22.578  1.00  0.00     0.049 H 
BRANCH   4   7
ATOM      7  N   UNL A   1      34.063  22.579  23.172  1.00  0.00    -0.352 N 
ATOM      8  C   UNL A   1      33.115  21.902  23.906  1.00  0.00     0.255 C 
ATOM      9  O   UNL A   1      33.087  20.671  23.862  1.00  0.00    -0.269 OA
ATOM     10  H   UNL A   1      34.625  22.010  22.598  1.00  0.00     0.163 HD
BRANCH   8  11
ATOM     11  C   UNL A   1      32.166  22.588  24.820  1.00  0.00     0.082 A 
ATOM     12  C   UNL A   1      30.526  24.320  25.250  1.00  0.00    -0.006 A 
ATOM     13  C   UNL A   1      30.602  24.086  26.622  1.00  0.00    -0.050 A 
ATOM     14  C   UNL A   1      31.240  23.519  24.353  1.00  0.00    -0.037 A 
ATOM     15  C   UNL A   1      31.429  23.063  27.092  1.00  0.00    -0.019 A 
ATOM     16  H   UNL A   1      30.053  24.660  27.282  1.00  0.00     0.063 H 
ATOM     17  H   UNL A   1      31.079  23.617  23.337  1.00  0.00     0.064 H 
ATOM     18  C   UNL A   1      32.214  22.330  26.198  1.00  0.00     0.128 A 
ATOM     19  H   UNL A   1      31.461  22.848  28.101  1.00  0.00     0.066 H 
BRANCH  12  20
ATOM     20  C   UNL A   1      29.824  25.511  24.727  1.00  0.00     0.035 C 
ATOM     21  N   UNL A   1      30.323  26.148  23.716  1.00  0.00    -0.256 NA
ATOM     22  H   UNL A   1      28.944  25.831  25.163  1.00  0.00     0.085 H 
BRANCH  21  23
ATOM     23  C   UNL A   1      29.751  27.345  23.273  1.00  0.00     0.063 A 
ATOM     24  C   UNL A   1      28.751  29.874  22.602  1.00  0.00     0.082 A 
ATOM     25  C   UNL A   1      30.121  29.624  22.506  1.00  0.00    -0.040 A 
ATOM     26  C   UNL A   1      27.875  28.872  23.026  1.00  0.00    -0.040 A 
ATOM     27  C   UNL A   1      30.613  28.363  22.850  1.00  0.00    -0.035 A 
ATOM     28  H   UNL A   1      30.765  30.364  22.184  1.00  0.00     0.064 H 
ATOM     29  C   UNL A   1      28.379  27.614  23.368  1.00  0.00    -0.035 A 
ATOM     30  H   UNL A   1      26.861  29.059  23.088  1.00  0.00     0.064 H 
ATOM     31  H   UNL A   1      31.626  28.179  22.791  1.00  0.00     0.065 H 
ATOM     32  H   UNL A   1      27.735  26.875  23.694  1.00  0.00     0.065 H 
BRANCH  24  33
ATOM     33  S   UNL A   1      28.141  31.480  22.187  1.00  0.00     0.238 S 
ATOM     34  O   UNL A   1      27.241  31.924  23.230  1.00  0.00    -0.207 OA
ATOM     35  O   UNL A   1      27.794  31.485  20.789  1.00  0.00    -0.207 OA
BRANCH  33  36
ATOM     36  N   UNL A   1      29.490  32.472  22.341  1.00  0.00    -0.225 NA
ATOM     37  H   UNL A   1      29.231  33.434  22.123  1.00  0.00     0.137 HD
ATOM     38  H   UNL A   1      30.217  32.161  21.696  1.00  0.00     0.137 HD
ENDBRANCH  33  36
ENDBRANCH  24  33
ENDBRANCH  21  23
ENDBRANCH  12  20
BRANCH  18  39
ATOM     39  O   UNL A   1      33.028  21.375  26.748  1.00  0.00    -0.507 OA
ATOM     40  H   UNL A   1      32.672  20.738  27.334  1.00  0.00     0.293 HD
ENDBRANCH  18  39
ENDBRANCH   8  11
ENDBRANCH   4   7
ENDBRANCH   1   4
BRANCH   1  41
ATOM     41  C   UNL A   1      33.991  26.060  24.652  1.00  0.00    -0.052 C 
ATOM     42  H   UNL A   1      33.207  26.179  23.934  1.00  0.00     0.027 H 
ATOM     43  H   UNL A   1      34.816  26.730  24.532  1.00  0.00     0.027 H 
BRANCH  41  44
ATOM     44  C   UNL A   1      33.409  26.386  26.030  1.00  0.00    -0.052 C 
ATOM     45  H   UNL A   1      34.219  26.409  26.727  1.00  0.00     0.027 H 
ATOM     46  H   UNL A   1      32.680  25.625  26.215  1.00  0.00     0.027 H 
BRANCH  44  47
ATOM     47  C   UNL A   1      32.649  27.708  26.158  1.00  0.00    -0.036 C 
ATOM     48  H   UNL A   1      32.512  27.905  27.201  1.00  0.00     0.028 H 
ATOM     49  H   UNL A   1      31.738  27.569  25.614  1.00  0.00     0.028 H 
BRANCH  47  50
ATOM     50  C   UNL A   1      33.316  28.929  25.537  1.00  0.00     0.018 C 
ATOM     51  H   UNL A   1      33.196  28.879  24.475  1.00  0.00     0.049 H 
ATOM     52  H   UNL A   1      34.346  28.910  25.829  1.00  0.00     0.049 H 
BRANCH  50  53
ATOM     53  N   UNL A   1      32.760  30.188  26.004  1.00  0.00    -0.352 N 
ATOM     54  C   UNL A   1      33.248  31.050  26.958  1.00  0.00     0.251 C 
ATOM     55  H   UNL A   1      31.915  30.461  25.580  1.00  0.00     0.163 HD
ATOM     56  O   UNL A   1      32.591  32.025  27.311  1.00  0.00    -0.269 OA
BRANCH  54  57
ATOM     57  C   UNL A   1      34.561  30.785  27.586  1.00  0.00     0.039 A 
ATOM     58  C   UNL A   1      35.503  31.816  27.647  1.00  0.00    -0.049 A 
ATOM     59  C   UNL A   1      34.859  29.530  28.122  1.00  0.00    -0.049 A 
ATOM     60  C   UNL A   1      36.716  31.612  28.312  1.00  0.00    -0.053 A 
ATOM     61  H   UNL A   1      35.304  32.726  27.202  1.00  0.00     0.063 H 
ATOM     62  C   UNL A   1      36.038  29.347  28.838  1.00  0.00    -0.053 A 
ATOM     63  H   UNL A   1      34.206  28.741  27.989  1.00  0.00     0.063 H 
ATOM     64  C   UNL A   1      36.976  30.387  28.944  1.00  0.00    -0.014 A 
ATOM     65  H   UNL A   1      37.421  32.365  28.338  1.00  0.00     0.063 H 
ATOM     66  H   UNL A   1      36.226  28.440  29.294  1.00  0.00     0.063 H 
BRANCH  64  67
ATOM     67  C   UNL A   1      38.220  30.149  29.720  1.00  0.00     0.031 A 
ATOM     68  C   UNL A   1      39.260  29.208  29.186  1.00  0.00     0.074 A 
ATOM     69  C   UNL A   1      38.363  30.693  30.944  1.00  0.00     0.049 A 
ATOM     70  N   UNL A   1      40.321  28.719  29.775  1.00  0.00    -0.248 NA
ATOM     71  C   UNL A   1      39.065  28.733  27.807  1.00  0.00    -0.034 C 
ATOM     72  C   UNL A   1      37.417  31.610  31.580  1.00  0.00    -0.036 A 
ATOM     73  N   UNL A   1      39.351  30.528  31.884  1.00  0.00    -0.354 N 
ATOM     74  C   UNL A   1      40.898  27.854  28.855  1.00  0.00     0.074 A 
ATOM     75  C   UNL A   1      40.055  27.862  27.678  1.00  0.00    -0.034 C 
ATOM     76  H   UNL A   1      38.344  29.006  27.120  1.00  0.00     0.065 H 
ATOM     77  C   UNL A   1      37.867  31.924  32.805  1.00  0.00    -0.036 A 
ATOM     78  H   UNL A   1      36.544  31.958  31.154  1.00  0.00     0.065 H 
ATOM     79  C   UNL A   1      39.106  31.194  33.061  1.00  0.00     0.049 A 
ATOM     80  H   UNL A   1      40.156  29.984  31.730  1.00  0.00     0.167 HD
ATOM     81  C   UNL A   1      42.034  27.128  28.979  1.00  0.00     0.037 A 
ATOM     82  H   UNL A   1      40.207  27.270  26.848  1.00  0.00     0.065 H 
ATOM     83  H   UNL A   1      37.410  32.578  33.461  1.00  0.00     0.065 H 
ATOM     84  C   UNL A   1      39.789  31.195  34.221  1.00  0.00     0.037 A 
ATOM     85  C   UNL A   1      42.885  27.148  30.139  1.00  0.00     0.049 A 
ATOM     86  C   UNL A   1      41.042  30.367  34.338  1.00  0.00     0.074 A 
ATOM     87  C   UNL A   1      44.087  26.493  30.339  1.00  0.00    -0.036 A 
ATOM     88  N   UNL A   1      42.619  27.864  31.297  1.00  0.00    -0.354 N 
ATOM     89  N   UNL A   1      41.610  29.595  33.444  1.00  0.00    -0.248 NA
ATOM     90  C   UNL A   1      41.752  30.412  35.625  1.00  0.00    -0.034 C 
ATOM     91  C   UNL A   1      44.533  26.784  31.631  1.00  0.00    -0.036 A 
ATOM     92  H   UNL A   1      44.571  25.893  29.652  1.00  0.00     0.065 H 
ATOM     93  C   UNL A   1      43.632  27.657  32.220  1.00  0.00     0.049 A 
ATOM     94  H   UNL A   1      41.831  28.434  31.441  1.00  0.00     0.167 HD
ATOM     95  C   UNL A   1      42.759  29.096  34.043  1.00  0.00     0.074 A 
ATOM     96  C   UNL A   1      42.811  29.653  35.377  1.00  0.00    -0.034 C 
ATOM     97  H   UNL A   1      41.495  30.906  36.493  1.00  0.00     0.065 H 
ATOM     98  H   UNL A   1      45.389  26.413  32.072  1.00  0.00     0.065 H 
ATOM     99  C   UNL A   1      43.687  28.252  33.531  1.00  0.00     0.037 A 
ATOM    100  H   UNL A   1      43.575  29.482  36.051  1.00  0.00     0.065 H 
BRANCH  81 101
ATOM    101  C   UNL A   1      42.422  26.246  27.829  1.00  0.00     0.064 A 
ATOM    102  C   UNL A   1      41.889  24.958  27.678  1.00  0.00     0.173 A 
ATOM    103  C   UNL A   1      43.310  26.710  26.846  1.00  0.00     0.173 A 
ATOM    104  F   UNL A   1      41.044  24.465  28.596  1.00  0.00    -0.203 F 
ATOM    105  C   UNL A   1      42.252  24.154  26.601  1.00  0.00     0.198 A 
ATOM    106  C   UNL A   1      43.649  25.914  25.754  1.00  0.00     0.198 A 
ATOM    107  F   UNL A   1      43.843  27.937  26.938  1.00  0.00    -0.203 F 
ATOM    108  F   UNL A   1      41.766  22.910  26.502  1.00  0.00    -0.200 F 
ATOM    109  C   UNL A   1      43.126  24.635  25.636  1.00  0.00     0.200 A 
ATOM    110  F   UNL A   1      44.483  26.385  24.817  1.00  0.00    -0.200 F 
ATOM    111  F   UNL A   1      43.469  23.863  24.597  1.00  0.00    -0.200 F 
ENDBRANCH  81 101
BRANCH  84 112
ATOM    112  C   UNL A   1      39.312  32.020  35.364  1.00  0.00     0.064 A 
ATOM    113  C   UNL A   1      38.480  31.468  36.348  1.00  0.00     0.173 A 
ATOM    114  C   UNL A   1      39.673  33.368  35.499  1.00  0.00     0.173 A 
ATOM    115  F   UNL A   1      38.098  30.185  36.258  1.00  0.00    -0.203 F 
ATOM    116  C   UNL A   1      38.008  32.238  37.407  1.00  0.00     0.198 A 
ATOM    117  C   UNL A   1      39.219  34.132  36.570  1.00  0.00     0.198 A 
ATOM    118  F   UNL A   1      40.495  33.936  34.605  1.00  0.00    -0.203 F 
ATOM    119  F   UNL A   1      37.184  31.694  38.313  1.00  0.00    -0.200 F 
ATOM    120  C   UNL A   1      38.380  33.569  37.521  1.00  0.00     0.200 A 
ATOM    121  F   UNL A   1      39.597  35.412  36.689  1.00  0.00    -0.200 F 
ATOM    122  F   UNL A   1      37.929  34.308  38.543  1.00  0.00    -0.200 F 
ENDBRANCH  84 112
BRANCH  99 123
ATOM    123  C   UNL A   1      44.878  27.927  34.382  1.00  0.00     0.064 A 
ATOM    124  C   UNL A   1      44.904  26.801  35.217  1.00  0.00     0.173 A 
ATOM    125  C   UNL A   1      46.036  28.715  34.300  1.00  0.00     0.173 A 
ATOM    126  F   UNL A   1      43.817  26.026  35.340  1.00  0.00    -0.203 F 
ATOM    127  C   UNL A   1      46.047  26.481  35.946  1.00  0.00     0.198 A 
ATOM    128  C   UNL A   1      47.185  28.377  35.010  1.00  0.00     0.198 A 
ATOM    129  F   UNL A   1      46.063  29.799  33.509  1.00  0.00    -0.203 F 
ATOM    130  F   UNL A   1      46.042  25.416  36.759  1.00  0.00    -0.200 F 
ATOM    131  C   UNL A   1      47.188  27.262  35.835  1.00  0.00     0.200 A 
ATOM    132  F   UNL A   1      48.291  29.125  34.891  1.00  0.00    -0.200 F 
ATOM    133  F   UNL A   1      48.291  26.941  36.524  1.00  0.00    -0.200 F 
ENDBRANCH  99 123
ENDBRANCH  64  67
ENDBRANCH  54  57
ENDBRANCH  50  53
ENDBRANCH  47  50
ENDBRANCH  44  47
ENDBRANCH  41  44
ENDBRANCH   1  41
TORSDOF 18
ENDMDL
MODEL 2
REMARK VINA RESULT:     -12.4      3.193      9.106
REMARK SMILES NS(=O)(=O)c1ccc(/N=C/c2ccc(O)c(C(=O)NCCCCCCNC(=O)c3ccc(-c4c5nc(c(-c6c(F)c(F)c(F)c(F)c6F)c6ccc([nH]6)c(-c6c(F)c(F)c(F)c(F)c6F)c6nc(c(-c7c(F)c(F)c(F)c(F)c7F)c7ccc4[nH]7)C=C6)C=C5)cc3)c2)cc1
REMARK SMILES IDX 21 1 20 4 19 7 17 8 18 9 16 11 11 12 12 13 92 14 13 15 14 18
REMARK SMILES IDX 10 20 9 21 8 23 5 24 6 25 94 26 7 27 93 29 2 33 3 34 4 35
REMARK SMILES IDX 1 36 15 39 22 41 23 44 24 47 25 50 26 53 27 54 28 56 29 57
REMARK SMILES IDX 30 58 91 59 31 60 90 62 32 64 33 67 34 68 84 69 35 70 89 71
REMARK SMILES IDX 83 72 85 73 36 74 88 75 82 77 81 79 37 81 69 84 49 85 68 86
REMARK SMILES IDX 50 87 53 88 67 89 86 90 51 91 52 93 66 95 87 96 54 99 38 101
REMARK SMILES IDX 39 102 47 103 40 104 41 105 45 106 48 107 42 108 43 109
REMARK SMILES IDX 46 110 44 111 70 112 71 113 79 114 72 115 73 116 77 117
REMARK SMILES IDX 80 118 74 119 75 120 78 121 76 122 55 123 56 124 64 125
REMARK SMILES IDX 57 126 58 127 62 128 65 129 59 130 60 131 63 132 61 133
REMARK H PARENT 21 2 21 3 20 5 20 6 19 10 12 16 92 17 13 19 10 22 6 28 94 30
REMARK H PARENT 7 31 93 32 1 37 1 38 15 40 22 42 22 43 23 45 23 46 24 48 24 49
REMARK H PARENT 25 51 25 52 26 55 30 61 91 63 31 65 90 66 89 76 83 78 85 80
REMARK H PARENT 88 82 82 83 50 92 53 94 86 97 51 98 87 100
REMARK Flexibility Score: inf
ROOT
ATOM      1  C   UNL A   1      35.387  31.017  27.868  1.00  0.00    -0.036 C 
ATOM      2  H   UNL A   1      35.801  31.496  27.005  1.00  0.00     0.028 H 
ATOM      3  H   UNL A   1      36.050  30.946  28.706  1.00  0.00     0.028 H 
ENDROOT
BRANCH   1   4
ATOM      4  C   UNL A   1      35.072  29.574  27.488  1.00  0.00     0.018 C 
ATOM      5  H   UNL A   1      35.128  29.490  26.423  1.00  0.00     0.049 H 
ATOM      6  H   UNL A   1      35.789  28.963  27.995  1.00  0.00     0.049 H 
BRANCH   4   7
ATOM      7  N   UNL A   1      33.760  29.112  27.911  1.00  0.00    -0.352 N 
ATOM      8  C   UNL A   1      32.828  28.341  27.252  1.00  0.00     0.255 C 
ATOM      9  O   UNL A   1      31.735  28.135  27.781  1.00  0.00    -0.269 OA
ATOM     10  H   UNL A   1      33.495  29.395  28.816  1.00  0.00     0.163 HD
BRANCH   8  11
ATOM     11  C   UNL A   1      33.052  27.809  25.883  1.00  0.00     0.082 A 
ATOM     12  C   UNL A   1      33.533  25.964  24.387  1.00  0.00    -0.006 A 
ATOM     13  C   UNL A   1      33.780  26.848  23.337  1.00  0.00    -0.050 A 
ATOM     14  C   UNL A   1      33.090  26.440  25.625  1.00  0.00    -0.037 A 
ATOM     15  C   UNL A   1      33.614  28.218  23.549  1.00  0.00    -0.019 A 
ATOM     16  H   UNL A   1      34.081  26.494  22.415  1.00  0.00     0.063 H 
ATOM     17  H   UNL A   1      32.789  25.773  26.353  1.00  0.00     0.064 H 
ATOM     18  C   UNL A   1      33.266  28.694  24.816  1.00  0.00     0.128 A 
ATOM     19  H   UNL A   1      33.749  28.881  22.770  1.00  0.00     0.066 H 
BRANCH  12  20
ATOM     20  C   UNL A   1      33.886  24.534  24.265  1.00  0.00     0.035 C 
ATOM     21  N   UNL A   1      32.946  23.645  24.309  1.00  0.00    -0.256 NA
ATOM     22  H   UNL A   1      34.871  24.248  24.147  1.00  0.00     0.085 H 
BRANCH  21  23
ATOM     23  C   UNL A   1      33.254  22.280  24.317  1.00  0.00     0.063 A 
ATOM     24  C   UNL A   1      33.619  19.508  24.481  1.00  0.00     0.082 A 
ATOM     25  C   UNL A   1      32.534  20.021  23.768  1.00  0.00    -0.040 A 
ATOM     26  C   UNL A   1      34.526  20.365  25.110  1.00  0.00    -0.040 A 
ATOM     27  C   UNL A   1      32.355  21.405  23.698  1.00  0.00    -0.035 A 
ATOM     28  H   UNL A   1      31.871  19.385  23.298  1.00  0.00     0.064 H 
ATOM     29  C   UNL A   1      34.334  21.748  25.033  1.00  0.00    -0.035 A 
ATOM     30  H   UNL A   1      35.331  19.981  25.629  1.00  0.00     0.064 H 
ATOM     31  H   UNL A   1      31.547  21.787  23.182  1.00  0.00     0.065 H 
ATOM     32  H   UNL A   1      34.996  22.384  25.507  1.00  0.00     0.065 H 
BRANCH  24  33
ATOM     33  S   UNL A   1      33.826  17.756  24.584  1.00  0.00     0.238 S 
ATOM     34  O   UNL A   1      35.240  17.451  24.625  1.00  0.00    -0.207 OA
ATOM     35  O   UNL A   1      32.911  17.137  23.660  1.00  0.00    -0.207 OA
BRANCH  33  36
ATOM     36  N   UNL A   1      33.266  17.377  26.124  1.00  0.00    -0.225 NA
ATOM     37  H   UNL A   1      34.047  17.064  26.702  1.00  0.00     0.137 HD
ATOM     38  H   UNL A   1      32.570  16.634  26.061  1.00  0.00     0.137 HD
ENDBRANCH  33  36
ENDBRANCH  24  33
ENDBRANCH  21  23
ENDBRANCH  12  20
BRANCH  18  39
ATOM     39  O   UNL A   1      33.166  30.055  24.947  1.00  0.00    -0.507 OA
ATOM     40  H   UNL A   1      32.326  30.466  24.923  1.00  0.00     0.293 HD
ENDBRANCH  18  39
ENDBRANCH   8  11
ENDBRANCH   4   7
ENDBRANCH   1   4
BRANCH   1  41
ATOM     41  C   UNL A   1      34.221  31.875  28.357  1.00  0.00    -0.052 C 
ATOM     42  H   UNL A   1      33.888  31.467  29.289  1.00  0.00     0.027 H 
ATOM     43  H   UNL A   1      33.499  31.841  27.568  1.00  0.00     0.027 H 
BRANCH  41  44
ATOM     44  C   UNL A   1      34.501  33.363  28.579  1.00  0.00    -0.052 C 
ATOM     45  H   UNL A   1      35.088  33.709  27.755  1.00  0.00     0.027 H 
ATOM     46  H   UNL A   1      34.988  33.419  29.530  1.00  0.00     0.027 H 
BRANCH  44  47
ATOM     47  C   UNL A   1      33.283  34.281  28.699  1.00  0.00    -0.036 C 
ATOM     48  H   UNL A   1      32.621  33.853  29.423  1.00  0.00     0.028 H 
ATOM     49  H   UNL A   1      32.873  34.344  27.713  1.00  0.00     0.028 H 
BRANCH  47  50
ATOM     50  C   UNL A   1      33.564  35.719  29.119  1.00  0.00     0.018 C 
ATOM     51  H   UNL A   1      33.456  36.351  28.263  1.00  0.00     0.049 H 
ATOM     52  H   UNL A   1      34.558  35.744  29.516  1.00  0.00     0.049 H 
BRANCH  50  53
ATOM     53  N   UNL A   1      32.672  36.198  30.161  1.00  0.00    -0.352 N 
ATOM     54  C   UNL A   1      32.706  35.949  31.513  1.00  0.00     0.251 C 
ATOM     55  H   UNL A   1      31.941  36.783  29.857  1.00  0.00     0.163 HD
ATOM     56  O   UNL A   1      31.804  36.350  32.243  1.00  0.00    -0.269 OA
BRANCH  54  57
ATOM     57  C   UNL A   1      33.820  35.165  32.089  1.00  0.00     0.039 A 
ATOM     58  C   UNL A   1      33.567  33.873  32.558  1.00  0.00    -0.049 A 
ATOM     59  C   UNL A   1      35.111  35.696  32.157  1.00  0.00    -0.049 A 
ATOM     60  C   UNL A   1      34.621  33.084  33.028  1.00  0.00    -0.053 A 
ATOM     61  H   UNL A   1      32.603  33.503  32.559  1.00  0.00     0.063 H 
ATOM     62  C   UNL A   1      36.169  34.888  32.564  1.00  0.00    -0.053 A 
ATOM     63  H   UNL A   1      35.279  36.683  31.905  1.00  0.00     0.063 H 
ATOM     64  C   UNL A   1      35.935  33.573  32.999  1.00  0.00    -0.014 A 
ATOM     65  H   UNL A   1      34.431  32.138  33.395  1.00  0.00     0.063 H 
ATOM     66  H   UNL A   1      37.132  35.259  32.548  1.00  0.00     0.063 H 
BRANCH  64  67
ATOM     67  C   UNL A   1      37.094  32.746  33.422  1.00  0.00     0.031 A 
ATOM     68  C   UNL A   1      37.780  33.039  34.725  1.00  0.00     0.074 A 
ATOM     69  C   UNL A   1      37.590  31.809  32.592  1.00  0.00     0.049 A 
ATOM     70  N   UNL A   1      38.907  32.571  35.196  1.00  0.00    -0.248 NA
ATOM     71  C   UNL A   1      37.119  34.015  35.606  1.00  0.00    -0.034 C 
ATOM     72  C   UNL A   1      37.023  31.442  31.294  1.00  0.00    -0.036 A 
ATOM     73  N   UNL A   1      38.703  31.013  32.706  1.00  0.00    -0.354 N 
ATOM     74  C   UNL A   1      39.107  33.217  36.408  1.00  0.00     0.074 A 
ATOM     75  C   UNL A   1      38.001  34.132  36.588  1.00  0.00    -0.034 C 
ATOM     76  H   UNL A   1      36.207  34.484  35.490  1.00  0.00     0.065 H 
ATOM     77  C   UNL A   1      37.793  30.496  30.731  1.00  0.00    -0.036 A 
ATOM     78  H   UNL A   1      36.169  31.845  30.878  1.00  0.00     0.065 H 
ATOM     79  C   UNL A   1      38.932  30.226  31.603  1.00  0.00     0.049 A 
ATOM     80  H   UNL A   1      39.283  31.008  33.502  1.00  0.00     0.167 HD
ATOM     81  C   UNL A   1      40.117  33.052  37.294  1.00  0.00     0.037 A 
ATOM     82  H   UNL A   1      37.910  34.790  37.378  1.00  0.00     0.065 H 
ATOM     83  H   UNL A   1      37.608  30.034  29.826  1.00  0.00     0.065 H 
ATOM     84  C   UNL A   1      39.958  29.400  31.318  1.00  0.00     0.037 A 
ATOM     85  C   UNL A   1      41.198  32.117  37.124  1.00  0.00     0.049 A 
ATOM     86  C   UNL A   1      41.076  29.246  32.315  1.00  0.00     0.074 A 
ATOM     87  C   UNL A   1      42.238  31.834  37.992  1.00  0.00    -0.036 A 
ATOM     88  N   UNL A   1      41.374  31.312  36.009  1.00  0.00    -0.354 N 
ATOM     89  N   UNL A   1      41.230  29.820  33.483  1.00  0.00    -0.248 NA
ATOM     90  C   UNL A   1      42.166  28.325  31.955  1.00  0.00    -0.034 C 
ATOM     91  C   UNL A   1      43.064  30.882  37.387  1.00  0.00    -0.036 A 
ATOM     92  H   UNL A   1      42.379  32.253  38.925  1.00  0.00     0.065 H 
ATOM     93  C   UNL A   1      42.514  30.539  36.162  1.00  0.00     0.049 A 
ATOM     94  H   UNL A   1      40.778  31.292  35.226  1.00  0.00     0.167 HD
ATOM     95  C   UNL A   1      42.405  29.305  34.013  1.00  0.00     0.074 A 
ATOM     96  C   UNL A   1      42.927  28.368  33.041  1.00  0.00    -0.034 C 
ATOM     97  H   UNL A   1      42.302  27.787  31.087  1.00  0.00     0.065 H 
ATOM     98  H   UNL A   1      43.936  30.499  37.785  1.00  0.00     0.065 H 
ATOM     99  C   UNL A   1      42.997  29.582  35.199  1.00  0.00     0.037 A 
ATOM    100  H   UNL A   1      43.781  27.804  33.175  1.00  0.00     0.065 H 
BRANCH  81 101
ATOM    101  C   UNL A   1      40.103  33.904  38.528  1.00  0.00     0.064 A 
ATOM    102  C   UNL A   1      39.424  33.507  39.689  1.00  0.00     0.173 A 
ATOM    103  C   UNL A   1      40.809  35.117  38.562  1.00  0.00     0.173 A 
ATOM    104  F   UNL A   1      38.725  32.361  39.704  1.00  0.00    -0.203 F 
ATOM    105  C   UNL A   1      39.426  34.305  40.830  1.00  0.00     0.198 A 
ATOM    106  C   UNL A   1      40.834  35.899  39.714  1.00  0.00     0.198 A 
ATOM    107  F   UNL A   1      41.482  35.540  37.482  1.00  0.00    -0.203 F 
ATOM    108  F   UNL A   1      38.732  33.928  41.911  1.00  0.00    -0.200 F 
ATOM    109  C   UNL A   1      40.137  35.497  40.844  1.00  0.00     0.200 A 
ATOM    110  F   UNL A   1      41.531  37.043  39.731  1.00  0.00    -0.200 F 
ATOM    111  F   UNL A   1      40.144  36.261  41.944  1.00  0.00    -0.200 F 
ENDBRANCH  81 101
BRANCH  84 112
ATOM    112  C   UNL A   1      39.967  28.643  30.038  1.00  0.00     0.064 A 
ATOM    113  C   UNL A   1      39.398  27.364  29.958  1.00  0.00     0.173 A 
ATOM    114  C   UNL A   1      40.540  29.175  28.874  1.00  0.00     0.173 A 
ATOM    115  F   UNL A   1      38.847  26.808  31.047  1.00  0.00    -0.203 F 
ATOM    116  C   UNL A   1      39.424  26.637  28.771  1.00  0.00     0.198 A 
ATOM    117  C   UNL A   1      40.546  28.456  27.681  1.00  0.00     0.198 A 
ATOM    118  F   UNL A   1      41.066  30.407  28.886  1.00  0.00    -0.203 F 
ATOM    119  F   UNL A   1      38.906  25.402  28.733  1.00  0.00    -0.200 F 
ATOM    120  C   UNL A   1      39.996  27.184  27.631  1.00  0.00     0.200 A 
ATOM    121  F   UNL A   1      41.079  28.996  26.576  1.00  0.00    -0.200 F 
ATOM    122  F   UNL A   1      40.016  26.485  26.489  1.00  0.00    -0.200 F 
ENDBRANCH  84 112
BRANCH  99 123
ATOM    123  C   UNL A   1      44.239  28.821  35.554  1.00  0.00     0.064 A 
ATOM    124  C   UNL A   1      44.186  27.604  36.248  1.00  0.00     0.173 A 
ATOM    125  C   UNL A   1      45.493  29.281  35.123  1.00  0.00     0.173 A 
ATOM    126  F   UNL A   1      43.012  27.130  36.692  1.00  0.00    -0.203 F 
ATOM    127  C   UNL A   1      45.346  26.879  36.506  1.00  0.00     0.198 A 
ATOM    128  C   UNL A   1      46.647  28.541  35.361  1.00  0.00     0.198 A 
ATOM    129  F   UNL A   1      45.595  30.436  34.449  1.00  0.00    -0.203 F 
ATOM    130  F   UNL A   1      45.277  25.732  37.196  1.00  0.00    -0.200 F 
ATOM    131  C   UNL A   1      46.574  27.342  36.055  1.00  0.00     0.200 A 
ATOM    132  F   UNL A   1      47.831  28.983  34.912  1.00  0.00    -0.200 F 
ATOM    133  F   UNL A   1      47.687  26.634  36.290  1.00  0.00    -0.200 F 
ENDBRANCH  99 123
ENDBRANCH  64  67
ENDBRANCH  54  57
ENDBRANCH  50  53
ENDBRANCH  47  50
ENDBRANCH  44  47
ENDBRANCH  41  44
ENDBRANCH   1  41
TORSDOF 18
ENDMDL
MODEL 3
REMARK VINA RESULT:     -12.3      3.451      6.087
REMARK SMILES NS(=O)(=O)c1ccc(/N=C/c2ccc(O)c(C(=O)NCCCCCCNC(=O)c3ccc(-c4c5nc(c(-c6c(F)c(F)c(F)c(F)c6F)c6ccc([nH]6)c(-c6c(F)c(F)c(F)c(F)c6F)c6nc(c(-c7c(F)c(F)c(F)c(F)c7F)c7ccc4[nH]7)C=C6)C=C5)cc3)c2)cc1
REMARK SMILES IDX 21 1 20 4 19 7 17 8 18 9 16 11 11 12 12 13 92 14 13 15 14 18
REMARK SMILES IDX 10 20 9 21 8 23 5 24 6 25 94 26 7 27 93 29 2 33 3 34 4 35
REMARK SMILES IDX 1 36 15 39 22 41 23 44 24 47 25 50 26 53 27 54 28 56 29 57
REMARK SMILES IDX 30 58 91 59 31 60 90 62 32 64 33 67 34 68 84 69 35 70 89 71
REMARK SMILES IDX 83 72 85 73 36 74 88 75 82 77 81 79 37 81 69 84 49 85 68 86
REMARK SMILES IDX 50 87 53 88 67 89 86 90 51 91 52 93 66 95 87 96 54 99 38 101
REMARK SMILES IDX 39 102 47 103 40 104 41 105 45 106 48 107 42 108 43 109
REMARK SMILES IDX 46 110 44 111 70 112 71 113 79 114 72 115 73 116 77 117
REMARK SMILES IDX 80 118 74 119 75 120 78 121 76 122 55 123 56 124 64 125
REMARK SMILES IDX 57 126 58 127 62 128 65 129 59 130 60 131 63 132 61 133
REMARK H PARENT 21 2 21 3 20 5 20 6 19 10 12 16 92 17 13 19 10 22 6 28 94 30
REMARK H PARENT 7 31 93 32 1 37 1 38 15 40 22 42 22 43 23 45 23 46 24 48 24 49
REMARK H PARENT 25 51 25 52 26 55 30 61 91 63 31 65 90 66 89 76 83 78 85 80
REMARK H PARENT 88 82 82 83 50 92 53 94 86 97 51 98 87 100
REMARK Flexibility Score: inf
ROOT
ATOM      1  C   UNL A   1      32.998  28.246  26.898  1.00  0.00    -0.036 C 
ATOM      2  H   UNL A   1      33.918  28.748  26.680  1.00  0.00     0.028 H 
ATOM      3  H   UNL A   1      33.011  27.648  27.786  1.00  0.00     0.028 H 
ENDROOT
BRANCH   1   4
ATOM      4  C   UNL A   1      32.730  27.264  25.763  1.00  0.00     0.018 C 
ATOM      5  H   UNL A   1      33.312  26.383  25.939  1.00  0.00     0.049 H 
ATOM      6  H   UNL A   1      31.677  27.077  25.764  1.00  0.00     0.049 H 
BRANCH   4   7
ATOM      7  N   UNL A   1      33.060  27.768  24.439  1.00  0.00    -0.352 N 
ATOM      8  C   UNL A   1      33.432  27.098  23.295  1.00  0.00     0.255 C 
ATOM      9  O   UNL A   1      33.745  27.745  22.294  1.00  0.00    -0.269 OA
ATOM     10  H   UNL A   1      33.009  28.746  24.346  1.00  0.00     0.163 HD
BRANCH   8  11
ATOM     11  C   UNL A   1      33.553  25.618  23.235  1.00  0.00     0.082 A 
ATOM     12  C   UNL A   1      34.819  23.586  23.607  1.00  0.00    -0.006 A 
ATOM     13  C   UNL A   1      33.915  22.853  22.840  1.00  0.00    -0.050 A 
ATOM     14  C   UNL A   1      34.590  24.940  23.871  1.00  0.00    -0.037 A 
ATOM     15  C   UNL A   1      32.796  23.497  22.307  1.00  0.00    -0.019 A 
ATOM     16  H   UNL A   1      34.070  21.846  22.668  1.00  0.00     0.063 H 
ATOM     17  H   UNL A   1      35.194  25.441  24.542  1.00  0.00     0.064 H 
ATOM     18  C   UNL A   1      32.625  24.872  22.492  1.00  0.00     0.128 A 
ATOM     19  H   UNL A   1      32.095  22.959  21.775  1.00  0.00     0.066 H 
BRANCH  12  20
ATOM     20  C   UNL A   1      36.109  22.994  24.020  1.00  0.00     0.035 C 
ATOM     21  N   UNL A   1      36.116  21.844  24.615  1.00  0.00    -0.256 NA
ATOM     22  H   UNL A   1      36.994  23.492  23.837  1.00  0.00     0.085 H 
BRANCH  21  23
ATOM     23  C   UNL A   1      37.304  21.311  25.125  1.00  0.00     0.063 A 
ATOM     24  C   UNL A   1      39.825  20.425  25.963  1.00  0.00     0.082 A 
ATOM     25  C   UNL A   1      39.452  21.752  26.181  1.00  0.00    -0.040 A 
ATOM     26  C   UNL A   1      38.951  19.534  25.335  1.00  0.00    -0.040 A 
ATOM     27  C   UNL A   1      38.196  22.188  25.752  1.00  0.00    -0.035 A 
ATOM     28  H   UNL A   1      40.097  22.405  26.653  1.00  0.00     0.064 H 
ATOM     29  C   UNL A   1      37.697  19.983  24.911  1.00  0.00    -0.035 A 
ATOM     30  H   UNL A   1      39.229  18.552  25.185  1.00  0.00     0.064 H 
ATOM     31  H   UNL A   1      37.921  23.172  25.901  1.00  0.00     0.065 H 
ATOM     32  H   UNL A   1      37.054  19.331  24.435  1.00  0.00     0.065 H 
BRANCH  24  33
ATOM     33  S   UNL A   1      41.425  19.888  26.488  1.00  0.00     0.238 S 
ATOM     34  O   UNL A   1      42.304  21.035  26.563  1.00  0.00    -0.207 OA
ATOM     35  O   UNL A   1      41.758  18.685  25.769  1.00  0.00    -0.207 OA
BRANCH  33  36
ATOM     36  N   UNL A   1      41.189  19.430  28.088  1.00  0.00    -0.225 NA
ATOM     37  H   UNL A   1      41.328  20.237  28.697  1.00  0.00     0.137 HD
ATOM     38  H   UNL A   1      41.855  18.699  28.336  1.00  0.00     0.137 HD
ENDBRANCH  33  36
ENDBRANCH  24  33
ENDBRANCH  21  23
ENDBRANCH  12  20
BRANCH  18  39
ATOM     39  O   UNL A   1      31.524  25.432  21.900  1.00  0.00    -0.507 OA
ATOM     40  H   UNL A   1      31.611  26.220  21.401  1.00  0.00     0.293 HD
ENDBRANCH  18  39
ENDBRANCH   8  11
ENDBRANCH   4   7
ENDBRANCH   1   4
BRANCH   1  41
ATOM     41  C   UNL A   1      31.937  29.315  27.154  1.00  0.00    -0.052 C 
ATOM     42  H   UNL A   1      32.111  29.715  28.132  1.00  0.00     0.027 H 
ATOM     43  H   UNL A   1      30.999  28.813  27.035  1.00  0.00     0.027 H 
BRANCH  41  44
ATOM     44  C   UNL A   1      31.887  30.491  26.176  1.00  0.00    -0.052 C 
ATOM     45  H   UNL A   1      31.141  30.270  25.442  1.00  0.00     0.027 H 
ATOM     46  H   UNL A   1      32.882  30.579  25.791  1.00  0.00     0.027 H 
BRANCH  44  47
ATOM     47  C   UNL A   1      31.564  31.864  26.768  1.00  0.00    -0.036 C 
ATOM     48  H   UNL A   1      30.899  31.715  27.594  1.00  0.00     0.028 H 
ATOM     49  H   UNL A   1      31.145  32.432  25.964  1.00  0.00     0.028 H 
BRANCH  47  50
ATOM     50  C   UNL A   1      32.753  32.676  27.268  1.00  0.00     0.018 C 
ATOM     51  H   UNL A   1      33.493  32.706  26.496  1.00  0.00     0.049 H 
ATOM     52  H   UNL A   1      33.113  32.197  28.155  1.00  0.00     0.049 H 
BRANCH  50  53
ATOM     53  N   UNL A   1      32.406  34.041  27.628  1.00  0.00    -0.352 N 
ATOM     54  C   UNL A   1      32.984  34.864  28.565  1.00  0.00     0.251 C 
ATOM     55  H   UNL A   1      31.651  34.431  27.131  1.00  0.00     0.163 HD
ATOM     56  O   UNL A   1      32.494  35.960  28.819  1.00  0.00    -0.269 OA
BRANCH  54  57
ATOM     57  C   UNL A   1      34.188  34.412  29.298  1.00  0.00     0.039 A 
ATOM     58  C   UNL A   1      34.033  33.814  30.552  1.00  0.00    -0.049 A 
ATOM     59  C   UNL A   1      35.463  34.568  28.748  1.00  0.00    -0.049 A 
ATOM     60  C   UNL A   1      35.148  33.304  31.222  1.00  0.00    -0.053 A 
ATOM     61  H   UNL A   1      33.096  33.749  30.982  1.00  0.00     0.063 H 
ATOM     62  C   UNL A   1      36.564  34.004  29.386  1.00  0.00    -0.053 A 
ATOM     63  H   UNL A   1      35.587  35.099  27.870  1.00  0.00     0.063 H 
ATOM     64  C   UNL A   1      36.417  33.362  30.626  1.00  0.00    -0.014 A 
ATOM     65  H   UNL A   1      35.038  32.882  32.158  1.00  0.00     0.063 H 
ATOM     66  H   UNL A   1      37.495  34.058  28.944  1.00  0.00     0.063 H 
BRANCH  64  67
ATOM     67  C   UNL A   1      37.618  32.772  31.270  1.00  0.00     0.031 A 
ATOM     68  C   UNL A   1      38.319  31.616  30.615  1.00  0.00     0.074 A 
ATOM     69  C   UNL A   1      38.011  33.202  32.483  1.00  0.00     0.049 A 
ATOM     70  N   UNL A   1      39.261  30.840  31.085  1.00  0.00    -0.248 NA
ATOM     71  C   UNL A   1      37.879  31.272  29.253  1.00  0.00    -0.034 C 
ATOM     72  C   UNL A   1      37.404  34.304  33.229  1.00  0.00    -0.036 A 
ATOM     73  N   UNL A   1      39.001  32.742  33.317  1.00  0.00    -0.354 N 
ATOM     74  C   UNL A   1      39.502  29.897  30.095  1.00  0.00     0.074 A 
ATOM     75  C   UNL A   1      38.588  30.180  29.009  1.00  0.00    -0.034 C 
ATOM     76  H   UNL A   1      37.198  31.756  28.647  1.00  0.00     0.065 H 
ATOM     77  C   UNL A   1      38.031  34.434  34.409  1.00  0.00    -0.036 A 
ATOM     78  H   UNL A   1      36.620  34.889  32.900  1.00  0.00     0.065 H 
ATOM     79  C   UNL A   1      39.050  33.394  34.525  1.00  0.00     0.049 A 
ATOM     80  H   UNL A   1      39.616  32.013  33.072  1.00  0.00     0.167 HD
ATOM     81  C   UNL A   1      40.411  28.894  30.090  1.00  0.00     0.037 A 
ATOM     82  H   UNL A   1      38.500  29.607  28.155  1.00  0.00     0.065 H 
ATOM     83  H   UNL A   1      37.826  35.153  35.121  1.00  0.00     0.065 H 
ATOM     84  C   UNL A   1      39.812  33.163  35.611  1.00  0.00     0.037 A 
ATOM     85  C   UNL A   1      41.338  28.638  31.160  1.00  0.00     0.049 A 
ATOM     86  C   UNL A   1      40.805  32.031  35.586  1.00  0.00     0.074 A 
ATOM     87  C   UNL A   1      42.337  27.682  31.225  1.00  0.00    -0.036 A 
ATOM     88  N   UNL A   1      41.379  29.344  32.353  1.00  0.00    -0.354 N 
ATOM     89  N   UNL A   1      41.065  31.179  34.624  1.00  0.00    -0.248 NA
ATOM     90  C   UNL A   1      41.617  31.830  36.796  1.00  0.00    -0.034 C 
ATOM     91  C   UNL A   1      42.960  27.787  32.472  1.00  0.00    -0.036 A 
ATOM     92  H   UNL A   1      42.580  27.008  30.481  1.00  0.00     0.065 H 
ATOM     93  C   UNL A   1      42.381  28.838  33.166  1.00  0.00     0.049 A 
ATOM     94  H   UNL A   1      40.787  30.094  32.586  1.00  0.00     0.167 HD
ATOM     95  C   UNL A   1      42.089  30.369  35.095  1.00  0.00     0.074 A 
ATOM     96  C   UNL A   1      42.409  30.832  36.428  1.00  0.00    -0.034 C 
ATOM     97  H   UNL A   1      41.580  32.333  37.695  1.00  0.00     0.065 H 
ATOM     98  H   UNL A   1      43.724  27.185  32.818  1.00  0.00     0.065 H 
ATOM     99  C   UNL A   1      42.710  29.336  34.476  1.00  0.00     0.037 A 
ATOM    100  H   UNL A   1      43.158  30.436  37.018  1.00  0.00     0.065 H 
BRANCH  81 101
ATOM    101  C   UNL A   1      40.445  27.995  28.890  1.00  0.00     0.064 A 
ATOM    102  C   UNL A   1      39.699  26.809  28.838  1.00  0.00     0.173 A 
ATOM    103  C   UNL A   1      41.204  28.344  27.762  1.00  0.00     0.173 A 
ATOM    104  F   UNL A   1      38.965  26.426  29.894  1.00  0.00    -0.203 F 
ATOM    105  C   UNL A   1      39.734  25.988  27.714  1.00  0.00     0.198 A 
ATOM    106  C   UNL A   1      41.215  27.536  26.628  1.00  0.00     0.198 A 
ATOM    107  F   UNL A   1      41.930  29.471  27.756  1.00  0.00    -0.203 F 
ATOM    108  F   UNL A   1      39.049  24.837  27.705  1.00  0.00    -0.200 F 
ATOM    109  C   UNL A   1      40.485  26.356  26.607  1.00  0.00     0.200 A 
ATOM    110  F   UNL A   1      41.931  27.898  25.555  1.00  0.00    -0.200 F 
ATOM    111  F   UNL A   1      40.513  25.569  25.523  1.00  0.00    -0.200 F 
ENDBRANCH  81 101
BRANCH  84 112
ATOM    112  C   UNL A   1      39.676  34.030  36.812  1.00  0.00     0.064 A 
ATOM    113  C   UNL A   1      38.869  33.642  37.890  1.00  0.00     0.173 A 
ATOM    114  C   UNL A   1      40.347  35.258  36.911  1.00  0.00     0.173 A 
ATOM    115  F   UNL A   1      38.198  32.480  37.838  1.00  0.00    -0.203 F 
ATOM    116  C   UNL A   1      38.716  34.458  39.007  1.00  0.00     0.198 A 
ATOM    117  C   UNL A   1      40.211  36.065  38.039  1.00  0.00     0.198 A 
ATOM    118  F   UNL A   1      41.159  35.661  35.925  1.00  0.00    -0.203 F 
ATOM    119  F   UNL A   1      37.908  34.079  40.006  1.00  0.00    -0.200 F 
ATOM    120  C   UNL A   1      39.389  35.668  39.083  1.00  0.00     0.200 A 
ATOM    121  F   UNL A   1      40.880  37.223  38.118  1.00  0.00    -0.200 F 
ATOM    122  F   UNL A   1      39.245  36.451  40.160  1.00  0.00    -0.200 F 
ENDBRANCH  84 112
BRANCH  99 123
ATOM    123  C   UNL A   1      43.845  28.672  35.197  1.00  0.00     0.064 A 
ATOM    124  C   UNL A   1      45.166  29.121  35.065  1.00  0.00     0.173 A 
ATOM    125  C   UNL A   1      43.591  27.620  36.090  1.00  0.00     0.173 A 
ATOM    126  F   UNL A   1      45.461  30.114  34.213  1.00  0.00    -0.203 F 
ATOM    127  C   UNL A   1      46.195  28.533  35.797  1.00  0.00     0.198 A 
ATOM    128  C   UNL A   1      44.618  27.052  36.839  1.00  0.00     0.198 A 
ATOM    129  F   UNL A   1      42.342  27.160  36.256  1.00  0.00    -0.203 F 
ATOM    130  F   UNL A   1      47.456  28.959  35.636  1.00  0.00    -0.200 F 
ATOM    131  C   UNL A   1      45.919  27.507  36.690  1.00  0.00     0.200 A 
ATOM    132  F   UNL A   1      44.348  26.071  37.711  1.00  0.00    -0.200 F 
ATOM    133  F   UNL A   1      46.909  26.955  37.405  1.00  0.00    -0.200 F 
ENDBRANCH  99 123
ENDBRANCH  64  67
ENDBRANCH  54  57
ENDBRANCH  50  53
ENDBRANCH  47  50
ENDBRANCH  44  47
ENDBRANCH  41  44
ENDBRANCH   1  41
TORSDOF 18
ENDMDL
MODEL 4
REMARK VINA RESULT:     -12.3      3.620      9.428
REMARK SMILES NS(=O)(=O)c1ccc(/N=C/c2ccc(O)c(C(=O)NCCCCCCNC(=O)c3ccc(-c4c5nc(c(-c6c(F)c(F)c(F)c(F)c6F)c6ccc([nH]6)c(-c6c(F)c(F)c(F)c(F)c6F)c6nc(c(-c7c(F)c(F)c(F)c(F)c7F)c7ccc4[nH]7)C=C6)C=C5)cc3)c2)cc1
REMARK SMILES IDX 21 1 20 4 19 7 17 8 18 9 16 11 11 12 12 13 92 14 13 15 14 18
REMARK SMILES IDX 10 20 9 21 8 23 5 24 6 25 94 26 7 27 93 29 2 33 3 34 4 35
REMARK SMILES IDX 1 36 15 39 22 41 23 44 24 47 25 50 26 53 27 54 28 56 29 57
REMARK SMILES IDX 30 58 91 59 31 60 90 62 32 64 33 67 34 68 84 69 35 70 89 71
REMARK SMILES IDX 83 72 85 73 36 74 88 75 82 77 81 79 37 81 69 84 49 85 68 86
REMARK SMILES IDX 50 87 53 88 67 89 86 90 51 91 52 93 66 95 87 96 54 99 38 101
REMARK SMILES IDX 39 102 47 103 40 104 41 105 45 106 48 107 42 108 43 109
REMARK SMILES IDX 46 110 44 111 70 112 71 113 79 114 72 115 73 116 77 117
REMARK SMILES IDX 80 118 74 119 75 120 78 121 76 122 55 123 56 124 64 125
REMARK SMILES IDX 57 126 58 127 62 128 65 129 59 130 60 131 63 132 61 133
REMARK H PARENT 21 2 21 3 20 5 20 6 19 10 12 16 92 17 13 19 10 22 6 28 94 30
REMARK H PARENT 7 31 93 32 1 37 1 38 15 40 22 42 22 43 23 45 23 46 24 48 24 49
REMARK H PARENT 25 51 25 52 26 55 30 61 91 63 31 65 90 66 89 76 83 78 85 80
REMARK H PARENT 88 82 82 83 50 92 53 94 86 97 51 98 87 100
REMARK Flexibility Score: inf
ROOT
ATOM      1  C   UNL A   1      34.933  30.792  27.844  1.00  0.00    -0.036 C 
ATOM      2  H   UNL A   1      35.754  31.165  27.266  1.00  0.00     0.028 H 
ATOM      3  H   UNL A   1      35.154  30.610  28.875  1.00  0.00     0.028 H 
ENDROOT
BRANCH   1   4
ATOM      4  C   UNL A   1      34.550  29.431  27.274  1.00  0.00     0.018 C 
ATOM      5  H   UNL A   1      34.612  29.486  26.206  1.00  0.00     0.049 H 
ATOM      6  H   UNL A   1      35.231  28.722  27.696  1.00  0.00     0.049 H 
BRANCH   4   7
ATOM      7  N   UNL A   1      33.213  28.983  27.629  1.00  0.00    -0.352 N 
ATOM      8  C   UNL A   1      32.435  27.981  27.093  1.00  0.00     0.255 C 
ATOM      9  O   UNL A   1      31.284  27.827  27.507  1.00  0.00    -0.269 OA
ATOM     10  H   UNL A   1      32.797  29.476  28.373  1.00  0.00     0.163 HD
BRANCH   8  11
ATOM     11  C   UNL A   1      32.894  27.120  25.973  1.00  0.00     0.082 A 
ATOM     12  C   UNL A   1      34.152  25.220  25.148  1.00  0.00    -0.006 A 
ATOM     13  C   UNL A   1      34.019  25.671  23.835  1.00  0.00    -0.050 A 
ATOM     14  C   UNL A   1      33.521  25.897  26.197  1.00  0.00    -0.037 A 
ATOM     15  C   UNL A   1      33.276  26.827  23.586  1.00  0.00    -0.019 A 
ATOM     16  H   UNL A   1      34.462  25.156  23.058  1.00  0.00     0.063 H 
ATOM     17  H   UNL A   1      33.519  25.485  27.144  1.00  0.00     0.064 H 
ATOM     18  C   UNL A   1      32.731  27.553  24.648  1.00  0.00     0.128 A 
ATOM     19  H   UNL A   1      33.131  27.148  22.615  1.00  0.00     0.066 H 
BRANCH  12  20
ATOM     20  C   UNL A   1      35.086  24.122  25.475  1.00  0.00     0.035 C 
ATOM     21  N   UNL A   1      36.347  24.382  25.606  1.00  0.00    -0.256 NA
ATOM     22  H   UNL A   1      34.735  23.159  25.599  1.00  0.00     0.085 H 
BRANCH  21  23
ATOM     23  C   UNL A   1      37.273  23.351  25.797  1.00  0.00     0.063 A 
ATOM     24  C   UNL A   1      39.316  21.449  26.025  1.00  0.00     0.082 A 
ATOM     25  C   UNL A   1      39.477  22.709  26.603  1.00  0.00    -0.040 A 
ATOM     26  C   UNL A   1      38.143  21.127  25.338  1.00  0.00    -0.040 A 
ATOM     27  C   UNL A   1      38.457  23.655  26.478  1.00  0.00    -0.035 A 
ATOM     28  H   UNL A   1      40.341  22.941  27.118  1.00  0.00     0.064 H 
ATOM     29  C   UNL A   1      37.130  22.083  25.219  1.00  0.00    -0.035 A 
ATOM     30  H   UNL A   1      38.026  20.191  24.919  1.00  0.00     0.064 H 
ATOM     31  H   UNL A   1      38.578  24.591  26.894  1.00  0.00     0.065 H 
ATOM     32  H   UNL A   1      36.267  21.852  24.700  1.00  0.00     0.065 H 
BRANCH  24  33
ATOM     33  S   UNL A   1      40.622  20.267  26.169  1.00  0.00     0.238 S 
ATOM     34  O   UNL A   1      41.855  20.872  25.714  1.00  0.00    -0.207 OA
ATOM     35  O   UNL A   1      40.140  18.998  25.687  1.00  0.00    -0.207 OA
BRANCH  33  36
ATOM     36  N   UNL A   1      40.823  20.093  27.830  1.00  0.00    -0.225 NA
ATOM     37  H   UNL A   1      41.701  20.529  28.113  1.00  0.00     0.137 HD
ATOM     38  H   UNL A   1      40.842  19.102  28.068  1.00  0.00     0.137 HD
ENDBRANCH  33  36
ENDBRANCH  24  33
ENDBRANCH  21  23
ENDBRANCH  12  20
BRANCH  18  39
ATOM     39  O   UNL A   1      32.055  28.698  24.318  1.00  0.00    -0.507 OA
ATOM     40  H   UNL A   1      32.247  29.499  24.762  1.00  0.00     0.293 HD
ENDBRANCH  18  39
ENDBRANCH   8  11
ENDBRANCH   4   7
ENDBRANCH   1   4
BRANCH   1  41
ATOM     41  C   UNL A   1      33.849  31.869  27.854  1.00  0.00    -0.052 C 
ATOM     42  H   UNL A   1      32.970  31.438  28.287  1.00  0.00     0.027 H 
ATOM     43  H   UNL A   1      33.745  32.171  26.833  1.00  0.00     0.027 H 
BRANCH  41  44
ATOM     44  C   UNL A   1      34.158  33.156  28.622  1.00  0.00    -0.052 C 
ATOM     45  H   UNL A   1      35.010  33.611  28.164  1.00  0.00     0.027 H 
ATOM     46  H   UNL A   1      34.306  32.850  29.637  1.00  0.00     0.027 H 
BRANCH  44  47
ATOM     47  C   UNL A   1      33.047  34.206  28.679  1.00  0.00    -0.036 C 
ATOM     48  H   UNL A   1      32.286  33.841  29.337  1.00  0.00     0.028 H 
ATOM     49  H   UNL A   1      32.726  34.338  27.667  1.00  0.00     0.028 H 
BRANCH  47  50
ATOM     50  C   UNL A   1      33.456  35.591  29.164  1.00  0.00     0.018 C 
ATOM     51  H   UNL A   1      33.427  36.265  28.334  1.00  0.00     0.049 H 
ATOM     52  H   UNL A   1      34.438  35.504  29.579  1.00  0.00     0.049 H 
BRANCH  50  53
ATOM     53  N   UNL A   1      32.592  36.112  30.210  1.00  0.00    -0.352 N 
ATOM     54  C   UNL A   1      32.661  35.915  31.570  1.00  0.00     0.251 C 
ATOM     55  H   UNL A   1      31.854  36.687  29.903  1.00  0.00     0.163 HD
ATOM     56  O   UNL A   1      31.779  36.345  32.307  1.00  0.00    -0.269 OA
BRANCH  54  57
ATOM     57  C   UNL A   1      33.788  35.150  32.146  1.00  0.00     0.039 A 
ATOM     58  C   UNL A   1      33.551  33.864  32.640  1.00  0.00    -0.049 A 
ATOM     59  C   UNL A   1      35.075  35.693  32.190  1.00  0.00    -0.049 A 
ATOM     60  C   UNL A   1      34.618  33.092  33.110  1.00  0.00    -0.053 A 
ATOM     61  H   UNL A   1      32.591  33.485  32.658  1.00  0.00     0.063 H 
ATOM     62  C   UNL A   1      36.144  34.901  32.598  1.00  0.00    -0.053 A 
ATOM     63  H   UNL A   1      35.232  36.677  31.919  1.00  0.00     0.063 H 
ATOM     64  C   UNL A   1      35.927  33.592  33.058  1.00  0.00    -0.014 A 
ATOM     65  H   UNL A   1      34.441  32.151  33.496  1.00  0.00     0.063 H 
ATOM     66  H   UNL A   1      37.104  35.279  32.564  1.00  0.00     0.063 H 
BRANCH  64  67
ATOM     67  C   UNL A   1      37.098  32.782  33.481  1.00  0.00     0.031 A 
ATOM     68  C   UNL A   1      37.781  33.087  34.783  1.00  0.00     0.074 A 
ATOM     69  C   UNL A   1      37.606  31.850  32.652  1.00  0.00     0.049 A 
ATOM     70  N   UNL A   1      38.915  32.635  35.254  1.00  0.00    -0.248 NA
ATOM     71  C   UNL A   1      37.107  34.054  35.663  1.00  0.00    -0.034 C 
ATOM     72  C   UNL A   1      37.044  31.473  31.355  1.00  0.00    -0.036 A 
ATOM     73  N   UNL A   1      38.731  31.070  32.767  1.00  0.00    -0.354 N 
ATOM     74  C   UNL A   1      39.107  33.286  36.465  1.00  0.00     0.074 A 
ATOM     75  C   UNL A   1      37.988  34.186  36.644  1.00  0.00    -0.034 C 
ATOM     76  H   UNL A   1      36.188  34.511  35.547  1.00  0.00     0.065 H 
ATOM     77  C   UNL A   1      37.826  30.537  30.794  1.00  0.00    -0.036 A 
ATOM     78  H   UNL A   1      36.184  31.863  30.940  1.00  0.00     0.065 H 
ATOM     79  C   UNL A   1      38.970  30.285  31.665  1.00  0.00     0.049 A 
ATOM     80  H   UNL A   1      39.311  31.075  33.562  1.00  0.00     0.167 HD
ATOM     81  C   UNL A   1      40.120  33.137  37.350  1.00  0.00     0.037 A 
ATOM     82  H   UNL A   1      37.888  34.844  37.433  1.00  0.00     0.065 H 
ATOM     83  H   UNL A   1      37.647  30.071  29.890  1.00  0.00     0.065 H 
ATOM     84  C   UNL A   1      40.007  29.473  31.381  1.00  0.00     0.037 A 
ATOM     85  C   UNL A   1      41.213  32.217  37.181  1.00  0.00     0.049 A 
ATOM     86  C   UNL A   1      41.129  29.337  32.377  1.00  0.00     0.074 A 
ATOM     87  C   UNL A   1      42.258  31.951  38.048  1.00  0.00    -0.036 A 
ATOM     88  N   UNL A   1      41.400  31.413  36.067  1.00  0.00    -0.354 N 
ATOM     89  N   UNL A   1      41.275  29.915  33.544  1.00  0.00    -0.248 NA
ATOM     90  C   UNL A   1      42.230  28.431  32.018  1.00  0.00    -0.034 C 
ATOM     91  C   UNL A   1      43.097  31.010  37.444  1.00  0.00    -0.036 A 
ATOM     92  H   UNL A   1      42.395  32.373  38.980  1.00  0.00     0.065 H 
ATOM     93  C   UNL A   1      42.551  30.656  36.220  1.00  0.00     0.049 A 
ATOM     94  H   UNL A   1      40.804  31.383  35.284  1.00  0.00     0.167 HD
ATOM     95  C   UNL A   1      42.458  29.417  34.073  1.00  0.00     0.074 A 
ATOM     96  C   UNL A   1      42.992  28.486  33.103  1.00  0.00    -0.034 C 
ATOM     97  H   UNL A   1      42.374  27.892  31.150  1.00  0.00     0.065 H 
ATOM     98  H   UNL A   1      43.975  30.639  37.842  1.00  0.00     0.065 H 
ATOM     99  C   UNL A   1      43.047  29.705  35.259  1.00  0.00     0.037 A 
ATOM    100  H   UNL A   1      43.854  27.935  33.237  1.00  0.00     0.065 H 
BRANCH  81 101
ATOM    101  C   UNL A   1      40.095  33.992  38.582  1.00  0.00     0.064 A 
ATOM    102  C   UNL A   1      39.439  33.578  39.751  1.00  0.00     0.173 A 
ATOM    103  C   UNL A   1      40.767  35.224  38.607  1.00  0.00     0.173 A 
ATOM    104  F   UNL A   1      38.773  32.413  39.776  1.00  0.00    -0.203 F 
ATOM    105  C   UNL A   1      39.431  34.379  40.890  1.00  0.00     0.198 A 
ATOM    106  C   UNL A   1      40.782  36.009  39.757  1.00  0.00     0.198 A 
ATOM    107  F   UNL A   1      41.416  35.663  37.519  1.00  0.00    -0.203 F 
ATOM    108  F   UNL A   1      38.759  33.984  41.980  1.00  0.00    -0.200 F 
ATOM    109  C   UNL A   1      40.108  35.589  40.895  1.00  0.00     0.200 A 
ATOM    110  F   UNL A   1      41.447  37.172  39.764  1.00  0.00    -0.200 F 
ATOM    111  F   UNL A   1      40.106  36.356  41.994  1.00  0.00    -0.200 F 
ENDBRANCH  81 101
BRANCH  84 112
ATOM    112  C   UNL A   1      40.026  28.714  30.102  1.00  0.00     0.064 A 
ATOM    113  C   UNL A   1      39.460  27.434  30.020  1.00  0.00     0.173 A 
ATOM    114  C   UNL A   1      40.605  29.245  28.940  1.00  0.00     0.173 A 
ATOM    115  F   UNL A   1      38.903  26.878  31.107  1.00  0.00    -0.203 F 
ATOM    116  C   UNL A   1      39.495  26.705  28.835  1.00  0.00     0.198 A 
ATOM    117  C   UNL A   1      40.620  28.524  27.749  1.00  0.00     0.198 A 
ATOM    118  F   UNL A   1      41.129  30.478  28.954  1.00  0.00    -0.203 F 
ATOM    119  F   UNL A   1      38.980  25.469  28.795  1.00  0.00    -0.200 F 
ATOM    120  C   UNL A   1      40.072  27.251  27.698  1.00  0.00     0.200 A 
ATOM    121  F   UNL A   1      41.159  29.063  26.647  1.00  0.00    -0.200 F 
ATOM    122  F   UNL A   1      40.102  26.551  26.557  1.00  0.00    -0.200 F 
ENDBRANCH  84 112
BRANCH  99 123
ATOM    123  C   UNL A   1      44.300  28.962  35.613  1.00  0.00     0.064 A 
ATOM    124  C   UNL A   1      44.262  27.720  36.264  1.00  0.00     0.173 A 
ATOM    125  C   UNL A   1      45.550  29.467  35.227  1.00  0.00     0.173 A 
ATOM    126  F   UNL A   1      43.092  27.203  36.665  1.00  0.00    -0.203 F 
ATOM    127  C   UNL A   1      45.435  27.015  36.522  1.00  0.00     0.198 A 
ATOM    128  C   UNL A   1      46.718  28.747  35.464  1.00  0.00     0.198 A 
ATOM    129  F   UNL A   1      45.638  30.648  34.596  1.00  0.00    -0.203 F 
ATOM    130  F   UNL A   1      45.380  25.843  37.169  1.00  0.00    -0.200 F 
ATOM    131  C   UNL A   1      46.660  27.524  36.113  1.00  0.00     0.200 A 
ATOM    132  F   UNL A   1      47.899  29.233  35.056  1.00  0.00    -0.200 F 
ATOM    133  F   UNL A   1      47.785  26.835  36.348  1.00  0.00    -0.200 F 
ENDBRANCH  99 123
ENDBRANCH  64  67
ENDBRANCH  54  57
ENDBRANCH  50  53
ENDBRANCH  47  50
ENDBRANCH  44  47
ENDBRANCH  41  44
ENDBRANCH   1  41
TORSDOF 18
ENDMDL
MODEL 5
REMARK VINA RESULT:     -12.1      5.184      8.597
REMARK SMILES NS(=O)(=O)c1ccc(/N=C/c2ccc(O)c(C(=O)NCCCCCCNC(=O)c3ccc(-c4c5nc(c(-c6c(F)c(F)c(F)c(F)c6F)c6ccc([nH]6)c(-c6c(F)c(F)c(F)c(F)c6F)c6nc(c(-c7c(F)c(F)c(F)c(F)c7F)c7ccc4[nH]7)C=C6)C=C5)cc3)c2)cc1
REMARK SMILES IDX 21 1 20 4 19 7 17 8 18 9 16 11 11 12 12 13 92 14 13 15 14 18
REMARK SMILES IDX 10 20 9 21 8 23 5 24 6 25 94 26 7 27 93 29 2 33 3 34 4 35
REMARK SMILES IDX 1 36 15 39 22 41 23 44 24 47 25 50 26 53 27 54 28 56 29 57
REMARK SMILES IDX 30 58 91 59 31 60 90 62 32 64 33 67 34 68 84 69 35 70 89 71
REMARK SMILES IDX 83 72 85 73 36 74 88 75 82 77 81 79 37 81 69 84 49 85 68 86
REMARK SMILES IDX 50 87 53 88 67 89 86 90 51 91 52 93 66 95 87 96 54 99 38 101
REMARK SMILES IDX 39 102 47 103 40 104 41 105 45 106 48 107 42 108 43 109
REMARK SMILES IDX 46 110 44 111 70 112 71 113 79 114 72 115 73 116 77 117
REMARK SMILES IDX 80 118 74 119 75 120 78 121 76 122 55 123 56 124 64 125
REMARK SMILES IDX 57 126 58 127 62 128 65 129 59 130 60 131 63 132 61 133
REMARK H PARENT 21 2 21 3 20 5 20 6 19 10 12 16 92 17 13 19 10 22 6 28 94 30
REMARK H PARENT 7 31 93 32 1 37 1 38 15 40 22 42 22 43 23 45 23 46 24 48 24 49
REMARK H PARENT 25 51 25 52 26 55 30 61 91 63 31 65 90 66 89 76 83 78 85 80
REMARK H PARENT 88 82 82 83 50 92 53 94 86 97 51 98 87 100
REMARK Flexibility Score: inf
ROOT
ATOM      1  C   UNL A   1      39.420  23.404  26.615  1.00  0.00    -0.036 C 
ATOM      2  H   UNL A   1      39.513  23.661  27.650  1.00  0.00     0.028 H 
ATOM      3  H   UNL A   1      40.154  23.847  25.974  1.00  0.00     0.028 H 
ENDROOT
BRANCH   1   4
ATOM      4  C   UNL A   1      38.083  23.949  26.124  1.00  0.00     0.018 C 
ATOM      5  H   UNL A   1      37.312  23.567  26.761  1.00  0.00     0.049 H 
ATOM      6  H   UNL A   1      38.161  25.016  26.153  1.00  0.00     0.049 H 
BRANCH   4   7
ATOM      7  N   UNL A   1      37.755  23.595  24.752  1.00  0.00    -0.352 N 
ATOM      8  C   UNL A   1      36.539  23.333  24.163  1.00  0.00     0.255 C 
ATOM      9  O   UNL A   1      36.505  22.971  22.986  1.00  0.00    -0.269 OA
ATOM     10  H   UNL A   1      38.529  23.532  24.146  1.00  0.00     0.163 HD
BRANCH   8  11
ATOM     11  C   UNL A   1      35.257  23.389  24.911  1.00  0.00     0.082 A 
ATOM     12  C   UNL A   1      33.143  24.469  25.403  1.00  0.00    -0.006 A 
ATOM     13  C   UNL A   1      32.974  23.677  26.538  1.00  0.00    -0.050 A 
ATOM     14  C   UNL A   1      34.235  24.265  24.552  1.00  0.00    -0.037 A 
ATOM     15  C   UNL A   1      33.929  22.701  26.834  1.00  0.00    -0.019 A 
ATOM     16  H   UNL A   1      32.154  23.809  27.150  1.00  0.00     0.063 H 
ATOM     17  H   UNL A   1      34.283  24.767  23.651  1.00  0.00     0.064 H 
ATOM     18  C   UNL A   1      35.067  22.569  26.034  1.00  0.00     0.128 A 
ATOM     19  H   UNL A   1      33.794  22.077  27.645  1.00  0.00     0.066 H 
BRANCH  12  20
ATOM     20  C   UNL A   1      32.269  25.637  25.163  1.00  0.00     0.035 C 
ATOM     21  N   UNL A   1      32.120  26.078  23.955  1.00  0.00    -0.256 NA
ATOM     22  H   UNL A   1      31.783  26.095  25.950  1.00  0.00     0.085 H 
BRANCH  21  23
ATOM     23  C   UNL A   1      31.398  27.250  23.707  1.00  0.00     0.063 A 
ATOM     24  C   UNL A   1      29.850  29.574  23.485  1.00  0.00     0.082 A 
ATOM     25  C   UNL A   1      30.900  29.528  24.405  1.00  0.00    -0.040 A 
ATOM     26  C   UNL A   1      29.568  28.473  22.673  1.00  0.00    -0.040 A 
ATOM     27  C   UNL A   1      31.662  28.362  24.515  1.00  0.00    -0.035 A 
ATOM     28  H   UNL A   1      31.111  30.346  24.997  1.00  0.00     0.064 H 
ATOM     29  C   UNL A   1      30.338  27.312  22.793  1.00  0.00    -0.035 A 
ATOM     30  H   UNL A   1      28.796  28.516  21.989  1.00  0.00     0.064 H 
ATOM     31  H   UNL A   1      32.431  28.320  25.201  1.00  0.00     0.065 H 
ATOM     32  H   UNL A   1      30.123  26.493  22.203  1.00  0.00     0.065 H 
BRANCH  24  33
ATOM     33  S   UNL A   1      28.877  31.045  23.369  1.00  0.00     0.238 S 
ATOM     34  O   UNL A   1      29.375  32.013  24.322  1.00  0.00    -0.207 OA
ATOM     35  O   UNL A   1      27.491  30.665  23.281  1.00  0.00    -0.207 OA
BRANCH  33  36
ATOM     36  N   UNL A   1      29.289  31.679  21.867  1.00  0.00    -0.225 NA
ATOM     37  H   UNL A   1      28.667  32.457  21.644  1.00  0.00     0.137 HD
ATOM     38  H   UNL A   1      29.196  30.955  21.155  1.00  0.00     0.137 HD
ENDBRANCH  33  36
ENDBRANCH  24  33
ENDBRANCH  21  23
ENDBRANCH  12  20
BRANCH  18  39
ATOM     39  O   UNL A   1      35.973  21.616  26.420  1.00  0.00    -0.507 OA
ATOM     40  H   UNL A   1      35.768  20.708  26.321  1.00  0.00     0.293 HD
ENDBRANCH  18  39
ENDBRANCH   8  11
ENDBRANCH   4   7
ENDBRANCH   1   4
BRANCH   1  41
ATOM     41  C   UNL A   1      39.642  21.897  26.492  1.00  0.00    -0.052 C 
ATOM     42  H   UNL A   1      39.206  21.581  25.567  1.00  0.00     0.027 H 
ATOM     43  H   UNL A   1      39.193  21.476  27.367  1.00  0.00     0.027 H 
BRANCH  41  44
ATOM     44  C   UNL A   1      41.091  21.406  26.511  1.00  0.00    -0.052 C 
ATOM     45  H   UNL A   1      41.421  21.408  27.528  1.00  0.00     0.027 H 
ATOM     46  H   UNL A   1      41.623  22.075  25.867  1.00  0.00     0.027 H 
BRANCH  44  47
ATOM     47  C   UNL A   1      41.351  20.010  25.941  1.00  0.00    -0.036 C 
ATOM     48  H   UNL A   1      41.432  20.102  24.878  1.00  0.00     0.028 H 
ATOM     49  H   UNL A   1      40.529  19.409  26.269  1.00  0.00     0.028 H 
BRANCH  47  50
ATOM     50  C   UNL A   1      42.603  19.303  26.444  1.00  0.00     0.018 C 
ATOM     51  H   UNL A   1      42.305  18.478  27.057  1.00  0.00     0.049 H 
ATOM     52  H   UNL A   1      43.177  20.023  26.989  1.00  0.00     0.049 H 
BRANCH  50  53
ATOM     53  N   UNL A   1      43.448  18.799  25.374  1.00  0.00    -0.352 N 
ATOM     54  C   UNL A   1      44.362  19.476  24.601  1.00  0.00     0.251 C 
ATOM     55  H   UNL A   1      43.353  17.840  25.175  1.00  0.00     0.163 HD
ATOM     56  O   UNL A   1      44.917  18.916  23.660  1.00  0.00    -0.269 OA
BRANCH  54  57
ATOM     57  C   UNL A   1      44.655  20.898  24.883  1.00  0.00     0.039 A 
ATOM     58  C   UNL A   1      44.254  21.868  23.960  1.00  0.00    -0.049 A 
ATOM     59  C   UNL A   1      45.313  21.275  26.056  1.00  0.00    -0.049 A 
ATOM     60  C   UNL A   1      44.445  23.223  24.247  1.00  0.00    -0.053 A 
ATOM     61  H   UNL A   1      43.818  21.585  23.068  1.00  0.00     0.063 H 
ATOM     62  C   UNL A   1      45.445  22.625  26.370  1.00  0.00    -0.053 A 
ATOM     63  H   UNL A   1      45.698  20.556  26.689  1.00  0.00     0.063 H 
ATOM     64  C   UNL A   1      45.009  23.612  25.471  1.00  0.00    -0.014 A 
ATOM     65  H   UNL A   1      44.170  23.939  23.556  1.00  0.00     0.063 H 
ATOM     66  H   UNL A   1      45.868  22.903  27.269  1.00  0.00     0.063 H 
BRANCH  64  67
ATOM     67  C   UNL A   1      45.167  25.040  25.848  1.00  0.00     0.031 A 
ATOM     68  C   UNL A   1      46.522  25.682  25.773  1.00  0.00     0.074 A 
ATOM     69  C   UNL A   1      44.121  25.721  26.354  1.00  0.00     0.049 A 
ATOM     70  N   UNL A   1      46.917  26.845  26.222  1.00  0.00    -0.248 NA
ATOM     71  C   UNL A   1      47.583  24.895  25.125  1.00  0.00    -0.034 C 
ATOM     72  C   UNL A   1      42.760  25.204  26.493  1.00  0.00    -0.036 A 
ATOM     73  N   UNL A   1      44.050  26.991  26.873  1.00  0.00    -0.354 N 
ATOM     74  C   UNL A   1      48.275  26.915  25.944  1.00  0.00     0.074 A 
ATOM     75  C   UNL A   1      48.644  25.666  25.313  1.00  0.00    -0.034 C 
ATOM     76  H   UNL A   1      47.518  23.982  24.648  1.00  0.00     0.065 H 
ATOM     77  C   UNL A   1      41.990  26.145  27.062  1.00  0.00    -0.036 A 
ATOM     78  H   UNL A   1      42.444  24.266  26.200  1.00  0.00     0.065 H 
ATOM     79  C   UNL A   1      42.811  27.311  27.374  1.00  0.00     0.049 A 
ATOM     80  H   UNL A   1      44.814  27.611  26.887  1.00  0.00     0.167 HD
ATOM     81  C   UNL A   1      49.133  27.935  26.185  1.00  0.00     0.037 A 
ATOM     82  H   UNL A   1      49.606  25.410  25.043  1.00  0.00     0.065 H 
ATOM     83  H   UNL A   1      40.978  26.057  27.249  1.00  0.00     0.065 H 
ATOM     84  C   UNL A   1      42.393  28.410  28.031  1.00  0.00     0.037 A 
ATOM     85  C   UNL A   1      48.754  29.186  26.785  1.00  0.00     0.049 A 
ATOM     86  C   UNL A   1      43.371  29.523  28.299  1.00  0.00     0.074 A 
ATOM     87  C   UNL A   1      49.538  30.303  27.018  1.00  0.00    -0.036 A 
ATOM     88  N   UNL A   1      47.481  29.485  27.245  1.00  0.00    -0.354 N 
ATOM     89  N   UNL A   1      44.641  29.604  27.984  1.00  0.00    -0.248 NA
ATOM     90  C   UNL A   1      42.858  30.703  29.013  1.00  0.00    -0.034 C 
ATOM     91  C   UNL A   1      48.746  31.266  27.652  1.00  0.00    -0.036 A 
ATOM     92  H   UNL A   1      50.534  30.407  26.768  1.00  0.00     0.065 H 
ATOM     93  C   UNL A   1      47.459  30.767  27.772  1.00  0.00     0.049 A 
ATOM     94  H   UNL A   1      46.707  28.878  27.203  1.00  0.00     0.167 HD
ATOM     95  C   UNL A   1      45.067  30.850  28.423  1.00  0.00     0.074 A 
ATOM     96  C   UNL A   1      43.921  31.496  29.026  1.00  0.00    -0.034 C 
ATOM     97  H   UNL A   1      41.917  30.870  29.401  1.00  0.00     0.065 H 
ATOM     98  H   UNL A   1      49.066  32.193  27.974  1.00  0.00     0.065 H 
ATOM     99  C   UNL A   1      46.298  31.408  28.333  1.00  0.00     0.037 A 
ATOM    100  H   UNL A   1      43.929  32.451  29.416  1.00  0.00     0.065 H 
BRANCH  81 101
ATOM    101  C   UNL A   1      50.570  27.737  25.802  1.00  0.00     0.064 A 
ATOM    102  C   UNL A   1      51.533  27.339  26.741  1.00  0.00     0.173 A 
ATOM    103  C   UNL A   1      50.981  27.910  24.472  1.00  0.00     0.173 A 
ATOM    104  F   UNL A   1      51.193  27.171  28.028  1.00  0.00    -0.203 F 
ATOM    105  C   UNL A   1      52.862  27.152  26.369  1.00  0.00     0.198 A 
ATOM    106  C   UNL A   1      52.305  27.693  24.097  1.00  0.00     0.198 A 
ATOM    107  F   UNL A   1      50.099  28.281  23.533  1.00  0.00    -0.203 F 
ATOM    108  F   UNL A   1      53.773  26.818  27.292  1.00  0.00    -0.200 F 
ATOM    109  C   UNL A   1      53.245  27.321  25.047  1.00  0.00     0.200 A 
ATOM    110  F   UNL A   1      52.672  27.845  22.817  1.00  0.00    -0.200 F 
ATOM    111  F   UNL A   1      54.522  27.134  24.689  1.00  0.00    -0.200 F 
ENDBRANCH  81 101
BRANCH  84 112
ATOM    112  C   UNL A   1      40.975  28.519  28.468  1.00  0.00     0.064 A 
ATOM    113  C   UNL A   1      39.993  29.011  27.598  1.00  0.00     0.173 A 
ATOM    114  C   UNL A   1      40.572  28.136  29.756  1.00  0.00     0.173 A 
ATOM    115  F   UNL A   1      40.330  29.401  26.360  1.00  0.00    -0.203 F 
ATOM    116  C   UNL A   1      38.668  29.140  28.006  1.00  0.00     0.198 A 
ATOM    117  C   UNL A   1      39.242  28.245  30.157  1.00  0.00     0.198 A 
ATOM    118  F   UNL A   1      41.464  27.626  30.615  1.00  0.00    -0.203 F 
ATOM    119  F   UNL A   1      37.757  29.649  27.167  1.00  0.00    -0.200 F 
ATOM    120  C   UNL A   1      38.292  28.754  29.285  1.00  0.00     0.200 A 
ATOM    121  F   UNL A   1      38.878  27.850  31.384  1.00  0.00    -0.200 F 
ATOM    122  F   UNL A   1      37.016  28.875  29.675  1.00  0.00    -0.200 F 
ENDBRANCH  84 112
BRANCH  99 123
ATOM    123  C   UNL A   1      46.465  32.812  28.834  1.00  0.00     0.064 A 
ATOM    124  C   UNL A   1      46.875  33.084  30.146  1.00  0.00     0.173 A 
ATOM    125  C   UNL A   1      46.285  33.895  27.960  1.00  0.00     0.173 A 
ATOM    126  F   UNL A   1      47.046  32.082  31.022  1.00  0.00    -0.203 F 
ATOM    127  C   UNL A   1      47.089  34.393  30.569  1.00  0.00     0.198 A 
ATOM    128  C   UNL A   1      46.526  35.201  28.379  1.00  0.00     0.198 A 
ATOM    129  F   UNL A   1      45.900  33.686  26.692  1.00  0.00    -0.203 F 
ATOM    130  F   UNL A   1      47.454  34.634  31.836  1.00  0.00    -0.200 F 
ATOM    131  C   UNL A   1      46.925  35.449  29.684  1.00  0.00     0.200 A 
ATOM    132  F   UNL A   1      46.380  36.218  27.519  1.00  0.00    -0.200 F 
ATOM    133  F   UNL A   1      47.149  36.706  30.089  1.00  0.00    -0.200 F 
ENDBRANCH  99 123
ENDBRANCH  64  67
ENDBRANCH  54  57
ENDBRANCH  50  53
ENDBRANCH  47  50
ENDBRANCH  44  47
ENDBRANCH  41  44
ENDBRANCH   1  41
TORSDOF 18
ENDMDL
MODEL 6
REMARK VINA RESULT:     -12.1      3.090      9.172
REMARK SMILES NS(=O)(=O)c1ccc(/N=C/c2ccc(O)c(C(=O)NCCCCCCNC(=O)c3ccc(-c4c5nc(c(-c6c(F)c(F)c(F)c(F)c6F)c6ccc([nH]6)c(-c6c(F)c(F)c(F)c(F)c6F)c6nc(c(-c7c(F)c(F)c(F)c(F)c7F)c7ccc4[nH]7)C=C6)C=C5)cc3)c2)cc1
REMARK SMILES IDX 21 1 20 4 19 7 17 8 18 9 16 11 11 12 12 13 92 14 13 15 14 18
REMARK SMILES IDX 10 20 9 21 8 23 5 24 6 25 94 26 7 27 93 29 2 33 3 34 4 35
REMARK SMILES IDX 1 36 15 39 22 41 23 44 24 47 25 50 26 53 27 54 28 56 29 57
REMARK SMILES IDX 30 58 91 59 31 60 90 62 32 64 33 67 34 68 84 69 35 70 89 71
REMARK SMILES IDX 83 72 85 73 36 74 88 75 82 77 81 79 37 81 69 84 49 85 68 86
REMARK SMILES IDX 50 87 53 88 67 89 86 90 51 91 52 93 66 95 87 96 54 99 38 101
REMARK SMILES IDX 39 102 47 103 40 104 41 105 45 106 48 107 42 108 43 109
REMARK SMILES IDX 46 110 44 111 70 112 71 113 79 114 72 115 73 116 77 117
REMARK SMILES IDX 80 118 74 119 75 120 78 121 76 122 55 123 56 124 64 125
REMARK SMILES IDX 57 126 58 127 62 128 65 129 59 130 60 131 63 132 61 133
REMARK H PARENT 21 2 21 3 20 5 20 6 19 10 12 16 92 17 13 19 10 22 6 28 94 30
REMARK H PARENT 7 31 93 32 1 37 1 38 15 40 22 42 22 43 23 45 23 46 24 48 24 49
REMARK H PARENT 25 51 25 52 26 55 30 61 91 63 31 65 90 66 89 76 83 78 85 80
REMARK H PARENT 88 82 82 83 50 92 53 94 86 97 51 98 87 100
REMARK Flexibility Score: inf
ROOT
ATOM      1  C   UNL A   1      33.082  31.433  27.357  1.00  0.00    -0.036 C 
ATOM      2  H   UNL A   1      32.284  31.615  28.047  1.00  0.00     0.028 H 
ATOM      3  H   UNL A   1      33.005  31.963  26.429  1.00  0.00     0.028 H 
ENDROOT
BRANCH   1   4
ATOM      4  C   UNL A   1      33.034  29.958  26.977  1.00  0.00     0.018 C 
ATOM      5  H   UNL A   1      33.413  29.388  27.800  1.00  0.00     0.049 H 
ATOM      6  H   UNL A   1      32.013  29.735  26.748  1.00  0.00     0.049 H 
BRANCH   4   7
ATOM      7  N   UNL A   1      33.807  29.615  25.793  1.00  0.00    -0.352 N 
ATOM      8  C   UNL A   1      33.504  28.784  24.738  1.00  0.00     0.255 C 
ATOM      9  O   UNL A   1      34.354  28.578  23.870  1.00  0.00    -0.269 OA
ATOM     10  H   UNL A   1      34.690  30.047  25.737  1.00  0.00     0.163 HD
BRANCH   8  11
ATOM     11  C   UNL A   1      32.214  28.053  24.637  1.00  0.00     0.082 A 
ATOM     12  C   UNL A   1      30.963  25.980  24.555  1.00  0.00    -0.006 A 
ATOM     13  C   UNL A   1      29.819  26.658  24.136  1.00  0.00    -0.050 A 
ATOM     14  C   UNL A   1      32.125  26.685  24.884  1.00  0.00    -0.037 A 
ATOM     15  C   UNL A   1      29.860  28.048  24.013  1.00  0.00    -0.019 A 
ATOM     16  H   UNL A   1      28.953  26.139  23.920  1.00  0.00     0.063 H 
ATOM     17  H   UNL A   1      32.922  26.189  25.314  1.00  0.00     0.064 H 
ATOM     18  C   UNL A   1      31.052  28.738  24.249  1.00  0.00     0.128 A 
ATOM     19  H   UNL A   1      29.009  28.568  23.747  1.00  0.00     0.066 H 
BRANCH  12  20
ATOM     20  C   UNL A   1      31.022  24.503  24.508  1.00  0.00     0.035 C 
ATOM     21  N   UNL A   1      32.135  23.925  24.187  1.00  0.00    -0.256 NA
ATOM     22  H   UNL A   1      30.186  23.940  24.729  1.00  0.00     0.085 H 
BRANCH  21  23
ATOM     23  C   UNL A   1      32.196  22.538  24.016  1.00  0.00     0.063 A 
ATOM     24  C   UNL A   1      32.605  19.783  23.726  1.00  0.00     0.082 A 
ATOM     25  C   UNL A   1      32.847  20.391  24.959  1.00  0.00    -0.040 A 
ATOM     26  C   UNL A   1      32.158  20.536  22.637  1.00  0.00    -0.040 A 
ATOM     27  C   UNL A   1      32.648  21.767  25.093  1.00  0.00    -0.035 A 
ATOM     28  H   UNL A   1      33.169  19.830  25.763  1.00  0.00     0.064 H 
ATOM     29  C   UNL A   1      31.963  21.912  22.785  1.00  0.00    -0.035 A 
ATOM     30  H   UNL A   1      31.973  20.079  21.730  1.00  0.00     0.064 H 
ATOM     31  H   UNL A   1      32.836  22.222  26.000  1.00  0.00     0.065 H 
ATOM     32  H   UNL A   1      31.644  22.473  21.979  1.00  0.00     0.065 H 
BRANCH  24  33
ATOM     33  S   UNL A   1      32.882  18.045  23.559  1.00  0.00     0.238 S 
ATOM     34  O   UNL A   1      34.179  17.721  24.114  1.00  0.00    -0.207 OA
ATOM     35  O   UNL A   1      32.465  17.644  22.240  1.00  0.00    -0.207 OA
BRANCH  33  36
ATOM     36  N   UNL A   1      31.780  17.360  24.629  1.00  0.00    -0.225 NA
ATOM     37  H   UNL A   1      31.072  18.052  24.877  1.00  0.00     0.137 HD
ATOM     38  H   UNL A   1      32.268  17.056  25.472  1.00  0.00     0.137 HD
ENDBRANCH  33  36
ENDBRANCH  24  33
ENDBRANCH  21  23
ENDBRANCH  12  20
BRANCH  18  39
ATOM     39  O   UNL A   1      31.016  30.095  24.063  1.00  0.00    -0.507 OA
ATOM     40  H   UNL A   1      31.609  30.501  23.464  1.00  0.00     0.293 HD
ENDBRANCH  18  39
ENDBRANCH   8  11
ENDBRANCH   4   7
ENDBRANCH   1   4
BRANCH   1  41
ATOM     41  C   UNL A   1      34.372  31.943  27.998  1.00  0.00    -0.052 C 
ATOM     42  H   UNL A   1      35.030  32.240  27.208  1.00  0.00     0.027 H 
ATOM     43  H   UNL A   1      34.727  31.129  28.596  1.00  0.00     0.027 H 
BRANCH  41  44
ATOM     44  C   UNL A   1      34.247  33.123  28.964  1.00  0.00    -0.052 C 
ATOM     45  H   UNL A   1      35.198  33.610  29.005  1.00  0.00     0.027 H 
ATOM     46  H   UNL A   1      33.921  32.697  29.889  1.00  0.00     0.027 H 
BRANCH  44  47
ATOM     47  C   UNL A   1      33.198  34.183  28.621  1.00  0.00    -0.036 C 
ATOM     48  H   UNL A   1      32.281  33.901  29.096  1.00  0.00     0.028 H 
ATOM     49  H   UNL A   1      33.150  34.204  27.552  1.00  0.00     0.028 H 
BRANCH  47  50
ATOM     50  C   UNL A   1      33.522  35.611  29.045  1.00  0.00     0.018 C 
ATOM     51  H   UNL A   1      33.442  36.246  28.188  1.00  0.00     0.049 H 
ATOM     52  H   UNL A   1      34.512  35.603  29.451  1.00  0.00     0.049 H 
BRANCH  50  53
ATOM     53  N   UNL A   1      32.636  36.118  30.079  1.00  0.00    -0.352 N 
ATOM     54  C   UNL A   1      32.678  35.905  31.437  1.00  0.00     0.251 C 
ATOM     55  H   UNL A   1      31.903  36.694  29.764  1.00  0.00     0.163 HD
ATOM     56  O   UNL A   1      31.781  36.325  32.161  1.00  0.00    -0.269 OA
BRANCH  54  57
ATOM     57  C   UNL A   1      33.796  35.136  32.027  1.00  0.00     0.039 A 
ATOM     58  C   UNL A   1      33.547  33.854  32.526  1.00  0.00    -0.049 A 
ATOM     59  C   UNL A   1      35.086  35.671  32.079  1.00  0.00    -0.049 A 
ATOM     60  C   UNL A   1      34.605  33.078  33.009  1.00  0.00    -0.053 A 
ATOM     61  H   UNL A   1      32.584  33.482  32.537  1.00  0.00     0.063 H 
ATOM     62  C   UNL A   1      36.147  34.875  32.501  1.00  0.00    -0.053 A 
ATOM     63  H   UNL A   1      35.251  36.653  31.804  1.00  0.00     0.063 H 
ATOM     64  C   UNL A   1      35.918  33.570  32.966  1.00  0.00    -0.014 A 
ATOM     65  H   UNL A   1      34.418  32.140  33.398  1.00  0.00     0.063 H 
ATOM     66  H   UNL A   1      37.109  35.248  32.473  1.00  0.00     0.063 H 
BRANCH  64  67
ATOM     67  C   UNL A   1      37.080  32.755  33.403  1.00  0.00     0.031 A 
ATOM     68  C   UNL A   1      37.757  33.067  34.706  1.00  0.00     0.074 A 
ATOM     69  C   UNL A   1      37.585  31.812  32.585  1.00  0.00     0.049 A 
ATOM     70  N   UNL A   1      38.884  32.611  35.188  1.00  0.00    -0.248 NA
ATOM     71  C   UNL A   1      37.085  34.047  35.573  1.00  0.00    -0.034 C 
ATOM     72  C   UNL A   1      37.028  31.427  31.289  1.00  0.00    -0.036 A 
ATOM     73  N   UNL A   1      38.704  31.025  32.714  1.00  0.00    -0.354 N 
ATOM     74  C   UNL A   1      39.074  33.271  36.394  1.00  0.00     0.074 A 
ATOM     75  C   UNL A   1      37.961  34.181  36.558  1.00  0.00    -0.034 C 
ATOM     76  H   UNL A   1      36.171  34.509  35.448  1.00  0.00     0.065 H 
ATOM     77  C   UNL A   1      37.806  30.481  30.741  1.00  0.00    -0.036 A 
ATOM     78  H   UNL A   1      36.173  31.820  30.865  1.00  0.00     0.065 H 
ATOM     79  C   UNL A   1      38.943  30.227  31.621  1.00  0.00     0.049 A 
ATOM     80  H   UNL A   1      39.279  31.033  33.513  1.00  0.00     0.167 HD
ATOM     81  C   UNL A   1      40.081  33.122  37.287  1.00  0.00     0.037 A 
ATOM     82  H   UNL A   1      37.862  34.847  37.340  1.00  0.00     0.065 H 
ATOM     83  H   UNL A   1      37.629  30.008  29.840  1.00  0.00     0.065 H 
ATOM     84  C   UNL A   1      39.975  29.405  31.350  1.00  0.00     0.037 A 
ATOM     85  C   UNL A   1      41.168  32.193  37.132  1.00  0.00     0.049 A 
ATOM     86  C   UNL A   1      41.090  29.269  32.354  1.00  0.00     0.074 A 
ATOM     87  C   UNL A   1      42.206  31.926  38.008  1.00  0.00    -0.036 A 
ATOM     88  N   UNL A   1      41.356  31.377  36.027  1.00  0.00    -0.354 N 
ATOM     89  N   UNL A   1      41.234  29.857  33.517  1.00  0.00    -0.248 NA
ATOM     90  C   UNL A   1      42.187  28.352  32.010  1.00  0.00    -0.034 C 
ATOM     91  C   UNL A   1      43.041  30.973  37.417  1.00  0.00    -0.036 A 
ATOM     92  H   UNL A   1      42.340  32.356  38.937  1.00  0.00     0.065 H 
ATOM     93  C   UNL A   1      42.500  30.613  36.194  1.00  0.00     0.049 A 
ATOM     94  H   UNL A   1      40.764  31.344  35.241  1.00  0.00     0.167 HD
ATOM     95  C   UNL A   1      42.410  29.355  34.058  1.00  0.00     0.074 A 
ATOM     96  C   UNL A   1      42.942  28.411  33.099  1.00  0.00    -0.034 C 
ATOM     97  H   UNL A   1      42.331  27.804  31.148  1.00  0.00     0.065 H 
ATOM     98  H   UNL A   1      43.914  30.600  37.824  1.00  0.00     0.065 H 
ATOM     99  C   UNL A   1      42.994  29.649  35.244  1.00  0.00     0.037 A 
ATOM    100  H   UNL A   1      43.799  27.855  33.243  1.00  0.00     0.065 H 
BRANCH  81 101
ATOM    101  C   UNL A   1      40.055  33.988  38.511  1.00  0.00     0.064 A 
ATOM    102  C   UNL A   1      40.701  35.233  38.545  1.00  0.00     0.173 A 
ATOM    103  C   UNL A   1      39.345  33.585  39.652  1.00  0.00     0.173 A 
ATOM    104  F   UNL A   1      41.402  35.660  37.483  1.00  0.00    -0.203 F 
ATOM    105  C   UNL A   1      40.662  36.030  39.686  1.00  0.00     0.198 A 
ATOM    106  C   UNL A   1      39.284  34.397  40.782  1.00  0.00     0.198 A 
ATOM    107  F   UNL A   1      38.704  32.408  39.670  1.00  0.00    -0.203 F 
ATOM    108  F   UNL A   1      41.324  37.194  39.711  1.00  0.00    -0.200 F 
ATOM    109  C   UNL A   1      39.947  35.615  40.800  1.00  0.00     0.200 A 
ATOM    110  F   UNL A   1      38.583  34.001  41.853  1.00  0.00    -0.200 F 
ATOM    111  F   UNL A   1      39.905  36.386  41.895  1.00  0.00    -0.200 F 
ENDBRANCH  81 101
BRANCH  84 112
ATOM    112  C   UNL A   1      39.996  28.634  30.079  1.00  0.00     0.064 A 
ATOM    113  C   UNL A   1      40.605  29.161  28.931  1.00  0.00     0.173 A 
ATOM    114  C   UNL A   1      39.415  27.362  29.981  1.00  0.00     0.173 A 
ATOM    115  F   UNL A   1      41.166  30.379  28.971  1.00  0.00    -0.203 F 
ATOM    116  C   UNL A   1      40.608  28.458  27.729  1.00  0.00     0.198 A 
ATOM    117  C   UNL A   1      39.438  26.649  28.784  1.00  0.00     0.198 A 
ATOM    118  F   UNL A   1      38.851  26.796  31.056  1.00  0.00    -0.203 F 
ATOM    119  F   UNL A   1      41.164  29.002  26.639  1.00  0.00    -0.200 F 
ATOM    120  C   UNL A   1      40.027  27.200  27.657  1.00  0.00     0.200 A 
ATOM    121  F   UNL A   1      38.895  25.425  28.723  1.00  0.00    -0.200 F 
ATOM    122  F   UNL A   1      40.035  26.523  26.501  1.00  0.00    -0.200 F 
ENDBRANCH  84 112
BRANCH  99 123
ATOM    123  C   UNL A   1      44.239  28.899  35.613  1.00  0.00     0.064 A 
ATOM    124  C   UNL A   1      45.515  29.383  35.292  1.00  0.00     0.173 A 
ATOM    125  C   UNL A   1      44.151  27.718  36.365  1.00  0.00     0.173 A 
ATOM    126  F   UNL A   1      45.649  30.501  34.562  1.00  0.00    -0.203 F 
ATOM    127  C   UNL A   1      46.659  28.705  35.704  1.00  0.00     0.198 A 
ATOM    128  C   UNL A   1      45.297  27.058  36.798  1.00  0.00     0.198 A 
ATOM    129  F   UNL A   1      42.953  27.219  36.704  1.00  0.00    -0.203 F 
ATOM    130  F   UNL A   1      47.869  29.170  35.363  1.00  0.00    -0.200 F 
ATOM    131  C   UNL A   1      46.550  27.550  36.465  1.00  0.00     0.200 A 
ATOM    132  F   UNL A   1      45.191  25.949  37.544  1.00  0.00    -0.200 F 
ATOM    133  F   UNL A   1      47.653  26.909  36.875  1.00  0.00    -0.200 F 
ENDBRANCH  99 123
ENDBRANCH  64  67
ENDBRANCH  54  57
ENDBRANCH  50  53
ENDBRANCH  47  50
ENDBRANCH  44  47
ENDBRANCH  41  44
ENDBRANCH   1  41
TORSDOF 18
ENDMDL
MODEL 7
REMARK VINA RESULT:     -12.0      2.871      5.627
REMARK SMILES NS(=O)(=O)c1ccc(/N=C/c2ccc(O)c(C(=O)NCCCCCCNC(=O)c3ccc(-c4c5nc(c(-c6c(F)c(F)c(F)c(F)c6F)c6ccc([nH]6)c(-c6c(F)c(F)c(F)c(F)c6F)c6nc(c(-c7c(F)c(F)c(F)c(F)c7F)c7ccc4[nH]7)C=C6)C=C5)cc3)c2)cc1
REMARK SMILES IDX 21 1 20 4 19 7 17 8 18 9 16 11 11 12 12 13 92 14 13 15 14 18
REMARK SMILES IDX 10 20 9 21 8 23 5 24 6 25 94 26 7 27 93 29 2 33 3 34 4 35
REMARK SMILES IDX 1 36 15 39 22 41 23 44 24 47 25 50 26 53 27 54 28 56 29 57
REMARK SMILES IDX 30 58 91 59 31 60 90 62 32 64 33 67 34 68 84 69 35 70 89 71
REMARK SMILES IDX 83 72 85 73 36 74 88 75 82 77 81 79 37 81 69 84 49 85 68 86
REMARK SMILES IDX 50 87 53 88 67 89 86 90 51 91 52 93 66 95 87 96 54 99 38 101
REMARK SMILES IDX 39 102 47 103 40 104 41 105 45 106 48 107 42 108 43 109
REMARK SMILES IDX 46 110 44 111 70 112 71 113 79 114 72 115 73 116 77 117
REMARK SMILES IDX 80 118 74 119 75 120 78 121 76 122 55 123 56 124 64 125
REMARK SMILES IDX 57 126 58 127 62 128 65 129 59 130 60 131 63 132 61 133
REMARK H PARENT 21 2 21 3 20 5 20 6 19 10 12 16 92 17 13 19 10 22 6 28 94 30
REMARK H PARENT 7 31 93 32 1 37 1 38 15 40 22 42 22 43 23 45 23 46 24 48 24 49
REMARK H PARENT 25 51 25 52 26 55 30 61 91 63 31 65 90 66 89 76 83 78 85 80
REMARK H PARENT 88 82 82 83 50 92 53 94 86 97 51 98 87 100
REMARK Flexibility Score: inf
ROOT
ATOM      1  C   UNL A   1      32.014  28.526  27.089  1.00  0.00    -0.036 C 
ATOM      2  H   UNL A   1      32.754  28.233  27.805  1.00  0.00     0.028 H 
ATOM      3  H   UNL A   1      31.125  28.951  27.509  1.00  0.00     0.028 H 
ENDROOT
BRANCH   1   4
ATOM      4  C   UNL A   1      31.549  27.268  26.365  1.00  0.00     0.018 C 
ATOM      5  H   UNL A   1      32.379  26.871  25.818  1.00  0.00     0.049 H 
ATOM      6  H   UNL A   1      31.186  26.600  27.119  1.00  0.00     0.049 H 
BRANCH   4   7
ATOM      7  N   UNL A   1      30.451  27.478  25.435  1.00  0.00    -0.352 N 
ATOM      8  C   UNL A   1      30.341  27.168  24.098  1.00  0.00     0.255 C 
ATOM      9  O   UNL A   1      29.332  27.515  23.481  1.00  0.00    -0.269 OA
ATOM     10  H   UNL A   1      29.658  27.912  25.825  1.00  0.00     0.163 HD
BRANCH   8  11
ATOM     11  C   UNL A   1      31.428  26.500  23.337  1.00  0.00     0.082 A 
ATOM     12  C   UNL A   1      32.546  24.489  22.578  1.00  0.00    -0.006 A 
ATOM     13  C   UNL A   1      33.651  25.230  22.162  1.00  0.00    -0.050 A 
ATOM     14  C   UNL A   1      31.411  25.130  23.083  1.00  0.00    -0.037 A 
ATOM     15  C   UNL A   1      33.624  26.621  22.291  1.00  0.00    -0.019 A 
ATOM     16  H   UNL A   1      34.479  24.758  21.764  1.00  0.00     0.063 H 
ATOM     17  H   UNL A   1      30.553  24.585  23.267  1.00  0.00     0.064 H 
ATOM     18  C   UNL A   1      32.526  27.248  22.886  1.00  0.00     0.128 A 
ATOM     19  H   UNL A   1      34.415  27.186  21.946  1.00  0.00     0.066 H 
BRANCH  12  20
ATOM     20  C   UNL A   1      32.612  23.013  22.644  1.00  0.00     0.035 C 
ATOM     21  N   UNL A   1      32.615  22.431  23.800  1.00  0.00    -0.256 NA
ATOM     22  H   UNL A   1      32.654  22.454  21.777  1.00  0.00     0.085 H 
BRANCH  21  23
ATOM     23  C   UNL A   1      32.797  21.047  23.902  1.00  0.00     0.063 A 
ATOM     24  C   UNL A   1      33.435  18.323  24.015  1.00  0.00     0.082 A 
ATOM     25  C   UNL A   1      34.102  19.224  24.847  1.00  0.00    -0.040 A 
ATOM     26  C   UNL A   1      32.450  18.768  23.130  1.00  0.00    -0.040 A 
ATOM     27  C   UNL A   1      33.783  20.582  24.779  1.00  0.00    -0.035 A 
ATOM     28  H   UNL A   1      34.822  18.890  25.506  1.00  0.00     0.064 H 
ATOM     29  C   UNL A   1      32.141  20.131  23.071  1.00  0.00    -0.035 A 
ATOM     30  H   UNL A   1      31.954  18.097  22.523  1.00  0.00     0.064 H 
ATOM     31  H   UNL A   1      34.282  21.252  25.385  1.00  0.00     0.065 H 
ATOM     32  H   UNL A   1      31.422  20.464  22.409  1.00  0.00     0.065 H 
BRANCH  24  33
ATOM     33  S   UNL A   1      33.861  16.609  24.091  1.00  0.00     0.238 S 
ATOM     34  O   UNL A   1      34.402  16.203  22.812  1.00  0.00    -0.207 OA
ATOM     35  O   UNL A   1      32.794  15.906  24.757  1.00  0.00    -0.207 OA
BRANCH  33  36
ATOM     36  N   UNL A   1      35.175  16.571  25.139  1.00  0.00    -0.225 NA
ATOM     37  H   UNL A   1      35.486  15.606  25.259  1.00  0.00     0.137 HD
ATOM     38  H   UNL A   1      34.901  16.955  26.044  1.00  0.00     0.137 HD
ENDBRANCH  33  36
ENDBRANCH  24  33
ENDBRANCH  21  23
ENDBRANCH  12  20
BRANCH  18  39
ATOM     39  O   UNL A   1      32.600  28.610  23.012  1.00  0.00    -0.507 OA
ATOM     40  H   UNL A   1      32.010  29.060  23.583  1.00  0.00     0.293 HD
ENDBRANCH  18  39
ENDBRANCH   8  11
ENDBRANCH   4   7
ENDBRANCH   1   4
BRANCH   1  41
ATOM     41  C   UNL A   1      32.617  29.637  26.230  1.00  0.00    -0.052 C 
ATOM     42  H   UNL A   1      32.996  29.185  25.337  1.00  0.00     0.027 H 
ATOM     43  H   UNL A   1      33.359  30.097  26.850  1.00  0.00     0.027 H 
BRANCH  41  44
ATOM     44  C   UNL A   1      31.683  30.775  25.812  1.00  0.00    -0.052 C 
ATOM     45  H   UNL A   1      30.733  30.344  25.578  1.00  0.00     0.027 H 
ATOM     46  H   UNL A   1      32.173  31.253  24.989  1.00  0.00     0.027 H 
BRANCH  44  47
ATOM     47  C   UNL A   1      31.449  31.885  26.839  1.00  0.00    -0.036 C 
ATOM     48  H   UNL A   1      31.042  31.434  27.719  1.00  0.00     0.028 H 
ATOM     49  H   UNL A   1      30.796  32.584  26.361  1.00  0.00     0.028 H 
BRANCH  47  50
ATOM     50  C   UNL A   1      32.678  32.686  27.252  1.00  0.00     0.018 C 
ATOM     51  H   UNL A   1      33.376  32.681  26.442  1.00  0.00     0.049 H 
ATOM     52  H   UNL A   1      33.076  32.225  28.131  1.00  0.00     0.049 H 
BRANCH  50  53
ATOM     53  N   UNL A   1      32.376  34.067  27.589  1.00  0.00    -0.352 N 
ATOM     54  C   UNL A   1      32.979  34.884  28.517  1.00  0.00     0.251 C 
ATOM     55  H   UNL A   1      31.636  34.475  27.084  1.00  0.00     0.163 HD
ATOM     56  O   UNL A   1      32.525  36.000  28.752  1.00  0.00    -0.269 OA
BRANCH  54  57
ATOM     57  C   UNL A   1      34.164  34.404  29.260  1.00  0.00     0.039 A 
ATOM     58  C   UNL A   1      33.975  33.695  30.450  1.00  0.00    -0.049 A 
ATOM     59  C   UNL A   1      35.455  34.642  28.782  1.00  0.00    -0.049 A 
ATOM     60  C   UNL A   1      35.077  33.159  31.123  1.00  0.00    -0.053 A 
ATOM     61  H   UNL A   1      33.024  33.569  30.832  1.00  0.00     0.063 H 
ATOM     62  C   UNL A   1      36.545  34.054  29.418  1.00  0.00    -0.053 A 
ATOM     63  H   UNL A   1      35.600  35.250  27.960  1.00  0.00     0.063 H 
ATOM     64  C   UNL A   1      36.367  33.304  30.592  1.00  0.00    -0.014 A 
ATOM     65  H   UNL A   1      34.941  32.655  32.014  1.00  0.00     0.063 H 
ATOM     66  H   UNL A   1      37.492  34.172  29.024  1.00  0.00     0.063 H 
BRANCH  64  67
ATOM     67  C   UNL A   1      37.558  32.692  31.234  1.00  0.00     0.031 A 
ATOM     68  C   UNL A   1      38.257  31.545  30.564  1.00  0.00     0.074 A 
ATOM     69  C   UNL A   1      37.943  33.097  32.460  1.00  0.00     0.049 A 
ATOM     70  N   UNL A   1      39.189  30.753  31.028  1.00  0.00    -0.248 NA
ATOM     71  C   UNL A   1      37.828  31.231  29.192  1.00  0.00    -0.034 C 
ATOM     72  C   UNL A   1      37.336  34.188  33.221  1.00  0.00    -0.036 A 
ATOM     73  N   UNL A   1      38.921  32.613  33.294  1.00  0.00    -0.354 N 
ATOM     74  C   UNL A   1      39.433  29.829  30.022  1.00  0.00     0.074 A 
ATOM     75  C   UNL A   1      38.532  30.139  28.933  1.00  0.00    -0.034 C 
ATOM     76  H   UNL A   1      37.156  31.731  28.589  1.00  0.00     0.065 H 
ATOM     77  C   UNL A   1      37.952  34.290  34.409  1.00  0.00    -0.036 A 
ATOM     78  H   UNL A   1      36.558  34.785  32.897  1.00  0.00     0.065 H 
ATOM     79  C   UNL A   1      38.963  33.242  34.515  1.00  0.00     0.049 A 
ATOM     80  H   UNL A   1      39.534  31.885  33.040  1.00  0.00     0.167 HD
ATOM     81  C   UNL A   1      40.336  28.820  30.006  1.00  0.00     0.037 A 
ATOM     82  H   UNL A   1      38.449  29.583  28.067  1.00  0.00     0.065 H 
ATOM     83  H   UNL A   1      37.745  34.997  35.133  1.00  0.00     0.065 H 
ATOM     84  C   UNL A   1      39.713  32.984  35.604  1.00  0.00     0.037 A 
ATOM     85  C   UNL A   1      41.251  28.536  31.079  1.00  0.00     0.049 A 
ATOM     86  C   UNL A   1      40.699  31.846  35.565  1.00  0.00     0.074 A 
ATOM     87  C   UNL A   1      42.243  27.572  31.135  1.00  0.00    -0.036 A 
ATOM     88  N   UNL A   1      41.285  29.219  32.286  1.00  0.00    -0.354 N 
ATOM     89  N   UNL A   1      40.962  31.011  34.589  1.00  0.00    -0.248 NA
ATOM     90  C   UNL A   1      41.497  31.616  36.779  1.00  0.00    -0.034 C 
ATOM     91  C   UNL A   1      42.855  27.648  32.390  1.00  0.00    -0.036 A 
ATOM     92  H   UNL A   1      42.488  26.911  30.381  1.00  0.00     0.065 H 
ATOM     93  C   UNL A   1      42.275  28.689  33.098  1.00  0.00     0.049 A 
ATOM     94  H   UNL A   1      40.696  29.968  32.528  1.00  0.00     0.167 HD
ATOM     95  C   UNL A   1      41.976  30.185  35.054  1.00  0.00     0.074 A 
ATOM     96  C   UNL A   1      42.287  30.619  36.399  1.00  0.00    -0.034 C 
ATOM     97  H   UNL A   1      41.455  32.102  37.687  1.00  0.00     0.065 H 
ATOM     98  H   UNL A   1      43.611  27.034  32.731  1.00  0.00     0.065 H 
ATOM     99  C   UNL A   1      42.596  29.160  34.421  1.00  0.00     0.037 A 
ATOM    100  H   UNL A   1      43.027  30.207  36.989  1.00  0.00     0.065 H 
BRANCH  81 101
ATOM    101  C   UNL A   1      40.375  27.944  28.788  1.00  0.00     0.064 A 
ATOM    102  C   UNL A   1      41.154  28.275  27.669  1.00  0.00     0.173 A 
ATOM    103  C   UNL A   1      39.655  26.740  28.755  1.00  0.00     0.173 A 
ATOM    104  F   UNL A   1      41.853  29.420  27.648  1.00  0.00    -0.203 F 
ATOM    105  C   UNL A   1      41.187  27.448  26.550  1.00  0.00     0.198 A 
ATOM    106  C   UNL A   1      39.713  25.901  27.645  1.00  0.00     0.198 A 
ATOM    107  F   UNL A   1      38.901  26.373  29.801  1.00  0.00    -0.203 F 
ATOM    108  F   UNL A   1      41.901  27.807  25.475  1.00  0.00    -0.200 F 
ATOM    109  C   UNL A   1      40.473  26.259  26.541  1.00  0.00     0.200 A 
ATOM    110  F   UNL A   1      39.032  24.747  27.643  1.00  0.00    -0.200 F 
ATOM    111  F   UNL A   1      40.511  25.461  25.466  1.00  0.00    -0.200 F 
ENDBRANCH  81 101
BRANCH  84 112
ATOM    112  C   UNL A   1      39.572  33.829  36.819  1.00  0.00     0.064 A 
ATOM    113  C   UNL A   1      38.758  33.420  37.885  1.00  0.00     0.173 A 
ATOM    114  C   UNL A   1      40.242  35.054  36.945  1.00  0.00     0.173 A 
ATOM    115  F   UNL A   1      38.088  32.261  37.809  1.00  0.00    -0.203 F 
ATOM    116  C   UNL A   1      38.600  34.216  39.017  1.00  0.00     0.198 A 
ATOM    117  C   UNL A   1      40.101  35.839  38.087  1.00  0.00     0.198 A 
ATOM    118  F   UNL A   1      41.060  35.475  35.971  1.00  0.00    -0.203 F 
ATOM    119  F   UNL A   1      37.787  33.818  40.005  1.00  0.00    -0.200 F 
ATOM    120  C   UNL A   1      39.274  35.424  39.119  1.00  0.00     0.200 A 
ATOM    121  F   UNL A   1      40.770  36.996  38.192  1.00  0.00    -0.200 F 
ATOM    122  F   UNL A   1      39.124  36.186  40.211  1.00  0.00    -0.200 F 
ENDBRANCH  84 112
BRANCH  99 123
ATOM    123  C   UNL A   1      43.719  28.474  35.139  1.00  0.00     0.064 A 
ATOM    124  C   UNL A   1      45.042  28.927  35.043  1.00  0.00     0.173 A 
ATOM    125  C   UNL A   1      43.452  27.395  35.996  1.00  0.00     0.173 A 
ATOM    126  F   UNL A   1      45.350  29.946  34.227  1.00  0.00    -0.203 F 
ATOM    127  C   UNL A   1      46.059  28.317  35.773  1.00  0.00     0.198 A 
ATOM    128  C   UNL A   1      44.467  26.805  36.743  1.00  0.00     0.198 A 
ATOM    129  F   UNL A   1      42.200  26.930  36.127  1.00  0.00    -0.203 F 
ATOM    130  F   UNL A   1      47.322  28.748  35.646  1.00  0.00    -0.200 F 
ATOM    131  C   UNL A   1      45.770  27.264  36.629  1.00  0.00     0.200 A 
ATOM    132  F   UNL A   1      44.183  25.797  37.580  1.00  0.00    -0.200 F 
ATOM    133  F   UNL A   1      46.748  26.691  37.343  1.00  0.00    -0.200 F 
ENDBRANCH  99 123
ENDBRANCH  64  67
ENDBRANCH  54  57
ENDBRANCH  50  53
ENDBRANCH  47  50
ENDBRANCH  44  47
ENDBRANCH  41  44
ENDBRANCH   1  41
TORSDOF 18
ENDMDL
MODEL 8
REMARK VINA RESULT:     -11.9      4.504      9.091
REMARK SMILES NS(=O)(=O)c1ccc(/N=C/c2ccc(O)c(C(=O)NCCCCCCNC(=O)c3ccc(-c4c5nc(c(-c6c(F)c(F)c(F)c(F)c6F)c6ccc([nH]6)c(-c6c(F)c(F)c(F)c(F)c6F)c6nc(c(-c7c(F)c(F)c(F)c(F)c7F)c7ccc4[nH]7)C=C6)C=C5)cc3)c2)cc1
REMARK SMILES IDX 21 1 20 4 19 7 17 8 18 9 16 11 11 12 12 13 92 14 13 15 14 18
REMARK SMILES IDX 10 20 9 21 8 23 5 24 6 25 94 26 7 27 93 29 2 33 3 34 4 35
REMARK SMILES IDX 1 36 15 39 22 41 23 44 24 47 25 50 26 53 27 54 28 56 29 57
REMARK SMILES IDX 30 58 91 59 31 60 90 62 32 64 33 67 34 68 84 69 35 70 89 71
REMARK SMILES IDX 83 72 85 73 36 74 88 75 82 77 81 79 37 81 69 84 49 85 68 86
REMARK SMILES IDX 50 87 53 88 67 89 86 90 51 91 52 93 66 95 87 96 54 99 38 101
REMARK SMILES IDX 39 102 47 103 40 104 41 105 45 106 48 107 42 108 43 109
REMARK SMILES IDX 46 110 44 111 70 112 71 113 79 114 72 115 73 116 77 117
REMARK SMILES IDX 80 118 74 119 75 120 78 121 76 122 55 123 56 124 64 125
REMARK SMILES IDX 57 126 58 127 62 128 65 129 59 130 60 131 63 132 61 133
REMARK H PARENT 21 2 21 3 20 5 20 6 19 10 12 16 92 17 13 19 10 22 6 28 94 30
REMARK H PARENT 7 31 93 32 1 37 1 38 15 40 22 42 22 43 23 45 23 46 24 48 24 49
REMARK H PARENT 25 51 25 52 26 55 30 61 91 63 31 65 90 66 89 76 83 78 85 80
REMARK H PARENT 88 82 82 83 50 92 53 94 86 97 51 98 87 100
REMARK Flexibility Score: inf
ROOT
ATOM      1  C   UNL A   1      37.305  23.337  25.543  1.00  0.00    -0.036 C 
ATOM      2  H   UNL A   1      37.444  23.776  24.576  1.00  0.00     0.028 H 
ATOM      3  H   UNL A   1      37.317  22.266  25.556  1.00  0.00     0.028 H 
ENDROOT
BRANCH   1   4
ATOM      4  C   UNL A   1      35.912  23.724  26.028  1.00  0.00     0.018 C 
ATOM      5  H   UNL A   1      35.985  24.662  26.537  1.00  0.00     0.049 H 
ATOM      6  H   UNL A   1      35.288  23.765  25.160  1.00  0.00     0.049 H 
BRANCH   4   7
ATOM      7  N   UNL A   1      35.301  22.763  26.932  1.00  0.00    -0.352 N 
ATOM      8  C   UNL A   1      34.279  21.863  26.722  1.00  0.00     0.255 C 
ATOM      9  O   UNL A   1      33.865  21.192  27.669  1.00  0.00    -0.269 OA
ATOM     10  H   UNL A   1      35.678  22.754  27.841  1.00  0.00     0.163 HD
BRANCH   8  11
ATOM     11  C   UNL A   1      33.592  21.720  25.413  1.00  0.00     0.082 A 
ATOM     12  C   UNL A   1      32.223  22.636  23.635  1.00  0.00    -0.006 A 
ATOM     13  C   UNL A   1      32.035  21.365  23.093  1.00  0.00    -0.050 A 
ATOM     14  C   UNL A   1      33.065  22.818  24.737  1.00  0.00    -0.037 A 
ATOM     15  C   UNL A   1      32.669  20.272  23.686  1.00  0.00    -0.019 A 
ATOM     16  H   UNL A   1      31.435  21.235  22.262  1.00  0.00     0.063 H 
ATOM     17  H   UNL A   1      33.299  23.774  25.051  1.00  0.00     0.064 H 
ATOM     18  C   UNL A   1      33.430  20.447  24.845  1.00  0.00     0.128 A 
ATOM     19  H   UNL A   1      32.575  19.332  23.270  1.00  0.00     0.066 H 
BRANCH  12  20
ATOM     20  C   UNL A   1      31.419  23.783  23.163  1.00  0.00     0.035 C 
ATOM     21  N   UNL A   1      31.563  24.935  23.736  1.00  0.00    -0.256 NA
ATOM     22  H   UNL A   1      30.752  23.666  22.384  1.00  0.00     0.085 H 
BRANCH  21  23
ATOM     23  C   UNL A   1      30.734  26.010  23.396  1.00  0.00     0.063 A 
ATOM     24  C   UNL A   1      29.256  28.330  22.874  1.00  0.00     0.082 A 
ATOM     25  C   UNL A   1      30.572  28.231  22.417  1.00  0.00    -0.040 A 
ATOM     26  C   UNL A   1      28.670  27.280  23.586  1.00  0.00    -0.040 A 
ATOM     27  C   UNL A   1      31.304  27.074  22.689  1.00  0.00    -0.035 A 
ATOM     28  H   UNL A   1      30.998  29.005  21.885  1.00  0.00     0.064 H 
ATOM     29  C   UNL A   1      29.415  26.127  23.851  1.00  0.00    -0.035 A 
ATOM     30  H   UNL A   1      27.694  27.356  23.914  1.00  0.00     0.064 H 
ATOM     31  H   UNL A   1      32.281  27.002  22.362  1.00  0.00     0.065 H 
ATOM     32  H   UNL A   1      28.988  25.355  24.388  1.00  0.00     0.065 H 
BRANCH  24  33
ATOM     33  S   UNL A   1      28.344  29.808  22.546  1.00  0.00     0.238 S 
ATOM     34  O   UNL A   1      28.208  29.967  21.114  1.00  0.00    -0.207 OA
ATOM     35  O   UNL A   1      28.837  30.847  23.413  1.00  0.00    -0.207 OA
BRANCH  33  36
ATOM     36  N   UNL A   1      26.791  29.447  23.081  1.00  0.00    -0.225 NA
ATOM     37  H   UNL A   1      26.837  29.071  24.029  1.00  0.00     0.137 HD
ATOM     38  H   UNL A   1      26.370  28.755  22.462  1.00  0.00     0.137 HD
ENDBRANCH  33  36
ENDBRANCH  24  33
ENDBRANCH  21  23
ENDBRANCH  12  20
BRANCH  18  39
ATOM     39  O   UNL A   1      33.981  19.316  25.387  1.00  0.00    -0.507 OA
ATOM     40  H   UNL A   1      34.828  19.028  25.108  1.00  0.00     0.293 HD
ENDBRANCH  18  39
ENDBRANCH   8  11
ENDBRANCH   4   7
ENDBRANCH   1   4
BRANCH   1  41
ATOM     41  C   UNL A   1      38.485  23.759  26.416  1.00  0.00    -0.052 C 
ATOM     42  H   UNL A   1      38.118  23.895  27.412  1.00  0.00     0.027 H 
ATOM     43  H   UNL A   1      38.872  24.643  25.955  1.00  0.00     0.027 H 
BRANCH  41  44
ATOM     44  C   UNL A   1      39.672  22.795  26.490  1.00  0.00    -0.052 C 
ATOM     45  H   UNL A   1      39.827  22.551  27.520  1.00  0.00     0.027 H 
ATOM     46  H   UNL A   1      40.485  23.313  26.025  1.00  0.00     0.027 H 
BRANCH  44  47
ATOM     47  C   UNL A   1      39.540  21.482  25.717  1.00  0.00    -0.036 C 
ATOM     48  H   UNL A   1      40.273  21.487  24.937  1.00  0.00     0.028 H 
ATOM     49  H   UNL A   1      38.529  21.455  25.368  1.00  0.00     0.028 H 
BRANCH  47  50
ATOM     50  C   UNL A   1      39.730  20.204  26.526  1.00  0.00     0.018 C 
ATOM     51  H   UNL A   1      38.814  19.651  26.507  1.00  0.00     0.049 H 
ATOM     52  H   UNL A   1      40.005  20.496  27.518  1.00  0.00     0.049 H 
BRANCH  50  53
ATOM     53  N   UNL A   1      40.793  19.354  26.016  1.00  0.00    -0.352 N 
ATOM     54  C   UNL A   1      42.136  19.623  25.899  1.00  0.00     0.251 C 
ATOM     55  H   UNL A   1      40.512  18.461  25.712  1.00  0.00     0.163 HD
ATOM     56  O   UNL A   1      42.885  18.825  25.343  1.00  0.00    -0.269 OA
BRANCH  54  57
ATOM     57  C   UNL A   1      42.679  20.898  26.419  1.00  0.00     0.039 A 
ATOM     58  C   UNL A   1      43.180  21.838  25.514  1.00  0.00    -0.049 A 
ATOM     59  C   UNL A   1      42.686  21.168  27.789  1.00  0.00    -0.049 A 
ATOM     60  C   UNL A   1      43.619  23.082  25.976  1.00  0.00    -0.053 A 
ATOM     61  H   UNL A   1      43.226  21.614  24.507  1.00  0.00     0.063 H 
ATOM     62  C   UNL A   1      43.063  22.430  28.241  1.00  0.00    -0.053 A 
ATOM     63  H   UNL A   1      42.410  20.437  28.464  1.00  0.00     0.063 H 
ATOM     64  C   UNL A   1      43.529  23.401  27.340  1.00  0.00    -0.014 A 
ATOM     65  H   UNL A   1      44.010  23.769  25.312  1.00  0.00     0.063 H 
ATOM     66  H   UNL A   1      43.001  22.653  29.247  1.00  0.00     0.063 H 
BRANCH  64  67
ATOM     67  C   UNL A   1      43.918  24.734  27.866  1.00  0.00     0.031 A 
ATOM     68  C   UNL A   1      42.854  25.739  28.202  1.00  0.00     0.074 A 
ATOM     69  C   UNL A   1      45.219  25.074  27.940  1.00  0.00     0.049 A 
ATOM     70  N   UNL A   1      42.972  27.008  28.496  1.00  0.00    -0.248 NA
ATOM     71  C   UNL A   1      41.466  25.252  28.178  1.00  0.00    -0.034 C 
ATOM     72  C   UNL A   1      46.344  24.194  27.626  1.00  0.00    -0.036 A 
ATOM     73  N   UNL A   1      45.812  26.267  28.276  1.00  0.00    -0.354 N 
ATOM     74  C   UNL A   1      41.676  27.479  28.657  1.00  0.00     0.074 A 
ATOM     75  C   UNL A   1      40.786  26.367  28.401  1.00  0.00    -0.034 C 
ATOM     76  H   UNL A   1      41.114  24.293  28.028  1.00  0.00     0.065 H 
ATOM     77  C   UNL A   1      47.491  24.875  27.782  1.00  0.00    -0.036 A 
ATOM     78  H   UNL A   1      46.269  23.207  27.333  1.00  0.00     0.065 H 
ATOM     79  C   UNL A   1      47.181  26.252  28.156  1.00  0.00     0.049 A 
ATOM     80  H   UNL A   1      45.305  27.056  28.572  1.00  0.00     0.167 HD
ATOM     81  C   UNL A   1      41.269  28.724  28.999  1.00  0.00     0.037 A 
ATOM     82  H   UNL A   1      39.756  26.434  28.394  1.00  0.00     0.065 H 
ATOM     83  H   UNL A   1      48.439  24.487  27.656  1.00  0.00     0.065 H 
ATOM     84  C   UNL A   1      48.080  27.243  28.307  1.00  0.00     0.037 A 
ATOM     85  C   UNL A   1      42.160  29.817  29.284  1.00  0.00     0.049 A 
ATOM     86  C   UNL A   1      47.600  28.623  28.673  1.00  0.00     0.074 A 
ATOM     87  C   UNL A   1      41.847  31.101  29.695  1.00  0.00    -0.036 A 
ATOM     88  N   UNL A   1      43.542  29.752  29.186  1.00  0.00    -0.354 N 
ATOM     89  N   UNL A   1      46.376  29.047  28.878  1.00  0.00    -0.248 NA
ATOM     90  C   UNL A   1      48.626  29.665  28.834  1.00  0.00    -0.034 C 
ATOM     91  C   UNL A   1      43.038  31.824  29.813  1.00  0.00    -0.036 A 
ATOM     92  H   UNL A   1      40.899  31.462  29.882  1.00  0.00     0.065 H 
ATOM     93  C   UNL A   1      44.096  30.977  29.520  1.00  0.00     0.049 A 
ATOM     94  H   UNL A   1      44.053  28.954  28.921  1.00  0.00     0.167 HD
ATOM     95  C   UNL A   1      46.487  30.386  29.226  1.00  0.00     0.074 A 
ATOM     96  C   UNL A   1      47.898  30.708  29.210  1.00  0.00    -0.034 C 
ATOM     97  H   UNL A   1      49.645  29.601  28.691  1.00  0.00     0.065 H 
ATOM     98  H   UNL A   1      43.117  32.819  30.075  1.00  0.00     0.065 H 
ATOM     99  C   UNL A   1      45.507  31.269  29.534  1.00  0.00     0.037 A 
ATOM    100  H   UNL A   1      48.288  31.630  29.459  1.00  0.00     0.065 H 
BRANCH  81 101
ATOM    101  C   UNL A   1      39.792  28.972  29.082  1.00  0.00     0.064 A 
ATOM    102  C   UNL A   1      39.045  29.342  27.954  1.00  0.00     0.173 A 
ATOM    103  C   UNL A   1      39.109  28.801  30.296  1.00  0.00     0.173 A 
ATOM    104  F   UNL A   1      39.653  29.529  26.772  1.00  0.00    -0.203 F 
ATOM    105  C   UNL A   1      37.673  29.562  28.044  1.00  0.00     0.198 A 
ATOM    106  C   UNL A   1      37.732  28.993  30.376  1.00  0.00     0.198 A 
ATOM    107  F   UNL A   1      39.774  28.441  31.402  1.00  0.00    -0.203 F 
ATOM    108  F   UNL A   1      36.988  29.960  26.963  1.00  0.00    -0.200 F 
ATOM    109  C   UNL A   1      37.016  29.380  29.252  1.00  0.00     0.200 A 
ATOM    110  F   UNL A   1      37.097  28.804  31.541  1.00  0.00    -0.200 F 
ATOM    111  F   UNL A   1      35.695  29.584  29.336  1.00  0.00    -0.200 F 
ENDBRANCH  81 101
BRANCH  84 112
ATOM    112  C   UNL A   1      49.530  26.964  28.127  1.00  0.00     0.064 A 
ATOM    113  C   UNL A   1      50.331  26.602  29.219  1.00  0.00     0.173 A 
ATOM    114  C   UNL A   1      50.145  27.051  26.870  1.00  0.00     0.173 A 
ATOM    115  F   UNL A   1      49.792  26.515  30.444  1.00  0.00    -0.203 F 
ATOM    116  C   UNL A   1      51.694  26.362  29.065  1.00  0.00     0.198 A 
ATOM    117  C   UNL A   1      51.504  26.791  26.713  1.00  0.00     0.198 A 
ATOM    118  F   UNL A   1      49.419  27.360  25.787  1.00  0.00    -0.203 F 
ATOM    119  F   UNL A   1      52.443  26.054  30.133  1.00  0.00    -0.200 F 
ATOM    120  C   UNL A   1      52.280  26.454  27.812  1.00  0.00     0.200 A 
ATOM    121  F   UNL A   1      52.063  26.859  25.497  1.00  0.00    -0.200 F 
ATOM    122  F   UNL A   1      53.591  26.220  27.664  1.00  0.00    -0.200 F 
ENDBRANCH  84 112
BRANCH  99 123
ATOM    123  C   UNL A   1      45.917  32.651  29.947  1.00  0.00     0.064 A 
ATOM    124  C   UNL A   1      46.010  33.700  29.022  1.00  0.00     0.173 A 
ATOM    125  C   UNL A   1      46.147  32.941  31.300  1.00  0.00     0.173 A 
ATOM    126  F   UNL A   1      45.813  33.468  27.716  1.00  0.00    -0.203 F 
ATOM    127  C   UNL A   1      46.326  34.991  29.438  1.00  0.00     0.198 A 
ATOM    128  C   UNL A   1      46.437  34.238  31.715  1.00  0.00     0.198 A 
ATOM    129  F   UNL A   1      46.063  31.972  32.224  1.00  0.00    -0.203 F 
ATOM    130  F   UNL A   1      46.436  35.974  28.535  1.00  0.00    -0.200 F 
ATOM    131  C   UNL A   1      46.529  35.261  30.784  1.00  0.00     0.200 A 
ATOM    132  F   UNL A   1      46.620  34.499  33.017  1.00  0.00    -0.200 F 
ATOM    133  F   UNL A   1      46.816  36.507  31.183  1.00  0.00    -0.200 F 
ENDBRANCH  99 123
ENDBRANCH  64  67
ENDBRANCH  54  57
ENDBRANCH  50  53
ENDBRANCH  47  50
ENDBRANCH  44  47
ENDBRANCH  41  44
ENDBRANCH   1  41
TORSDOF 18
ENDMDL
MODEL 9
REMARK VINA RESULT:     -11.9      4.529      9.453
REMARK SMILES NS(=O)(=O)c1ccc(/N=C/c2ccc(O)c(C(=O)NCCCCCCNC(=O)c3ccc(-c4c5nc(c(-c6c(F)c(F)c(F)c(F)c6F)c6ccc([nH]6)c(-c6c(F)c(F)c(F)c(F)c6F)c6nc(c(-c7c(F)c(F)c(F)c(F)c7F)c7ccc4[nH]7)C=C6)C=C5)cc3)c2)cc1
REMARK SMILES IDX 21 1 20 4 19 7 17 8 18 9 16 11 11 12 12 13 92 14 13 15 14 18
REMARK SMILES IDX 10 20 9 21 8 23 5 24 6 25 94 26 7 27 93 29 2 33 3 34 4 35
REMARK SMILES IDX 1 36 15 39 22 41 23 44 24 47 25 50 26 53 27 54 28 56 29 57
REMARK SMILES IDX 30 58 91 59 31 60 90 62 32 64 33 67 34 68 84 69 35 70 89 71
REMARK SMILES IDX 83 72 85 73 36 74 88 75 82 77 81 79 37 81 69 84 49 85 68 86
REMARK SMILES IDX 50 87 53 88 67 89 86 90 51 91 52 93 66 95 87 96 54 99 38 101
REMARK SMILES IDX 39 102 47 103 40 104 41 105 45 106 48 107 42 108 43 109
REMARK SMILES IDX 46 110 44 111 70 112 71 113 79 114 72 115 73 116 77 117
REMARK SMILES IDX 80 118 74 119 75 120 78 121 76 122 55 123 56 124 64 125
REMARK SMILES IDX 57 126 58 127 62 128 65 129 59 130 60 131 63 132 61 133
REMARK H PARENT 21 2 21 3 20 5 20 6 19 10 12 16 92 17 13 19 10 22 6 28 94 30
REMARK H PARENT 7 31 93 32 1 37 1 38 15 40 22 42 22 43 23 45 23 46 24 48 24 49
REMARK H PARENT 25 51 25 52 26 55 30 61 91 63 31 65 90 66 89 76 83 78 85 80
REMARK H PARENT 88 82 82 83 50 92 53 94 86 97 51 98 87 100
REMARK Flexibility Score: inf
ROOT
ATOM      1  C   UNL A   1      36.844  23.590  26.111  1.00  0.00    -0.036 C 
ATOM      2  H   UNL A   1      36.526  22.774  26.726  1.00  0.00     0.028 H 
ATOM      3  H   UNL A   1      36.287  24.495  26.240  1.00  0.00     0.028 H 
ENDROOT
BRANCH   1   4
ATOM      4  C   UNL A   1      36.617  23.188  24.658  1.00  0.00     0.018 C 
ATOM      5  H   UNL A   1      35.899  23.859  24.234  1.00  0.00     0.049 H 
ATOM      6  H   UNL A   1      37.571  23.237  24.177  1.00  0.00     0.049 H 
BRANCH   4   7
ATOM      7  N   UNL A   1      36.132  21.829  24.478  1.00  0.00    -0.352 N 
ATOM      8  C   UNL A   1      34.916  21.265  24.795  1.00  0.00     0.255 C 
ATOM      9  O   UNL A   1      34.750  20.057  24.622  1.00  0.00    -0.269 OA
ATOM     10  H   UNL A   1      36.776  21.212  24.062  1.00  0.00     0.163 HD
BRANCH   8  11
ATOM     11  C   UNL A   1      33.811  22.038  25.419  1.00  0.00     0.082 A 
ATOM     12  C   UNL A   1      32.065  23.712  25.282  1.00  0.00    -0.006 A 
ATOM     13  C   UNL A   1      31.931  23.723  26.669  1.00  0.00    -0.050 A 
ATOM     14  C   UNL A   1      32.939  22.815  24.660  1.00  0.00    -0.037 A 
ATOM     15  C   UNL A   1      32.708  22.849  27.433  1.00  0.00    -0.019 A 
ATOM     16  H   UNL A   1      31.265  24.366  27.126  1.00  0.00     0.063 H 
ATOM     17  H   UNL A   1      32.937  22.727  23.631  1.00  0.00     0.064 H 
ATOM     18  C   UNL A   1      33.650  22.024  26.813  1.00  0.00     0.128 A 
ATOM     19  H   UNL A   1      32.587  22.813  28.458  1.00  0.00     0.066 H 
BRANCH  12  20
ATOM     20  C   UNL A   1      31.412  24.750  24.455  1.00  0.00     0.035 C 
ATOM     21  N   UNL A   1      31.298  25.952  24.922  1.00  0.00    -0.256 NA
ATOM     22  H   UNL A   1      31.052  24.518  23.516  1.00  0.00     0.085 H 
BRANCH  21  23
ATOM     23  C   UNL A   1      30.582  26.926  24.218  1.00  0.00     0.063 A 
ATOM     24  C   UNL A   1      29.174  29.046  23.048  1.00  0.00     0.082 A 
ATOM     25  C   UNL A   1      30.515  29.216  23.397  1.00  0.00    -0.040 A 
ATOM     26  C   UNL A   1      28.530  27.827  23.274  1.00  0.00    -0.040 A 
ATOM     27  C   UNL A   1      31.208  28.156  23.987  1.00  0.00    -0.035 A 
ATOM     28  H   UNL A   1      30.990  30.115  23.221  1.00  0.00     0.064 H 
ATOM     29  C   UNL A   1      29.235  26.774  23.866  1.00  0.00    -0.035 A 
ATOM     30  H   UNL A   1      27.541  27.704  23.006  1.00  0.00     0.064 H 
ATOM     31  H   UNL A   1      32.196  28.282  24.257  1.00  0.00     0.065 H 
ATOM     32  H   UNL A   1      28.758  25.876  24.046  1.00  0.00     0.065 H 
BRANCH  24  33
ATOM     33  S   UNL A   1      28.299  30.399  22.323  1.00  0.00     0.238 S 
ATOM     34  O   UNL A   1      27.279  30.848  23.246  1.00  0.00    -0.207 OA
ATOM     35  O   UNL A   1      28.031  30.079  20.945  1.00  0.00    -0.207 OA
BRANCH  33  36
ATOM     36  N   UNL A   1      29.431  31.643  22.305  1.00  0.00    -0.225 NA
ATOM     37  H   UNL A   1      29.018  32.473  21.878  1.00  0.00     0.137 HD
ATOM     38  H   UNL A   1      30.247  31.354  21.767  1.00  0.00     0.137 HD
ENDBRANCH  33  36
ENDBRANCH  24  33
ENDBRANCH  21  23
ENDBRANCH  12  20
BRANCH  18  39
ATOM     39  O   UNL A   1      34.400  21.230  27.641  1.00  0.00    -0.507 OA
ATOM     40  H   UNL A   1      35.258  20.962  27.380  1.00  0.00     0.293 HD
ENDBRANCH  18  39
ENDBRANCH   8  11
ENDBRANCH   4   7
ENDBRANCH   1   4
BRANCH   1  41
ATOM     41  C   UNL A   1      38.275  23.944  26.517  1.00  0.00    -0.052 C 
ATOM     42  H   UNL A   1      38.301  24.006  27.586  1.00  0.00     0.027 H 
ATOM     43  H   UNL A   1      38.492  24.859  26.008  1.00  0.00     0.027 H 
BRANCH  41  44
ATOM     44  C   UNL A   1      39.377  22.975  26.085  1.00  0.00    -0.052 C 
ATOM     45  H   UNL A   1      40.298  23.324  26.502  1.00  0.00     0.027 H 
ATOM     46  H   UNL A   1      39.344  22.970  25.015  1.00  0.00     0.027 H 
BRANCH  44  47
ATOM     47  C   UNL A   1      39.207  21.511  26.497  1.00  0.00    -0.036 C 
ATOM     48  H   UNL A   1      38.233  21.405  26.928  1.00  0.00     0.028 H 
ATOM     49  H   UNL A   1      40.011  21.309  27.174  1.00  0.00     0.028 H 
BRANCH  47  50
ATOM     50  C   UNL A   1      39.339  20.480  25.383  1.00  0.00     0.018 C 
ATOM     51  H   UNL A   1      39.730  20.966  24.514  1.00  0.00     0.049 H 
ATOM     52  H   UNL A   1      38.365  20.071  25.213  1.00  0.00     0.049 H 
BRANCH  50  53
ATOM     53  N   UNL A   1      40.216  19.373  25.725  1.00  0.00    -0.352 N 
ATOM     54  C   UNL A   1      41.507  19.405  26.198  1.00  0.00     0.251 C 
ATOM     55  H   UNL A   1      39.833  18.475  25.601  1.00  0.00     0.163 HD
ATOM     56  O   UNL A   1      42.146  18.365  26.334  1.00  0.00    -0.269 OA
BRANCH  54  57
ATOM     57  C   UNL A   1      42.143  20.702  26.514  1.00  0.00     0.039 A 
ATOM     58  C   UNL A   1      42.563  21.524  25.464  1.00  0.00    -0.049 A 
ATOM     59  C   UNL A   1      42.316  21.112  27.838  1.00  0.00    -0.049 A 
ATOM     60  C   UNL A   1      43.089  22.790  25.738  1.00  0.00    -0.053 A 
ATOM     61  H   UNL A   1      42.486  21.196  24.488  1.00  0.00     0.063 H 
ATOM     62  C   UNL A   1      42.779  22.397  28.108  1.00  0.00    -0.053 A 
ATOM     63  H   UNL A   1      42.099  20.466  28.614  1.00  0.00     0.063 H 
ATOM     64  C   UNL A   1      43.166  23.250  27.061  1.00  0.00    -0.014 A 
ATOM     65  H   UNL A   1      43.420  23.388  24.965  1.00  0.00     0.063 H 
ATOM     66  H   UNL A   1      42.840  22.725  29.085  1.00  0.00     0.063 H 
BRANCH  64  67
ATOM     67  C   UNL A   1      43.651  24.613  27.395  1.00  0.00     0.031 A 
ATOM     68  C   UNL A   1      42.687  25.636  27.923  1.00  0.00     0.074 A 
ATOM     69  C   UNL A   1      44.925  24.958  27.125  1.00  0.00     0.049 A 
ATOM     70  N   UNL A   1      42.853  26.921  28.103  1.00  0.00    -0.248 NA
ATOM     71  C   UNL A   1      41.344  25.148  28.272  1.00  0.00    -0.034 C 
ATOM     72  C   UNL A   1      45.952  24.061  26.596  1.00  0.00    -0.036 A 
ATOM     73  N   UNL A   1      45.564  26.170  27.233  1.00  0.00    -0.354 N 
ATOM     74  C   UNL A   1      41.631  27.400  28.552  1.00  0.00     0.074 A 
ATOM     75  C   UNL A   1      40.722  26.275  28.589  1.00  0.00    -0.034 C 
ATOM     76  H   UNL A   1      40.980  24.182  28.271  1.00  0.00     0.065 H 
ATOM     77  C   UNL A   1      47.090  24.752  26.423  1.00  0.00    -0.036 A 
ATOM     78  H   UNL A   1      45.822  23.058  26.390  1.00  0.00     0.065 H 
ATOM     79  C   UNL A   1      46.861  26.149  26.780  1.00  0.00     0.049 A 
ATOM     80  H   UNL A   1      45.132  26.976  27.598  1.00  0.00     0.167 HD
ATOM     81  C   UNL A   1      41.301  28.664  28.909  1.00  0.00     0.037 A 
ATOM     82  H   UNL A   1      39.721  26.340  28.833  1.00  0.00     0.065 H 
ATOM     83  H   UNL A   1      47.985  24.357  26.091  1.00  0.00     0.065 H 
ATOM     84  C   UNL A   1      47.754  27.148  26.646  1.00  0.00     0.037 A 
ATOM     85  C   UNL A   1      42.217  29.773  28.899  1.00  0.00     0.049 A 
ATOM     86  C   UNL A   1      47.357  28.547  27.036  1.00  0.00     0.074 A 
ATOM     87  C   UNL A   1      41.995  31.080  29.298  1.00  0.00    -0.036 A 
ATOM     88  N   UNL A   1      43.533  29.703  28.467  1.00  0.00    -0.354 N 
ATOM     89  N   UNL A   1      46.215  28.982  27.511  1.00  0.00    -0.248 NA
ATOM     90  C   UNL A   1      48.374  29.597  26.876  1.00  0.00    -0.034 C 
ATOM     91  C   UNL A   1      43.167  31.809  29.075  1.00  0.00    -0.036 A 
ATOM     92  H   UNL A   1      41.116  31.451  29.692  1.00  0.00     0.065 H 
ATOM     93  C   UNL A   1      44.133  30.947  28.581  1.00  0.00     0.049 A 
ATOM     94  H   UNL A   1      43.976  28.890  28.132  1.00  0.00     0.167 HD
ATOM     95  C   UNL A   1      46.387  30.340  27.742  1.00  0.00     0.074 A 
ATOM     96  C   UNL A   1      47.745  30.661  27.358  1.00  0.00    -0.034 C 
ATOM     97  H   UNL A   1      49.328  29.525  26.491  1.00  0.00     0.065 H 
ATOM     98  H   UNL A   1      43.292  32.818  29.251  1.00  0.00     0.065 H 
ATOM     99  C   UNL A   1      45.499  31.239  28.229  1.00  0.00     0.037 A 
ATOM    100  H   UNL A   1      48.170  31.597  27.448  1.00  0.00     0.065 H 
BRANCH  81 101
ATOM    101  C   UNL A   1      39.886  28.916  29.338  1.00  0.00     0.064 A 
ATOM    102  C   UNL A   1      38.891  29.280  28.418  1.00  0.00     0.173 A 
ATOM    103  C   UNL A   1      39.511  28.754  30.681  1.00  0.00     0.173 A 
ATOM    104  F   UNL A   1      39.201  29.457  27.124  1.00  0.00    -0.203 F 
ATOM    105  C   UNL A   1      37.580  29.502  28.830  1.00  0.00     0.198 A 
ATOM    106  C   UNL A   1      38.192  28.950  31.085  1.00  0.00     0.198 A 
ATOM    107  F   UNL A   1      40.420  28.400  31.600  1.00  0.00    -0.203 F 
ATOM    108  F   UNL A   1      36.658  29.894  27.941  1.00  0.00    -0.200 F 
ATOM    109  C   UNL A   1      37.230  29.330  30.161  1.00  0.00     0.200 A 
ATOM    110  F   UNL A   1      37.853  28.770  32.369  1.00  0.00    -0.200 F 
ATOM    111  F   UNL A   1      35.967  29.538  30.555  1.00  0.00    -0.200 F 
ENDBRANCH  81 101
BRANCH  84 112
ATOM    112  C   UNL A   1      49.119  26.859  26.130  1.00  0.00     0.064 A 
ATOM    113  C   UNL A   1      49.414  26.999  24.767  1.00  0.00     0.173 A 
ATOM    114  C   UNL A   1      50.153  26.441  26.980  1.00  0.00     0.173 A 
ATOM    115  F   UNL A   1      48.457  27.387  23.911  1.00  0.00    -0.203 F 
ATOM    116  C   UNL A   1      50.682  26.708  24.271  1.00  0.00     0.198 A 
ATOM    117  C   UNL A   1      51.427  26.171  26.487  1.00  0.00     0.198 A 
ATOM    118  F   UNL A   1      49.934  26.325  28.297  1.00  0.00    -0.203 F 
ATOM    119  F   UNL A   1      50.926  26.814  22.958  1.00  0.00    -0.200 F 
ATOM    120  C   UNL A   1      51.689  26.296  25.131  1.00  0.00     0.200 A 
ATOM    121  F   UNL A   1      52.403  25.795  27.324  1.00  0.00    -0.200 F 
ATOM    122  F   UNL A   1      52.910  26.020  24.653  1.00  0.00    -0.200 F 
ENDBRANCH  84 112
BRANCH  99 123
ATOM    123  C   UNL A   1      45.976  32.644  28.445  1.00  0.00     0.064 A 
ATOM    124  C   UNL A   1      46.597  33.038  29.638  1.00  0.00     0.173 A 
ATOM    125  C   UNL A   1      45.878  33.587  27.410  1.00  0.00     0.173 A 
ATOM    126  F   UNL A   1      46.701  32.177  30.662  1.00  0.00    -0.203 F 
ATOM    127  C   UNL A   1      47.094  34.329  29.791  1.00  0.00     0.198 A 
ATOM    128  C   UNL A   1      46.400  34.869  27.557  1.00  0.00     0.198 A 
ATOM    129  F   UNL A   1      45.299  33.256  26.246  1.00  0.00    -0.203 F 
ATOM    130  F   UNL A   1      47.660  34.694  30.950  1.00  0.00    -0.200 F 
ATOM    131  C   UNL A   1      47.005  35.240  28.748  1.00  0.00     0.200 A 
ATOM    132  F   UNL A   1      46.325  35.743  26.543  1.00  0.00    -0.200 F 
ATOM    133  F   UNL A   1      47.500  36.477  28.891  1.00  0.00    -0.200 F 
ENDBRANCH  99 123
ENDBRANCH  64  67
ENDBRANCH  54  57
ENDBRANCH  50  53
ENDBRANCH  47  50
ENDBRANCH  44  47
ENDBRANCH  41  44
ENDBRANCH   1  41
TORSDOF 18
ENDMDL
MODEL 10
REMARK VINA RESULT:     -11.8      2.800      7.397
REMARK SMILES NS(=O)(=O)c1ccc(/N=C/c2ccc(O)c(C(=O)NCCCCCCNC(=O)c3ccc(-c4c5nc(c(-c6c(F)c(F)c(F)c(F)c6F)c6ccc([nH]6)c(-c6c(F)c(F)c(F)c(F)c6F)c6nc(c(-c7c(F)c(F)c(F)c(F)c7F)c7ccc4[nH]7)C=C6)C=C5)cc3)c2)cc1
REMARK SMILES IDX 21 1 20 4 19 7 17 8 18 9 16 11 11 12 12 13 92 14 13 15 14 18
REMARK SMILES IDX 10 20 9 21 8 23 5 24 6 25 94 26 7 27 93 29 2 33 3 34 4 35
REMARK SMILES IDX 1 36 15 39 22 41 23 44 24 47 25 50 26 53 27 54 28 56 29 57
REMARK SMILES IDX 30 58 91 59 31 60 90 62 32 64 33 67 34 68 84 69 35 70 89 71
REMARK SMILES IDX 83 72 85 73 36 74 88 75 82 77 81 79 37 81 69 84 49 85 68 86
REMARK SMILES IDX 50 87 53 88 67 89 86 90 51 91 52 93 66 95 87 96 54 99 38 101
REMARK SMILES IDX 39 102 47 103 40 104 41 105 45 106 48 107 42 108 43 109
REMARK SMILES IDX 46 110 44 111 70 112 71 113 79 114 72 115 73 116 77 117
REMARK SMILES IDX 80 118 74 119 75 120 78 121 76 122 55 123 56 124 64 125
REMARK SMILES IDX 57 126 58 127 62 128 65 129 59 130 60 131 63 132 61 133
REMARK H PARENT 21 2 21 3 20 5 20 6 19 10 12 16 92 17 13 19 10 22 6 28 94 30
REMARK H PARENT 7 31 93 32 1 37 1 38 15 40 22 42 22 43 23 45 23 46 24 48 24 49
REMARK H PARENT 25 51 25 52 26 55 30 61 91 63 31 65 90 66 89 76 83 78 85 80
REMARK H PARENT 88 82 82 83 50 92 53 94 86 97 51 98 87 100
REMARK Flexibility Score: inf
ROOT
ATOM      1  C   UNL A   1      38.064  21.307  25.353  1.00  0.00    -0.036 C 
ATOM      2  H   UNL A   1      38.334  21.172  24.325  1.00  0.00     0.028 H 
ATOM      3  H   UNL A   1      37.705  20.426  25.843  1.00  0.00     0.028 H 
ENDROOT
BRANCH   1   4
ATOM      4  C   UNL A   1      36.900  22.289  25.397  1.00  0.00     0.018 C 
ATOM      5  H   UNL A   1      37.300  23.280  25.456  1.00  0.00     0.049 H 
ATOM      6  H   UNL A   1      36.327  22.122  24.509  1.00  0.00     0.049 H 
BRANCH   4   7
ATOM      7  N   UNL A   1      35.992  22.098  26.517  1.00  0.00    -0.352 N 
ATOM      8  C   UNL A   1      34.646  21.811  26.538  1.00  0.00     0.255 C 
ATOM      9  O   UNL A   1      34.056  21.770  27.619  1.00  0.00    -0.269 OA
ATOM     10  H   UNL A   1      36.408  22.189  27.405  1.00  0.00     0.163 HD
BRANCH   8  11
ATOM     11  C   UNL A   1      33.846  21.625  25.300  1.00  0.00     0.082 A 
ATOM     12  C   UNL A   1      32.301  22.474  23.636  1.00  0.00    -0.006 A 
ATOM     13  C   UNL A   1      32.093  21.188  23.139  1.00  0.00    -0.050 A 
ATOM     14  C   UNL A   1      33.235  22.697  24.653  1.00  0.00    -0.037 A 
ATOM     15  C   UNL A   1      32.803  20.121  23.693  1.00  0.00    -0.019 A 
ATOM     16  H   UNL A   1      31.423  21.027  22.369  1.00  0.00     0.063 H 
ATOM     17  H   UNL A   1      33.475  23.664  24.925  1.00  0.00     0.064 H 
ATOM     18  C   UNL A   1      33.662  20.337  24.774  1.00  0.00     0.128 A 
ATOM     19  H   UNL A   1      32.693  19.171  23.305  1.00  0.00     0.066 H 
BRANCH  12  20
ATOM     20  C   UNL A   1      31.432  23.593  23.217  1.00  0.00     0.035 C 
ATOM     21  N   UNL A   1      31.730  24.798  23.585  1.00  0.00    -0.256 NA
ATOM     22  H   UNL A   1      30.596  23.416  22.637  1.00  0.00     0.085 H 
BRANCH  21  23
ATOM     23  C   UNL A   1      30.867  25.864  23.308  1.00  0.00     0.063 A 
ATOM     24  C   UNL A   1      29.320  28.165  22.912  1.00  0.00     0.082 A 
ATOM     25  C   UNL A   1      30.621  28.111  22.408  1.00  0.00    -0.040 A 
ATOM     26  C   UNL A   1      28.782  27.079  23.608  1.00  0.00    -0.040 A 
ATOM     27  C   UNL A   1      31.388  26.963  22.617  1.00  0.00    -0.035 A 
ATOM     28  H   UNL A   1      31.012  28.912  21.888  1.00  0.00     0.064 H 
ATOM     29  C   UNL A   1      29.561  25.936  23.811  1.00  0.00    -0.035 A 
ATOM     30  H   UNL A   1      27.817  27.121  23.971  1.00  0.00     0.064 H 
ATOM     31  H   UNL A   1      32.354  26.925  22.257  1.00  0.00     0.065 H 
ATOM     32  H   UNL A   1      29.171  25.137  24.335  1.00  0.00     0.065 H 
BRANCH  24  33
ATOM     33  S   UNL A   1      28.364  29.630  22.663  1.00  0.00     0.238 S 
ATOM     34  O   UNL A   1      28.221  29.861  21.242  1.00  0.00    -0.207 OA
ATOM     35  O   UNL A   1      28.828  30.636  23.584  1.00  0.00    -0.207 OA
BRANCH  33  36
ATOM     36  N   UNL A   1      26.823  29.195  23.179  1.00  0.00    -0.225 NA
ATOM     37  H   UNL A   1      26.304  30.033  23.443  1.00  0.00     0.137 HD
ATOM     38  H   UNL A   1      26.897  28.573  23.983  1.00  0.00     0.137 HD
ENDBRANCH  33  36
ENDBRANCH  24  33
ENDBRANCH  21  23
ENDBRANCH  12  20
BRANCH  18  39
ATOM     39  O   UNL A   1      34.286  19.230  25.285  1.00  0.00    -0.507 OA
ATOM     40  H   UNL A   1      35.212  19.130  25.192  1.00  0.00     0.293 HD
ENDBRANCH  18  39
ENDBRANCH   8  11
ENDBRANCH   4   7
ENDBRANCH   1   4
BRANCH   1  41
ATOM     41  C   UNL A   1      39.330  21.697  26.115  1.00  0.00    -0.052 C 
ATOM     42  H   UNL A   1      39.049  21.894  27.129  1.00  0.00     0.027 H 
ATOM     43  H   UNL A   1      39.726  22.540  25.587  1.00  0.00     0.027 H 
BRANCH  41  44
ATOM     44  C   UNL A   1      40.467  20.673  26.142  1.00  0.00    -0.052 C 
ATOM     45  H   UNL A   1      41.116  20.888  25.319  1.00  0.00     0.027 H 
ATOM     46  H   UNL A   1      39.986  19.718  26.096  1.00  0.00     0.027 H 
BRANCH  44  47
ATOM     47  C   UNL A   1      41.323  20.630  27.409  1.00  0.00    -0.036 C 
ATOM     48  H   UNL A   1      41.740  19.647  27.488  1.00  0.00     0.028 H 
ATOM     49  H   UNL A   1      40.664  20.894  28.209  1.00  0.00     0.028 H 
BRANCH  47  50
ATOM     50  C   UNL A   1      42.472  21.629  27.477  1.00  0.00     0.018 C 
ATOM     51  H   UNL A   1      43.313  21.150  27.933  1.00  0.00     0.049 H 
ATOM     52  H   UNL A   1      42.128  22.468  28.045  1.00  0.00     0.049 H 
BRANCH  50  53
ATOM     53  N   UNL A   1      42.877  22.129  26.174  1.00  0.00    -0.352 N 
ATOM     54  C   UNL A   1      42.865  23.419  25.698  1.00  0.00     0.251 C 
ATOM     55  H   UNL A   1      43.206  21.448  25.543  1.00  0.00     0.163 HD
ATOM     56  O   UNL A   1      43.142  23.653  24.526  1.00  0.00    -0.269 OA
BRANCH  54  57
ATOM     57  C   UNL A   1      42.483  24.531  26.597  1.00  0.00     0.039 A 
ATOM     58  C   UNL A   1      41.337  24.399  27.387  1.00  0.00    -0.049 A 
ATOM     59  C   UNL A   1      43.255  25.692  26.668  1.00  0.00    -0.049 A 
ATOM     60  C   UNL A   1      41.006  25.401  28.304  1.00  0.00    -0.053 A 
ATOM     61  H   UNL A   1      40.737  23.565  27.293  1.00  0.00     0.063 H 
ATOM     62  C   UNL A   1      42.961  26.659  27.626  1.00  0.00    -0.053 A 
ATOM     63  H   UNL A   1      44.042  25.833  26.014  1.00  0.00     0.063 H 
ATOM     64  C   UNL A   1      41.836  26.521  28.456  1.00  0.00    -0.014 A 
ATOM     65  H   UNL A   1      40.148  25.315  28.872  1.00  0.00     0.063 H 
ATOM     66  H   UNL A   1      43.573  27.484  27.726  1.00  0.00     0.063 H 
BRANCH  64  67
ATOM     67  C   UNL A   1      41.562  27.575  29.466  1.00  0.00     0.031 A 
ATOM     68  C   UNL A   1      42.358  27.609  30.739  1.00  0.00     0.074 A 
ATOM     69  C   UNL A   1      40.536  28.428  29.286  1.00  0.00     0.049 A 
ATOM     70  N   UNL A   1      42.166  28.317  31.821  1.00  0.00    -0.248 NA
ATOM     71  C   UNL A   1      43.515  26.702  30.810  1.00  0.00    -0.034 C 
ATOM     72  C   UNL A   1      39.679  28.484  28.102  1.00  0.00    -0.036 A 
ATOM     73  N   UNL A   1      40.021  29.393  30.116  1.00  0.00    -0.354 N 
ATOM     74  C   UNL A   1      43.151  27.918  32.713  1.00  0.00     0.074 A 
ATOM     75  C   UNL A   1      43.924  26.885  32.057  1.00  0.00    -0.034 C 
ATOM     76  H   UNL A   1      43.905  26.085  30.080  1.00  0.00     0.065 H 
ATOM     77  C   UNL A   1      38.745  29.432  28.281  1.00  0.00    -0.036 A 
ATOM     78  H   UNL A   1      39.777  27.892  27.263  1.00  0.00     0.065 H 
ATOM     79  C   UNL A   1      38.904  30.014  29.611  1.00  0.00     0.049 A 
ATOM     80  H   UNL A   1      40.414  29.618  30.990  1.00  0.00     0.167 HD
ATOM     81  C   UNL A   1      43.395  28.380  33.962  1.00  0.00     0.037 A 
ATOM     82  H   UNL A   1      44.693  26.360  32.501  1.00  0.00     0.065 H 
ATOM     83  H   UNL A   1      38.028  29.704  27.590  1.00  0.00     0.065 H 
ATOM     84  C   UNL A   1      38.088  30.929  30.168  1.00  0.00     0.037 A 
ATOM     85  C   UNL A   1      42.643  29.429  34.598  1.00  0.00     0.049 A 
ATOM     86  C   UNL A   1      38.372  31.416  31.564  1.00  0.00     0.074 A 
ATOM     87  C   UNL A   1      42.848  30.008  35.838  1.00  0.00    -0.036 A 
ATOM     88  N   UNL A   1      41.540  30.057  34.038  1.00  0.00    -0.354 N 
ATOM     89  N   UNL A   1      39.339  31.073  32.380  1.00  0.00    -0.248 NA
ATOM     90  C   UNL A   1      37.453  32.422  32.119  1.00  0.00    -0.034 C 
ATOM     91  C   UNL A   1      41.848  30.963  36.044  1.00  0.00    -0.036 A 
ATOM     92  H   UNL A   1      43.608  29.775  36.497  1.00  0.00     0.065 H 
ATOM     93  C   UNL A   1      41.047  31.011  34.913  1.00  0.00     0.049 A 
ATOM     94  H   UNL A   1      41.165  29.856  33.151  1.00  0.00     0.167 HD
ATOM     95  C   UNL A   1      39.170  31.843  33.522  1.00  0.00     0.074 A 
ATOM     96  C   UNL A   1      38.008  32.676  33.297  1.00  0.00    -0.034 C 
ATOM     97  H   UNL A   1      36.601  32.825  31.701  1.00  0.00     0.065 H 
ATOM     98  H   UNL A   1      41.726  31.536  36.894  1.00  0.00     0.065 H 
ATOM     99  C   UNL A   1      39.912  31.859  34.656  1.00  0.00     0.037 A 
ATOM    100  H   UNL A   1      37.656  33.379  33.966  1.00  0.00     0.065 H 
BRANCH  81 101
ATOM    101  C   UNL A   1      44.521  27.750  34.727  1.00  0.00     0.064 A 
ATOM    102  C   UNL A   1      44.325  26.606  35.515  1.00  0.00     0.173 A 
ATOM    103  C   UNL A   1      45.820  28.274  34.642  1.00  0.00     0.173 A 
ATOM    104  F   UNL A   1      43.100  26.072  35.638  1.00  0.00    -0.203 F 
ATOM    105  C   UNL A   1      45.382  26.027  36.213  1.00  0.00     0.198 A 
ATOM    106  C   UNL A   1      46.880  27.676  35.318  1.00  0.00     0.198 A 
ATOM    107  F   UNL A   1      46.063  29.362  33.896  1.00  0.00    -0.203 F 
ATOM    108  F   UNL A   1      45.162  24.963  36.996  1.00  0.00    -0.200 F 
ATOM    109  C   UNL A   1      46.659  26.558  36.108  1.00  0.00     0.200 A 
ATOM    110  F   UNL A   1      48.116  28.182  35.205  1.00  0.00    -0.200 F 
ATOM    111  F   UNL A   1      47.676  25.996  36.775  1.00  0.00    -0.200 F 
ENDBRANCH  81 101
BRANCH  84 112
ATOM    112  C   UNL A   1      36.930  31.458  29.398  1.00  0.00     0.064 A 
ATOM    113  C   UNL A   1      35.842  30.633  29.082  1.00  0.00     0.173 A 
ATOM    114  C   UNL A   1      36.883  32.791  28.963  1.00  0.00     0.173 A 
ATOM    115  F   UNL A   1      35.844  29.347  29.466  1.00  0.00    -0.203 F 
ATOM    116  C   UNL A   1      34.765  31.111  28.341  1.00  0.00     0.198 A 
ATOM    117  C   UNL A   1      35.796  33.275  28.240  1.00  0.00     0.198 A 
ATOM    118  F   UNL A   1      37.881  33.632  29.268  1.00  0.00    -0.203 F 
ATOM    119  F   UNL A   1      33.757  30.290  28.021  1.00  0.00    -0.200 F 
ATOM    120  C   UNL A   1      34.741  32.434  27.922  1.00  0.00     0.200 A 
ATOM    121  F   UNL A   1      35.765  34.559  27.856  1.00  0.00    -0.200 F 
ATOM    122  F   UNL A   1      33.703  32.894  27.212  1.00  0.00    -0.200 F 
ENDBRANCH  84 112
BRANCH  99 123
ATOM    123  C   UNL A   1      39.541  32.851  35.717  1.00  0.00     0.064 A 
ATOM    124  C   UNL A   1      38.617  32.543  36.725  1.00  0.00     0.173 A 
ATOM    125  C   UNL A   1      40.181  34.099  35.767  1.00  0.00     0.173 A 
ATOM    126  F   UNL A   1      37.970  31.368  36.712  1.00  0.00    -0.203 F 
ATOM    127  C   UNL A   1      38.340  33.454  37.741  1.00  0.00     0.198 A 
ATOM    128  C   UNL A   1      39.920  34.997  36.798  1.00  0.00     0.198 A 
ATOM    129  F   UNL A   1      41.078  34.438  34.829  1.00  0.00    -0.203 F 
ATOM    130  F   UNL A   1      37.432  33.152  38.679  1.00  0.00    -0.200 F 
ATOM    131  C   UNL A   1      38.998  34.675  37.782  1.00  0.00     0.200 A 
ATOM    132  F   UNL A   1      40.566  36.170  36.844  1.00  0.00    -0.200 F 
ATOM    133  F   UNL A   1      38.741  35.543  38.770  1.00  0.00    -0.200 F 
ENDBRANCH  99 123
ENDBRANCH  64  67
ENDBRANCH  54  57
ENDBRANCH  50  53
ENDBRANCH  47  50
ENDBRANCH  44  47
ENDBRANCH  41  44
ENDBRANCH   1  41
TORSDOF 18
ENDMDL
