MODEL 1
REMARK VINA RESULT:     -12.8      0.000      0.000
REMARK SMILES O=C(CNc1nc(-c2ccccc2)c(-c2ccccc2)s1)NCCCCCCNC(=O)c1ccc(-c2c3nc(c(-c4c(F)c(F)c(F)c(F)c4F)c4ccc([nH]4)c(-c4c(F)c(F)c(F)c(F)c4F)c4nc(c(-c5c(F)c(F)c(F)c(F)c5F)c5ccc2[nH]5)C=C4)C=C3)cc1
REMARK SMILES IDX 25 1 24 4 23 7 22 10 1 11 2 12 3 14 4 17 5 19 6 20 21 21
REMARK SMILES IDX 7 22 14 23 8 24 9 25 13 26 10 27 12 29 11 31 15 35 16 36
REMARK SMILES IDX 20 37 17 38 19 40 18 42 26 46 27 49 28 52 29 55 30 56 31 58
REMARK SMILES IDX 32 59 33 60 94 61 34 62 93 64 35 66 36 69 37 70 87 71 38 72
REMARK SMILES IDX 92 73 86 74 88 75 39 76 91 77 85 79 84 81 40 83 72 86 52 87
REMARK SMILES IDX 71 88 53 89 56 90 70 91 89 92 54 93 55 95 69 97 90 98 57 101
REMARK SMILES IDX 41 103 42 104 50 105 43 106 44 107 48 108 51 109 45 110
REMARK SMILES IDX 46 111 49 112 47 113 73 114 74 115 82 116 75 117 76 118
REMARK SMILES IDX 80 119 83 120 77 121 78 122 81 123 79 124 58 125 59 126
REMARK SMILES IDX 67 127 60 128 61 129 65 130 68 131 62 132 63 133 66 134
REMARK SMILES IDX 64 135
REMARK H PARENT 25 2 25 3 24 5 24 6 23 8 23 9 22 13 3 15 3 16 4 18 9 28 13 30
REMARK H PARENT 10 32 12 33 11 34 16 39 20 41 17 43 19 44 18 45 26 47 26 48
REMARK H PARENT 27 50 27 51 28 53 28 54 29 57 33 63 94 65 34 67 93 68 92 78
REMARK H PARENT 86 80 88 82 91 84 85 85 53 94 56 96 89 99 54 100 90 102
REMARK Flexibility Score: inf
ROOT
ATOM      1  C   UNL A   1      33.031  29.964  26.950  1.00  0.00    -0.052 C 
ATOM      2  H   UNL A   1      33.780  30.722  27.044  1.00  0.00     0.027 H 
ATOM      3  H   UNL A   1      32.711  29.554  27.885  1.00  0.00     0.027 H 
ENDROOT
BRANCH   1   4
ATOM      4  C   UNL A   1      33.639  28.793  26.164  1.00  0.00    -0.036 C 
ATOM      5  H   UNL A   1      34.527  29.143  25.679  1.00  0.00     0.028 H 
ATOM      6  H   UNL A   1      33.825  28.017  26.876  1.00  0.00     0.028 H 
BRANCH   4   7
ATOM      7  C   UNL A   1      32.722  28.192  25.100  1.00  0.00     0.017 C 
ATOM      8  H   UNL A   1      32.130  28.974  24.670  1.00  0.00     0.049 H 
ATOM      9  H   UNL A   1      33.334  27.723  24.357  1.00  0.00     0.049 H 
BRANCH   7  10
ATOM     10  N   UNL A   1      31.841  27.189  25.656  1.00  0.00    -0.355 N 
ATOM     11  O   UNL A   1      30.292  27.164  23.951  1.00  0.00    -0.273 OA
ATOM     12  C   UNL A   1      30.687  26.746  25.035  1.00  0.00     0.239 C 
ATOM     13  H   UNL A   1      32.075  26.800  26.529  1.00  0.00     0.163 HD
BRANCH  12  14
ATOM     14  C   UNL A   1      29.922  25.698  25.862  1.00  0.00     0.096 C 
ATOM     15  H   UNL A   1      29.416  25.022  25.205  1.00  0.00     0.059 H 
ATOM     16  H   UNL A   1      29.204  26.187  26.487  1.00  0.00     0.059 H 
BRANCH  14  17
ATOM     17  N   UNL A   1      30.866  24.957  26.689  1.00  0.00    -0.352 N 
ATOM     18  H   UNL A   1      30.936  25.178  27.646  1.00  0.00     0.163 HD
BRANCH  17  19
ATOM     19  C   UNL A   1      31.642  23.982  26.187  1.00  0.00     0.184 A 
ATOM     20  N   UNL A   1      32.919  24.082  25.908  1.00  0.00    -0.220 NA
ATOM     21  S   UNL A   1      30.928  22.460  25.825  1.00  0.00    -0.096 S 
ATOM     22  C   UNL A   1      33.378  22.894  25.358  1.00  0.00     0.091 A 
ATOM     23  C   UNL A   1      32.418  21.909  25.180  1.00  0.00     0.064 A 
BRANCH  22  24
ATOM     24  C   UNL A   1      34.784  22.703  25.032  1.00  0.00     0.002 A 
ATOM     25  C   UNL A   1      35.285  23.039  23.768  1.00  0.00    -0.053 A 
ATOM     26  C   UNL A   1      35.629  22.091  25.966  1.00  0.00    -0.053 A 
ATOM     27  C   UNL A   1      36.604  22.730  23.429  1.00  0.00    -0.062 A 
ATOM     28  H   UNL A   1      34.678  23.516  23.084  1.00  0.00     0.063 H 
ATOM     29  C   UNL A   1      36.947  21.781  25.624  1.00  0.00    -0.062 A 
ATOM     30  H   UNL A   1      35.277  21.871  26.911  1.00  0.00     0.063 H 
ATOM     31  C   UNL A   1      37.431  22.092  24.354  1.00  0.00    -0.062 A 
ATOM     32  H   UNL A   1      36.968  22.975  22.495  1.00  0.00     0.062 H 
ATOM     33  H   UNL A   1      37.563  21.319  26.311  1.00  0.00     0.062 H 
ATOM     34  H   UNL A   1      38.400  21.851  24.099  1.00  0.00     0.062 H 
ENDBRANCH  22  24
BRANCH  23  35
ATOM     35  C   UNL A   1      32.510  20.567  24.607  1.00  0.00    -0.006 A 
ATOM     36  C   UNL A   1      32.783  19.463  25.428  1.00  0.00    -0.053 A 
ATOM     37  C   UNL A   1      32.271  20.358  23.243  1.00  0.00    -0.053 A 
ATOM     38  C   UNL A   1      32.813  18.174  24.893  1.00  0.00    -0.062 A 
ATOM     39  H   UNL A   1      32.963  19.605  26.434  1.00  0.00     0.063 H 
ATOM     40  C   UNL A   1      32.301  19.067  22.709  1.00  0.00    -0.062 A 
ATOM     41  H   UNL A   1      32.072  21.162  22.627  1.00  0.00     0.063 H 
ATOM     42  C   UNL A   1      32.570  17.977  23.535  1.00  0.00    -0.062 A 
ATOM     43  H   UNL A   1      33.015  17.366  25.504  1.00  0.00     0.062 H 
ATOM     44  H   UNL A   1      32.122  18.920  21.704  1.00  0.00     0.062 H 
ATOM     45  H   UNL A   1      32.590  17.024  23.140  1.00  0.00     0.062 H 
ENDBRANCH  23  35
ENDBRANCH  17  19
ENDBRANCH  14  17
ENDBRANCH  12  14
ENDBRANCH   7  10
ENDBRANCH   4   7
ENDBRANCH   1   4
BRANCH   1  46
ATOM     46  C   UNL A   1      31.787  30.604  26.327  1.00  0.00    -0.052 C 
ATOM     47  H   UNL A   1      30.935  30.030  26.626  1.00  0.00     0.027 H 
ATOM     48  H   UNL A   1      31.953  30.604  25.269  1.00  0.00     0.027 H 
BRANCH  46  49
ATOM     49  C   UNL A   1      31.535  32.062  26.714  1.00  0.00    -0.036 C 
ATOM     50  H   UNL A   1      30.722  32.085  27.410  1.00  0.00     0.028 H 
ATOM     51  H   UNL A   1      31.329  32.582  25.802  1.00  0.00     0.028 H 
BRANCH  49  52
ATOM     52  C   UNL A   1      32.723  32.777  27.351  1.00  0.00     0.018 C 
ATOM     53  H   UNL A   1      33.548  32.744  26.671  1.00  0.00     0.049 H 
ATOM     54  H   UNL A   1      32.948  32.278  28.270  1.00  0.00     0.049 H 
BRANCH  52  55
ATOM     55  N   UNL A   1      32.436  34.170  27.666  1.00  0.00    -0.352 N 
ATOM     56  C   UNL A   1      33.007  34.994  28.604  1.00  0.00     0.251 C 
ATOM     57  H   UNL A   1      31.725  34.583  27.124  1.00  0.00     0.163 HD
ATOM     58  O   UNL A   1      32.516  36.097  28.839  1.00  0.00    -0.269 OA
BRANCH  56  59
ATOM     59  C   UNL A   1      34.196  34.548  29.361  1.00  0.00     0.039 A 
ATOM     60  C   UNL A   1      34.023  34.050  30.656  1.00  0.00    -0.049 A 
ATOM     61  C   UNL A   1      35.473  34.611  28.800  1.00  0.00    -0.049 A 
ATOM     62  C   UNL A   1      35.119  33.536  31.353  1.00  0.00    -0.053 A 
ATOM     63  H   UNL A   1      33.089  34.062  31.096  1.00  0.00     0.063 H 
ATOM     64  C   UNL A   1      36.552  34.032  29.466  1.00  0.00    -0.053 A 
ATOM     65  H   UNL A   1      35.618  35.084  27.895  1.00  0.00     0.063 H 
ATOM     66  C   UNL A   1      36.383  33.477  30.744  1.00  0.00    -0.014 A 
ATOM     67  H   UNL A   1      34.999  33.198  32.321  1.00  0.00     0.063 H 
ATOM     68  H   UNL A   1      37.481  34.011  29.016  1.00  0.00     0.063 H 
BRANCH  66  69
ATOM     69  C   UNL A   1      37.527  32.798  31.408  1.00  0.00     0.031 A 
ATOM     70  C   UNL A   1      38.178  31.602  30.778  1.00  0.00     0.074 A 
ATOM     71  C   UNL A   1      37.924  33.215  32.627  1.00  0.00     0.049 A 
ATOM     72  N   UNL A   1      39.130  30.834  31.246  1.00  0.00    -0.248 NA
ATOM     73  C   UNL A   1      37.676  31.200  29.456  1.00  0.00    -0.034 C 
ATOM     74  C   UNL A   1      37.335  34.330  33.369  1.00  0.00    -0.036 A 
ATOM     75  N   UNL A   1      38.900  32.737  33.465  1.00  0.00    -0.354 N 
ATOM     76  C   UNL A   1      39.337  29.858  30.280  1.00  0.00     0.074 A 
ATOM     77  C   UNL A   1      38.370  30.095  29.229  1.00  0.00    -0.034 C 
ATOM     78  H   UNL A   1      36.969  31.658  28.860  1.00  0.00     0.065 H 
ATOM     79  C   UNL A   1      37.967  34.457  34.546  1.00  0.00    -0.036 A 
ATOM     80  H   UNL A   1      36.558  34.924  33.040  1.00  0.00     0.065 H 
ATOM     81  C   UNL A   1      38.973  33.407  34.662  1.00  0.00     0.049 A 
ATOM     82  H   UNL A   1      39.492  31.986  33.230  1.00  0.00     0.167 HD
ATOM     83  C   UNL A   1      40.264  28.869  30.262  1.00  0.00     0.037 A 
ATOM     84  H   UNL A   1      38.239  29.481  28.409  1.00  0.00     0.065 H 
ATOM     85  H   UNL A   1      37.772  35.182  35.255  1.00  0.00     0.065 H 
ATOM     86  C   UNL A   1      39.747  33.188  35.742  1.00  0.00     0.037 A 
ATOM     87  C   UNL A   1      41.222  28.636  31.313  1.00  0.00     0.049 A 
ATOM     88  C   UNL A   1      40.748  32.065  35.715  1.00  0.00     0.074 A 
ATOM     89  C   UNL A   1      42.236  27.697  31.365  1.00  0.00    -0.036 A 
ATOM     90  N   UNL A   1      41.273  29.344  32.507  1.00  0.00    -0.354 N 
ATOM     91  N   UNL A   1      40.988  31.197  34.763  1.00  0.00    -0.248 NA
ATOM     92  C   UNL A   1      41.587  31.895  36.908  1.00  0.00    -0.034 C 
ATOM     93  C   UNL A   1      42.860  27.793  32.614  1.00  0.00    -0.036 A 
ATOM     94  H   UNL A   1      42.489  27.038  30.612  1.00  0.00     0.065 H 
ATOM     95  C   UNL A   1      42.278  28.836  33.317  1.00  0.00     0.049 A 
ATOM     96  H   UNL A   1      40.683  30.095  32.744  1.00  0.00     0.167 HD
ATOM     97  C   UNL A   1      42.015  30.389  35.233  1.00  0.00     0.074 A 
ATOM     98  C   UNL A   1      42.367  30.886  36.548  1.00  0.00    -0.034 C 
ATOM     99  H   UNL A   1      41.572  32.424  37.795  1.00  0.00     0.065 H 
ATOM    100  H   UNL A   1      43.625  27.189  32.953  1.00  0.00     0.065 H 
ATOM    101  C   UNL A   1      42.612  29.331  34.629  1.00  0.00     0.037 A 
ATOM    102  H   UNL A   1      43.128  30.502  37.130  1.00  0.00     0.065 H 
BRANCH  83 103
ATOM    103  C   UNL A   1      40.276  27.958  29.066  1.00  0.00     0.064 A 
ATOM    104  C   UNL A   1      41.025  28.258  27.917  1.00  0.00     0.173 A 
ATOM    105  C   UNL A   1      39.542  26.762  29.072  1.00  0.00     0.173 A 
ATOM    106  F   UNL A   1      41.740  29.391  27.854  1.00  0.00    -0.203 F 
ATOM    107  C   UNL A   1      41.003  27.420  26.805  1.00  0.00     0.198 A 
ATOM    108  C   UNL A   1      39.551  25.908  27.972  1.00  0.00     0.198 A 
ATOM    109  F   UNL A   1      38.816  26.417  30.147  1.00  0.00    -0.203 F 
ATOM    110  F   UNL A   1      41.673  27.762  25.697  1.00  0.00    -0.200 F 
ATOM    111  C   UNL A   1      40.271  26.244  26.835  1.00  0.00     0.200 A 
ATOM    112  F   UNL A   1      38.856  24.762  28.009  1.00  0.00    -0.200 F 
ATOM    113  F   UNL A   1      40.249  25.438  25.765  1.00  0.00    -0.200 F 
ENDBRANCH  83 103
BRANCH  86 114
ATOM    114  C   UNL A   1      39.596  34.056  36.939  1.00  0.00     0.064 A 
ATOM    115  C   UNL A   1      38.813  33.656  38.031  1.00  0.00     0.173 A 
ATOM    116  C   UNL A   1      40.252  35.294  37.025  1.00  0.00     0.173 A 
ATOM    117  F   UNL A   1      38.151  32.491  37.987  1.00  0.00    -0.203 F 
ATOM    118  C   UNL A   1      38.682  34.467  39.157  1.00  0.00     0.198 A 
ATOM    119  C   UNL A   1      40.145  36.088  38.165  1.00  0.00     0.198 A 
ATOM    120  F   UNL A   1      41.018  35.720  36.010  1.00  0.00    -0.203 F 
ATOM    121  F   UNL A   1      37.896  34.077  40.171  1.00  0.00    -0.200 F 
ATOM    122  C   UNL A   1      39.355  35.677  39.227  1.00  0.00     0.200 A 
ATOM    123  F   UNL A   1      40.813  37.247  38.235  1.00  0.00    -0.200 F 
ATOM    124  F   UNL A   1      39.239  36.449  40.316  1.00  0.00    -0.200 F 
ENDBRANCH  86 114
BRANCH 101 125
ATOM    125  C   UNL A   1      43.719  28.645  35.378  1.00  0.00     0.064 A 
ATOM    126  C   UNL A   1      45.064  29.001  35.195  1.00  0.00     0.173 A 
ATOM    127  C   UNL A   1      43.428  27.649  36.323  1.00  0.00     0.173 A 
ATOM    128  F   UNL A   1      45.398  29.935  34.292  1.00  0.00    -0.203 F 
ATOM    129  C   UNL A   1      46.077  28.370  35.913  1.00  0.00     0.198 A 
ATOM    130  C   UNL A   1      44.441  27.044  37.063  1.00  0.00     0.198 A 
ATOM    131  F   UNL A   1      42.159  27.273  36.541  1.00  0.00    -0.203 F 
ATOM    132  F   UNL A   1      47.357  28.693  35.686  1.00  0.00    -0.200 F 
ATOM    133  C   UNL A   1      45.764  27.398  36.852  1.00  0.00     0.200 A 
ATOM    134  F   UNL A   1      44.134  26.116  37.981  1.00  0.00    -0.200 F 
ATOM    135  F   UNL A   1      46.739  26.801  37.550  1.00  0.00    -0.200 F 
ENDBRANCH 101 125
ENDBRANCH  66  69
ENDBRANCH  56  59
ENDBRANCH  52  55
ENDBRANCH  49  52
ENDBRANCH  46  49
ENDBRANCH   1  46
TORSDOF 17
ENDMDL
MODEL 2
REMARK VINA RESULT:     -12.8      0.882      2.136
REMARK SMILES O=C(CNc1nc(-c2ccccc2)c(-c2ccccc2)s1)NCCCCCCNC(=O)c1ccc(-c2c3nc(c(-c4c(F)c(F)c(F)c(F)c4F)c4ccc([nH]4)c(-c4c(F)c(F)c(F)c(F)c4F)c4nc(c(-c5c(F)c(F)c(F)c(F)c5F)c5ccc2[nH]5)C=C4)C=C3)cc1
REMARK SMILES IDX 25 1 24 4 23 7 22 10 1 11 2 12 3 14 4 17 5 19 6 20 21 21
REMARK SMILES IDX 7 22 14 23 8 24 9 25 13 26 10 27 12 29 11 31 15 35 16 36
REMARK SMILES IDX 20 37 17 38 19 40 18 42 26 46 27 49 28 52 29 55 30 56 31 58
REMARK SMILES IDX 32 59 33 60 94 61 34 62 93 64 35 66 36 69 37 70 87 71 38 72
REMARK SMILES IDX 92 73 86 74 88 75 39 76 91 77 85 79 84 81 40 83 72 86 52 87
REMARK SMILES IDX 71 88 53 89 56 90 70 91 89 92 54 93 55 95 69 97 90 98 57 101
REMARK SMILES IDX 41 103 42 104 50 105 43 106 44 107 48 108 51 109 45 110
REMARK SMILES IDX 46 111 49 112 47 113 73 114 74 115 82 116 75 117 76 118
REMARK SMILES IDX 80 119 83 120 77 121 78 122 81 123 79 124 58 125 59 126
REMARK SMILES IDX 67 127 60 128 61 129 65 130 68 131 62 132 63 133 66 134
REMARK SMILES IDX 64 135
REMARK H PARENT 25 2 25 3 24 5 24 6 23 8 23 9 22 13 3 15 3 16 4 18 9 28 13 30
REMARK H PARENT 10 32 12 33 11 34 16 39 20 41 17 43 19 44 18 45 26 47 26 48
REMARK H PARENT 27 50 27 51 28 53 28 54 29 57 33 63 94 65 34 67 93 68 92 78
REMARK H PARENT 86 80 88 82 91 84 85 85 53 94 56 96 89 99 54 100 90 102
REMARK Flexibility Score: inf
ROOT
ATOM      1  C   UNL A   1      33.137  30.039  27.201  1.00  0.00    -0.052 C 
ATOM      2  H   UNL A   1      33.789  30.887  27.226  1.00  0.00     0.027 H 
ATOM      3  H   UNL A   1      33.046  29.536  28.141  1.00  0.00     0.027 H 
ENDROOT
BRANCH   1   4
ATOM      4  C   UNL A   1      33.736  29.011  26.231  1.00  0.00    -0.036 C 
ATOM      5  H   UNL A   1      34.796  29.150  26.210  1.00  0.00     0.028 H 
ATOM      6  H   UNL A   1      33.444  28.048  26.595  1.00  0.00     0.028 H 
BRANCH   4   7
ATOM      7  C   UNL A   1      33.215  29.106  24.797  1.00  0.00     0.017 C 
ATOM      8  H   UNL A   1      32.770  30.067  24.653  1.00  0.00     0.049 H 
ATOM      9  H   UNL A   1      34.042  28.962  24.132  1.00  0.00     0.049 H 
BRANCH   7  10
ATOM     10  N   UNL A   1      32.230  28.086  24.516  1.00  0.00    -0.355 N 
ATOM     11  O   UNL A   1      30.636  29.453  23.570  1.00  0.00    -0.273 OA
ATOM     12  C   UNL A   1      31.008  28.337  23.917  1.00  0.00     0.239 C 
ATOM     13  H   UNL A   1      32.439  27.157  24.767  1.00  0.00     0.163 HD
BRANCH  12  14
ATOM     14  C   UNL A   1      30.140  27.075  23.766  1.00  0.00     0.096 C 
ATOM     15  H   UNL A   1      29.166  27.350  23.418  1.00  0.00     0.059 H 
ATOM     16  H   UNL A   1      30.052  26.584  24.713  1.00  0.00     0.059 H 
BRANCH  14  17
ATOM     17  N   UNL A   1      30.765  26.176  22.804  1.00  0.00    -0.352 N 
ATOM     18  H   UNL A   1      30.613  26.326  21.843  1.00  0.00     0.163 HD
BRANCH  17  19
ATOM     19  C   UNL A   1      31.543  25.150  23.189  1.00  0.00     0.184 A 
ATOM     20  N   UNL A   1      32.835  25.203  23.405  1.00  0.00    -0.220 NA
ATOM     21  S   UNL A   1      30.828  23.599  23.392  1.00  0.00    -0.096 S 
ATOM     22  C   UNL A   1      33.312  23.944  23.739  1.00  0.00     0.091 A 
ATOM     23  C   UNL A   1      32.370  22.927  23.725  1.00  0.00     0.064 A 
BRANCH  22  24
ATOM     24  C   UNL A   1      34.703  23.735  24.111  1.00  0.00     0.002 A 
ATOM     25  C   UNL A   1      35.578  23.034  23.272  1.00  0.00    -0.053 A 
ATOM     26  C   UNL A   1      35.151  24.164  25.367  1.00  0.00    -0.053 A 
ATOM     27  C   UNL A   1      36.873  22.731  23.700  1.00  0.00    -0.062 A 
ATOM     28  H   UNL A   1      35.267  22.741  22.333  1.00  0.00     0.063 H 
ATOM     29  C   UNL A   1      36.444  23.856  25.794  1.00  0.00    -0.062 A 
ATOM     30  H   UNL A   1      34.523  24.709  25.977  1.00  0.00     0.063 H 
ATOM     31  C   UNL A   1      37.301  23.134  24.965  1.00  0.00    -0.062 A 
ATOM     32  H   UNL A   1      37.513  22.211  23.080  1.00  0.00     0.062 H 
ATOM     33  H   UNL A   1      36.766  24.163  26.726  1.00  0.00     0.062 H 
ATOM     34  H   UNL A   1      38.252  22.896  25.287  1.00  0.00     0.062 H 
ENDBRANCH  22  24
BRANCH  23  35
ATOM     35  C   UNL A   1      32.497  21.493  23.978  1.00  0.00    -0.006 A 
ATOM     36  C   UNL A   1      32.783  21.023  25.269  1.00  0.00    -0.053 A 
ATOM     37  C   UNL A   1      32.281  20.566  22.950  1.00  0.00    -0.053 A 
ATOM     38  C   UNL A   1      32.847  19.653  25.525  1.00  0.00    -0.062 A 
ATOM     39  H   UNL A   1      32.947  21.696  26.033  1.00  0.00     0.063 H 
ATOM     40  C   UNL A   1      32.345  19.195  23.208  1.00  0.00    -0.062 A 
ATOM     41  H   UNL A   1      32.073  20.899  21.995  1.00  0.00     0.063 H 
ATOM     42  C   UNL A   1      32.626  18.740  24.495  1.00  0.00    -0.062 A 
ATOM     43  H   UNL A   1      33.058  19.315  26.478  1.00  0.00     0.062 H 
ATOM     44  H   UNL A   1      32.183  18.519  22.446  1.00  0.00     0.062 H 
ATOM     45  H   UNL A   1      32.672  17.727  24.685  1.00  0.00     0.062 H 
ENDBRANCH  23  35
ENDBRANCH  17  19
ENDBRANCH  14  17
ENDBRANCH  12  14
ENDBRANCH   7  10
ENDBRANCH   4   7
ENDBRANCH   1   4
BRANCH   1  46
ATOM     46  C   UNL A   1      31.730  30.536  26.854  1.00  0.00    -0.052 C 
ATOM     47  H   UNL A   1      31.046  30.109  27.557  1.00  0.00     0.027 H 
ATOM     48  H   UNL A   1      31.551  30.233  25.843  1.00  0.00     0.027 H 
BRANCH  46  49
ATOM     49  C   UNL A   1      31.546  32.055  26.878  1.00  0.00    -0.036 C 
ATOM     50  H   UNL A   1      30.758  32.282  27.565  1.00  0.00     0.028 H 
ATOM     51  H   UNL A   1      31.330  32.345  25.871  1.00  0.00     0.028 H 
BRANCH  49  52
ATOM     52  C   UNL A   1      32.779  32.850  27.294  1.00  0.00     0.018 C 
ATOM     53  H   UNL A   1      33.472  32.862  26.478  1.00  0.00     0.049 H 
ATOM     54  H   UNL A   1      33.196  32.376  28.158  1.00  0.00     0.049 H 
BRANCH  52  55
ATOM     55  N   UNL A   1      32.464  34.225  27.656  1.00  0.00    -0.352 N 
ATOM     56  C   UNL A   1      33.010  35.024  28.630  1.00  0.00     0.251 C 
ATOM     57  H   UNL A   1      31.752  34.645  27.122  1.00  0.00     0.163 HD
ATOM     58  O   UNL A   1      32.497  36.109  28.899  1.00  0.00    -0.269 OA
BRANCH  56  59
ATOM     59  C   UNL A   1      34.199  34.572  29.384  1.00  0.00     0.039 A 
ATOM     60  C   UNL A   1      34.022  34.033  30.662  1.00  0.00    -0.049 A 
ATOM     61  C   UNL A   1      35.480  34.668  28.836  1.00  0.00    -0.049 A 
ATOM     62  C   UNL A   1      35.119  33.513  31.353  1.00  0.00    -0.053 A 
ATOM     63  H   UNL A   1      33.085  34.019  31.094  1.00  0.00     0.063 H 
ATOM     64  C   UNL A   1      36.561  34.085  29.494  1.00  0.00    -0.053 A 
ATOM     65  H   UNL A   1      35.626  35.171  27.947  1.00  0.00     0.063 H 
ATOM     66  C   UNL A   1      36.389  33.490  30.754  1.00  0.00    -0.014 A 
ATOM     67  H   UNL A   1      34.996  33.144  32.309  1.00  0.00     0.063 H 
ATOM     68  H   UNL A   1      37.494  34.090  29.052  1.00  0.00     0.063 H 
BRANCH  66  69
ATOM     69  C   UNL A   1      37.536  32.807  31.407  1.00  0.00     0.031 A 
ATOM     70  C   UNL A   1      38.184  31.614  30.766  1.00  0.00     0.074 A 
ATOM     71  C   UNL A   1      37.940  33.216  32.626  1.00  0.00     0.049 A 
ATOM     72  N   UNL A   1      39.138  30.842  31.224  1.00  0.00    -0.248 NA
ATOM     73  C   UNL A   1      37.673  31.219  29.445  1.00  0.00    -0.034 C 
ATOM     74  C   UNL A   1      37.356  34.327  33.377  1.00  0.00    -0.036 A 
ATOM     75  N   UNL A   1      38.922  32.733  33.455  1.00  0.00    -0.354 N 
ATOM     76  C   UNL A   1      39.339  29.872  30.252  1.00  0.00     0.074 A 
ATOM     77  C   UNL A   1      38.366  30.115  29.208  1.00  0.00    -0.034 C 
ATOM     78  H   UNL A   1      36.963  31.681  28.856  1.00  0.00     0.065 H 
ATOM     79  C   UNL A   1      37.995  34.447  34.552  1.00  0.00    -0.036 A 
ATOM     80  H   UNL A   1      36.578  34.923  33.056  1.00  0.00     0.065 H 
ATOM     81  C   UNL A   1      39.002  33.396  34.656  1.00  0.00     0.049 A 
ATOM     82  H   UNL A   1      39.512  31.983  33.213  1.00  0.00     0.167 HD
ATOM     83  C   UNL A   1      40.265  28.883  30.222  1.00  0.00     0.037 A 
ATOM     84  H   UNL A   1      38.230  29.507  28.385  1.00  0.00     0.065 H 
ATOM     85  H   UNL A   1      37.805  35.168  35.266  1.00  0.00     0.065 H 
ATOM     86  C   UNL A   1      39.782  33.170  35.730  1.00  0.00     0.037 A 
ATOM     87  C   UNL A   1      41.230  28.644  31.266  1.00  0.00     0.049 A 
ATOM     88  C   UNL A   1      40.782  32.047  35.690  1.00  0.00     0.074 A 
ATOM     89  C   UNL A   1      42.244  27.704  31.307  1.00  0.00    -0.036 A 
ATOM     90  N   UNL A   1      41.288  29.345  32.464  1.00  0.00    -0.354 N 
ATOM     91  N   UNL A   1      41.017  31.184  34.732  1.00  0.00    -0.248 NA
ATOM     92  C   UNL A   1      41.628  31.870  36.878  1.00  0.00    -0.034 C 
ATOM     93  C   UNL A   1      42.875  27.793  32.552  1.00  0.00    -0.036 A 
ATOM     94  H   UNL A   1      42.492  27.049  30.548  1.00  0.00     0.065 H 
ATOM     95  C   UNL A   1      42.297  28.831  33.265  1.00  0.00     0.049 A 
ATOM     96  H   UNL A   1      40.699  30.095  32.709  1.00  0.00     0.167 HD
ATOM     97  C   UNL A   1      42.046  30.374  35.191  1.00  0.00     0.074 A 
ATOM     98  C   UNL A   1      42.406  30.863  36.507  1.00  0.00    -0.034 C 
ATOM     99  H   UNL A   1      41.619  32.394  37.767  1.00  0.00     0.065 H 
ATOM    100  H   UNL A   1      43.642  27.186  32.884  1.00  0.00     0.065 H 
ATOM    101  C   UNL A   1      42.639  29.320  34.578  1.00  0.00     0.037 A 
ATOM    102  H   UNL A   1      43.171  30.476  37.082  1.00  0.00     0.065 H 
BRANCH  83 103
ATOM    103  C   UNL A   1      40.270  27.978  29.021  1.00  0.00     0.064 A 
ATOM    104  C   UNL A   1      39.544  26.777  28.999  1.00  0.00     0.173 A 
ATOM    105  C   UNL A   1      40.998  28.322  27.872  1.00  0.00     0.173 A 
ATOM    106  F   UNL A   1      38.836  26.396  30.073  1.00  0.00    -0.203 F 
ATOM    107  C   UNL A   1      39.582  25.934  27.891  1.00  0.00     0.198 A 
ATOM    108  C   UNL A   1      41.005  27.494  26.752  1.00  0.00     0.198 A 
ATOM    109  F   UNL A   1      41.702  29.463  27.831  1.00  0.00    -0.203 F 
ATOM    110  F   UNL A   1      38.935  24.761  27.921  1.00  0.00    -0.200 F 
ATOM    111  C   UNL A   1      40.308  26.295  26.767  1.00  0.00     0.200 A 
ATOM    112  F   UNL A   1      41.694  27.853  25.659  1.00  0.00    -0.200 F 
ATOM    113  F   UNL A   1      40.345  25.484  25.702  1.00  0.00    -0.200 F 
ENDBRANCH  83 103
BRANCH  86 114
ATOM    114  C   UNL A   1      39.639  34.032  36.933  1.00  0.00     0.064 A 
ATOM    115  C   UNL A   1      40.270  35.281  37.009  1.00  0.00     0.173 A 
ATOM    116  C   UNL A   1      38.849  33.633  38.022  1.00  0.00     0.173 A 
ATOM    117  F   UNL A   1      41.051  35.697  36.002  1.00  0.00    -0.203 F 
ATOM    118  C   UNL A   1      40.126  36.092  38.133  1.00  0.00     0.198 A 
ATOM    119  C   UNL A   1      38.680  34.459  39.131  1.00  0.00     0.198 A 
ATOM    120  F   UNL A   1      38.218  32.449  37.997  1.00  0.00    -0.203 F 
ATOM    121  F   UNL A   1      40.771  37.266  38.195  1.00  0.00    -0.200 F 
ATOM    122  C   UNL A   1      39.324  35.685  39.188  1.00  0.00     0.200 A 
ATOM    123  F   UNL A   1      37.890  34.069  40.139  1.00  0.00    -0.200 F 
ATOM    124  F   UNL A   1      39.176  36.472  40.263  1.00  0.00    -0.200 F 
ENDBRANCH  86 114
BRANCH 101 125
ATOM    125  C   UNL A   1      43.751  28.628  35.316  1.00  0.00     0.064 A 
ATOM    126  C   UNL A   1      43.498  27.588  36.223  1.00  0.00     0.173 A 
ATOM    127  C   UNL A   1      45.089  28.980  35.080  1.00  0.00     0.173 A 
ATOM    128  F   UNL A   1      42.236  27.224  36.498  1.00  0.00    -0.203 F 
ATOM    129  C   UNL A   1      44.541  26.943  36.883  1.00  0.00     0.198 A 
ATOM    130  C   UNL A   1      46.131  28.310  35.716  1.00  0.00     0.198 A 
ATOM    131  F   UNL A   1      45.388  29.964  34.218  1.00  0.00    -0.203 F 
ATOM    132  F   UNL A   1      44.272  25.986  37.781  1.00  0.00    -0.200 F 
ATOM    133  C   UNL A   1      45.856  27.298  36.622  1.00  0.00     0.200 A 
ATOM    134  F   UNL A   1      47.401  28.645  35.451  1.00  0.00    -0.200 F 
ATOM    135  F   UNL A   1      46.858  26.668  37.250  1.00  0.00    -0.200 F 
ENDBRANCH 101 125
ENDBRANCH  66  69
ENDBRANCH  56  59
ENDBRANCH  52  55
ENDBRANCH  49  52
ENDBRANCH  46  49
ENDBRANCH   1  46
TORSDOF 17
ENDMDL
MODEL 3
REMARK VINA RESULT:     -12.5      0.831      2.602
REMARK SMILES O=C(CNc1nc(-c2ccccc2)c(-c2ccccc2)s1)NCCCCCCNC(=O)c1ccc(-c2c3nc(c(-c4c(F)c(F)c(F)c(F)c4F)c4ccc([nH]4)c(-c4c(F)c(F)c(F)c(F)c4F)c4nc(c(-c5c(F)c(F)c(F)c(F)c5F)c5ccc2[nH]5)C=C4)C=C3)cc1
REMARK SMILES IDX 25 1 24 4 23 7 22 10 1 11 2 12 3 14 4 17 5 19 6 20 21 21
REMARK SMILES IDX 7 22 14 23 8 24 9 25 13 26 10 27 12 29 11 31 15 35 16 36
REMARK SMILES IDX 20 37 17 38 19 40 18 42 26 46 27 49 28 52 29 55 30 56 31 58
REMARK SMILES IDX 32 59 33 60 94 61 34 62 93 64 35 66 36 69 37 70 87 71 38 72
REMARK SMILES IDX 92 73 86 74 88 75 39 76 91 77 85 79 84 81 40 83 72 86 52 87
REMARK SMILES IDX 71 88 53 89 56 90 70 91 89 92 54 93 55 95 69 97 90 98 57 101
REMARK SMILES IDX 41 103 42 104 50 105 43 106 44 107 48 108 51 109 45 110
REMARK SMILES IDX 46 111 49 112 47 113 73 114 74 115 82 116 75 117 76 118
REMARK SMILES IDX 80 119 83 120 77 121 78 122 81 123 79 124 58 125 59 126
REMARK SMILES IDX 67 127 60 128 61 129 65 130 68 131 62 132 63 133 66 134
REMARK SMILES IDX 64 135
REMARK H PARENT 25 2 25 3 24 5 24 6 23 8 23 9 22 13 3 15 3 16 4 18 9 28 13 30
REMARK H PARENT 10 32 12 33 11 34 16 39 20 41 17 43 19 44 18 45 26 47 26 48
REMARK H PARENT 27 50 27 51 28 53 28 54 29 57 33 63 94 65 34 67 93 68 92 78
REMARK H PARENT 86 80 88 82 91 84 85 85 53 94 56 96 89 99 54 100 90 102
REMARK Flexibility Score: inf
ROOT
ATOM      1  C   UNL A   1      32.802  29.897  27.162  1.00  0.00    -0.052 C 
ATOM      2  H   UNL A   1      33.713  30.221  26.705  1.00  0.00     0.027 H 
ATOM      3  H   UNL A   1      32.699  30.200  28.183  1.00  0.00     0.027 H 
ENDROOT
BRANCH   1   4
ATOM      4  C   UNL A   1      32.801  28.361  27.178  1.00  0.00    -0.036 C 
ATOM      5  H   UNL A   1      33.791  28.025  26.950  1.00  0.00     0.028 H 
ATOM      6  H   UNL A   1      32.471  28.071  28.153  1.00  0.00     0.028 H 
BRANCH   4   7
ATOM      7  C   UNL A   1      31.838  27.713  26.185  1.00  0.00     0.017 C 
ATOM      8  H   UNL A   1      30.908  28.242  26.207  1.00  0.00     0.049 H 
ATOM      9  H   UNL A   1      32.281  27.758  25.211  1.00  0.00     0.049 H 
BRANCH   7  10
ATOM     10  N   UNL A   1      31.595  26.323  26.503  1.00  0.00    -0.355 N 
ATOM     11  O   UNL A   1      29.623  26.082  25.336  1.00  0.00    -0.273 OA
ATOM     12  C   UNL A   1      30.500  25.608  26.050  1.00  0.00     0.239 C 
ATOM     13  H   UNL A   1      32.245  25.859  27.078  1.00  0.00     0.163 HD
BRANCH  12  14
ATOM     14  C   UNL A   1      30.473  24.158  26.566  1.00  0.00     0.096 C 
ATOM     15  H   UNL A   1      29.589  24.002  27.148  1.00  0.00     0.059 H 
ATOM     16  H   UNL A   1      31.334  23.978  27.177  1.00  0.00     0.059 H 
BRANCH  14  17
ATOM     17  N   UNL A   1      30.478  23.244  25.432  1.00  0.00    -0.352 N 
ATOM     18  H   UNL A   1      29.725  23.268  24.798  1.00  0.00     0.163 HD
BRANCH  17  19
ATOM     19  C   UNL A   1      31.479  22.372  25.223  1.00  0.00     0.184 A 
ATOM     20  N   UNL A   1      31.356  21.070  25.122  1.00  0.00    -0.220 NA
ATOM     21  S   UNL A   1      33.088  22.968  25.111  1.00  0.00    -0.096 S 
ATOM     22  C   UNL A   1      32.604  20.488  24.960  1.00  0.00     0.091 A 
ATOM     23  C   UNL A   1      33.679  21.364  24.989  1.00  0.00     0.064 A 
BRANCH  22  24
ATOM     24  C   UNL A   1      32.750  19.057  24.739  1.00  0.00     0.002 A 
ATOM     25  C   UNL A   1      32.851  18.166  25.815  1.00  0.00    -0.053 A 
ATOM     26  C   UNL A   1      32.881  18.573  23.431  1.00  0.00    -0.053 A 
ATOM     27  C   UNL A   1      33.120  16.814  25.587  1.00  0.00    -0.062 A 
ATOM     28  H   UNL A   1      32.727  18.508  26.780  1.00  0.00     0.063 H 
ATOM     29  C   UNL A   1      33.153  17.222  23.206  1.00  0.00    -0.062 A 
ATOM     30  H   UNL A   1      32.774  19.217  22.632  1.00  0.00     0.063 H 
ATOM     31  C   UNL A   1      33.280  16.346  24.282  1.00  0.00    -0.062 A 
ATOM     32  H   UNL A   1      33.198  16.162  26.382  1.00  0.00     0.062 H 
ATOM     33  H   UNL A   1      33.261  16.872  22.241  1.00  0.00     0.062 H 
ATOM     34  H   UNL A   1      33.494  15.350  24.115  1.00  0.00     0.062 H 
ENDBRANCH  22  24
BRANCH  23  35
ATOM     35  C   UNL A   1      35.118  21.125  24.893  1.00  0.00    -0.006 A 
ATOM     36  C   UNL A   1      36.012  22.204  24.818  1.00  0.00    -0.053 A 
ATOM     37  C   UNL A   1      35.628  19.821  24.931  1.00  0.00    -0.053 A 
ATOM     38  C   UNL A   1      37.389  21.980  24.786  1.00  0.00    -0.062 A 
ATOM     39  H   UNL A   1      35.648  23.169  24.786  1.00  0.00     0.063 H 
ATOM     40  C   UNL A   1      37.007  19.599  24.900  1.00  0.00    -0.062 A 
ATOM     41  H   UNL A   1      34.981  19.019  24.984  1.00  0.00     0.063 H 
ATOM     42  C   UNL A   1      37.885  20.679  24.828  1.00  0.00    -0.062 A 
ATOM     43  H   UNL A   1      38.041  22.779  24.730  1.00  0.00     0.062 H 
ATOM     44  H   UNL A   1      37.375  18.636  24.930  1.00  0.00     0.062 H 
ATOM     45  H   UNL A   1      38.904  20.514  24.807  1.00  0.00     0.062 H 
ENDBRANCH  23  35
ENDBRANCH  17  19
ENDBRANCH  14  17
ENDBRANCH  12  14
ENDBRANCH   7  10
ENDBRANCH   4   7
ENDBRANCH   1   4
BRANCH   1  46
ATOM     46  C   UNL A   1      31.638  30.552  26.411  1.00  0.00    -0.052 C 
ATOM     47  H   UNL A   1      30.728  30.120  26.772  1.00  0.00     0.027 H 
ATOM     48  H   UNL A   1      31.818  30.369  25.372  1.00  0.00     0.027 H 
BRANCH  46  49
ATOM     49  C   UNL A   1      31.533  32.071  26.561  1.00  0.00    -0.036 C 
ATOM     50  H   UNL A   1      30.596  32.294  27.028  1.00  0.00     0.028 H 
ATOM     51  H   UNL A   1      31.624  32.474  25.574  1.00  0.00     0.028 H 
BRANCH  49  52
ATOM     52  C   UNL A   1      32.639  32.719  27.388  1.00  0.00     0.018 C 
ATOM     53  H   UNL A   1      33.559  32.651  26.845  1.00  0.00     0.049 H 
ATOM     54  H   UNL A   1      32.694  32.198  28.322  1.00  0.00     0.049 H 
BRANCH  52  55
ATOM     55  N   UNL A   1      32.373  34.120  27.680  1.00  0.00    -0.352 N 
ATOM     56  C   UNL A   1      32.971  34.957  28.591  1.00  0.00     0.251 C 
ATOM     57  H   UNL A   1      31.656  34.530  27.145  1.00  0.00     0.163 HD
ATOM     58  O   UNL A   1      32.497  36.069  28.813  1.00  0.00    -0.269 OA
BRANCH  56  59
ATOM     59  C   UNL A   1      34.171  34.513  29.333  1.00  0.00     0.039 A 
ATOM     60  C   UNL A   1      34.015  34.013  30.629  1.00  0.00    -0.049 A 
ATOM     61  C   UNL A   1      35.442  34.580  28.756  1.00  0.00    -0.049 A 
ATOM     62  C   UNL A   1      35.121  33.500  31.312  1.00  0.00    -0.053 A 
ATOM     63  H   UNL A   1      33.087  34.021  31.080  1.00  0.00     0.063 H 
ATOM     64  C   UNL A   1      36.529  34.003  29.409  1.00  0.00    -0.053 A 
ATOM     65  H   UNL A   1      35.574  35.055  27.850  1.00  0.00     0.063 H 
ATOM     66  C   UNL A   1      36.378  33.446  30.688  1.00  0.00    -0.014 A 
ATOM     67  H   UNL A   1      35.014  33.161  32.281  1.00  0.00     0.063 H 
ATOM     68  H   UNL A   1      37.453  33.985  28.947  1.00  0.00     0.063 H 
BRANCH  66  69
ATOM     69  C   UNL A   1      37.531  32.770  31.337  1.00  0.00     0.031 A 
ATOM     70  C   UNL A   1      38.185  31.583  30.692  1.00  0.00     0.074 A 
ATOM     71  C   UNL A   1      37.935  33.179  32.556  1.00  0.00     0.049 A 
ATOM     72  N   UNL A   1      39.146  30.817  31.146  1.00  0.00    -0.248 NA
ATOM     73  C   UNL A   1      37.675  31.188  29.370  1.00  0.00    -0.034 C 
ATOM     74  C   UNL A   1      37.345  34.284  33.311  1.00  0.00    -0.036 A 
ATOM     75  N   UNL A   1      38.922  32.701  33.382  1.00  0.00    -0.354 N 
ATOM     76  C   UNL A   1      39.351  29.851  30.171  1.00  0.00     0.074 A 
ATOM     77  C   UNL A   1      38.375  30.089  29.129  1.00  0.00    -0.034 C 
ATOM     78  H   UNL A   1      36.960  31.646  28.784  1.00  0.00     0.065 H 
ATOM     79  C   UNL A   1      37.985  34.406  34.485  1.00  0.00    -0.036 A 
ATOM     80  H   UNL A   1      36.561  34.876  32.994  1.00  0.00     0.065 H 
ATOM     81  C   UNL A   1      38.999  33.361  34.584  1.00  0.00     0.049 A 
ATOM     82  H   UNL A   1      39.516  31.955  33.137  1.00  0.00     0.167 HD
ATOM     83  C   UNL A   1      40.285  28.868  30.137  1.00  0.00     0.037 A 
ATOM     84  H   UNL A   1      38.241  29.482  28.305  1.00  0.00     0.065 H 
ATOM     85  H   UNL A   1      37.792  35.124  35.201  1.00  0.00     0.065 H 
ATOM     86  C   UNL A   1      39.783  33.139  35.656  1.00  0.00     0.037 A 
ATOM     87  C   UNL A   1      41.253  28.633  31.178  1.00  0.00     0.049 A 
ATOM     88  C   UNL A   1      40.791  32.022  35.612  1.00  0.00     0.074 A 
ATOM     89  C   UNL A   1      42.274  27.701  31.214  1.00  0.00    -0.036 A 
ATOM     90  N   UNL A   1      41.309  29.331  32.377  1.00  0.00    -0.354 N 
ATOM     91  N   UNL A   1      41.030  31.164  34.651  1.00  0.00    -0.248 NA
ATOM     92  C   UNL A   1      41.641  31.849  36.797  1.00  0.00    -0.034 C 
ATOM     93  C   UNL A   1      42.907  27.790  32.459  1.00  0.00    -0.036 A 
ATOM     94  H   UNL A   1      42.525  27.049  30.454  1.00  0.00     0.065 H 
ATOM     95  C   UNL A   1      42.324  28.823  33.175  1.00  0.00     0.049 A 
ATOM     96  H   UNL A   1      40.716  30.077  32.626  1.00  0.00     0.167 HD
ATOM     97  C   UNL A   1      42.066  30.359  35.106  1.00  0.00     0.074 A 
ATOM     98  C   UNL A   1      42.425  30.848  36.422  1.00  0.00    -0.034 C 
ATOM     99  H   UNL A   1      41.630  32.370  37.688  1.00  0.00     0.065 H 
ATOM    100  H   UNL A   1      43.678  27.189  32.787  1.00  0.00     0.065 H 
ATOM    101  C   UNL A   1      42.665  29.311  34.489  1.00  0.00     0.037 A 
ATOM    102  H   UNL A   1      43.194  30.465  36.994  1.00  0.00     0.065 H 
BRANCH  83 103
ATOM    103  C   UNL A   1      40.294  27.967  28.933  1.00  0.00     0.064 A 
ATOM    104  C   UNL A   1      39.584  26.755  28.914  1.00  0.00     0.173 A 
ATOM    105  C   UNL A   1      41.008  28.323  27.779  1.00  0.00     0.173 A 
ATOM    106  F   UNL A   1      38.889  26.362  29.992  1.00  0.00    -0.203 F 
ATOM    107  C   UNL A   1      39.626  25.915  27.804  1.00  0.00     0.198 A 
ATOM    108  C   UNL A   1      41.018  27.498  26.658  1.00  0.00     0.198 A 
ATOM    109  F   UNL A   1      41.696  29.474  27.736  1.00  0.00    -0.203 F 
ATOM    110  F   UNL A   1      38.994  24.734  27.835  1.00  0.00    -0.200 F 
ATOM    111  C   UNL A   1      40.338  26.290  26.675  1.00  0.00     0.200 A 
ATOM    112  F   UNL A   1      41.694  27.869  25.560  1.00  0.00    -0.200 F 
ATOM    113  F   UNL A   1      40.378  25.481  25.607  1.00  0.00    -0.200 F 
ENDBRANCH  83 103
BRANCH  86 114
ATOM    114  C   UNL A   1      39.637  33.996  36.861  1.00  0.00     0.064 A 
ATOM    115  C   UNL A   1      40.248  35.256  36.933  1.00  0.00     0.173 A 
ATOM    116  C   UNL A   1      38.864  33.582  37.957  1.00  0.00     0.173 A 
ATOM    117  F   UNL A   1      41.013  35.686  35.919  1.00  0.00    -0.203 F 
ATOM    118  C   UNL A   1      40.100  36.063  38.060  1.00  0.00     0.198 A 
ATOM    119  C   UNL A   1      38.692  34.404  39.069  1.00  0.00     0.198 A 
ATOM    120  F   UNL A   1      38.254  32.388  37.936  1.00  0.00    -0.203 F 
ATOM    121  F   UNL A   1      40.726  37.247  38.117  1.00  0.00    -0.200 F 
ATOM    122  C   UNL A   1      39.315  35.641  39.121  1.00  0.00     0.200 A 
ATOM    123  F   UNL A   1      37.917  33.999  40.084  1.00  0.00    -0.200 F 
ATOM    124  F   UNL A   1      39.163  36.424  40.198  1.00  0.00    -0.200 F 
ENDBRANCH  86 114
BRANCH 101 125
ATOM    125  C   UNL A   1      43.783  28.625  35.223  1.00  0.00     0.064 A 
ATOM    126  C   UNL A   1      45.122  29.007  35.049  1.00  0.00     0.173 A 
ATOM    127  C   UNL A   1      43.508  27.604  36.146  1.00  0.00     0.173 A 
ATOM    128  F   UNL A   1      45.441  29.967  34.167  1.00  0.00    -0.203 F 
ATOM    129  C   UNL A   1      46.144  28.376  35.753  1.00  0.00     0.198 A 
ATOM    130  C   UNL A   1      44.529  26.999  36.873  1.00  0.00     0.198 A 
ATOM    131  F   UNL A   1      42.244  27.203  36.354  1.00  0.00    -0.203 F 
ATOM    132  F   UNL A   1      47.419  28.725  35.534  1.00  0.00    -0.200 F 
ATOM    133  C   UNL A   1      45.846  27.379  36.671  1.00  0.00     0.200 A 
ATOM    134  F   UNL A   1      44.237  26.046  37.769  1.00  0.00    -0.200 F 
ATOM    135  F   UNL A   1      46.831  26.782  37.356  1.00  0.00    -0.200 F 
ENDBRANCH 101 125
ENDBRANCH  66  69
ENDBRANCH  56  59
ENDBRANCH  52  55
ENDBRANCH  49  52
ENDBRANCH  46  49
ENDBRANCH   1  46
TORSDOF 17
ENDMDL
MODEL 4
REMARK VINA RESULT:     -12.3      5.767     11.232
REMARK SMILES O=C(CNc1nc(-c2ccccc2)c(-c2ccccc2)s1)NCCCCCCNC(=O)c1ccc(-c2c3nc(c(-c4c(F)c(F)c(F)c(F)c4F)c4ccc([nH]4)c(-c4c(F)c(F)c(F)c(F)c4F)c4nc(c(-c5c(F)c(F)c(F)c(F)c5F)c5ccc2[nH]5)C=C4)C=C3)cc1
REMARK SMILES IDX 25 1 24 4 23 7 22 10 1 11 2 12 3 14 4 17 5 19 6 20 21 21
REMARK SMILES IDX 7 22 14 23 8 24 9 25 13 26 10 27 12 29 11 31 15 35 16 36
REMARK SMILES IDX 20 37 17 38 19 40 18 42 26 46 27 49 28 52 29 55 30 56 31 58
REMARK SMILES IDX 32 59 33 60 94 61 34 62 93 64 35 66 36 69 37 70 87 71 38 72
REMARK SMILES IDX 92 73 86 74 88 75 39 76 91 77 85 79 84 81 40 83 72 86 52 87
REMARK SMILES IDX 71 88 53 89 56 90 70 91 89 92 54 93 55 95 69 97 90 98 57 101
REMARK SMILES IDX 41 103 42 104 50 105 43 106 44 107 48 108 51 109 45 110
REMARK SMILES IDX 46 111 49 112 47 113 73 114 74 115 82 116 75 117 76 118
REMARK SMILES IDX 80 119 83 120 77 121 78 122 81 123 79 124 58 125 59 126
REMARK SMILES IDX 67 127 60 128 61 129 65 130 68 131 62 132 63 133 66 134
REMARK SMILES IDX 64 135
REMARK H PARENT 25 2 25 3 24 5 24 6 23 8 23 9 22 13 3 15 3 16 4 18 9 28 13 30
REMARK H PARENT 10 32 12 33 11 34 16 39 20 41 17 43 19 44 18 45 26 47 26 48
REMARK H PARENT 27 50 27 51 28 53 28 54 29 57 33 63 94 65 34 67 93 68 92 78
REMARK H PARENT 86 80 88 82 91 84 85 85 53 94 56 96 89 99 54 100 90 102
REMARK Flexibility Score: inf
ROOT
ATOM      1  C   UNL A   1      37.769  22.877  25.205  1.00  0.00    -0.052 C 
ATOM      2  H   UNL A   1      37.933  23.688  24.528  1.00  0.00     0.027 H 
ATOM      3  H   UNL A   1      37.681  21.925  24.724  1.00  0.00     0.027 H 
ENDROOT
BRANCH   1   4
ATOM      4  C   UNL A   1      36.427  23.115  25.912  1.00  0.00    -0.036 C 
ATOM      5  H   UNL A   1      36.628  23.535  26.876  1.00  0.00     0.028 H 
ATOM      6  H   UNL A   1      35.863  23.766  25.278  1.00  0.00     0.028 H 
BRANCH   4   7
ATOM      7  C   UNL A   1      35.576  21.861  26.109  1.00  0.00     0.017 C 
ATOM      8  H   UNL A   1      36.126  21.011  25.763  1.00  0.00     0.049 H 
ATOM      9  H   UNL A   1      35.349  21.771  27.151  1.00  0.00     0.049 H 
BRANCH   7  10
ATOM     10  N   UNL A   1      34.329  21.940  25.382  1.00  0.00    -0.355 N 
ATOM     11  O   UNL A   1      34.278  19.765  24.625  1.00  0.00    -0.273 OA
ATOM     12  C   UNL A   1      33.769  20.879  24.693  1.00  0.00     0.239 C 
ATOM     13  H   UNL A   1      33.850  22.800  25.376  1.00  0.00     0.163 HD
BRANCH  12  14
ATOM     14  C   UNL A   1      32.454  21.249  23.983  1.00  0.00     0.096 C 
ATOM     15  H   UNL A   1      31.942  20.356  23.690  1.00  0.00     0.059 H 
ATOM     16  H   UNL A   1      32.668  21.835  23.114  1.00  0.00     0.059 H 
BRANCH  14  17
ATOM     17  N   UNL A   1      31.615  22.014  24.896  1.00  0.00    -0.352 N 
ATOM     18  H   UNL A   1      31.091  21.534  25.577  1.00  0.00     0.163 HD
BRANCH  17  19
ATOM     19  C   UNL A   1      31.534  23.354  24.836  1.00  0.00     0.184 A 
ATOM     20  N   UNL A   1      32.049  24.195  25.701  1.00  0.00    -0.220 NA
ATOM     21  S   UNL A   1      30.653  24.075  23.548  1.00  0.00    -0.096 S 
ATOM     22  C   UNL A   1      31.725  25.496  25.347  1.00  0.00     0.091 A 
ATOM     23  C   UNL A   1      30.916  25.626  24.229  1.00  0.00     0.064 A 
BRANCH  22  24
ATOM     24  C   UNL A   1      32.241  26.635  26.092  1.00  0.00     0.002 A 
ATOM     25  C   UNL A   1      31.409  27.387  26.931  1.00  0.00    -0.053 A 
ATOM     26  C   UNL A   1      33.568  27.038  25.899  1.00  0.00    -0.053 A 
ATOM     27  C   UNL A   1      31.888  28.551  27.537  1.00  0.00    -0.062 A 
ATOM     28  H   UNL A   1      30.439  27.081  27.103  1.00  0.00     0.063 H 
ATOM     29  C   UNL A   1      34.043  28.204  26.503  1.00  0.00    -0.062 A 
ATOM     30  H   UNL A   1      34.197  26.472  25.309  1.00  0.00     0.063 H 
ATOM     31  C   UNL A   1      33.201  28.964  27.314  1.00  0.00    -0.062 A 
ATOM     32  H   UNL A   1      31.270  29.105  28.151  1.00  0.00     0.062 H 
ATOM     33  H   UNL A   1      35.018  28.505  26.348  1.00  0.00     0.062 H 
ATOM     34  H   UNL A   1      33.550  29.832  27.750  1.00  0.00     0.062 H 
ENDBRANCH  22  24
BRANCH  23  35
ATOM     35  C   UNL A   1      30.344  26.808  23.586  1.00  0.00    -0.006 A 
ATOM     36  C   UNL A   1      28.971  27.077  23.687  1.00  0.00    -0.053 A 
ATOM     37  C   UNL A   1      31.166  27.718  22.909  1.00  0.00    -0.053 A 
ATOM     38  C   UNL A   1      28.433  28.235  23.125  1.00  0.00    -0.062 A 
ATOM     39  H   UNL A   1      28.355  26.412  24.181  1.00  0.00     0.063 H 
ATOM     40  C   UNL A   1      30.627  28.878  22.348  1.00  0.00    -0.062 A 
ATOM     41  H   UNL A   1      32.178  27.532  22.825  1.00  0.00     0.063 H 
ATOM     42  C   UNL A   1      29.261  29.135  22.457  1.00  0.00    -0.062 A 
ATOM     43  H   UNL A   1      27.421  28.425  23.203  1.00  0.00     0.062 H 
ATOM     44  H   UNL A   1      31.239  29.544  21.852  1.00  0.00     0.062 H 
ATOM     45  H   UNL A   1      28.863  29.992  22.043  1.00  0.00     0.062 H 
ENDBRANCH  23  35
ENDBRANCH  17  19
ENDBRANCH  14  17
ENDBRANCH  12  14
ENDBRANCH   7  10
ENDBRANCH   4   7
ENDBRANCH   1   4
BRANCH   1  46
ATOM     46  C   UNL A   1      38.991  22.773  26.122  1.00  0.00    -0.052 C 
ATOM     47  H   UNL A   1      38.806  23.373  26.988  1.00  0.00     0.027 H 
ATOM     48  H   UNL A   1      39.826  23.106  25.540  1.00  0.00     0.027 H 
BRANCH  46  49
ATOM     49  C   UNL A   1      39.342  21.360  26.591  1.00  0.00    -0.036 C 
ATOM     50  H   UNL A   1      38.637  21.076  27.345  1.00  0.00     0.028 H 
ATOM     51  H   UNL A   1      40.350  21.405  26.946  1.00  0.00     0.028 H 
BRANCH  49  52
ATOM     52  C   UNL A   1      39.323  20.292  25.501  1.00  0.00     0.018 C 
ATOM     53  H   UNL A   1      39.594  20.747  24.571  1.00  0.00     0.049 H 
ATOM     54  H   UNL A   1      38.335  19.881  25.466  1.00  0.00     0.049 H 
BRANCH  52  55
ATOM     55  N   UNL A   1      40.246  19.199  25.771  1.00  0.00    -0.352 N 
ATOM     56  C   UNL A   1      41.578  19.235  26.103  1.00  0.00     0.251 C 
ATOM     57  H   UNL A   1      39.856  18.297  25.706  1.00  0.00     0.163 HD
ATOM     58  O   UNL A   1      42.237  18.197  26.130  1.00  0.00    -0.269 OA
BRANCH  56  59
ATOM     59  C   UNL A   1      42.236  20.526  26.398  1.00  0.00     0.039 A 
ATOM     60  C   UNL A   1      42.644  21.334  25.332  1.00  0.00    -0.049 A 
ATOM     61  C   UNL A   1      42.445  20.946  27.714  1.00  0.00    -0.049 A 
ATOM     62  C   UNL A   1      43.182  22.598  25.586  1.00  0.00    -0.053 A 
ATOM     63  H   UNL A   1      42.549  20.998  24.361  1.00  0.00     0.063 H 
ATOM     64  C   UNL A   1      42.913  22.234  27.964  1.00  0.00    -0.053 A 
ATOM     65  H   UNL A   1      42.253  20.303  28.498  1.00  0.00     0.063 H 
ATOM     66  C   UNL A   1      43.274  23.078  26.903  1.00  0.00    -0.014 A 
ATOM     67  H   UNL A   1      43.514  23.182  24.802  1.00  0.00     0.063 H 
ATOM     68  H   UNL A   1      42.994  22.570  28.937  1.00  0.00     0.063 H 
BRANCH  66  69
ATOM     69  C   UNL A   1      43.701  24.474  27.185  1.00  0.00     0.031 A 
ATOM     70  C   UNL A   1      42.709  25.497  27.655  1.00  0.00     0.074 A 
ATOM     71  C   UNL A   1      44.974  24.837  26.935  1.00  0.00     0.049 A 
ATOM     72  N   UNL A   1      42.878  26.777  27.872  1.00  0.00    -0.248 NA
ATOM     73  C   UNL A   1      41.335  25.025  27.887  1.00  0.00    -0.034 C 
ATOM     74  C   UNL A   1      46.019  23.950  26.425  1.00  0.00    -0.036 A 
ATOM     75  N   UNL A   1      45.600  26.053  27.057  1.00  0.00    -0.354 N 
ATOM     76  C   UNL A   1      41.637  27.263  28.262  1.00  0.00     0.074 A 
ATOM     77  C   UNL A   1      40.711  26.153  28.191  1.00  0.00    -0.034 C 
ATOM     78  H   UNL A   1      40.957  24.067  27.828  1.00  0.00     0.065 H 
ATOM     79  C   UNL A   1      47.157  24.646  26.285  1.00  0.00    -0.036 A 
ATOM     80  H   UNL A   1      45.899  22.948  26.206  1.00  0.00     0.065 H 
ATOM     81  C   UNL A   1      46.913  26.037  26.652  1.00  0.00     0.049 A 
ATOM     82  H   UNL A   1      45.151  26.859  27.400  1.00  0.00     0.167 HD
ATOM     83  C   UNL A   1      41.306  28.514  28.664  1.00  0.00     0.037 A 
ATOM     84  H   UNL A   1      39.694  26.230  28.357  1.00  0.00     0.065 H 
ATOM     85  H   UNL A   1      48.061  24.259  25.969  1.00  0.00     0.065 H 
ATOM     86  C   UNL A   1      47.814  27.034  26.565  1.00  0.00     0.037 A 
ATOM     87  C   UNL A   1      42.233  29.616  28.729  1.00  0.00     0.049 A 
ATOM     88  C   UNL A   1      47.418  28.423  26.986  1.00  0.00     0.074 A 
ATOM     89  C   UNL A   1      42.009  30.907  29.174  1.00  0.00    -0.036 A 
ATOM     90  N   UNL A   1      43.559  29.559  28.323  1.00  0.00    -0.354 N 
ATOM     91  N   UNL A   1      46.262  28.853  27.428  1.00  0.00    -0.248 NA
ATOM     92  C   UNL A   1      48.453  29.462  26.901  1.00  0.00    -0.034 C 
ATOM     93  C   UNL A   1      43.180  31.648  28.979  1.00  0.00    -0.036 A 
ATOM     94  H   UNL A   1      41.130  31.263  29.580  1.00  0.00     0.065 H 
ATOM     95  C   UNL A   1      44.155  30.803  28.472  1.00  0.00     0.049 A 
ATOM     96  H   UNL A   1      44.011  28.755  27.979  1.00  0.00     0.167 HD
ATOM     97  C   UNL A   1      46.432  30.206  27.690  1.00  0.00     0.074 A 
ATOM     98  C   UNL A   1      47.812  30.520  27.377  1.00  0.00    -0.034 C 
ATOM     99  H   UNL A   1      49.424  29.387  26.560  1.00  0.00     0.065 H 
ATOM    100  H   UNL A   1      43.298  32.653  29.178  1.00  0.00     0.065 H 
ATOM    101  C   UNL A   1      45.527  31.106  28.147  1.00  0.00     0.037 A 
ATOM    102  H   UNL A   1      48.241  31.450  27.508  1.00  0.00     0.065 H 
BRANCH  83 103
ATOM    103  C   UNL A   1      39.875  28.757  29.055  1.00  0.00     0.064 A 
ATOM    104  C   UNL A   1      39.430  28.578  30.375  1.00  0.00     0.173 A 
ATOM    105  C   UNL A   1      38.938  29.187  28.104  1.00  0.00     0.173 A 
ATOM    106  F   UNL A   1      40.281  28.161  31.324  1.00  0.00    -0.203 F 
ATOM    107  C   UNL A   1      38.095  28.776  30.717  1.00  0.00     0.198 A 
ATOM    108  C   UNL A   1      37.611  29.420  28.457  1.00  0.00     0.198 A 
ATOM    109  F   UNL A   1      39.308  29.386  26.829  1.00  0.00    -0.203 F 
ATOM    110  F   UNL A   1      37.682  28.534  31.968  1.00  0.00    -0.200 F 
ATOM    111  C   UNL A   1      37.188  29.202  29.759  1.00  0.00     0.200 A 
ATOM    112  F   UNL A   1      36.738  29.849  27.533  1.00  0.00    -0.200 F 
ATOM    113  F   UNL A   1      35.903  29.393  30.088  1.00  0.00    -0.200 F 
ENDBRANCH  83 103
BRANCH  86 114
ATOM    114  C   UNL A   1      49.180  26.744  26.055  1.00  0.00     0.064 A 
ATOM    115  C   UNL A   1      49.507  26.945  24.707  1.00  0.00     0.173 A 
ATOM    116  C   UNL A   1      50.192  26.281  26.910  1.00  0.00     0.173 A 
ATOM    117  F   UNL A   1      48.569  27.367  23.847  1.00  0.00    -0.203 F 
ATOM    118  C   UNL A   1      50.791  26.683  24.232  1.00  0.00     0.198 A 
ATOM    119  C   UNL A   1      51.482  26.050  26.439  1.00  0.00     0.198 A 
ATOM    120  F   UNL A   1      49.932  26.078  28.209  1.00  0.00    -0.203 F 
ATOM    121  F   UNL A   1      51.067  26.849  22.930  1.00  0.00    -0.200 F 
ATOM    122  C   UNL A   1      51.779  26.246  25.100  1.00  0.00     0.200 A 
ATOM    123  F   UNL A   1      52.438  25.645  27.286  1.00  0.00    -0.200 F 
ATOM    124  F   UNL A   1      53.017  26.007  24.644  1.00  0.00    -0.200 F 
ENDBRANCH  86 114
BRANCH 101 125
ATOM    125  C   UNL A   1      46.001  32.518  28.351  1.00  0.00     0.064 A 
ATOM    126  C   UNL A   1      45.880  33.488  27.345  1.00  0.00     0.173 A 
ATOM    127  C   UNL A   1      46.540  32.916  29.585  1.00  0.00     0.173 A 
ATOM    128  F   UNL A   1      45.386  33.157  26.143  1.00  0.00    -0.203 F 
ATOM    129  C   UNL A   1      46.304  34.798  27.559  1.00  0.00     0.198 A 
ATOM    130  C   UNL A   1      46.932  34.233  29.805  1.00  0.00     0.198 A 
ATOM    131  F   UNL A   1      46.673  32.029  30.583  1.00  0.00    -0.203 F 
ATOM    132  F   UNL A   1      46.224  35.695  26.567  1.00  0.00    -0.200 F 
ATOM    133  C   UNL A   1      46.821  35.171  28.791  1.00  0.00     0.200 A 
ATOM    134  F   UNL A   1      47.417  34.595  31.001  1.00  0.00    -0.200 F 
ATOM    135  F   UNL A   1      47.218  36.434  28.997  1.00  0.00    -0.200 F 
ENDBRANCH 101 125
ENDBRANCH  66  69
ENDBRANCH  56  59
ENDBRANCH  52  55
ENDBRANCH  49  52
ENDBRANCH  46  49
ENDBRANCH   1  46
TORSDOF 17
ENDMDL
MODEL 5
REMARK VINA RESULT:     -12.3      1.601      7.476
REMARK SMILES O=C(CNc1nc(-c2ccccc2)c(-c2ccccc2)s1)NCCCCCCNC(=O)c1ccc(-c2c3nc(c(-c4c(F)c(F)c(F)c(F)c4F)c4ccc([nH]4)c(-c4c(F)c(F)c(F)c(F)c4F)c4nc(c(-c5c(F)c(F)c(F)c(F)c5F)c5ccc2[nH]5)C=C4)C=C3)cc1
REMARK SMILES IDX 25 1 24 4 23 7 22 10 1 11 2 12 3 14 4 17 5 19 6 20 21 21
REMARK SMILES IDX 7 22 14 23 8 24 9 25 13 26 10 27 12 29 11 31 15 35 16 36
REMARK SMILES IDX 20 37 17 38 19 40 18 42 26 46 27 49 28 52 29 55 30 56 31 58
REMARK SMILES IDX 32 59 33 60 94 61 34 62 93 64 35 66 36 69 37 70 87 71 38 72
REMARK SMILES IDX 92 73 86 74 88 75 39 76 91 77 85 79 84 81 40 83 72 86 52 87
REMARK SMILES IDX 71 88 53 89 56 90 70 91 89 92 54 93 55 95 69 97 90 98 57 101
REMARK SMILES IDX 41 103 42 104 50 105 43 106 44 107 48 108 51 109 45 110
REMARK SMILES IDX 46 111 49 112 47 113 73 114 74 115 82 116 75 117 76 118
REMARK SMILES IDX 80 119 83 120 77 121 78 122 81 123 79 124 58 125 59 126
REMARK SMILES IDX 67 127 60 128 61 129 65 130 68 131 62 132 63 133 66 134
REMARK SMILES IDX 64 135
REMARK H PARENT 25 2 25 3 24 5 24 6 23 8 23 9 22 13 3 15 3 16 4 18 9 28 13 30
REMARK H PARENT 10 32 12 33 11 34 16 39 20 41 17 43 19 44 18 45 26 47 26 48
REMARK H PARENT 27 50 27 51 28 53 28 54 29 57 33 63 94 65 34 67 93 68 92 78
REMARK H PARENT 86 80 88 82 91 84 85 85 53 94 56 96 89 99 54 100 90 102
REMARK Flexibility Score: inf
ROOT
ATOM      1  C   UNL A   1      35.311  32.589  28.204  1.00  0.00    -0.052 C 
ATOM      2  H   UNL A   1      35.037  33.085  27.296  1.00  0.00     0.027 H 
ATOM      3  H   UNL A   1      36.359  32.628  28.418  1.00  0.00     0.027 H 
ENDROOT
BRANCH   1   4
ATOM      4  C   UNL A   1      34.968  31.100  28.051  1.00  0.00    -0.036 C 
ATOM      5  H   UNL A   1      35.800  30.613  27.587  1.00  0.00     0.028 H 
ATOM      6  H   UNL A   1      34.762  30.736  29.035  1.00  0.00     0.028 H 
BRANCH   4   7
ATOM      7  C   UNL A   1      33.722  30.814  27.214  1.00  0.00     0.017 C 
ATOM      8  H   UNL A   1      33.008  31.592  27.378  1.00  0.00     0.049 H 
ATOM      9  H   UNL A   1      34.013  30.772  26.185  1.00  0.00     0.049 H 
BRANCH   7  10
ATOM     10  N   UNL A   1      33.122  29.545  27.563  1.00  0.00    -0.355 N 
ATOM     11  O   UNL A   1      31.588  29.450  25.848  1.00  0.00    -0.273 OA
ATOM     12  C   UNL A   1      32.096  28.954  26.848  1.00  0.00     0.239 C 
ATOM     13  H   UNL A   1      33.463  29.075  28.358  1.00  0.00     0.163 HD
BRANCH  12  14
ATOM     14  C   UNL A   1      31.626  27.622  27.459  1.00  0.00     0.096 C 
ATOM     15  H   UNL A   1      30.869  27.811  28.191  1.00  0.00     0.059 H 
ATOM     16  H   UNL A   1      32.453  27.129  27.925  1.00  0.00     0.059 H 
BRANCH  14  17
ATOM     17  N   UNL A   1      31.083  26.775  26.404  1.00  0.00    -0.352 N 
ATOM     18  H   UNL A   1      30.204  26.998  26.020  1.00  0.00     0.163 HD
BRANCH  17  19
ATOM     19  C   UNL A   1      31.745  25.702  25.940  1.00  0.00     0.184 A 
ATOM     20  N   UNL A   1      33.039  25.623  25.741  1.00  0.00    -0.220 NA
ATOM     21  S   UNL A   1      30.851  24.295  25.518  1.00  0.00    -0.096 S 
ATOM     22  C   UNL A   1      33.361  24.384  25.208  1.00  0.00     0.091 A 
ATOM     23  C   UNL A   1      32.286  23.543  24.960  1.00  0.00     0.064 A 
BRANCH  22  24
ATOM     24  C   UNL A   1      34.744  23.999  24.967  1.00  0.00     0.002 A 
ATOM     25  C   UNL A   1      35.206  23.735  23.672  1.00  0.00    -0.053 A 
ATOM     26  C   UNL A   1      35.603  23.804  26.056  1.00  0.00    -0.053 A 
ATOM     27  C   UNL A   1      36.498  23.243  23.472  1.00  0.00    -0.062 A 
ATOM     28  H   UNL A   1      34.590  23.904  22.862  1.00  0.00     0.063 H 
ATOM     29  C   UNL A   1      36.893  23.309  25.854  1.00  0.00    -0.062 A 
ATOM     30  H   UNL A   1      35.281  24.028  27.011  1.00  0.00     0.063 H 
ATOM     31  C   UNL A   1      37.337  23.021  24.564  1.00  0.00    -0.062 A 
ATOM     32  H   UNL A   1      36.833  23.045  22.516  1.00  0.00     0.062 H 
ATOM     33  H   UNL A   1      37.518  23.155  26.660  1.00  0.00     0.062 H 
ATOM     34  H   UNL A   1      38.285  22.643  24.417  1.00  0.00     0.062 H 
ENDBRANCH  22  24
BRANCH  23  35
ATOM     35  C   UNL A   1      32.226  22.203  24.379  1.00  0.00    -0.006 A 
ATOM     36  C   UNL A   1      32.066  22.037  22.996  1.00  0.00    -0.053 A 
ATOM     37  C   UNL A   1      32.385  21.069  25.186  1.00  0.00    -0.053 A 
ATOM     38  C   UNL A   1      32.067  20.760  22.432  1.00  0.00    -0.062 A 
ATOM     39  H   UNL A   1      31.944  22.865  22.391  1.00  0.00     0.063 H 
ATOM     40  C   UNL A   1      32.388  19.793  24.620  1.00  0.00    -0.062 A 
ATOM     41  H   UNL A   1      32.502  21.178  26.206  1.00  0.00     0.063 H 
ATOM     42  C   UNL A   1      32.229  19.640  23.244  1.00  0.00    -0.062 A 
ATOM     43  H   UNL A   1      31.947  20.646  21.412  1.00  0.00     0.062 H 
ATOM     44  H   UNL A   1      32.507  18.962  25.221  1.00  0.00     0.062 H 
ATOM     45  H   UNL A   1      32.233  18.696  22.826  1.00  0.00     0.062 H 
ENDBRANCH  23  35
ENDBRANCH  17  19
ENDBRANCH  14  17
ENDBRANCH  12  14
ENDBRANCH   7  10
ENDBRANCH   4   7
ENDBRANCH   1   4
BRANCH   1  46
ATOM     46  C   UNL A   1      34.619  33.312  29.364  1.00  0.00    -0.052 C 
ATOM     47  H   UNL A   1      35.356  33.897  29.874  1.00  0.00     0.027 H 
ATOM     48  H   UNL A   1      34.183  32.546  29.971  1.00  0.00     0.027 H 
BRANCH  46  49
ATOM     49  C   UNL A   1      33.470  34.240  28.967  1.00  0.00    -0.036 C 
ATOM     50  H   UNL A   1      32.564  33.837  29.370  1.00  0.00     0.028 H 
ATOM     51  H   UNL A   1      33.478  34.284  27.898  1.00  0.00     0.028 H 
BRANCH  49  52
ATOM     52  C   UNL A   1      33.603  35.680  29.452  1.00  0.00     0.018 C 
ATOM     53  H   UNL A   1      33.433  36.338  28.625  1.00  0.00     0.049 H 
ATOM     54  H   UNL A   1      34.588  35.798  29.854  1.00  0.00     0.049 H 
BRANCH  52  55
ATOM     55  N   UNL A   1      32.655  36.006  30.508  1.00  0.00    -0.352 N 
ATOM     56  C   UNL A   1      32.674  35.672  31.840  1.00  0.00     0.251 C 
ATOM     57  H   UNL A   1      31.883  36.547  30.225  1.00  0.00     0.163 HD
ATOM     58  O   UNL A   1      31.695  35.898  32.548  1.00  0.00    -0.269 OA
BRANCH  56  59
ATOM     59  C   UNL A   1      33.861  35.009  32.424  1.00  0.00     0.039 A 
ATOM     60  C   UNL A   1      33.717  33.733  32.974  1.00  0.00    -0.049 A 
ATOM     61  C   UNL A   1      35.110  35.635  32.423  1.00  0.00    -0.049 A 
ATOM     62  C   UNL A   1      34.842  33.050  33.445  1.00  0.00    -0.053 A 
ATOM     63  H   UNL A   1      32.784  33.295  33.033  1.00  0.00     0.063 H 
ATOM     64  C   UNL A   1      36.240  34.926  32.826  1.00  0.00    -0.053 A 
ATOM     65  H   UNL A   1      35.195  36.620  32.126  1.00  0.00     0.063 H 
ATOM     66  C   UNL A   1      36.119  33.622  33.329  1.00  0.00    -0.014 A 
ATOM     67  H   UNL A   1      34.733  32.121  33.882  1.00  0.00     0.063 H 
ATOM     68  H   UNL A   1      37.172  35.364  32.752  1.00  0.00     0.063 H 
BRANCH  66  69
ATOM     69  C   UNL A   1      37.341  32.854  33.683  1.00  0.00     0.031 A 
ATOM     70  C   UNL A   1      38.108  33.169  34.935  1.00  0.00     0.074 A 
ATOM     71  C   UNL A   1      37.806  31.922  32.828  1.00  0.00     0.049 A 
ATOM     72  N   UNL A   1      39.237  32.664  35.365  1.00  0.00    -0.248 NA
ATOM     73  C   UNL A   1      37.545  34.211  35.807  1.00  0.00    -0.034 C 
ATOM     74  C   UNL A   1      37.182  31.563  31.554  1.00  0.00    -0.036 A 
ATOM     75  N   UNL A   1      38.921  31.124  32.889  1.00  0.00    -0.354 N 
ATOM     76  C   UNL A   1      39.520  33.326  36.552  1.00  0.00     0.074 A 
ATOM     77  C   UNL A   1      38.477  34.312  36.742  1.00  0.00    -0.034 C 
ATOM     78  H   UNL A   1      36.656  34.727  35.714  1.00  0.00     0.065 H 
ATOM     79  C   UNL A   1      37.916  30.610  30.959  1.00  0.00    -0.036 A 
ATOM     80  H   UNL A   1      36.316  31.975  31.174  1.00  0.00     0.065 H 
ATOM     81  C   UNL A   1      39.085  30.323  31.785  1.00  0.00     0.049 A 
ATOM     82  H   UNL A   1      39.544  31.125  33.652  1.00  0.00     0.167 HD
ATOM     83  C   UNL A   1      40.543  33.115  37.416  1.00  0.00     0.037 A 
ATOM     84  H   UNL A   1      38.462  35.005  37.507  1.00  0.00     0.065 H 
ATOM     85  H   UNL A   1      37.690  30.153  30.061  1.00  0.00     0.065 H 
ATOM     86  C   UNL A   1      40.075  29.470  31.461  1.00  0.00     0.037 A 
ATOM     87  C   UNL A   1      41.580  32.133  37.219  1.00  0.00     0.049 A 
ATOM     88  C   UNL A   1      41.219  29.273  32.419  1.00  0.00     0.074 A 
ATOM     89  C   UNL A   1      42.627  31.804  38.060  1.00  0.00    -0.036 A 
ATOM     90  N   UNL A   1      41.706  31.331  36.093  1.00  0.00    -0.354 N 
ATOM     91  N   UNL A   1      41.435  29.849  33.576  1.00  0.00    -0.248 NA
ATOM     92  C   UNL A   1      42.253  28.306  32.027  1.00  0.00    -0.034 C 
ATOM     93  C   UNL A   1      43.424  30.850  37.417  1.00  0.00    -0.036 A 
ATOM     94  H   UNL A   1      42.794  32.196  39.001  1.00  0.00     0.065 H 
ATOM     95  C   UNL A   1      42.837  30.535  36.201  1.00  0.00     0.049 A 
ATOM     96  H   UNL A   1      41.085  31.328  35.328  1.00  0.00     0.167 HD
ATOM     97  C   UNL A   1      42.616  29.303  34.060  1.00  0.00     0.074 A 
ATOM     98  C   UNL A   1      43.060  28.334  33.078  1.00  0.00    -0.034 C 
ATOM     99  H   UNL A   1      42.329  27.750  31.161  1.00  0.00     0.065 H 
ATOM    100  H   UNL A   1      44.300  30.449  37.786  1.00  0.00     0.065 H 
ATOM    101  C   UNL A   1      43.275  29.581  35.213  1.00  0.00     0.037 A 
ATOM    102  H   UNL A   1      43.898  27.741  33.184  1.00  0.00     0.065 H 
BRANCH  83 103
ATOM    103  C   UNL A   1      40.592  33.973  38.649  1.00  0.00     0.064 A 
ATOM    104  C   UNL A   1      39.920  33.611  39.827  1.00  0.00     0.173 A 
ATOM    105  C   UNL A   1      41.332  35.165  38.660  1.00  0.00     0.173 A 
ATOM    106  F   UNL A   1      39.193  32.485  39.871  1.00  0.00    -0.203 F 
ATOM    107  C   UNL A   1      39.949  34.431  40.953  1.00  0.00     0.198 A 
ATOM    108  C   UNL A   1      41.389  35.965  39.799  1.00  0.00     0.198 A 
ATOM    109  F   UNL A   1      42.003  35.557  37.566  1.00  0.00    -0.203 F 
ATOM    110  F   UNL A   1      39.245  34.096  42.042  1.00  0.00    -0.200 F 
ATOM    111  C   UNL A   1      40.687  35.604  40.939  1.00  0.00     0.200 A 
ATOM    112  F   UNL A   1      42.117  37.091  39.790  1.00  0.00    -0.200 F 
ATOM    113  F   UNL A   1      40.715  36.393  42.022  1.00  0.00    -0.200 F 
ENDBRANCH  83 103
BRANCH  86 114
ATOM    114  C   UNL A   1      40.021  28.743  30.166  1.00  0.00     0.064 A 
ATOM    115  C   UNL A   1      40.596  29.283  29.007  1.00  0.00     0.173 A 
ATOM    116  C   UNL A   1      39.414  27.482  30.067  1.00  0.00     0.173 A 
ATOM    117  F   UNL A   1      41.171  30.494  29.048  1.00  0.00    -0.203 F 
ATOM    118  C   UNL A   1      40.554  28.594  27.796  1.00  0.00     0.198 A 
ATOM    119  C   UNL A   1      39.400  26.782  28.863  1.00  0.00     0.198 A 
ATOM    120  F   UNL A   1      38.854  26.919  31.147  1.00  0.00    -0.203 F 
ATOM    121  F   UNL A   1      41.079  29.150  26.695  1.00  0.00    -0.200 F 
ATOM    122  C   UNL A   1      39.965  27.341  27.727  1.00  0.00     0.200 A 
ATOM    123  F   UNL A   1      38.847  25.563  28.806  1.00  0.00    -0.200 F 
ATOM    124  F   UNL A   1      39.938  26.674  26.565  1.00  0.00    -0.200 F 
ENDBRANCH  86 114
BRANCH 101 125
ATOM    125  C   UNL A   1      44.539  28.818  35.486  1.00  0.00     0.064 A 
ATOM    126  C   UNL A   1      45.795  29.305  35.091  1.00  0.00     0.173 A 
ATOM    127  C   UNL A   1      44.501  27.605  36.192  1.00  0.00     0.173 A 
ATOM    128  F   UNL A   1      45.886  30.451  34.399  1.00  0.00    -0.203 F 
ATOM    129  C   UNL A   1      46.959  28.596  35.371  1.00  0.00     0.198 A 
ATOM    130  C   UNL A   1      45.670  26.915  36.499  1.00  0.00     0.198 A 
ATOM    131  F   UNL A   1      43.328  27.096  36.597  1.00  0.00    -0.203 F 
ATOM    132  F   UNL A   1      48.142  29.057  34.941  1.00  0.00    -0.200 F 
ATOM    133  C   UNL A   1      46.898  27.406  36.082  1.00  0.00     0.200 A 
ATOM    134  F   UNL A   1      45.609  25.774  37.200  1.00  0.00    -0.200 F 
ATOM    135  F   UNL A   1      48.021  26.732  36.361  1.00  0.00    -0.200 F 
ENDBRANCH 101 125
ENDBRANCH  66  69
ENDBRANCH  56  59
ENDBRANCH  52  55
ENDBRANCH  49  52
ENDBRANCH  46  49
ENDBRANCH   1  46
TORSDOF 17
ENDMDL
MODEL 6
REMARK VINA RESULT:     -12.1      5.172     11.477
REMARK SMILES O=C(CNc1nc(-c2ccccc2)c(-c2ccccc2)s1)NCCCCCCNC(=O)c1ccc(-c2c3nc(c(-c4c(F)c(F)c(F)c(F)c4F)c4ccc([nH]4)c(-c4c(F)c(F)c(F)c(F)c4F)c4nc(c(-c5c(F)c(F)c(F)c(F)c5F)c5ccc2[nH]5)C=C4)C=C3)cc1
REMARK SMILES IDX 25 1 24 4 23 7 22 10 1 11 2 12 3 14 4 17 5 19 6 20 21 21
REMARK SMILES IDX 7 22 14 23 8 24 9 25 13 26 10 27 12 29 11 31 15 35 16 36
REMARK SMILES IDX 20 37 17 38 19 40 18 42 26 46 27 49 28 52 29 55 30 56 31 58
REMARK SMILES IDX 32 59 33 60 94 61 34 62 93 64 35 66 36 69 37 70 87 71 38 72
REMARK SMILES IDX 92 73 86 74 88 75 39 76 91 77 85 79 84 81 40 83 72 86 52 87
REMARK SMILES IDX 71 88 53 89 56 90 70 91 89 92 54 93 55 95 69 97 90 98 57 101
REMARK SMILES IDX 41 103 42 104 50 105 43 106 44 107 48 108 51 109 45 110
REMARK SMILES IDX 46 111 49 112 47 113 73 114 74 115 82 116 75 117 76 118
REMARK SMILES IDX 80 119 83 120 77 121 78 122 81 123 79 124 58 125 59 126
REMARK SMILES IDX 67 127 60 128 61 129 65 130 68 131 62 132 63 133 66 134
REMARK SMILES IDX 64 135
REMARK H PARENT 25 2 25 3 24 5 24 6 23 8 23 9 22 13 3 15 3 16 4 18 9 28 13 30
REMARK H PARENT 10 32 12 33 11 34 16 39 20 41 17 43 19 44 18 45 26 47 26 48
REMARK H PARENT 27 50 27 51 28 53 28 54 29 57 33 63 94 65 34 67 93 68 92 78
REMARK H PARENT 86 80 88 82 91 84 85 85 53 94 56 96 89 99 54 100 90 102
REMARK Flexibility Score: inf
ROOT
ATOM      1  C   UNL A   1      35.763  32.741  32.512  1.00  0.00    -0.052 C 
ATOM      2  H   UNL A   1      35.977  33.788  32.571  1.00  0.00     0.027 H 
ATOM      3  H   UNL A   1      35.324  32.340  33.402  1.00  0.00     0.027 H 
ENDROOT
BRANCH   1   4
ATOM      4  C   UNL A   1      37.092  31.996  32.325  1.00  0.00    -0.036 C 
ATOM      5  H   UNL A   1      37.194  31.752  31.289  1.00  0.00     0.028 H 
ATOM      6  H   UNL A   1      37.858  32.653  32.681  1.00  0.00     0.028 H 
BRANCH   4   7
ATOM      7  C   UNL A   1      37.221  30.706  33.133  1.00  0.00     0.017 C 
ATOM      8  H   UNL A   1      36.283  30.495  33.602  1.00  0.00     0.049 H 
ATOM      9  H   UNL A   1      37.501  29.919  32.464  1.00  0.00     0.049 H 
BRANCH   7  10
ATOM     10  N   UNL A   1      38.241  30.811  34.153  1.00  0.00    -0.355 N 
ATOM     11  O   UNL A   1      39.586  29.092  33.419  1.00  0.00    -0.273 OA
ATOM     12  C   UNL A   1      39.355  29.993  34.218  1.00  0.00     0.239 C 
ATOM     13  H   UNL A   1      38.136  31.506  34.843  1.00  0.00     0.163 HD
BRANCH  12  14
ATOM     14  C   UNL A   1      40.261  30.304  35.423  1.00  0.00     0.096 C 
ATOM     15  H   UNL A   1      39.758  30.979  36.083  1.00  0.00     0.059 H 
ATOM     16  H   UNL A   1      41.170  30.754  35.082  1.00  0.00     0.059 H 
BRANCH  14  17
ATOM     17  N   UNL A   1      40.562  29.065  36.128  1.00  0.00    -0.352 N 
ATOM     18  H   UNL A   1      39.940  28.748  36.822  1.00  0.00     0.163 HD
BRANCH  17  19
ATOM     19  C   UNL A   1      41.662  28.342  35.860  1.00  0.00     0.184 A 
ATOM     20  N   UNL A   1      41.689  27.177  35.258  1.00  0.00    -0.220 NA
ATOM     21  S   UNL A   1      43.192  28.940  36.368  1.00  0.00    -0.096 S 
ATOM     22  C   UNL A   1      42.992  26.704  35.199  1.00  0.00     0.091 A 
ATOM     23  C   UNL A   1      43.945  27.506  35.808  1.00  0.00     0.064 A 
BRANCH  22  24
ATOM     24  C   UNL A   1      43.319  25.466  34.507  1.00  0.00     0.002 A 
ATOM     25  C   UNL A   1      43.042  24.221  35.084  1.00  0.00    -0.053 A 
ATOM     26  C   UNL A   1      44.000  25.522  33.284  1.00  0.00    -0.053 A 
ATOM     27  C   UNL A   1      43.478  23.046  34.465  1.00  0.00    -0.062 A 
ATOM     28  H   UNL A   1      42.515  24.170  35.969  1.00  0.00     0.063 H 
ATOM     29  C   UNL A   1      44.438  24.347  32.670  1.00  0.00    -0.062 A 
ATOM     30  H   UNL A   1      44.178  26.434  32.836  1.00  0.00     0.063 H 
ATOM     31  C   UNL A   1      44.184  23.111  33.264  1.00  0.00    -0.062 A 
ATOM     32  H   UNL A   1      43.276  22.131  34.896  1.00  0.00     0.062 H 
ATOM     33  H   UNL A   1      44.951  24.393  31.776  1.00  0.00     0.062 H 
ATOM     34  H   UNL A   1      44.519  22.245  32.816  1.00  0.00     0.062 H 
ENDBRANCH  22  24
BRANCH  23  35
ATOM     35  C   UNL A   1      45.386  27.327  35.981  1.00  0.00    -0.006 A 
ATOM     36  C   UNL A   1      45.884  26.216  36.677  1.00  0.00    -0.053 A 
ATOM     37  C   UNL A   1      46.290  28.230  35.405  1.00  0.00    -0.053 A 
ATOM     38  C   UNL A   1      47.260  26.012  36.793  1.00  0.00    -0.062 A 
ATOM     39  H   UNL A   1      45.228  25.546  37.108  1.00  0.00     0.063 H 
ATOM     40  C   UNL A   1      47.666  28.023  35.521  1.00  0.00    -0.062 A 
ATOM     41  H   UNL A   1      45.937  29.053  34.892  1.00  0.00     0.063 H 
ATOM     42  C   UNL A   1      48.149  26.914  36.213  1.00  0.00    -0.062 A 
ATOM     43  H   UNL A   1      47.618  25.192  37.308  1.00  0.00     0.062 H 
ATOM     44  H   UNL A   1      48.326  28.691  35.093  1.00  0.00     0.062 H 
ATOM     45  H   UNL A   1      49.167  26.762  36.297  1.00  0.00     0.062 H 
ENDBRANCH  23  35
ENDBRANCH  17  19
ENDBRANCH  14  17
ENDBRANCH  12  14
ENDBRANCH   7  10
ENDBRANCH   4   7
ENDBRANCH   1   4
BRANCH   1  46
ATOM     46  C   UNL A   1      34.726  32.534  31.404  1.00  0.00    -0.052 C 
ATOM     47  H   UNL A   1      33.754  32.559  31.852  1.00  0.00     0.027 H 
ATOM     48  H   UNL A   1      34.964  31.594  30.950  1.00  0.00     0.027 H 
BRANCH  46  49
ATOM     49  C   UNL A   1      34.754  33.567  30.277  1.00  0.00    -0.036 C 
ATOM     50  H   UNL A   1      35.405  34.364  30.573  1.00  0.00     0.028 H 
ATOM     51  H   UNL A   1      33.741  33.877  30.131  1.00  0.00     0.028 H 
BRANCH  49  52
ATOM     52  C   UNL A   1      35.235  33.041  28.928  1.00  0.00     0.018 C 
ATOM     53  H   UNL A   1      36.215  32.627  29.051  1.00  0.00     0.049 H 
ATOM     54  H   UNL A   1      35.238  33.862  28.241  1.00  0.00     0.049 H 
BRANCH  52  55
ATOM     55  N   UNL A   1      34.360  32.014  28.382  1.00  0.00    -0.352 N 
ATOM     56  C   UNL A   1      34.643  30.718  28.025  1.00  0.00     0.251 C 
ATOM     57  H   UNL A   1      33.425  32.289  28.247  1.00  0.00     0.163 HD
ATOM     58  O   UNL A   1      33.808  30.047  27.422  1.00  0.00    -0.269 OA
BRANCH  56  59
ATOM     59  C   UNL A   1      35.965  30.132  28.336  1.00  0.00     0.039 A 
ATOM     60  C   UNL A   1      36.966  30.174  27.361  1.00  0.00    -0.049 A 
ATOM     61  C   UNL A   1      36.222  29.552  29.580  1.00  0.00    -0.049 A 
ATOM     62  C   UNL A   1      38.249  29.712  27.665  1.00  0.00    -0.053 A 
ATOM     63  H   UNL A   1      36.759  30.544  26.420  1.00  0.00     0.063 H 
ATOM     64  C   UNL A   1      37.519  29.159  29.906  1.00  0.00    -0.053 A 
ATOM     65  H   UNL A   1      35.455  29.415  30.255  1.00  0.00     0.063 H 
ATOM     66  C   UNL A   1      38.548  29.247  28.956  1.00  0.00    -0.014 A 
ATOM     67  H   UNL A   1      38.981  29.712  26.937  1.00  0.00     0.063 H 
ATOM     68  H   UNL A   1      37.723  28.802  30.853  1.00  0.00     0.063 H 
BRANCH  66  69
ATOM     69  C   UNL A   1      39.939  28.894  29.344  1.00  0.00     0.031 A 
ATOM     70  C   UNL A   1      40.788  29.861  30.117  1.00  0.00     0.074 A 
ATOM     71  C   UNL A   1      40.465  27.727  28.923  1.00  0.00     0.049 A 
ATOM     72  N   UNL A   1      42.044  29.762  30.471  1.00  0.00    -0.248 NA
ATOM     73  C   UNL A   1      40.146  31.121  30.523  1.00  0.00    -0.034 C 
ATOM     74  C   UNL A   1      39.761  26.727  28.119  1.00  0.00    -0.036 A 
ATOM     75  N   UNL A   1      41.718  27.194  29.094  1.00  0.00    -0.354 N 
ATOM     76  C   UNL A   1      42.344  30.943  31.137  1.00  0.00     0.074 A 
ATOM     77  C   UNL A   1      41.157  31.769  31.084  1.00  0.00    -0.034 C 
ATOM     78  H   UNL A   1      39.166  31.420  30.404  1.00  0.00     0.065 H 
ATOM     79  C   UNL A   1      40.588  25.699  27.875  1.00  0.00    -0.036 A 
ATOM     80  H   UNL A   1      38.785  26.801  27.793  1.00  0.00     0.065 H 
ATOM     81  C   UNL A   1      41.892  25.985  28.464  1.00  0.00     0.049 A 
ATOM     82  H   UNL A   1      42.426  27.636  29.618  1.00  0.00     0.167 HD
ATOM     83  C   UNL A   1      43.497  31.296  31.757  1.00  0.00     0.037 A 
ATOM     84  H   UNL A   1      41.103  32.738  31.436  1.00  0.00     0.065 H 
ATOM     85  H   UNL A   1      40.341  24.842  27.354  1.00  0.00     0.065 H 
ATOM     86  C   UNL A   1      42.983  25.204  28.354  1.00  0.00     0.037 A 
ATOM     87  C   UNL A   1      44.677  30.470  31.805  1.00  0.00     0.049 A 
ATOM     88  C   UNL A   1      44.263  25.629  29.022  1.00  0.00     0.074 A 
ATOM     89  C   UNL A   1      45.875  30.713  32.453  1.00  0.00    -0.036 A 
ATOM     90  N   UNL A   1      44.811  29.245  31.165  1.00  0.00    -0.354 N 
ATOM     91  N   UNL A   1      44.511  26.712  29.717  1.00  0.00    -0.248 NA
ATOM     92  C   UNL A   1      45.410  24.721  28.895  1.00  0.00    -0.034 C 
ATOM     93  C   UNL A   1      46.756  29.667  32.154  1.00  0.00    -0.036 A 
ATOM     94  H   UNL A   1      46.084  31.526  33.053  1.00  0.00     0.065 H 
ATOM     95  C   UNL A   1      46.086  28.739  31.372  1.00  0.00     0.049 A 
ATOM     96  H   UNL A   1      44.106  28.801  30.641  1.00  0.00     0.167 HD
ATOM     97  C   UNL A   1      45.834  26.610  30.124  1.00  0.00     0.074 A 
ATOM     98  C   UNL A   1      46.330  25.347  29.616  1.00  0.00    -0.034 C 
ATOM     99  H   UNL A   1      45.481  23.830  28.380  1.00  0.00     0.065 H 
ATOM    100  H   UNL A   1      47.737  29.599  32.464  1.00  0.00     0.065 H 
ATOM    101  C   UNL A   1      46.572  27.485  30.853  1.00  0.00     0.037 A 
ATOM    102  H   UNL A   1      47.279  24.981  29.794  1.00  0.00     0.065 H 
BRANCH  83 103
ATOM    103  C   UNL A   1      43.536  32.642  32.426  1.00  0.00     0.064 A 
ATOM    104  C   UNL A   1      43.269  32.793  33.796  1.00  0.00     0.173 A 
ATOM    105  C   UNL A   1      43.857  33.794  31.693  1.00  0.00     0.173 A 
ATOM    106  F   UNL A   1      42.950  31.726  34.544  1.00  0.00    -0.203 F 
ATOM    107  C   UNL A   1      43.279  34.050  34.396  1.00  0.00     0.198 A 
ATOM    108  C   UNL A   1      43.902  35.045  32.304  1.00  0.00     0.198 A 
ATOM    109  F   UNL A   1      44.132  33.709  30.383  1.00  0.00    -0.203 F 
ATOM    110  F   UNL A   1      42.956  34.176  35.690  1.00  0.00    -0.200 F 
ATOM    111  C   UNL A   1      43.600  35.174  33.651  1.00  0.00     0.200 A 
ATOM    112  F   UNL A   1      44.229  36.129  31.586  1.00  0.00    -0.200 F 
ATOM    113  F   UNL A   1      43.609  36.383  34.228  1.00  0.00    -0.200 F 
ENDBRANCH  83 103
BRANCH  86 114
ATOM    114  C   UNL A   1      42.905  23.942  27.574  1.00  0.00     0.064 A 
ATOM    115  C   UNL A   1      42.477  22.747  28.170  1.00  0.00     0.173 A 
ATOM    116  C   UNL A   1      43.234  23.909  26.210  1.00  0.00     0.173 A 
ATOM    117  F   UNL A   1      42.171  22.724  29.475  1.00  0.00    -0.203 F 
ATOM    118  C   UNL A   1      42.393  21.566  27.434  1.00  0.00     0.198 A 
ATOM    119  C   UNL A   1      43.119  22.735  25.469  1.00  0.00     0.198 A 
ATOM    120  F   UNL A   1      43.643  25.026  25.591  1.00  0.00    -0.203 F 
ATOM    121  F   UNL A   1      42.018  20.430  28.038  1.00  0.00    -0.200 F 
ATOM    122  C   UNL A   1      42.705  21.563  26.083  1.00  0.00     0.200 A 
ATOM    123  F   UNL A   1      43.403  22.742  24.160  1.00  0.00    -0.200 F 
ATOM    124  F   UNL A   1      42.611  20.430  25.374  1.00  0.00    -0.200 F 
ENDBRANCH  86 114
BRANCH 101 125
ATOM    125  C   UNL A   1      47.992  27.102  31.158  1.00  0.00     0.064 A 
ATOM    126  C   UNL A   1      48.317  26.290  32.256  1.00  0.00     0.173 A 
ATOM    127  C   UNL A   1      49.038  27.514  30.317  1.00  0.00     0.173 A 
ATOM    128  F   UNL A   1      47.358  25.882  33.101  1.00  0.00    -0.203 F 
ATOM    129  C   UNL A   1      49.636  25.926  32.513  1.00  0.00     0.198 A 
ATOM    130  C   UNL A   1      50.351  27.120  30.558  1.00  0.00     0.198 A 
ATOM    131  F   UNL A   1      48.783  28.286  29.250  1.00  0.00    -0.203 F 
ATOM    132  F   UNL A   1      49.927  25.191  33.595  1.00  0.00    -0.200 F 
ATOM    133  C   UNL A   1      50.651  26.334  31.659  1.00  0.00     0.200 A 
ATOM    134  F   UNL A   1      51.327  27.503  29.723  1.00  0.00    -0.200 F 
ATOM    135  F   UNL A   1      51.918  25.972  31.902  1.00  0.00    -0.200 F 
ENDBRANCH 101 125
ENDBRANCH  66  69
ENDBRANCH  56  59
ENDBRANCH  52  55
ENDBRANCH  49  52
ENDBRANCH  46  49
ENDBRANCH   1  46
TORSDOF 17
ENDMDL
MODEL 7
REMARK VINA RESULT:     -12.1      6.389     11.047
REMARK SMILES O=C(CNc1nc(-c2ccccc2)c(-c2ccccc2)s1)NCCCCCCNC(=O)c1ccc(-c2c3nc(c(-c4c(F)c(F)c(F)c(F)c4F)c4ccc([nH]4)c(-c4c(F)c(F)c(F)c(F)c4F)c4nc(c(-c5c(F)c(F)c(F)c(F)c5F)c5ccc2[nH]5)C=C4)C=C3)cc1
REMARK SMILES IDX 25 1 24 4 23 7 22 10 1 11 2 12 3 14 4 17 5 19 6 20 21 21
REMARK SMILES IDX 7 22 14 23 8 24 9 25 13 26 10 27 12 29 11 31 15 35 16 36
REMARK SMILES IDX 20 37 17 38 19 40 18 42 26 46 27 49 28 52 29 55 30 56 31 58
REMARK SMILES IDX 32 59 33 60 94 61 34 62 93 64 35 66 36 69 37 70 87 71 38 72
REMARK SMILES IDX 92 73 86 74 88 75 39 76 91 77 85 79 84 81 40 83 72 86 52 87
REMARK SMILES IDX 71 88 53 89 56 90 70 91 89 92 54 93 55 95 69 97 90 98 57 101
REMARK SMILES IDX 41 103 42 104 50 105 43 106 44 107 48 108 51 109 45 110
REMARK SMILES IDX 46 111 49 112 47 113 73 114 74 115 82 116 75 117 76 118
REMARK SMILES IDX 80 119 83 120 77 121 78 122 81 123 79 124 58 125 59 126
REMARK SMILES IDX 67 127 60 128 61 129 65 130 68 131 62 132 63 133 66 134
REMARK SMILES IDX 64 135
REMARK H PARENT 25 2 25 3 24 5 24 6 23 8 23 9 22 13 3 15 3 16 4 18 9 28 13 30
REMARK H PARENT 10 32 12 33 11 34 16 39 20 41 17 43 19 44 18 45 26 47 26 48
REMARK H PARENT 27 50 27 51 28 53 28 54 29 57 33 63 94 65 34 67 93 68 92 78
REMARK H PARENT 86 80 88 82 91 84 85 85 53 94 56 96 89 99 54 100 90 102
REMARK Flexibility Score: inf
ROOT
ATOM      1  C   UNL A   1      41.437  21.677  26.754  1.00  0.00    -0.052 C 
ATOM      2  H   UNL A   1      41.897  22.033  27.652  1.00  0.00     0.027 H 
ATOM      3  H   UNL A   1      42.030  21.828  25.876  1.00  0.00     0.027 H 
ENDROOT
BRANCH   1   4
ATOM      4  C   UNL A   1      40.147  22.480  26.533  1.00  0.00    -0.036 C 
ATOM      5  H   UNL A   1      39.857  22.909  27.470  1.00  0.00     0.028 H 
ATOM      6  H   UNL A   1      40.371  23.211  25.786  1.00  0.00     0.028 H 
BRANCH   4   7
ATOM      7  C   UNL A   1      38.970  21.664  26.000  1.00  0.00     0.017 C 
ATOM      8  H   UNL A   1      39.347  20.787  25.517  1.00  0.00     0.049 H 
ATOM      9  H   UNL A   1      38.341  21.406  26.826  1.00  0.00     0.049 H 
BRANCH   7  10
ATOM     10  N   UNL A   1      38.181  22.419  25.053  1.00  0.00    -0.355 N 
ATOM     11  O   UNL A   1      36.134  21.484  25.546  1.00  0.00    -0.273 OA
ATOM     12  C   UNL A   1      36.813  22.273  24.898  1.00  0.00     0.239 C 
ATOM     13  H   UNL A   1      38.643  23.075  24.483  1.00  0.00     0.163 HD
BRANCH  12  14
ATOM     14  C   UNL A   1      36.232  23.178  23.797  1.00  0.00     0.096 C 
ATOM     15  H   UNL A   1      36.603  22.865  22.844  1.00  0.00     0.059 H 
ATOM     16  H   UNL A   1      36.523  24.192  23.975  1.00  0.00     0.059 H 
BRANCH  14  17
ATOM     17  N   UNL A   1      34.778  23.077  23.811  1.00  0.00    -0.352 N 
ATOM     18  H   UNL A   1      34.360  22.200  23.653  1.00  0.00     0.163 HD
BRANCH  17  19
ATOM     19  C   UNL A   1      33.992  24.143  24.034  1.00  0.00     0.184 A 
ATOM     20  N   UNL A   1      34.114  24.996  25.023  1.00  0.00    -0.220 NA
ATOM     21  S   UNL A   1      32.669  24.433  22.975  1.00  0.00    -0.096 S 
ATOM     22  C   UNL A   1      33.097  25.938  24.965  1.00  0.00     0.091 A 
ATOM     23  C   UNL A   1      32.175  25.757  23.945  1.00  0.00     0.064 A 
BRANCH  22  24
ATOM     24  C   UNL A   1      33.043  27.053  25.898  1.00  0.00     0.002 A 
ATOM     25  C   UNL A   1      31.973  27.197  26.790  1.00  0.00    -0.053 A 
ATOM     26  C   UNL A   1      34.031  28.044  25.842  1.00  0.00    -0.053 A 
ATOM     27  C   UNL A   1      31.872  28.340  27.588  1.00  0.00    -0.062 A 
ATOM     28  H   UNL A   1      31.257  26.458  26.859  1.00  0.00     0.063 H 
ATOM     29  C   UNL A   1      33.925  29.187  26.638  1.00  0.00    -0.062 A 
ATOM     30  H   UNL A   1      34.839  27.929  25.212  1.00  0.00     0.063 H 
ATOM     31  C   UNL A   1      32.842  29.338  27.504  1.00  0.00    -0.062 A 
ATOM     32  H   UNL A   1      31.079  28.445  28.241  1.00  0.00     0.062 H 
ATOM     33  H   UNL A   1      34.648  29.921  26.585  1.00  0.00     0.062 H 
ATOM     34  H   UNL A   1      32.759  30.188  28.082  1.00  0.00     0.062 H 
ENDBRANCH  22  24
BRANCH  23  35
ATOM     35  C   UNL A   1      30.969  26.505  23.594  1.00  0.00    -0.006 A 
ATOM     36  C   UNL A   1      29.711  26.072  24.038  1.00  0.00    -0.053 A 
ATOM     37  C   UNL A   1      31.057  27.695  22.860  1.00  0.00    -0.053 A 
ATOM     38  C   UNL A   1      28.565  26.816  23.754  1.00  0.00    -0.062 A 
ATOM     39  H   UNL A   1      29.632  25.195  24.577  1.00  0.00     0.063 H 
ATOM     40  C   UNL A   1      29.910  28.439  22.577  1.00  0.00    -0.062 A 
ATOM     41  H   UNL A   1      31.977  28.023  22.525  1.00  0.00     0.063 H 
ATOM     42  C   UNL A   1      28.666  28.000  23.025  1.00  0.00    -0.062 A 
ATOM     43  H   UNL A   1      27.642  26.490  24.083  1.00  0.00     0.062 H 
ATOM     44  H   UNL A   1      29.984  29.315  22.037  1.00  0.00     0.062 H 
ATOM     45  H   UNL A   1      27.819  28.551  22.817  1.00  0.00     0.062 H 
ENDBRANCH  23  35
ENDBRANCH  17  19
ENDBRANCH  14  17
ENDBRANCH  12  14
ENDBRANCH   7  10
ENDBRANCH   4   7
ENDBRANCH   1   4
BRANCH   1  46
ATOM     46  C   UNL A   1      41.260  20.161  26.884  1.00  0.00    -0.052 C 
ATOM     47  H   UNL A   1      40.211  19.953  26.916  1.00  0.00     0.027 H 
ATOM     48  H   UNL A   1      41.780  19.879  27.776  1.00  0.00     0.027 H 
BRANCH  46  49
ATOM     49  C   UNL A   1      41.874  19.329  25.757  1.00  0.00    -0.036 C 
ATOM     50  H   UNL A   1      42.027  19.974  24.916  1.00  0.00     0.028 H 
ATOM     51  H   UNL A   1      41.184  18.535  25.564  1.00  0.00     0.028 H 
BRANCH  49  52
ATOM     52  C   UNL A   1      43.205  18.665  26.092  1.00  0.00     0.018 C 
ATOM     53  H   UNL A   1      43.014  17.675  26.451  1.00  0.00     0.049 H 
ATOM     54  H   UNL A   1      43.691  19.266  26.833  1.00  0.00     0.049 H 
BRANCH  52  55
ATOM     55  N   UNL A   1      44.095  18.580  24.943  1.00  0.00    -0.352 N 
ATOM     56  C   UNL A   1      44.736  19.579  24.252  1.00  0.00     0.251 C 
ATOM     57  H   UNL A   1      44.261  17.669  24.609  1.00  0.00     0.163 HD
ATOM     58  O   UNL A   1      45.317  19.328  23.199  1.00  0.00    -0.269 OA
BRANCH  56  59
ATOM     59  C   UNL A   1      44.704  20.970  24.755  1.00  0.00     0.039 A 
ATOM     60  C   UNL A   1      45.183  21.232  26.042  1.00  0.00    -0.049 A 
ATOM     61  C   UNL A   1      44.213  22.011  23.965  1.00  0.00    -0.049 A 
ATOM     62  C   UNL A   1      45.250  22.550  26.501  1.00  0.00    -0.053 A 
ATOM     63  H   UNL A   1      45.487  20.456  26.651  1.00  0.00     0.063 H 
ATOM     64  C   UNL A   1      44.347  23.330  24.395  1.00  0.00    -0.053 A 
ATOM     65  H   UNL A   1      43.752  21.805  23.065  1.00  0.00     0.063 H 
ATOM     66  C   UNL A   1      44.878  23.614  25.663  1.00  0.00    -0.014 A 
ATOM     67  H   UNL A   1      45.572  22.743  27.463  1.00  0.00     0.063 H 
ATOM     68  H   UNL A   1      44.053  24.103  23.777  1.00  0.00     0.063 H 
BRANCH  66  69
ATOM     69  C   UNL A   1      45.083  25.027  26.075  1.00  0.00     0.031 A 
ATOM     70  C   UNL A   1      46.448  25.648  26.027  1.00  0.00     0.074 A 
ATOM     71  C   UNL A   1      44.044  25.725  26.574  1.00  0.00     0.049 A 
ATOM     72  N   UNL A   1      46.833  26.836  26.423  1.00  0.00    -0.248 NA
ATOM     73  C   UNL A   1      47.532  24.815  25.487  1.00  0.00    -0.034 C 
ATOM     74  C   UNL A   1      42.681  25.215  26.724  1.00  0.00    -0.036 A 
ATOM     75  N   UNL A   1      43.976  27.005  27.067  1.00  0.00    -0.354 N 
ATOM     76  C   UNL A   1      48.199  26.891  26.183  1.00  0.00     0.074 A 
ATOM     77  C   UNL A   1      48.587  25.596  25.666  1.00  0.00    -0.034 C 
ATOM     78  H   UNL A   1      47.484  23.870  25.075  1.00  0.00     0.065 H 
ATOM     79  C   UNL A   1      41.910  26.173  27.262  1.00  0.00    -0.036 A 
ATOM     80  H   UNL A   1      42.362  24.270  26.459  1.00  0.00     0.065 H 
ATOM     81  C   UNL A   1      42.732  27.347  27.537  1.00  0.00     0.049 A 
ATOM     82  H   UNL A   1      44.747  27.618  27.083  1.00  0.00     0.167 HD
ATOM     83  C   UNL A   1      49.048  27.934  26.357  1.00  0.00     0.037 A 
ATOM     84  H   UNL A   1      49.560  25.317  25.462  1.00  0.00     0.065 H 
ATOM     85  H   UNL A   1      40.898  26.093  27.450  1.00  0.00     0.065 H 
ATOM     86  C   UNL A   1      42.304  28.472  28.142  1.00  0.00     0.037 A 
ATOM     87  C   UNL A   1      48.655  29.220  26.875  1.00  0.00     0.049 A 
ATOM     88  C   UNL A   1      43.269  29.606  28.355  1.00  0.00     0.074 A 
ATOM     89  C   UNL A   1      49.426  30.357  27.038  1.00  0.00    -0.036 A 
ATOM     90  N   UNL A   1      47.382  29.534  27.330  1.00  0.00    -0.354 N 
ATOM     91  N   UNL A   1      44.542  29.675  28.051  1.00  0.00    -0.248 NA
ATOM     92  C   UNL A   1      42.737  30.820  28.989  1.00  0.00    -0.034 C 
ATOM     93  C   UNL A   1      48.638  31.339  27.649  1.00  0.00    -0.036 A 
ATOM     94  H   UNL A   1      50.414  30.463  26.758  1.00  0.00     0.065 H 
ATOM     95  C   UNL A   1      47.356  30.836  27.808  1.00  0.00     0.049 A 
ATOM     96  H   UNL A   1      46.610  28.923  27.316  1.00  0.00     0.167 HD
ATOM     97  C   UNL A   1      44.960  30.940  28.440  1.00  0.00     0.074 A 
ATOM     98  C   UNL A   1      43.797  31.614  28.982  1.00  0.00    -0.034 C 
ATOM     99  H   UNL A   1      41.786  31.004  29.345  1.00  0.00     0.065 H 
ATOM    100  H   UNL A   1      48.958  32.278  27.932  1.00  0.00     0.065 H 
ATOM    101  C   UNL A   1      46.196  31.493  28.356  1.00  0.00     0.037 A 
ATOM    102  H   UNL A   1      43.796  32.590  29.321  1.00  0.00     0.065 H 
BRANCH  83 103
ATOM    103  C   UNL A   1      50.489  27.718  25.990  1.00  0.00     0.064 A 
ATOM    104  C   UNL A   1      50.940  27.844  24.666  1.00  0.00     0.173 A 
ATOM    105  C   UNL A   1      51.436  27.395  26.973  1.00  0.00     0.173 A 
ATOM    106  F   UNL A   1      50.078  28.145  23.684  1.00  0.00    -0.203 F 
ATOM    107  C   UNL A   1      52.273  27.611  24.335  1.00  0.00     0.198 A 
ATOM    108  C   UNL A   1      52.775  27.198  26.645  1.00  0.00     0.198 A 
ATOM    109  F   UNL A   1      51.065  27.271  28.257  1.00  0.00    -0.203 F 
ATOM    110  F   UNL A   1      52.665  27.672  23.056  1.00  0.00    -0.200 F 
ATOM    111  C   UNL A   1      53.190  27.293  25.325  1.00  0.00     0.200 A 
ATOM    112  F   UNL A   1      53.664  26.907  27.606  1.00  0.00    -0.200 F 
ATOM    113  F   UNL A   1      54.472  27.069  25.007  1.00  0.00    -0.200 F 
ENDBRANCH  83 103
BRANCH  86 114
ATOM    114  C   UNL A   1      40.890  28.570  28.588  1.00  0.00     0.064 A 
ATOM    115  C   UNL A   1      39.889  29.042  27.728  1.00  0.00     0.173 A 
ATOM    116  C   UNL A   1      40.506  28.172  29.878  1.00  0.00     0.173 A 
ATOM    117  F   UNL A   1      40.209  29.452  26.492  1.00  0.00    -0.203 F 
ATOM    118  C   UNL A   1      38.561  29.123  28.144  1.00  0.00     0.198 A 
ATOM    119  C   UNL A   1      39.174  28.225  30.282  1.00  0.00     0.198 A 
ATOM    120  F   UNL A   1      41.424  27.708  30.739  1.00  0.00    -0.203 F 
ATOM    121  F   UNL A   1      37.631  29.613  27.313  1.00  0.00    -0.200 F 
ATOM    122  C   UNL A   1      38.204  28.706  29.417  1.00  0.00     0.200 A 
ATOM    123  F   UNL A   1      38.831  27.803  31.507  1.00  0.00    -0.200 F 
ATOM    124  F   UNL A   1      36.925  28.772  29.812  1.00  0.00    -0.200 F 
ENDBRANCH  86 114
BRANCH 101 125
ATOM    125  C   UNL A   1      46.355  32.904  28.849  1.00  0.00     0.064 A 
ATOM    126  C   UNL A   1      46.139  34.007  28.009  1.00  0.00     0.173 A 
ATOM    127  C   UNL A   1      46.684  33.156  30.190  1.00  0.00     0.173 A 
ATOM    128  F   UNL A   1      45.838  33.821  26.715  1.00  0.00    -0.203 F 
ATOM    129  C   UNL A   1      46.269  35.308  28.487  1.00  0.00     0.198 A 
ATOM    130  C   UNL A   1      46.780  34.459  30.673  1.00  0.00     0.198 A 
ATOM    131  F   UNL A   1      46.897  32.138  31.037  1.00  0.00    -0.203 F 
ATOM    132  F   UNL A   1      46.106  36.345  27.654  1.00  0.00    -0.200 F 
ATOM    133  C   UNL A   1      46.581  35.533  29.820  1.00  0.00     0.200 A 
ATOM    134  F   UNL A   1      47.067  34.673  31.964  1.00  0.00    -0.200 F 
ATOM    135  F   UNL A   1      46.694  36.786  30.280  1.00  0.00    -0.200 F 
ENDBRANCH 101 125
ENDBRANCH  66  69
ENDBRANCH  56  59
ENDBRANCH  52  55
ENDBRANCH  49  52
ENDBRANCH  46  49
ENDBRANCH   1  46
TORSDOF 17
ENDMDL
MODEL 8
REMARK VINA RESULT:     -12.1      5.660     10.223
REMARK SMILES O=C(CNc1nc(-c2ccccc2)c(-c2ccccc2)s1)NCCCCCCNC(=O)c1ccc(-c2c3nc(c(-c4c(F)c(F)c(F)c(F)c4F)c4ccc([nH]4)c(-c4c(F)c(F)c(F)c(F)c4F)c4nc(c(-c5c(F)c(F)c(F)c(F)c5F)c5ccc2[nH]5)C=C4)C=C3)cc1
REMARK SMILES IDX 25 1 24 4 23 7 22 10 1 11 2 12 3 14 4 17 5 19 6 20 21 21
REMARK SMILES IDX 7 22 14 23 8 24 9 25 13 26 10 27 12 29 11 31 15 35 16 36
REMARK SMILES IDX 20 37 17 38 19 40 18 42 26 46 27 49 28 52 29 55 30 56 31 58
REMARK SMILES IDX 32 59 33 60 94 61 34 62 93 64 35 66 36 69 37 70 87 71 38 72
REMARK SMILES IDX 92 73 86 74 88 75 39 76 91 77 85 79 84 81 40 83 72 86 52 87
REMARK SMILES IDX 71 88 53 89 56 90 70 91 89 92 54 93 55 95 69 97 90 98 57 101
REMARK SMILES IDX 41 103 42 104 50 105 43 106 44 107 48 108 51 109 45 110
REMARK SMILES IDX 46 111 49 112 47 113 73 114 74 115 82 116 75 117 76 118
REMARK SMILES IDX 80 119 83 120 77 121 78 122 81 123 79 124 58 125 59 126
REMARK SMILES IDX 67 127 60 128 61 129 65 130 68 131 62 132 63 133 66 134
REMARK SMILES IDX 64 135
REMARK H PARENT 25 2 25 3 24 5 24 6 23 8 23 9 22 13 3 15 3 16 4 18 9 28 13 30
REMARK H PARENT 10 32 12 33 11 34 16 39 20 41 17 43 19 44 18 45 26 47 26 48
REMARK H PARENT 27 50 27 51 28 53 28 54 29 57 33 63 94 65 34 67 93 68 92 78
REMARK H PARENT 86 80 88 82 91 84 85 85 53 94 56 96 89 99 54 100 90 102
REMARK Flexibility Score: inf
ROOT
ATOM      1  C   UNL A   1      38.017  22.442  25.316  1.00  0.00    -0.052 C 
ATOM      2  H   UNL A   1      38.261  23.138  24.541  1.00  0.00     0.027 H 
ATOM      3  H   UNL A   1      37.932  21.430  24.977  1.00  0.00     0.027 H 
ENDROOT
BRANCH   1   4
ATOM      4  C   UNL A   1      36.635  22.817  25.871  1.00  0.00    -0.036 C 
ATOM      5  H   UNL A   1      36.774  23.266  26.832  1.00  0.00     0.028 H 
ATOM      6  H   UNL A   1      36.193  23.477  25.156  1.00  0.00     0.028 H 
BRANCH   4   7
ATOM      7  C   UNL A   1      35.670  21.643  26.030  1.00  0.00     0.017 C 
ATOM      8  H   UNL A   1      36.150  20.751  25.686  1.00  0.00     0.049 H 
ATOM      9  H   UNL A   1      35.408  21.563  27.065  1.00  0.00     0.049 H 
BRANCH   7  10
ATOM     10  N   UNL A   1      34.455  21.843  25.272  1.00  0.00    -0.355 N 
ATOM     11  O   UNL A   1      34.106  19.647  24.669  1.00  0.00    -0.273 OA
ATOM     12  C   UNL A   1      33.758  20.823  24.648  1.00  0.00     0.239 C 
ATOM     13  H   UNL A   1      34.102  22.758  25.196  1.00  0.00     0.163 HD
BRANCH  12  14
ATOM     14  C   UNL A   1      32.517  21.321  23.886  1.00  0.00     0.096 C 
ATOM     15  H   UNL A   1      31.981  20.484  23.489  1.00  0.00     0.059 H 
ATOM     16  H   UNL A   1      32.821  21.958  23.081  1.00  0.00     0.059 H 
BRANCH  14  17
ATOM     17  N   UNL A   1      31.657  22.061  24.800  1.00  0.00    -0.352 N 
ATOM     18  H   UNL A   1      31.136  21.564  25.471  1.00  0.00     0.163 HD
BRANCH  17  19
ATOM     19  C   UNL A   1      31.556  23.400  24.755  1.00  0.00     0.184 A 
ATOM     20  N   UNL A   1      32.076  24.240  25.617  1.00  0.00    -0.220 NA
ATOM     21  S   UNL A   1      30.636  24.120  23.493  1.00  0.00    -0.096 S 
ATOM     22  C   UNL A   1      31.725  25.540  25.284  1.00  0.00     0.091 A 
ATOM     23  C   UNL A   1      30.889  25.668  24.184  1.00  0.00     0.064 A 
BRANCH  22  24
ATOM     24  C   UNL A   1      32.239  26.679  26.029  1.00  0.00     0.002 A 
ATOM     25  C   UNL A   1      31.404  27.435  26.861  1.00  0.00    -0.053 A 
ATOM     26  C   UNL A   1      33.568  27.079  25.843  1.00  0.00    -0.053 A 
ATOM     27  C   UNL A   1      31.881  28.600  27.467  1.00  0.00    -0.062 A 
ATOM     28  H   UNL A   1      30.432  27.132  27.027  1.00  0.00     0.063 H 
ATOM     29  C   UNL A   1      34.042  28.245  26.447  1.00  0.00    -0.062 A 
ATOM     30  H   UNL A   1      34.199  26.509  25.258  1.00  0.00     0.063 H 
ATOM     31  C   UNL A   1      33.197  29.009  27.251  1.00  0.00    -0.062 A 
ATOM     32  H   UNL A   1      31.261  29.157  28.076  1.00  0.00     0.062 H 
ATOM     33  H   UNL A   1      35.019  28.543  26.297  1.00  0.00     0.062 H 
ATOM     34  H   UNL A   1      33.545  29.877  27.686  1.00  0.00     0.062 H 
ENDBRANCH  22  24
BRANCH  23  35
ATOM     35  C   UNL A   1      30.286  26.847  23.565  1.00  0.00    -0.006 A 
ATOM     36  C   UNL A   1      28.906  27.074  23.667  1.00  0.00    -0.053 A 
ATOM     37  C   UNL A   1      31.084  27.796  22.913  1.00  0.00    -0.053 A 
ATOM     38  C   UNL A   1      28.336  28.228  23.128  1.00  0.00    -0.062 A 
ATOM     39  H   UNL A   1      28.307  26.380  24.142  1.00  0.00     0.063 H 
ATOM     40  C   UNL A   1      30.513  28.951  22.375  1.00  0.00    -0.062 A 
ATOM     41  H   UNL A   1      32.101  27.640  22.829  1.00  0.00     0.063 H 
ATOM     42  C   UNL A   1      29.141  29.167  22.484  1.00  0.00    -0.062 A 
ATOM     43  H   UNL A   1      27.319  28.387  23.206  1.00  0.00     0.062 H 
ATOM     44  H   UNL A   1      31.108  29.647  21.898  1.00  0.00     0.062 H 
ATOM     45  H   UNL A   1      28.720  30.021  22.088  1.00  0.00     0.062 H 
ENDBRANCH  23  35
ENDBRANCH  17  19
ENDBRANCH  14  17
ENDBRANCH  12  14
ENDBRANCH   7  10
ENDBRANCH   4   7
ENDBRANCH   1   4
BRANCH   1  46
ATOM     46  C   UNL A   1      39.163  22.448  26.333  1.00  0.00    -0.052 C 
ATOM     47  H   UNL A   1      38.825  22.961  27.208  1.00  0.00     0.027 H 
ATOM     48  H   UNL A   1      39.987  22.928  25.846  1.00  0.00     0.027 H 
BRANCH  46  49
ATOM     49  C   UNL A   1      39.670  21.069  26.758  1.00  0.00    -0.036 C 
ATOM     50  H   UNL A   1      39.049  20.719  27.557  1.00  0.00     0.028 H 
ATOM     51  H   UNL A   1      40.693  21.202  27.041  1.00  0.00     0.028 H 
BRANCH  49  52
ATOM     52  C   UNL A   1      39.667  20.010  25.660  1.00  0.00     0.018 C 
ATOM     53  H   UNL A   1      39.834  20.492  24.719  1.00  0.00     0.049 H 
ATOM     54  H   UNL A   1      38.718  19.516  25.687  1.00  0.00     0.049 H 
BRANCH  52  55
ATOM     55  N   UNL A   1      40.696  18.998  25.853  1.00  0.00    -0.352 N 
ATOM     56  C   UNL A   1      42.035  19.147  26.125  1.00  0.00     0.251 C 
ATOM     57  H   UNL A   1      40.387  18.067  25.778  1.00  0.00     0.163 HD
ATOM     58  O   UNL A   1      42.784  18.173  26.090  1.00  0.00    -0.269 OA
BRANCH  56  59
ATOM     59  C   UNL A   1      42.587  20.484  26.430  1.00  0.00     0.039 A 
ATOM     60  C   UNL A   1      43.038  21.284  25.376  1.00  0.00    -0.049 A 
ATOM     61  C   UNL A   1      42.656  20.954  27.744  1.00  0.00    -0.049 A 
ATOM     62  C   UNL A   1      43.476  22.586  25.631  1.00  0.00    -0.053 A 
ATOM     63  H   UNL A   1      43.047  20.915  24.412  1.00  0.00     0.063 H 
ATOM     64  C   UNL A   1      43.024  22.275  27.989  1.00  0.00    -0.053 A 
ATOM     65  H   UNL A   1      42.435  20.324  28.531  1.00  0.00     0.063 H 
ATOM     66  C   UNL A   1      43.426  23.109  26.934  1.00  0.00    -0.014 A 
ATOM     67  H   UNL A   1      43.839  23.166  24.859  1.00  0.00     0.063 H 
ATOM     68  H   UNL A   1      43.001  22.643  28.953  1.00  0.00     0.063 H 
BRANCH  66  69
ATOM     69  C   UNL A   1      43.743  24.536  27.203  1.00  0.00     0.031 A 
ATOM     70  C   UNL A   1      45.165  25.015  27.215  1.00  0.00     0.074 A 
ATOM     71  C   UNL A   1      42.746  25.385  27.519  1.00  0.00     0.049 A 
ATOM     72  N   UNL A   1      45.639  26.200  27.510  1.00  0.00    -0.248 NA
ATOM     73  C   UNL A   1      46.197  24.023  26.877  1.00  0.00    -0.034 C 
ATOM     74  C   UNL A   1      41.329  25.029  27.595  1.00  0.00    -0.036 A 
ATOM     75  N   UNL A   1      42.773  26.715  27.857  1.00  0.00    -0.354 N 
ATOM     76  C   UNL A   1      47.018  26.095  27.396  1.00  0.00     0.074 A 
ATOM     77  C   UNL A   1      47.309  24.716  27.066  1.00  0.00    -0.034 C 
ATOM     78  H   UNL A   1      46.084  23.043  26.572  1.00  0.00     0.065 H 
ATOM     79  C   UNL A   1      40.621  26.114  27.947  1.00  0.00    -0.036 A 
ATOM     80  H   UNL A   1      40.936  24.093  27.409  1.00  0.00     0.065 H 
ATOM     81  C   UNL A   1      41.537  27.229  28.165  1.00  0.00     0.049 A 
ATOM     82  H   UNL A   1      43.599  27.250  27.877  1.00  0.00     0.167 HD
ATOM     83  C   UNL A   1      47.955  27.066  27.531  1.00  0.00     0.037 A 
ATOM     84  H   UNL A   1      48.261  24.323  26.989  1.00  0.00     0.065 H 
ATOM     85  H   UNL A   1      39.594  26.153  28.046  1.00  0.00     0.065 H 
ATOM     86  C   UNL A   1      41.180  28.454  28.596  1.00  0.00     0.037 A 
ATOM     87  C   UNL A   1      47.659  28.437  27.862  1.00  0.00     0.049 A 
ATOM     88  C   UNL A   1      42.239  29.509  28.771  1.00  0.00     0.074 A 
ATOM     89  C   UNL A   1      48.529  29.507  27.968  1.00  0.00    -0.036 A 
ATOM     90  N   UNL A   1      46.392  28.923  28.155  1.00  0.00    -0.354 N 
ATOM     91  N   UNL A   1      43.533  29.419  28.584  1.00  0.00    -0.248 NA
ATOM     92  C   UNL A   1      41.786  30.835  29.211  1.00  0.00    -0.034 C 
ATOM     93  C   UNL A   1      47.801  30.626  28.387  1.00  0.00    -0.036 A 
ATOM     94  H   UNL A   1      49.542  29.484  27.773  1.00  0.00     0.065 H 
ATOM     95  C   UNL A   1      46.464  30.270  28.480  1.00  0.00     0.049 A 
ATOM     96  H   UNL A   1      45.564  28.392  28.137  1.00  0.00     0.167 HD
ATOM     97  C   UNL A   1      44.048  30.677  28.866  1.00  0.00     0.074 A 
ATOM     98  C   UNL A   1      42.922  31.519  29.216  1.00  0.00    -0.034 C 
ATOM     99  H   UNL A   1      40.834  31.151  29.453  1.00  0.00     0.065 H 
ATOM    100  H   UNL A   1      48.193  31.558  28.593  1.00  0.00     0.065 H 
ATOM    101  C   UNL A   1      45.337  31.096  28.838  1.00  0.00     0.037 A 
ATOM    102  H   UNL A   1      42.995  32.524  29.441  1.00  0.00     0.065 H 
BRANCH  83 103
ATOM    103  C   UNL A   1      49.391  26.671  27.329  1.00  0.00     0.064 A 
ATOM    104  C   UNL A   1      50.251  26.435  28.414  1.00  0.00     0.173 A 
ATOM    105  C   UNL A   1      49.913  26.512  26.036  1.00  0.00     0.173 A 
ATOM    106  F   UNL A   1      49.807  26.579  29.671  1.00  0.00    -0.203 F 
ATOM    107  C   UNL A   1      51.588  26.100  28.212  1.00  0.00     0.198 A 
ATOM    108  C   UNL A   1      51.241  26.142  25.838  1.00  0.00     0.198 A 
ATOM    109  F   UNL A   1      49.135  26.714  24.962  1.00  0.00    -0.203 F 
ATOM    110  F   UNL A   1      52.405  25.946  29.262  1.00  0.00    -0.200 F 
ATOM    111  C   UNL A   1      52.080  25.949  26.925  1.00  0.00     0.200 A 
ATOM    112  F   UNL A   1      51.711  25.979  24.593  1.00  0.00    -0.200 F 
ATOM    113  F   UNL A   1      53.366  25.627  26.731  1.00  0.00    -0.200 F 
ENDBRANCH  83 103
BRANCH  86 114
ATOM    114  C   UNL A   1      39.752  28.739  28.892  1.00  0.00     0.064 A 
ATOM    115  C   UNL A   1      39.224  28.538  30.175  1.00  0.00     0.173 A 
ATOM    116  C   UNL A   1      38.892  29.242  27.904  1.00  0.00     0.173 A 
ATOM    117  F   UNL A   1      40.001  28.040  31.148  1.00  0.00    -0.203 F 
ATOM    118  C   UNL A   1      37.887  28.816  30.454  1.00  0.00     0.198 A 
ATOM    119  C   UNL A   1      37.564  29.549  28.193  1.00  0.00     0.198 A 
ATOM    120  F   UNL A   1      39.349  29.458  26.662  1.00  0.00    -0.203 F 
ATOM    121  F   UNL A   1      37.398  28.579  31.680  1.00  0.00    -0.200 F 
ATOM    122  C   UNL A   1      37.061  29.331  29.466  1.00  0.00     0.200 A 
ATOM    123  F   UNL A   1      36.776  30.064  27.240  1.00  0.00    -0.200 F 
ATOM    124  F   UNL A   1      35.780  29.611  29.739  1.00  0.00    -0.200 F 
ENDBRANCH  86 114
BRANCH 101 125
ATOM    125  C   UNL A   1      45.603  32.534  29.182  1.00  0.00     0.064 A 
ATOM    126  C   UNL A   1      45.565  33.544  28.208  1.00  0.00     0.173 A 
ATOM    127  C   UNL A   1      45.854  32.914  30.510  1.00  0.00     0.173 A 
ATOM    128  F   UNL A   1      45.345  33.234  26.922  1.00  0.00    -0.203 F 
ATOM    129  C   UNL A   1      45.792  34.876  28.548  1.00  0.00     0.198 A 
ATOM    130  C   UNL A   1      46.047  34.250  30.851  1.00  0.00     0.198 A 
ATOM    131  F   UNL A   1      45.897  31.989  31.481  1.00  0.00    -0.203 F 
ATOM    132  F   UNL A   1      45.799  35.816  27.593  1.00  0.00    -0.200 F 
ATOM    133  C   UNL A   1      46.024  35.229  29.869  1.00  0.00     0.200 A 
ATOM    134  F   UNL A   1      46.256  34.590  32.130  1.00  0.00    -0.200 F 
ATOM    135  F   UNL A   1      46.230  36.512  30.195  1.00  0.00    -0.200 F 
ENDBRANCH 101 125
ENDBRANCH  66  69
ENDBRANCH  56  59
ENDBRANCH  52  55
ENDBRANCH  49  52
ENDBRANCH  46  49
ENDBRANCH   1  46
TORSDOF 17
ENDMDL
MODEL 9
REMARK VINA RESULT:     -12.1      3.713      8.741
REMARK SMILES O=C(CNc1nc(-c2ccccc2)c(-c2ccccc2)s1)NCCCCCCNC(=O)c1ccc(-c2c3nc(c(-c4c(F)c(F)c(F)c(F)c4F)c4ccc([nH]4)c(-c4c(F)c(F)c(F)c(F)c4F)c4nc(c(-c5c(F)c(F)c(F)c(F)c5F)c5ccc2[nH]5)C=C4)C=C3)cc1
REMARK SMILES IDX 25 1 24 4 23 7 22 10 1 11 2 12 3 14 4 17 5 19 6 20 21 21
REMARK SMILES IDX 7 22 14 23 8 24 9 25 13 26 10 27 12 29 11 31 15 35 16 36
REMARK SMILES IDX 20 37 17 38 19 40 18 42 26 46 27 49 28 52 29 55 30 56 31 58
REMARK SMILES IDX 32 59 33 60 94 61 34 62 93 64 35 66 36 69 37 70 87 71 38 72
REMARK SMILES IDX 92 73 86 74 88 75 39 76 91 77 85 79 84 81 40 83 72 86 52 87
REMARK SMILES IDX 71 88 53 89 56 90 70 91 89 92 54 93 55 95 69 97 90 98 57 101
REMARK SMILES IDX 41 103 42 104 50 105 43 106 44 107 48 108 51 109 45 110
REMARK SMILES IDX 46 111 49 112 47 113 73 114 74 115 82 116 75 117 76 118
REMARK SMILES IDX 80 119 83 120 77 121 78 122 81 123 79 124 58 125 59 126
REMARK SMILES IDX 67 127 60 128 61 129 65 130 68 131 62 132 63 133 66 134
REMARK SMILES IDX 64 135
REMARK H PARENT 25 2 25 3 24 5 24 6 23 8 23 9 22 13 3 15 3 16 4 18 9 28 13 30
REMARK H PARENT 10 32 12 33 11 34 16 39 20 41 17 43 19 44 18 45 26 47 26 48
REMARK H PARENT 27 50 27 51 28 53 28 54 29 57 33 63 94 65 34 67 93 68 92 78
REMARK H PARENT 86 80 88 82 91 84 85 85 53 94 56 96 89 99 54 100 90 102
REMARK Flexibility Score: inf
ROOT
ATOM      1  C   UNL A   1      32.773  27.381  23.751  1.00  0.00    -0.052 C 
ATOM      2  H   UNL A   1      33.469  27.545  22.956  1.00  0.00     0.027 H 
ATOM      3  H   UNL A   1      32.936  26.469  24.286  1.00  0.00     0.027 H 
ENDROOT
BRANCH   1   4
ATOM      4  C   UNL A   1      31.371  27.262  23.135  1.00  0.00    -0.036 C 
ATOM      5  H   UNL A   1      31.204  28.121  22.519  1.00  0.00     0.028 H 
ATOM      6  H   UNL A   1      31.359  26.342  22.590  1.00  0.00     0.028 H 
BRANCH   4   7
ATOM      7  C   UNL A   1      30.232  27.177  24.150  1.00  0.00     0.017 C 
ATOM      8  H   UNL A   1      30.382  27.922  24.903  1.00  0.00     0.049 H 
ATOM      9  H   UNL A   1      29.309  27.336  23.631  1.00  0.00     0.049 H 
BRANCH   7  10
ATOM     10  N   UNL A   1      30.174  25.878  24.782  1.00  0.00    -0.355 N 
ATOM     11  O   UNL A   1      30.904  26.520  26.870  1.00  0.00    -0.273 OA
ATOM     12  C   UNL A   1      30.513  25.647  26.104  1.00  0.00     0.239 C 
ATOM     13  H   UNL A   1      29.876  25.112  24.240  1.00  0.00     0.163 HD
BRANCH  12  14
ATOM     14  C   UNL A   1      30.389  24.167  26.507  1.00  0.00     0.096 C 
ATOM     15  H   UNL A   1      29.448  24.005  26.991  1.00  0.00     0.059 H 
ATOM     16  H   UNL A   1      31.181  23.910  27.180  1.00  0.00     0.059 H 
BRANCH  14  17
ATOM     17  N   UNL A   1      30.471  23.335  25.313  1.00  0.00    -0.352 N 
ATOM     18  H   UNL A   1      29.773  23.420  24.624  1.00  0.00     0.163 HD
BRANCH  17  19
ATOM     19  C   UNL A   1      31.470  22.457  25.124  1.00  0.00     0.184 A 
ATOM     20  N   UNL A   1      31.344  21.155  25.037  1.00  0.00    -0.220 NA
ATOM     21  S   UNL A   1      33.082  23.046  25.019  1.00  0.00    -0.096 S 
ATOM     22  C   UNL A   1      32.592  20.566  24.892  1.00  0.00     0.091 A 
ATOM     23  C   UNL A   1      33.669  21.438  24.921  1.00  0.00     0.064 A 
BRANCH  22  24
ATOM     24  C   UNL A   1      32.734  19.132  24.690  1.00  0.00     0.002 A 
ATOM     25  C   UNL A   1      32.829  18.254  25.777  1.00  0.00    -0.053 A 
ATOM     26  C   UNL A   1      32.868  18.632  23.388  1.00  0.00    -0.053 A 
ATOM     27  C   UNL A   1      33.095  16.899  25.566  1.00  0.00    -0.062 A 
ATOM     28  H   UNL A   1      32.703  18.608  26.737  1.00  0.00     0.063 H 
ATOM     29  C   UNL A   1      33.137  17.278  23.180  1.00  0.00    -0.062 A 
ATOM     30  H   UNL A   1      32.766  19.266  22.581  1.00  0.00     0.063 H 
ATOM     31  C   UNL A   1      33.258  16.414  24.268  1.00  0.00    -0.062 A 
ATOM     32  H   UNL A   1      33.168  16.256  26.369  1.00  0.00     0.062 H 
ATOM     33  H   UNL A   1      33.247  16.915  22.220  1.00  0.00     0.062 H 
ATOM     34  H   UNL A   1      33.470  15.416  24.113  1.00  0.00     0.062 H 
ENDBRANCH  22  24
BRANCH  23  35
ATOM     35  C   UNL A   1      35.108  21.194  24.840  1.00  0.00    -0.006 A 
ATOM     36  C   UNL A   1      36.006  22.268  24.750  1.00  0.00    -0.053 A 
ATOM     37  C   UNL A   1      35.614  19.889  24.909  1.00  0.00    -0.053 A 
ATOM     38  C   UNL A   1      37.383  22.039  24.733  1.00  0.00    -0.062 A 
ATOM     39  H   UNL A   1      35.645  23.233  24.696  1.00  0.00     0.063 H 
ATOM     40  C   UNL A   1      36.992  19.663  24.893  1.00  0.00    -0.062 A 
ATOM     41  H   UNL A   1      34.964  19.090  24.973  1.00  0.00     0.063 H 
ATOM     42  C   UNL A   1      37.874  20.738  24.805  1.00  0.00    -0.062 A 
ATOM     43  H   UNL A   1      38.037  22.836  24.665  1.00  0.00     0.062 H 
ATOM     44  H   UNL A   1      37.357  18.699  24.945  1.00  0.00     0.062 H 
ATOM     45  H   UNL A   1      38.893  20.569  24.794  1.00  0.00     0.062 H 
ENDBRANCH  23  35
ENDBRANCH  17  19
ENDBRANCH  14  17
ENDBRANCH  12  14
ENDBRANCH   7  10
ENDBRANCH   4   7
ENDBRANCH   1   4
BRANCH   1  46
ATOM     46  C   UNL A   1      32.953  28.506  24.775  1.00  0.00    -0.052 C 
ATOM     47  H   UNL A   1      32.028  28.625  25.301  1.00  0.00     0.027 H 
ATOM     48  H   UNL A   1      33.243  29.371  24.216  1.00  0.00     0.027 H 
BRANCH  46  49
ATOM     49  C   UNL A   1      34.058  28.282  25.808  1.00  0.00    -0.036 C 
ATOM     50  H   UNL A   1      34.869  28.941  25.575  1.00  0.00     0.028 H 
ATOM     51  H   UNL A   1      34.320  27.246  25.745  1.00  0.00     0.028 H 
BRANCH  49  52
ATOM     52  C   UNL A   1      33.651  28.529  27.258  1.00  0.00     0.018 C 
ATOM     53  H   UNL A   1      34.337  28.016  27.899  1.00  0.00     0.049 H 
ATOM     54  H   UNL A   1      32.651  28.169  27.380  1.00  0.00     0.049 H 
BRANCH  52  55
ATOM     55  N   UNL A   1      33.656  29.943  27.607  1.00  0.00    -0.352 N 
ATOM     56  C   UNL A   1      34.629  30.693  28.222  1.00  0.00     0.251 C 
ATOM     57  H   UNL A   1      32.838  30.436  27.368  1.00  0.00     0.163 HD
ATOM     58  O   UNL A   1      34.386  31.841  28.587  1.00  0.00    -0.269 OA
BRANCH  56  59
ATOM     59  C   UNL A   1      35.965  30.112  28.476  1.00  0.00     0.039 A 
ATOM     60  C   UNL A   1      36.931  30.175  27.467  1.00  0.00    -0.049 A 
ATOM     61  C   UNL A   1      36.271  29.515  29.701  1.00  0.00    -0.049 A 
ATOM     62  C   UNL A   1      38.227  29.718  27.719  1.00  0.00    -0.053 A 
ATOM     63  H   UNL A   1      36.688  30.558  26.540  1.00  0.00     0.063 H 
ATOM     64  C   UNL A   1      37.581  29.127  29.975  1.00  0.00    -0.053 A 
ATOM     65  H   UNL A   1      35.528  29.362  30.402  1.00  0.00     0.063 H 
ATOM     66  C   UNL A   1      38.575  29.236  28.991  1.00  0.00    -0.014 A 
ATOM     67  H   UNL A   1      38.932  29.734  26.965  1.00  0.00     0.063 H 
ATOM     68  H   UNL A   1      37.821  28.757  30.909  1.00  0.00     0.063 H 
BRANCH  66  69
ATOM     69  C   UNL A   1      39.981  28.887  29.323  1.00  0.00     0.031 A 
ATOM     70  C   UNL A   1      40.860  29.862  30.052  1.00  0.00     0.074 A 
ATOM     71  C   UNL A   1      40.490  27.717  28.892  1.00  0.00     0.049 A 
ATOM     72  N   UNL A   1      42.131  29.767  30.354  1.00  0.00    -0.248 NA
ATOM     73  C   UNL A   1      40.235  31.125  30.473  1.00  0.00    -0.034 C 
ATOM     74  C   UNL A   1      39.754  26.710  28.127  1.00  0.00    -0.036 A 
ATOM     75  N   UNL A   1      41.750  27.186  29.015  1.00  0.00    -0.354 N 
ATOM     76  C   UNL A   1      42.456  30.953  30.997  1.00  0.00     0.074 A 
ATOM     77  C   UNL A   1      41.267  31.778  30.985  1.00  0.00    -0.034 C 
ATOM     78  H   UNL A   1      39.250  31.423  30.392  1.00  0.00     0.065 H 
ATOM     79  C   UNL A   1      40.571  25.679  27.857  1.00  0.00    -0.036 A 
ATOM     80  H   UNL A   1      38.765  26.780  27.841  1.00  0.00     0.065 H 
ATOM     81  C   UNL A   1      41.898  25.972  28.389  1.00  0.00     0.049 A 
ATOM     82  H   UNL A   1      42.478  27.633  29.505  1.00  0.00     0.167 HD
ATOM     83  C   UNL A   1      43.634  31.313  31.565  1.00  0.00     0.037 A 
ATOM     84  H   UNL A   1      41.228  32.750  31.331  1.00  0.00     0.065 H 
ATOM     85  H   UNL A   1      40.303  24.818  27.355  1.00  0.00     0.065 H 
ATOM     86  C   UNL A   1      42.984  25.190  28.241  1.00  0.00     0.037 A 
ATOM     87  C   UNL A   1      44.816  30.488  31.571  1.00  0.00     0.049 A 
ATOM     88  C   UNL A   1      44.291  25.622  28.851  1.00  0.00     0.074 A 
ATOM     89  C   UNL A   1      46.039  30.737  32.166  1.00  0.00    -0.036 A 
ATOM     90  N   UNL A   1      44.924  29.257  30.937  1.00  0.00    -0.354 N 
ATOM     91  N   UNL A   1      44.567  26.711  29.525  1.00  0.00    -0.248 NA
ATOM     92  C   UNL A   1      45.432  24.713  28.685  1.00  0.00    -0.034 C 
ATOM     93  C   UNL A   1      46.908  29.689  31.840  1.00  0.00    -0.036 A 
ATOM     94  H   UNL A   1      46.272  31.556  32.750  1.00  0.00     0.065 H 
ATOM     95  C   UNL A   1      46.207  28.754  31.095  1.00  0.00     0.049 A 
ATOM     96  H   UNL A   1      44.199  28.808  30.446  1.00  0.00     0.167 HD
ATOM     97  C   UNL A   1      45.906  26.613  29.878  1.00  0.00     0.074 A 
ATOM     98  C   UNL A   1      46.381  25.346  29.361  1.00  0.00    -0.034 C 
ATOM     99  H   UNL A   1      45.483  23.817  28.175  1.00  0.00     0.065 H 
ATOM    100  H   UNL A   1      47.902  29.625  32.109  1.00  0.00     0.065 H 
ATOM    101  C   UNL A   1      46.672  27.495  30.567  1.00  0.00     0.037 A 
ATOM    102  H   UNL A   1      47.336  24.982  29.502  1.00  0.00     0.065 H 
BRANCH  83 103
ATOM    103  C   UNL A   1      43.700  32.664  32.219  1.00  0.00     0.064 A 
ATOM    104  C   UNL A   1      44.076  33.813  31.504  1.00  0.00     0.173 A 
ATOM    105  C   UNL A   1      43.368  32.819  33.574  1.00  0.00     0.173 A 
ATOM    106  F   UNL A   1      44.410  33.722  30.208  1.00  0.00    -0.203 F 
ATOM    107  C   UNL A   1      44.163  35.054  32.131  1.00  0.00     0.198 A 
ATOM    108  C   UNL A   1      43.421  34.068  34.188  1.00  0.00     0.198 A 
ATOM    109  F   UNL A   1      42.991  31.759  34.305  1.00  0.00    -0.203 F 
ATOM    110  F   UNL A   1      44.589  36.122  31.443  1.00  0.00    -0.200 F 
ATOM    111  C   UNL A   1      43.830  35.181  33.470  1.00  0.00     0.200 A 
ATOM    112  F   UNL A   1      43.082  34.192  35.480  1.00  0.00    -0.200 F 
ATOM    113  F   UNL A   1      43.913  36.375  34.073  1.00  0.00    -0.200 F 
ENDBRANCH  83 103
BRANCH  86 114
ATOM    114  C   UNL A   1      42.874  23.921  27.476  1.00  0.00     0.064 A 
ATOM    115  C   UNL A   1      42.419  22.744  28.087  1.00  0.00     0.173 A 
ATOM    116  C   UNL A   1      43.201  23.864  26.112  1.00  0.00     0.173 A 
ATOM    117  F   UNL A   1      42.114  22.744  29.392  1.00  0.00    -0.203 F 
ATOM    118  C   UNL A   1      42.306  21.557  27.365  1.00  0.00     0.198 A 
ATOM    119  C   UNL A   1      43.057  22.684  25.386  1.00  0.00     0.198 A 
ATOM    120  F   UNL A   1      43.636  24.963  25.479  1.00  0.00    -0.203 F 
ATOM    121  F   UNL A   1      41.903  20.437  27.983  1.00  0.00    -0.200 F 
ATOM    122  C   UNL A   1      42.616  21.530  26.014  1.00  0.00     0.200 A 
ATOM    123  F   UNL A   1      43.340  22.668  24.077  1.00  0.00    -0.200 F 
ATOM    124  F   UNL A   1      42.494  20.391  25.319  1.00  0.00    -0.200 F 
ENDBRANCH  86 114
BRANCH 101 125
ATOM    125  C   UNL A   1      48.104  27.115  30.817  1.00  0.00     0.064 A 
ATOM    126  C   UNL A   1      48.471  26.286  31.888  1.00  0.00     0.173 A 
ATOM    127  C   UNL A   1      49.118  27.549  29.948  1.00  0.00     0.173 A 
ATOM    128  F   UNL A   1      47.544  25.857  32.758  1.00  0.00    -0.203 F 
ATOM    129  C   UNL A   1      49.800  25.926  32.092  1.00  0.00     0.198 A 
ATOM    130  C   UNL A   1      50.441  27.159  30.136  1.00  0.00     0.198 A 
ATOM    131  F   UNL A   1      48.822  28.339  28.905  1.00  0.00    -0.203 F 
ATOM    132  F   UNL A   1      50.133  25.173  33.150  1.00  0.00    -0.200 F 
ATOM    133  C   UNL A   1      50.783  26.355  31.212  1.00  0.00     0.200 A 
ATOM    134  F   UNL A   1      51.385  27.563  29.276  1.00  0.00    -0.200 F 
ATOM    135  F   UNL A   1      52.059  25.997  31.405  1.00  0.00    -0.200 F 
ENDBRANCH 101 125
ENDBRANCH  66  69
ENDBRANCH  56  59
ENDBRANCH  52  55
ENDBRANCH  49  52
ENDBRANCH  46  49
ENDBRANCH   1  46
TORSDOF 17
ENDMDL
MODEL 10
REMARK VINA RESULT:     -11.9      6.435     11.216
REMARK SMILES O=C(CNc1nc(-c2ccccc2)c(-c2ccccc2)s1)NCCCCCCNC(=O)c1ccc(-c2c3nc(c(-c4c(F)c(F)c(F)c(F)c4F)c4ccc([nH]4)c(-c4c(F)c(F)c(F)c(F)c4F)c4nc(c(-c5c(F)c(F)c(F)c(F)c5F)c5ccc2[nH]5)C=C4)C=C3)cc1
REMARK SMILES IDX 25 1 24 4 23 7 22 10 1 11 2 12 3 14 4 17 5 19 6 20 21 21
REMARK SMILES IDX 7 22 14 23 8 24 9 25 13 26 10 27 12 29 11 31 15 35 16 36
REMARK SMILES IDX 20 37 17 38 19 40 18 42 26 46 27 49 28 52 29 55 30 56 31 58
REMARK SMILES IDX 32 59 33 60 94 61 34 62 93 64 35 66 36 69 37 70 87 71 38 72
REMARK SMILES IDX 92 73 86 74 88 75 39 76 91 77 85 79 84 81 40 83 72 86 52 87
REMARK SMILES IDX 71 88 53 89 56 90 70 91 89 92 54 93 55 95 69 97 90 98 57 101
REMARK SMILES IDX 41 103 42 104 50 105 43 106 44 107 48 108 51 109 45 110
REMARK SMILES IDX 46 111 49 112 47 113 73 114 74 115 82 116 75 117 76 118
REMARK SMILES IDX 80 119 83 120 77 121 78 122 81 123 79 124 58 125 59 126
REMARK SMILES IDX 67 127 60 128 61 129 65 130 68 131 62 132 63 133 66 134
REMARK SMILES IDX 64 135
REMARK H PARENT 25 2 25 3 24 5 24 6 23 8 23 9 22 13 3 15 3 16 4 18 9 28 13 30
REMARK H PARENT 10 32 12 33 11 34 16 39 20 41 17 43 19 44 18 45 26 47 26 48
REMARK H PARENT 27 50 27 51 28 53 28 54 29 57 33 63 94 65 34 67 93 68 92 78
REMARK H PARENT 86 80 88 82 91 84 85 85 53 94 56 96 89 99 54 100 90 102
REMARK Flexibility Score: inf
ROOT
ATOM      1  C   UNL A   1      40.814  22.443  26.454  1.00  0.00    -0.052 C 
ATOM      2  H   UNL A   1      41.332  23.266  26.899  1.00  0.00     0.027 H 
ATOM      3  H   UNL A   1      41.059  22.285  25.424  1.00  0.00     0.027 H 
ENDROOT
BRANCH   1   4
ATOM      4  C   UNL A   1      39.312  22.758  26.485  1.00  0.00    -0.036 C 
ATOM      5  H   UNL A   1      38.985  22.725  27.503  1.00  0.00     0.028 H 
ATOM      6  H   UNL A   1      39.197  23.721  26.035  1.00  0.00     0.028 H 
BRANCH   4   7
ATOM      7  C   UNL A   1      38.441  21.797  25.676  1.00  0.00     0.017 C 
ATOM      8  H   UNL A   1      39.074  21.140  25.119  1.00  0.00     0.049 H 
ATOM      9  H   UNL A   1      37.825  21.249  26.359  1.00  0.00     0.049 H 
BRANCH   7  10
ATOM     10  N   UNL A   1      37.575  22.503  24.758  1.00  0.00    -0.355 N 
ATOM     11  O   UNL A   1      35.896  20.929  24.650  1.00  0.00    -0.273 OA
ATOM     12  C   UNL A   1      36.359  22.014  24.314  1.00  0.00     0.239 C 
ATOM     13  H   UNL A   1      37.868  23.383  24.428  1.00  0.00     0.163 HD
BRANCH  12  14
ATOM     14  C   UNL A   1      35.659  22.956  23.318  1.00  0.00     0.096 C 
ATOM     15  H   UNL A   1      35.837  22.618  22.319  1.00  0.00     0.059 H 
ATOM     16  H   UNL A   1      36.045  23.948  23.429  1.00  0.00     0.059 H 
BRANCH  14  17
ATOM     17  N   UNL A   1      34.226  22.956  23.583  1.00  0.00    -0.352 N 
ATOM     18  H   UNL A   1      33.723  22.116  23.481  1.00  0.00     0.163 HD
BRANCH  17  19
ATOM     19  C   UNL A   1      33.571  24.066  23.964  1.00  0.00     0.184 A 
ATOM     20  N   UNL A   1      32.492  24.554  23.402  1.00  0.00    -0.220 NA
ATOM     21  S   UNL A   1      34.192  24.984  25.279  1.00  0.00    -0.096 S 
ATOM     22  C   UNL A   1      32.124  25.736  24.027  1.00  0.00     0.091 A 
ATOM     23  C   UNL A   1      32.970  26.162  25.040  1.00  0.00     0.064 A 
BRANCH  22  24
ATOM     24  C   UNL A   1      30.910  26.446  23.653  1.00  0.00     0.002 A 
ATOM     25  C   UNL A   1      30.967  27.661  22.960  1.00  0.00    -0.053 A 
ATOM     26  C   UNL A   1      29.669  25.950  24.071  1.00  0.00    -0.053 A 
ATOM     27  C   UNL A   1      29.800  28.391  22.723  1.00  0.00    -0.062 A 
ATOM     28  H   UNL A   1      31.873  28.019  22.623  1.00  0.00     0.063 H 
ATOM     29  C   UNL A   1      28.504  26.683  23.836  1.00  0.00    -0.062 A 
ATOM     30  H   UNL A   1      29.615  25.039  24.553  1.00  0.00     0.063 H 
ATOM     31  C   UNL A   1      28.571  27.907  23.170  1.00  0.00    -0.062 A 
ATOM     32  H   UNL A   1      29.846  29.289  22.216  1.00  0.00     0.062 H 
ATOM     33  H   UNL A   1      27.592  26.321  24.157  1.00  0.00     0.062 H 
ATOM     34  H   UNL A   1      27.711  28.454  23.009  1.00  0.00     0.062 H 
ENDBRANCH  22  24
BRANCH  23  35
ATOM     35  C   UNL A   1      32.935  27.355  25.885  1.00  0.00    -0.006 A 
ATOM     36  C   UNL A   1      34.015  28.250  25.894  1.00  0.00    -0.053 A 
ATOM     37  C   UNL A   1      31.802  27.650  26.654  1.00  0.00    -0.053 A 
ATOM     38  C   UNL A   1      33.960  29.418  26.654  1.00  0.00    -0.062 A 
ATOM     39  H   UNL A   1      34.857  28.041  25.334  1.00  0.00     0.063 H 
ATOM     40  C   UNL A   1      31.748  28.821  27.413  1.00  0.00    -0.062 A 
ATOM     41  H   UNL A   1      31.001  26.999  26.658  1.00  0.00     0.063 H 
ATOM     42  C   UNL A   1      32.826  29.704  27.412  1.00  0.00    -0.062 A 
ATOM     43  H   UNL A   1      34.760  30.072  26.656  1.00  0.00     0.062 H 
ATOM     44  H   UNL A   1      30.909  29.033  27.976  1.00  0.00     0.062 H 
ATOM     45  H   UNL A   1      32.785  30.569  27.973  1.00  0.00     0.062 H 
ENDBRANCH  23  35
ENDBRANCH  17  19
ENDBRANCH  14  17
ENDBRANCH  12  14
ENDBRANCH   7  10
ENDBRANCH   4   7
ENDBRANCH   1   4
BRANCH   1  46
ATOM     46  C   UNL A   1      41.238  21.166  27.186  1.00  0.00    -0.052 C 
ATOM     47  H   UNL A   1      40.447  20.888  27.851  1.00  0.00     0.027 H 
ATOM     48  H   UNL A   1      42.155  21.403  27.686  1.00  0.00     0.027 H 
BRANCH  46  49
ATOM     49  C   UNL A   1      41.545  19.966  26.289  1.00  0.00    -0.036 C 
ATOM     50  H   UNL A   1      41.524  20.299  25.271  1.00  0.00     0.028 H 
ATOM     51  H   UNL A   1      40.802  19.230  26.511  1.00  0.00     0.028 H 
BRANCH  49  52
ATOM     52  C   UNL A   1      42.894  19.298  26.539  1.00  0.00     0.018 C 
ATOM     53  H   UNL A   1      42.740  18.432  27.150  1.00  0.00     0.049 H 
ATOM     54  H   UNL A   1      43.527  20.014  27.021  1.00  0.00     0.049 H 
BRANCH  52  55
ATOM     55  N   UNL A   1      43.553  18.886  25.307  1.00  0.00    -0.352 N 
ATOM     56  C   UNL A   1      44.316  19.620  24.431  1.00  0.00     0.251 C 
ATOM     57  H   UNL A   1      43.433  17.940  25.065  1.00  0.00     0.163 HD
ATOM     58  O   UNL A   1      44.652  19.138  23.352  1.00  0.00    -0.269 OA
BRANCH  56  59
ATOM     59  C   UNL A   1      44.710  21.005  24.769  1.00  0.00     0.039 A 
ATOM     60  C   UNL A   1      44.348  22.039  23.901  1.00  0.00    -0.049 A 
ATOM     61  C   UNL A   1      45.426  21.287  25.935  1.00  0.00    -0.049 A 
ATOM     62  C   UNL A   1      44.628  23.363  24.246  1.00  0.00    -0.053 A 
ATOM     63  H   UNL A   1      43.876  21.825  23.008  1.00  0.00     0.063 H 
ATOM     64  C   UNL A   1      45.639  22.611  26.312  1.00  0.00    -0.053 A 
ATOM     65  H   UNL A   1      45.795  20.517  26.514  1.00  0.00     0.063 H 
ATOM     66  C   UNL A   1      45.231  23.663  25.478  1.00  0.00    -0.014 A 
ATOM     67  H   UNL A   1      44.390  24.125  23.591  1.00  0.00     0.063 H 
ATOM     68  H   UNL A   1      46.101  22.819  27.212  1.00  0.00     0.063 H 
BRANCH  66  69
ATOM     69  C   UNL A   1      45.400  25.069  25.930  1.00  0.00     0.031 A 
ATOM     70  C   UNL A   1      46.752  25.721  25.916  1.00  0.00     0.074 A 
ATOM     71  C   UNL A   1      44.340  25.731  26.434  1.00  0.00     0.049 A 
ATOM     72  N   UNL A   1      47.105  26.906  26.347  1.00  0.00    -0.248 NA
ATOM     73  C   UNL A   1      47.860  24.926  25.367  1.00  0.00    -0.034 C 
ATOM     74  C   UNL A   1      42.987  25.188  26.553  1.00  0.00    -0.036 A 
ATOM     75  N   UNL A   1      44.239  26.996  26.959  1.00  0.00    -0.354 N 
ATOM     76  C   UNL A   1      48.473  26.997  26.126  1.00  0.00     0.074 A 
ATOM     77  C   UNL A   1      48.895  25.725  25.580  1.00  0.00    -0.034 C 
ATOM     78  H   UNL A   1      47.838  23.991  24.931  1.00  0.00     0.065 H 
ATOM     79  C   UNL A   1      42.189  26.115  27.106  1.00  0.00    -0.036 A 
ATOM     80  H   UNL A   1      42.692  24.244  26.259  1.00  0.00     0.065 H 
ATOM     81  C   UNL A   1      42.981  27.299  27.422  1.00  0.00     0.049 A 
ATOM     82  H   UNL A   1      44.995  27.625  27.001  1.00  0.00     0.167 HD
ATOM     83  C   UNL A   1      49.296  28.053  26.338  1.00  0.00     0.037 A 
ATOM     84  H   UNL A   1      49.877  25.472  25.381  1.00  0.00     0.065 H 
ATOM     85  H   UNL A   1      41.177  26.007  27.280  1.00  0.00     0.065 H 
ATOM     86  C   UNL A   1      42.521  28.397  28.051  1.00  0.00     0.037 A 
ATOM     87  C   UNL A   1      48.870  29.316  26.885  1.00  0.00     0.049 A 
ATOM     88  C   UNL A   1      43.459  29.547  28.306  1.00  0.00     0.074 A 
ATOM     89  C   UNL A   1      49.614  30.465  27.087  1.00  0.00    -0.036 A 
ATOM     90  N   UNL A   1      47.584  29.590  27.331  1.00  0.00    -0.354 N 
ATOM     91  N   UNL A   1      44.733  29.651  28.020  1.00  0.00    -0.248 NA
ATOM     92  C   UNL A   1      42.892  30.731  28.965  1.00  0.00    -0.034 C 
ATOM     93  C   UNL A   1      48.797  31.413  27.713  1.00  0.00    -0.036 A 
ATOM     94  H   UNL A   1      50.602  30.599  26.822  1.00  0.00     0.065 H 
ATOM     95  C   UNL A   1      47.524  30.878  27.843  1.00  0.00     0.049 A 
ATOM     96  H   UNL A   1      46.826  28.964  27.291  1.00  0.00     0.167 HD
ATOM     97  C   UNL A   1      45.119  30.914  28.447  1.00  0.00     0.074 A 
ATOM     98  C   UNL A   1      43.935  31.548  28.992  1.00  0.00    -0.034 C 
ATOM     99  H   UNL A   1      41.933  30.885  29.314  1.00  0.00     0.065 H 
ATOM    100  H   UNL A   1      49.092  32.351  28.025  1.00  0.00     0.065 H 
ATOM    101  C   UNL A   1      46.343  31.496  28.393  1.00  0.00     0.037 A 
ATOM    102  H   UNL A   1      43.908  32.514  29.356  1.00  0.00     0.065 H 
BRANCH  83 103
ATOM    103  C   UNL A   1      50.747  27.878  25.983  1.00  0.00     0.064 A 
ATOM    104  C   UNL A   1      51.709  27.555  26.953  1.00  0.00     0.173 A 
ATOM    105  C   UNL A   1      51.180  28.019  24.656  1.00  0.00     0.173 A 
ATOM    106  F   UNL A   1      51.353  27.415  28.238  1.00  0.00    -0.203 F 
ATOM    107  C   UNL A   1      53.055  27.427  26.616  1.00  0.00     0.198 A 
ATOM    108  C   UNL A   1      52.520  27.854  24.316  1.00  0.00     0.198 A 
ATOM    109  F   UNL A   1      50.303  28.316  23.685  1.00  0.00    -0.203 F 
ATOM    110  F   UNL A   1      53.963  27.185  27.570  1.00  0.00    -0.200 F 
ATOM    111  C   UNL A   1      53.458  27.571  25.297  1.00  0.00     0.200 A 
ATOM    112  F   UNL A   1      52.906  27.977  23.038  1.00  0.00    -0.200 F 
ATOM    113  F   UNL A   1      54.752  27.447  24.973  1.00  0.00    -0.200 F 
ENDBRANCH  83 103
BRANCH  86 114
ATOM    114  C   UNL A   1      41.100  28.453  28.482  1.00  0.00     0.064 A 
ATOM    115  C   UNL A   1      40.711  28.018  29.756  1.00  0.00     0.173 A 
ATOM    116  C   UNL A   1      40.104  28.964  27.636  1.00  0.00     0.173 A 
ATOM    117  F   UNL A   1      41.624  27.503  30.594  1.00  0.00    -0.203 F 
ATOM    118  C   UNL A   1      39.380  28.081  30.163  1.00  0.00     0.198 A 
ATOM    119  C   UNL A   1      38.779  29.056  28.055  1.00  0.00     0.198 A 
ATOM    120  F   UNL A   1      40.424  29.399  26.408  1.00  0.00    -0.203 F 
ATOM    121  F   UNL A   1      39.030  27.624  31.374  1.00  0.00    -0.200 F 
ATOM    122  C   UNL A   1      38.417  28.609  29.316  1.00  0.00     0.200 A 
ATOM    123  F   UNL A   1      37.856  29.584  27.240  1.00  0.00    -0.200 F 
ATOM    124  F   UNL A   1      37.139  28.682  29.714  1.00  0.00    -0.200 F 
ENDBRANCH  86 114
BRANCH 101 125
ATOM    125  C   UNL A   1      46.465  32.896  28.925  1.00  0.00     0.064 A 
ATOM    126  C   UNL A   1      46.828  33.149  30.256  1.00  0.00     0.173 A 
ATOM    127  C   UNL A   1      46.261  33.998  28.080  1.00  0.00     0.173 A 
ATOM    128  F   UNL A   1      47.019  32.132  31.109  1.00  0.00    -0.203 F 
ATOM    129  C   UNL A   1      46.959  34.453  30.727  1.00  0.00     0.198 A 
ATOM    130  C   UNL A   1      46.425  35.300  28.546  1.00  0.00     0.198 A 
ATOM    131  F   UNL A   1      45.917  33.813  26.797  1.00  0.00    -0.203 F 
ATOM    132  F   UNL A   1      47.258  34.671  32.015  1.00  0.00    -0.200 F 
ATOM    133  C   UNL A   1      46.766  35.527  29.870  1.00  0.00     0.200 A 
ATOM    134  F   UNL A   1      46.252  36.335  27.712  1.00  0.00    -0.200 F 
ATOM    135  F   UNL A   1      46.903  36.780  30.323  1.00  0.00    -0.200 F 
ENDBRANCH 101 125
ENDBRANCH  66  69
ENDBRANCH  56  59
ENDBRANCH  52  55
ENDBRANCH  49  52
ENDBRANCH  46  49
ENDBRANCH   1  46
TORSDOF 17
ENDMDL
